#------------------------------------------------------------------------------
#$Date: 2017-05-05 00:57:27 +0300 (Fri, 05 May 2017) $
#$Revision: 196178 $
#$URL: file:///home/coder/svn-repositories/cod/cif/1/54/57/1545746.cif $
#------------------------------------------------------------------------------
#
# This file is available in the Crystallography Open Database (COD),
# http://www.crystallography.net/
#
# All data on this site have been placed in the public domain by the
# contributors.
#
data_1545746
loop_
_publ_author_name
'Maiti, Saikat'
'Achar, Tapas Kumar'
'Mal, Prasenjit'
_publ_section_title
;
 An Organic Intermolecular Dehydrogenative Annulation Reaction.
;
_journal_issue                   8
_journal_name_full               'Organic letters'
_journal_page_first              2006
_journal_page_last               2009
_journal_paper_doi               10.1021/acs.orglett.7b00562
_journal_volume                  19
_journal_year                    2017
_chemical_formula_moiety         'C19 H13 Br N2 O5 S'
_chemical_formula_sum            'C19 H13 Br N2 O5 S'
_chemical_formula_weight         461.28
_space_group_crystal_system      triclinic
_space_group_IT_number           2
_space_group_name_Hall           '-P 1'
_space_group_name_H-M_alt        'P -1'
_symmetry_space_group_name_Hall  '-P 1'
_symmetry_space_group_name_H-M   'P -1'
_atom_sites_solution_hydrogens   geom
_audit_creation_date             2016-01-18
_audit_creation_method
;
Olex2 1.2-beta
(compiled 2015.11.10 svn.r3248 for OlexSys, GUI svn.r5133)
;
_cell_angle_alpha                103.152(9)
_cell_angle_beta                 108.554(9)
_cell_angle_gamma                99.041(9)
_cell_formula_units_Z            4
_cell_length_a                   10.752(2)
_cell_length_b                   12.403(2)
_cell_length_c                   14.821(2)
_cell_measurement_reflns_used    3168
_cell_measurement_temperature    100
_cell_measurement_theta_max      24.78
_cell_measurement_theta_min      2.66
_cell_volume                     1767.3(5)
_computing_cell_refinement       'SAINT v7.68A (Bruker, 2009)'
_computing_data_reduction        'SAINT v7.68A (Bruker, 2009)'
_computing_molecular_graphics    'Olex2 (Dolomanov et al., 2009)'
_computing_publication_material  'Olex2 (Dolomanov et al., 2009)'
_computing_structure_refinement  'ShelXL (Sheldrick, 2015)'
_computing_structure_solution    'SIR2004 (Burla et al., 2007)'
_diffrn_ambient_temperature      100
_diffrn_measured_fraction_theta_full 0.995
_diffrn_measured_fraction_theta_max 0.995
_diffrn_measurement_device_type  'Bruker APEX-II CCD'
_diffrn_measurement_method       '\f and \w scans'
_diffrn_radiation_monochromator  graphite
_diffrn_radiation_type           MoK\a
_diffrn_radiation_wavelength     0.71073
_diffrn_reflns_av_R_equivalents  0.0482
_diffrn_reflns_av_unetI/netI     0.0782
_diffrn_reflns_Laue_measured_fraction_full 0.995
_diffrn_reflns_Laue_measured_fraction_max 0.995
_diffrn_reflns_limit_h_max       12
_diffrn_reflns_limit_h_min       -12
_diffrn_reflns_limit_k_max       14
_diffrn_reflns_limit_k_min       -14
_diffrn_reflns_limit_l_max       17
_diffrn_reflns_limit_l_min       -17
_diffrn_reflns_number            17141
_diffrn_reflns_point_group_measured_fraction_full 0.995
_diffrn_reflns_point_group_measured_fraction_max 0.995
_diffrn_reflns_theta_full        25.340
_diffrn_reflns_theta_max         25.340
_diffrn_reflns_theta_min         1.517
_diffrn_standards_number         0
_exptl_absorpt_coefficient_mu    2.481
_exptl_absorpt_correction_T_max  0.7452
_exptl_absorpt_correction_T_min  0.5918
_exptl_absorpt_correction_type   multi-scan
_exptl_absorpt_process_details
;
SADABS-2008/1 (Bruker,2008) was used for absorption correction.
wR2(int) was 0.0790 before and 0.0514 after correction.
The Ratio of minimum to maximum transmission is 0.7941.
The \l/2 correction factor is 0.0015.
;
_exptl_crystal_colour            colourless
_exptl_crystal_colour_primary    colourless
_exptl_crystal_density_diffrn    1.734
_exptl_crystal_description       needle
_exptl_crystal_F_000             928
_exptl_crystal_size_max          0.22
_exptl_crystal_size_mid          0.15
_exptl_crystal_size_min          0.11
_refine_diff_density_max         0.724
_refine_diff_density_min         -0.482
_refine_diff_density_rms         0.097
_refine_ls_extinction_method     none
_refine_ls_goodness_of_fit_ref   1.049
_refine_ls_hydrogen_treatment    constr
_refine_ls_matrix_type           full
_refine_ls_number_parameters     507
_refine_ls_number_reflns         6431
_refine_ls_number_restraints     0
_refine_ls_restrained_S_all      1.049
_refine_ls_R_factor_all          0.0882
_refine_ls_R_factor_gt           0.0480
_refine_ls_shift/su_max          0.001
_refine_ls_shift/su_mean         0.000
_refine_ls_structure_factor_coef Fsqd
_refine_ls_weighting_details
'w=1/[\s^2^(Fo^2^)+(0.0543P)^2^] where P=(Fo^2^+2Fc^2^)/3'
_refine_ls_weighting_scheme      calc
_refine_ls_wR_factor_gt          0.1020
_refine_ls_wR_factor_ref         0.1236
_reflns_Friedel_coverage         0.000
_reflns_number_gt                4208
_reflns_number_total             6431
_reflns_threshold_expression     'I > 2\s(I)'
_cod_data_source_file            ol7b00562_si_001.cif
_cod_data_source_block           pmal_sm_2_217_0m
_cod_depositor_comments
'Adding full bibliography for 1545745--1545747.cif.'
_cod_original_cell_volume        1767.4(6)
_cod_database_code               1545746
_shelx_space_group_comment
;
The symmetry employed for this shelxl refinement is uniquely defined
by the following loop, which should always be used as a source of
symmetry information in preference to the above space-group names.
They are only intended as comments.
;
_olex2_refinement_description
;
1. Fixed Uiso
 At 1.2 times of:
  All C(H) groups
 At 1.5 times of:
  All C(H,H,H) groups
2.a Aromatic/amide H refined with riding coordinates:
 C12E(H12E), C2BP(H2BP), C2GS(H2GS), C4EN(H4EN), C8VK(H8VK), C8NN(H8NN),
 C02(H02), C03(H03), C06(H06), C08(H08), C1SE(H1SE), C1CK(H1CK), C2GK(H2GK),
 C2UT(H2UT), C4UO(H4UO), C4QQ(H4QQ), C7TK(H7TK), C37E(H37E), C38E(H38E),
 C39E(H39E)
2.b Idealised Me refined as rotating group:
 C05(H05A,H05B,H05C), C8ON(H8OA,H8OB,H8OC)
;
_shelx_res_file
;
    pmal_sm_2_217_0m.res created by SHELXL-2014/7

TITL PMAL_SM_2_217_0m in P-1
CELL 0.71073 10.7524 12.4033 14.8212 103.152 108.554 99.041
ZERR 4 0.002 0.0023 0.0023 0.009 0.009 0.009
LATT 1
SFAC C H Br N O S
UNIT 76 52 4 8 20 4

L.S. 12
PLAN  -14 0 0
TEMP -173.15
BOND $H
MORE -1
CONF
fmap 2
acta 52
REM <olex2.extras>
REM <HklSrc "%.\\PMAL_SM_2_217_0m.hkl">
REM </olex2.extras>

WGHT    0.054300
FVAR       0.06053
S00   6    0.671896    0.198460    0.116123    11.00000    0.03444    0.02068 =
         0.02370    0.01003    0.01111    0.00968
BR1   3    1.032904    0.739932    0.111599    11.00000    0.03899    0.03267 =
         0.03524    0.01380    0.01626    0.00134
BR2   3    0.498092    0.254762    0.391669    11.00000    0.04029    0.03380 =
         0.03967    0.01299    0.01524    0.00187
N00E  4    0.881272    0.650843    0.370817    11.00000    0.02806    0.01958 =
         0.02423    0.00664    0.01179    0.01088
N01E  4    0.664504    0.333056    0.131058    11.00000    0.02643    0.01989 =
         0.02340    0.00821    0.01182    0.00770
O10E  5    1.194598    1.059833    0.862132    11.00000    0.03608    0.03534 =
         0.03397    0.00153    0.00733    0.00456
O11E  5    0.622615    0.004743   -0.353159    11.00000    0.04515    0.03992 =
         0.03481    0.00995    0.02363    0.01199
O1AA  5    0.567401    0.144436    0.142693    11.00000    0.04097    0.02480 =
         0.03711    0.01774    0.02247    0.00764
O0AA  5    0.980104    0.830757    0.346411    11.00000    0.04095    0.03097 =
         0.02897    0.01828    0.01789    0.01555
C12E  1    0.657967    0.578503    0.387632    11.00000    0.03037    0.02444 =
         0.02481    0.00933    0.00723    0.01534
AFIX  43
H12E  2    0.630833    0.648051    0.389899    11.00000   -1.20000
AFIX   0

O13E  5    0.211669    0.356578    0.139529    11.00000    0.02737    0.03203 =
         0.04775    0.01644    0.01693    0.00750
C0WU  1    1.199655    0.575680    0.356869    11.00000    0.02575    0.02925 =
         0.02118    0.01054    0.01093    0.01075
N1MB  4    0.533006    0.024343   -0.322663    11.00000    0.04031    0.02432 =
         0.02894    0.00684    0.00902    0.00713
C2BP  1    0.845891    0.867830    0.557223    11.00000    0.02561    0.03102 =
         0.02919    0.01027    0.00724    0.00730
AFIX  43
H2BP  2    0.751641    0.847199    0.518658    11.00000   -1.20000
AFIX   0
C2GS  1    0.891510    0.915302    0.658932    11.00000    0.03405    0.03011 =
         0.03353    0.00660    0.02120    0.01069
AFIX  43
H2GS  2    0.829586    0.926714    0.691657    11.00000   -1.20000
AFIX   0

C3AH  1    0.714443    0.516339    0.124063    11.00000    0.03013    0.02302 =
         0.01544    0.00648    0.00767    0.00824
C4EN  1    0.738667    0.373200    0.381798    11.00000    0.03236    0.01978 =
         0.02182    0.00720    0.00943    0.01047
AFIX  43
H4EN  2    0.764334    0.302977    0.378789    11.00000   -1.20000
AFIX   0

C6JK  1    0.550126    0.378563    0.131169    11.00000    0.02894    0.02978 =
         0.01490    0.00847    0.00969    0.01114
C8VK  1    1.165638    0.462676    0.359584    11.00000    0.02733    0.02918 =
         0.02400    0.00969    0.00806    0.01784
AFIX  43
H8VK  2    1.227035    0.415983    0.356007    11.00000   -1.20000
AFIX   0

C8NN  1    0.963756    0.509040    0.109826    11.00000    0.02240    0.03621 =
         0.02463    0.01041    0.01111    0.00865
AFIX  43
H8NN  2    1.049083    0.508046    0.104031    11.00000   -1.20000
AFIX   0
C00   1    0.566892    0.065130   -0.213631    11.00000    0.02978    0.01578 =
         0.02150    0.00600    0.01125    0.00085

C01   1    0.937225    0.850384    0.511654    11.00000    0.03076    0.01827 =
         0.02381    0.00999    0.01017    0.00908
C02   1    1.076173    0.880910    0.566680    11.00000    0.02654    0.01915 =
         0.02834    0.00825    0.01258    0.00919
AFIX  43
H02   2    1.138284    0.867953    0.534417    11.00000   -1.20000
AFIX   0

C03   1    0.478296    0.114570   -0.179713    11.00000    0.02496    0.01735 =
         0.03076    0.01087    0.00571    0.00570
AFIX  43
H03   2    0.397161    0.122099   -0.225058    11.00000   -1.20000
AFIX   0

C04   1    1.029368    0.945964    0.712327    11.00000    0.02973    0.01956 =
         0.02225    0.00642    0.00860    0.01037
C05   1    0.174038    0.240302    0.139066    11.00000    0.03402    0.03770 =
         0.05587    0.02577    0.02059    0.00548
AFIX 137
H05A  2    0.173075    0.189033    0.077702    11.00000   -1.50000
H05B  2    0.083660    0.224184    0.142369    11.00000   -1.50000
H05C  2    0.239648    0.228180    0.196810    11.00000   -1.50000
AFIX   0

C06   1    1.122669    0.930423    0.669095    11.00000    0.02626    0.02013 =
         0.03051    0.00807    0.00858    0.00764
AFIX  43
H06   2    1.216838    0.952904    0.708086    11.00000   -1.20000
AFIX   0
N07   4    1.077695    1.002070    0.820902    11.00000    0.03993    0.02133 =
         0.02845    0.00473    0.01088    0.01004

C08   1    0.685210    0.051141   -0.150918    11.00000    0.02501    0.02332 =
         0.02801    0.00690    0.01152    0.00505
AFIX  43
H08   2    0.743208    0.015084   -0.177123    11.00000   -1.20000
AFIX   0

C0UA  1    0.779391    0.569477    0.378957    11.00000    0.02778    0.01694 =
         0.02272    0.00791    0.00926    0.00610
C0LV  1    0.336489    0.394038    0.135468    11.00000    0.02367    0.03093 =
         0.02641    0.01034    0.01056    0.00552
C1SE  1    0.886470    0.412161    0.114742    11.00000    0.03202    0.02248 =
         0.01663    0.00518    0.00855    0.00524
AFIX  43
H1SE  2    0.917314    0.344265    0.112599    11.00000   -1.20000
AFIX   0
C1CK  1    0.428264    0.326856    0.134640    11.00000    0.03219    0.02446 =
         0.02743    0.01265    0.01073    0.01046
AFIX  43
H1CK  2    0.408748    0.250104    0.136348    11.00000   -1.20000
AFIX   0

C2GK  1    0.575664    0.484334    0.393024    11.00000    0.02556    0.03362 =
         0.02253    0.01051    0.00494    0.01315
AFIX  43
H2GK  2    0.491184    0.488723    0.399186    11.00000   -1.20000
AFIX   0

C2UT  1    0.366056    0.507919    0.134307    11.00000    0.02656    0.02765 =
         0.02793    0.00828    0.01032    0.01232
AFIX  43
H2UT  2    0.301445    0.551776    0.135907    11.00000   -1.20000
AFIX   0

C4TO  1    0.617151    0.383420    0.389385    11.00000    0.03086    0.02733 =
         0.02216    0.00742    0.00922    0.00579
C4UO  1    0.717534    0.090455   -0.049661    11.00000    0.02377    0.02586 =
         0.03033    0.01054    0.00973    0.00730
AFIX  43
H4UO  2    0.798535    0.082200   -0.004727    11.00000   -1.20000
AFIX   0
C4QQ  1    0.509797    0.152984   -0.078438    11.00000    0.02601    0.01818 =
         0.03216    0.00623    0.01056    0.00490
AFIX  43
H4QQ  2    0.449825    0.186496   -0.052716    11.00000   -1.20000
AFIX   0
C5QF  1    0.917991    0.607869    0.113270    11.00000    0.03004    0.02914 =
         0.01974    0.01005    0.01275    0.00412

C7TK  1    1.046365    0.418720    0.367244    11.00000    0.02991    0.01948 =
         0.02474    0.01169    0.00596    0.00907
AFIX  43
H7TK  2    1.024755    0.342398    0.369608    11.00000   -1.20000
AFIX   0
C8ON  1    1.357756    0.721347    0.340025    11.00000    0.03504    0.04957 =
         0.05283    0.03099    0.01842    0.01620
AFIX 137
H8OA  2    1.287705    0.729780    0.282576    11.00000   -1.50000
H8OB  2    1.444792    0.733307    0.331026    11.00000   -1.50000
H8OC  2    1.365221    0.777989    0.400835    11.00000   -1.50000
AFIX   0

C8IQ  1    0.630485    0.142148   -0.014209    11.00000    0.02545    0.01472 =
         0.02749    0.00756    0.01077    0.00319
O30E  5    0.999645    0.987345    0.863942    11.00000    0.04712    0.03286 =
         0.02873    0.00702    0.02257    0.00717
C31E  1    0.581368    0.491198    0.128689    11.00000    0.02462    0.02294 =
         0.01828    0.00703    0.01004    0.00698
C32E  1    0.956159    0.488120    0.371572    11.00000    0.02443    0.02062 =
         0.01794    0.00697    0.00890    0.01065
C33E  1    0.823587    0.467880    0.378601    11.00000    0.02827    0.02580 =
         0.01336    0.00512    0.00333    0.01132
C34E  1    0.762953    0.416975    0.122870    11.00000    0.02288    0.02411 =
         0.01568    0.00730    0.00672    0.00455
C35E  1    0.991590    0.599971    0.368648    11.00000    0.02563    0.02343 =
         0.01768    0.00660    0.00561    0.00974
O36E  5    0.415417    0.011933   -0.377228    11.00000    0.04529    0.05674 =
         0.02697    0.00494    0.00170    0.02274
C37E  1    0.794978    0.613971    0.120623    11.00000    0.03236    0.02595 =
         0.01880    0.00915    0.00747    0.01075
AFIX  43
H37E  2    0.765643    0.682593    0.123285    11.00000   -1.20000
AFIX   0

C38E  1    1.112469    0.647144    0.361320    11.00000    0.03261    0.02575 =
         0.02068    0.00947    0.00974    0.00936
AFIX  43
H38E  2    1.134541    0.723629    0.359444    11.00000   -1.20000
AFIX   0

C39E  1    0.486458    0.555823    0.130909    11.00000    0.02673    0.02160 =
         0.02514    0.01032    0.00510    0.00855
AFIX  43
H39E  2    0.506030    0.632902    0.130048    11.00000   -1.20000
AFIX   0

S1    6    0.880887    0.785850    0.381827    11.00000    0.03202    0.02218 =
         0.02341    0.01150    0.00923    0.01217
O2    5    0.743615    0.789771    0.338809    11.00000    0.03341    0.02513 =
         0.03188    0.00931    0.00625    0.01538
O2AA  5    1.322125    0.609088    0.348241    11.00000    0.03288    0.03938 =
         0.04236    0.01924    0.01785    0.01615
O1    5    0.809015    0.198293    0.164924    11.00000    0.03220    0.02937 =
         0.02999    0.01036    0.00562    0.01236
HKLF 4

REM  PMAL_SM_2_217_0m in P-1
REM R1 =  0.0480 for    4208 Fo > 4sig(Fo)  and  0.0882 for all    6431 data
REM    507 parameters refined using      0 restraints

END

WGHT      0.0543      0.0000

REM Highest difference peak  0.724,  deepest hole -0.482,  1-sigma level  0.097
Q1    1   0.5807  0.2393  0.3793  11.00000  0.05    0.72
Q2    1   0.4419  0.2339  0.3275  11.00000  0.05    0.58
Q3    1   0.9472  0.7480  0.1199  11.00000  0.05    0.58
Q4    1   0.2772  0.6259  0.1364  11.00000  0.05    0.54
Q5    1   0.7907  0.8048  0.3980  11.00000  0.05    0.45
Q6    1   1.2637  0.3603  0.3524  11.00000  0.05    0.44
Q7    1   0.6220  0.1849  0.1559  11.00000  0.05    0.44
Q8    1   0.7643  0.1938  0.1109  11.00000  0.05    0.42
Q9    1   1.0964  0.7539  0.1777  11.00000  0.05    0.42
Q10   1   0.5645  0.0060 -0.4085  11.00000  0.05    0.40
Q11   1   0.8805  0.1887  0.1384  11.00000  0.05    0.38
Q12   1   1.1007  0.6995  0.1596  11.00000  0.05    0.38
Q13   1   0.9082  0.8260  0.4532  11.00000  0.05    0.37
Q14   1   1.0043  0.8872  0.5127  11.00000  0.05    0.37
;
_shelx_res_checksum              97040
_shelx_hkl_file
;
   1   0   0    0.86    0.07
  -2   0   0   55.21    2.27
  -2   0   0   59.89    2.32
  -2   0   0   58.96    2.26
   2   0   0   54.29    2.26
   2   0   0   57.64    2.31
  -3   0   0    0.07    0.08
  -3   0   0    0.03    0.10
  -3   0   0    0.04    0.09
   3   0   0    0.06    0.09
   3   0   0   -0.03    0.07
  -4   0   0   11.25    0.55
  -4   0   0   10.44    0.57
  -4   0   0   10.59    0.53
   4   0   0   10.50    0.56
   4   0   0   10.06    0.52
  -5   0   0    0.38    0.18
  -5   0   0    0.78    0.18
   5   0   0    0.55    0.14
   5   0   0    0.56    0.17
  -6   0   0   13.52    0.70
   6   0   0   12.49    0.72
   6   0   0   13.39    0.68
  -7   0   0    4.22    0.40
   7   0   0    3.83    0.37
   7   0   0    4.21    0.41
  -8   0   0    0.56    0.27
  -8   0   0    0.84    0.30
   8   0   0    1.27    0.31
  -9   0   0    0.26    0.29
  -9   0   0    0.04    0.28
   9   0   0   -0.08    0.26
 -10   0   0    0.56    0.35
 -10   0   0    0.30    0.33
 -11   0   0    2.59    0.47
 -11   0   0    1.86    0.46
 -12   1   0   -0.09    0.39
 -12   1   0    1.03    0.40
 -11   1   0    0.19    0.34
 -11   1   0   -0.08    0.33
 -10   1   0    0.30    0.31
 -10   1   0    0.33    0.33
   9  -1   0    0.29    0.28
  -9   1   0    0.17    0.28
  -9   1   0    0.63    0.30
   8  -1   0    0.75    0.27
  -8   1   0    0.52    0.25
  -8   1   0    0.81    0.28
   7  -1   0    3.74    0.41
   7  -1   0    4.11    0.37
  -7   1   0    3.61    0.37
  -7   1   0    3.67    0.38
   6  -1   0    5.61    0.39
   6  -1   0    5.54    0.45
  -6   1   0    5.36    0.41
   5  -1   0    2.07    0.26
   5  -1   0    1.78    0.22
  -5   1   0    2.07    0.23
   4  -1   0   16.66    0.79
   4  -1   0   18.68    0.83
  -4   1   0   17.83    0.80
  -4   1   0   17.32    0.78
   3  -1   0    3.97    0.25
   3  -1   0    4.32    0.28
  -3   1   0    3.94    0.24
  -3   1   0    4.34    0.26
   2  -1   0   73.56    3.00
  -2   1   0   76.83    2.99
  -2   1   0   78.40    3.00
  -1   1   0    1.97    0.11
   0   1   0    0.01    0.01
  -1  -1   0    1.32    0.11
  -1  -1   0    1.27    0.10
  -1  -1   0    1.37    0.11
   1   1   0    1.54    0.11
   1   1   0    1.44    0.11
  -2  -1   0    3.79    0.20
  -2  -1   0    4.22    0.25
  -2  -1   0    3.69    0.25
  -2  -1   0    4.30    0.24
  -2  -1   0    4.16    0.23
   2   1   0    4.77    0.26
   2   1   0    4.24    0.23
  -3  -1   0    1.27    0.11
  -3  -1   0    1.19    0.17
  -3  -1   0    1.16    0.11
  -3  -1   0    1.07    0.14
  -3  -1   0    1.07    0.14
   3   1   0    1.09    0.15
   3   1   0    1.32    0.14
  -4  -1   0    7.82    0.47
  -4  -1   0    8.24    0.44
   4   1   0    8.37    0.47
   4   1   0    7.55    0.42
  -5  -1   0    0.15    0.15
   5   1   0   -0.12    0.14
   5   1   0    0.19    0.13
  -6  -1   0    2.56    0.30
   6   1   0    3.03    0.34
   6   1   0    3.40    0.31
  -7  -1   0   12.19    0.72
   7   1   0   13.04    0.75
  -8  -1   0    1.35    0.34
  -8  -1   0    0.90    0.30
   8   1   0    1.54    0.32
  -9  -1   0   -0.15    0.28
  -9  -1   0   -0.20    0.30
 -10  -1   0    1.15    0.38
 -10  -1   0    1.19    0.40
 -11  -1   0    0.24    0.39
 -11  -1   0   -0.30    0.35
 -12   2   0   -0.12    0.40
 -12   2   0    0.82    0.39
 -11   2   0    3.81    0.52
 -11   2   0    3.54    0.49
 -10   2   0    0.05    0.30
 -10   2   0    0.13    0.31
   9  -2   0    2.08    0.40
  -9   2   0    2.20    0.36
  -9   2   0    2.54    0.37
   8  -2   0    2.63    0.37
  -8   2   0    2.18    0.33
  -8   2   0    1.83    0.30
   7  -2   0    0.94    0.26
  -7   2   0    0.53    0.21
  -7   2   0    0.83    0.24
   6  -2   0   16.84    0.87
   6  -2   0   16.53    0.82
  -6   2   0   17.08    0.82
  -6   2   0   16.66    0.82
   5  -2   0   11.68    0.63
   5  -2   0   12.38    0.61
  -5   2   0   12.51    0.60
  -5   2   0   10.88    0.60
   4  -2   0    9.41    0.49
  -4   2   0    9.62    0.47
   3  -2   0    2.69    0.21
  -3   2   0    2.52    0.19
  -3   2   0    3.20    0.21
  -3   2   0    2.78    0.19
   2  -2   0    1.59    0.14
  -2   2   0    1.64    0.14
  -2   2   0    1.72    0.12
  -2   2   0    1.92    0.15
   1  -2   0    0.49    0.07
   1  -2   0    0.40    0.07
   1  -2   0    0.47    0.07
  -1   2   0    0.46    0.07
  -1   2   0    0.45    0.06
  -1   2   0    0.40    0.07
  -1   2   0    0.27    0.04
   0  -2   0    1.16    0.10
   0  -2   0    1.25    0.11
   0  -2   0    1.54    0.11
   0   2   0    1.33    0.11
   0   2   0    1.32    0.11
   0   2   0    1.44    0.11
  -1  -2   0    0.22    0.07
  -1  -2   0    0.13    0.07
  -1  -2   0    0.10    0.06
   1   2   0    0.08    0.06
   1   2   0    0.11    0.07
  -2  -2   0   24.44    1.02
  -2  -2   0   25.17    1.06
  -2  -2   0   23.90    1.05
  -2  -2   0   25.13    1.03
   2   2   0   24.88    1.05
   2   2   0   23.07    1.01
  -3  -2   0    2.14    0.19
  -3  -2   0    1.86    0.13
  -3  -2   0    2.22    0.20
  -3  -2   0    1.77    0.21
   3   2   0    2.10    0.19
   3   2   0    1.96    0.20
  -4  -2   0    8.27    0.43
  -4  -2   0    9.53    0.51
  -4  -2   0    9.80    0.55
  -4  -2   0    9.40    0.51
   4   2   0    9.52    0.53
   4   2   0   10.06    0.50
  -5  -2   0    9.10    0.55
   5   2   0   10.35    0.58
   5   2   0    9.82    0.54
  -6  -2   0    6.86    0.48
   6   2   0    6.15    0.45
   6   2   0    6.02    0.47
  -7  -2   0    4.73    0.45
   7   2   0    5.29    0.49
  -8  -2   0    3.60    0.47
  -8  -2   0    5.15    0.48
   8   2   0    5.03    0.50
  -9  -2   0    0.27    0.30
  -9  -2   0   -0.36    0.30
 -10  -2   0   -0.05    0.32
 -10  -2   0    0.00    0.37
 -11  -2   0    1.23    0.45
 -11  -2   0    1.10    0.41
 -12   3   0   -0.30    0.37
 -11   3   0   -0.37    0.32
 -11   3   0    0.38    0.31
 -10   3   0    1.93    0.35
 -10   3   0    1.57    0.37
   9  -3   0    2.00    0.38
  -9   3   0    1.50    0.32
  -9   3   0    1.64    0.31
   8  -3   0    1.93    0.35
  -8   3   0    1.78    0.31
  -8   3   0    2.12    0.30
   7  -3   0    8.02    0.53
   7  -3   0    8.42    0.58
  -7   3   0    8.77    0.53
  -7   3   0    7.91    0.51
   6  -3   0   14.60    0.79
   6  -3   0   14.47    0.75
  -6   3   0   16.13    0.75
  -6   3   0   14.97    0.74
   5  -3   0    0.82    0.17
  -5   3   0    0.84    0.16
  -5   3   0    1.15    0.16
   4  -3   0    6.07    0.36
  -4   3   0    5.71    0.32
  -4   3   0    6.10    0.35
   3  -3   0    2.09    0.19
  -3   3   0    1.86    0.14
  -3   3   0    1.99    0.18
   2  -3   0    5.26    0.30
   2  -3   0    5.53    0.30
  -2   3   0    5.40    0.29
   1  -3   0    1.16    0.12
   1  -3   0    1.23    0.13
  -1   3   0    1.31    0.13
  -1   3   0    1.05    0.12
  -1   3   0    1.23    0.09
   0  -3   0    0.92    0.12
   0  -3   0    0.80    0.12
   0   3   0    0.61    0.11
   0   3   0    0.57    0.10
  -1  -3   0    0.18    0.09
  -1  -3   0    0.18    0.09
   1   3   0    0.28    0.10
   1   3   0    0.12    0.08
  -2  -3   0    0.72    0.13
  -2  -3   0    0.60    0.13
   2   3   0    0.78    0.14
   2   3   0    0.96    0.13
  -3  -3   0    0.27    0.13
  -3  -3   0    0.31    0.07
  -3  -3   0    0.35    0.15
   3   3   0    0.00    0.11
   3   3   0    0.26    0.12
  -4  -3   0    4.47    0.25
  -4  -3   0    4.79    0.36
   4   3   0    4.68    0.36
   4   3   0    4.57    0.34
  -5  -3   0    0.04    0.17
   5   3   0    0.17    0.17
   5   3   0    0.10    0.15
  -6  -3   0   19.04    0.96
   6   3   0   20.04    0.94
   6   3   0   18.40    0.98
  -7  -3   0    8.74    0.60
   7   3   0    8.43    0.61
  -8  -3   0   -0.34    0.28
  -8  -3   0    0.23    0.28
   8   3   0    0.13    0.25
  -9  -3   0   -0.22    0.30
  -9  -3   0   -0.41    0.31
 -10  -3   0    0.68    0.38
 -10  -3   0    0.17    0.38
 -12   4   0    0.04    0.38
 -11   4   0    1.79    0.41
 -10   4   0    0.26    0.26
 -10   4   0   -0.24    0.28
  -9   4   0   15.95    0.88
  -9   4   0   15.63    0.85
   8  -4   0    0.05    0.23
  -8   4   0   -0.02    0.21
  -8   4   0    0.03    0.19
   7  -4   0    0.01    0.20
   7  -4   0   -0.01    0.17
  -7   4   0    0.02    0.18
  -7   4   0   -0.09    0.15
   6  -4   0    7.27    0.47
  -6   4   0    7.30    0.42
  -6   4   0    7.20    0.46
   5  -4   0    0.76    0.17
  -5   4   0    0.74    0.13
  -5   4   0    0.77    0.17
   4  -4   0    0.22    0.12
  -4   4   0    0.08    0.11
  -4   4   0    0.15    0.08
   3  -4   0    0.42    0.13
   3  -4   0    0.78    0.14
  -3   4   0    0.66    0.13
   2  -4   0   24.09    1.08
   2  -4   0   25.85    1.08
  -2   4   0   24.77    1.09
  -2   4   0   25.86    1.06
   1  -4   0    0.84    0.14
   1  -4   0    1.03    0.14
  -1   4   0    0.88    0.08
  -1   4   0    0.91    0.14
  -1   4   0    0.89    0.13
   0  -4   0   22.72    0.98
   0  -4   0   22.68    0.97
   0   4   0   22.63    0.98
   0   4   0   21.30    0.96
  -1  -4   0    0.17    0.11
  -1  -4   0    0.01    0.11
   1   4   0    0.03    0.10
   1   4   0   -0.01    0.09
  -2  -4   0   61.01    2.48
  -2  -4   0   60.35    2.43
   2   4   0   60.05    2.42
   2   4   0   57.32    2.47
  -3  -4   0    1.55    0.21
  -3  -4   0    2.31    0.25
  -3  -4   0    1.80    0.18
   3   4   0    2.25    0.24
   3   4   0    2.05    0.23
  -4  -4   0   33.66    1.52
  -4  -4   0   36.57    1.54
   4   4   0   35.50    1.58
   4   4   0   36.65    1.53
  -5  -4   0    1.01    0.24
   5   4   0    1.32    0.23
   5   4   0    1.06    0.24
  -6  -4   0    5.61    0.48
   6   4   0    5.75    0.49
  -7  -4   0    0.22    0.26
   7   4   0    0.44    0.26
  -8  -4   0    2.99    0.46
  -8  -4   0    3.71    0.45
  -9  -4   0    0.64    0.36
  -9  -4   0   -0.09    0.34
 -10  -4   0    0.15    0.38
 -10  -4   0    0.16    0.38
 -12   5   0    0.54    0.39
 -11   5   0    0.04    0.33
 -10   5   0    0.78    0.33
   9  -5   0    0.91    0.34
  -9   5   0    1.73    0.28
  -9   5   0    1.48    0.33
   8  -5   0    1.64    0.33
  -8   5   0    2.27    0.33
  -8   5   0    1.71    0.25
   7  -5   0    8.16    0.53
  -7   5   0    7.39    0.51
  -7   5   0    7.51    0.45
   6  -5   0    2.68    0.30
  -6   5   0    2.98    0.24
  -6   5   0    3.08    0.32
   5  -5   0    8.24    0.49
  -5   5   0    7.82    0.39
  -5   5   0    7.49    0.46
   4  -5   0    4.25    0.33
   4  -5   0    4.18    0.33
  -4   5   0    4.18    0.32
   3  -5   0    0.27    0.12
   3  -5   0    0.25    0.12
  -3   5   0    0.33    0.13
   2  -5   0   21.39    0.94
   2  -5   0   22.18    0.95
  -2   5   0   21.02    0.92
  -2   5   0   19.56    0.91
  -2   5   0   21.15    0.96
   1  -5   0    0.55    0.14
   1  -5   0    0.63    0.14
  -1   5   0    0.65    0.15
  -1   5   0    0.37    0.07
   0  -5   0   18.03    0.84
   0  -5   0   18.79    0.84
   0   5   0   18.09    0.83
   0   5   0   18.24    0.85
  -1  -5   0    0.82    0.17
  -1  -5   0    0.54    0.16
   1   5   0    1.15    0.17
   1   5   0    0.92    0.17
  -2  -5   0    0.84    0.19
   2   5   0    0.70    0.16
   2   5   0    0.79    0.17
  -3  -5   0    5.25    0.41
   3   5   0    5.42    0.39
   3   5   0    4.50    0.38
  -4  -5   0    0.34    0.11
  -4  -5   0    0.52    0.20
   4   5   0    0.42    0.19
   4   5   0    0.73    0.20
  -5  -5   0    3.58    0.38
   5   5   0    3.53    0.39
   5   5   0    4.79    0.40
  -6  -5   0    4.08    0.43
   6   5   0    3.66    0.42
  -7  -5   0    1.06    0.32
  -8  -5   0    2.05    0.40
  -8  -5   0    1.77    0.42
  -9  -5   0    3.80    0.55
  -9  -5   0    5.02    0.57
 -10  -5   0    1.56    0.46
 -12   6   0    1.01    0.45
 -11   6   0    3.91    0.53
 -10   6   0    0.42    0.32
  -9   6   0    1.38    0.33
  -8   6   0    1.51    0.30
   7  -6   0    0.00    0.18
  -7   6   0    0.23    0.20
  -7   6   0    0.06    0.13
   6  -6   0    1.80    0.27
  -6   6   0    1.98    0.18
  -6   6   0    1.95    0.27
   5  -6   0   10.50    0.59
  -5   6   0   10.24    0.58
   4  -6   0   20.36    0.96
  -4   6   0   19.85    0.93
   3  -6   0   13.64    0.69
  -3   6   0   13.41    0.67
   2  -6   0    1.46    0.20
   2  -6   0    1.29    0.20
  -2   6   0    1.23    0.19
  -2   6   0    1.40    0.21
  -2   6   0    1.41    0.13
   1  -6   0    0.40    0.16
   1  -6   0    0.31    0.15
  -1   6   0    0.55    0.15
  -1   6   0    0.37    0.15
  -1   6   0    0.40    0.07
   0  -6   0    9.87    0.53
   0  -6   0    8.72    0.52
   0   6   0    8.47    0.51
   0   6   0    8.86    0.50
  -1  -6   0    1.24    0.23
   1   6   0    1.95    0.24
   1   6   0    1.91    0.23
  -2  -6   0   17.86    0.88
   2   6   0   17.86    0.86
   2   6   0   17.33    0.88
  -3  -6   0    0.71    0.23
   3   6   0    0.50    0.18
   3   6   0    0.13    0.18
  -4  -6   0   10.08    0.62
  -4  -6   0    9.92    0.52
   4   6   0    9.21    0.61
   4   6   0    9.95    0.61
  -5  -6   0    0.44    0.26
   5   6   0    0.35    0.24
  -6  -6   0    9.41    0.65
   6   6   0    8.35    0.64
  -7  -6   0    3.53    0.48
  -7  -6   0    3.78    0.47
  -8  -6   0    1.72    0.43
  -8  -6   0    0.91    0.38
  -9  -6   0    0.24    0.39
  -9  -6   0   -0.11    0.36
 -11   7   0    0.27    0.36
 -10   7   0    0.37    0.32
  -9   7   0    1.22    0.32
  -8   7   0    6.85    0.55
   7  -7   0    3.97    0.43
  -7   7   0    4.53    0.42
   6  -7   0    3.23    0.36
  -6   7   0    3.61    0.36
   5  -7   0   14.86    0.78
  -5   7   0   14.18    0.75
   4  -7   0   12.87    0.72
  -4   7   0   14.30    0.71
   3  -7   0    2.32    0.28
  -3   7   0    2.29    0.27
  -3   7   0    1.84    0.27
   2  -7   0   24.85    1.14
  -2   7   0   25.23    1.16
  -2   7   0   24.56    1.08
  -2   7   0   25.37    1.13
   1  -7   0    0.92    0.21
  -1   7   0    0.78    0.10
  -1   7   0    0.66    0.19
  -1   7   0    0.69    0.19
   0  -7   0    0.35    0.20
   0  -7   0    0.48    0.19
   0   7   0    0.42    0.19
   0   7   0    0.74    0.19
  -1  -7   0   -0.04    0.19
   1   7   0   -0.03    0.15
   1   7   0    0.00    0.16
  -2  -7   0    4.47    0.42
   2   7   0    5.84    0.45
   2   7   0    4.10    0.40
  -3  -7   0    0.20    0.22
   3   7   0   -0.05    0.18
   3   7   0    0.31    0.20
  -4  -7   0    0.49    0.26
   4   7   0    0.50    0.23
   4   7   0    0.57    0.23
  -5  -7   0    0.54    0.30
   5   7   0    0.60    0.27
  -6  -7   0   -0.09    0.29
  -7  -7   0    1.23    0.39
  -7  -7   0    0.46    0.34
  -8  -7   0    1.30    0.44
  -8  -7   0    0.51    0.39
 -11   8   0    2.33    0.47
 -10   8   0   -0.08    0.31
  -9   8   0   13.21    0.82
  -8   8   0    0.93    0.32
  -7   8   0    0.06    0.24
   6  -8   0    1.87    0.31
  -6   8   0    1.50    0.30
   5  -8   0    0.87    0.24
  -5   8   0    0.97    0.24
   4  -8   0    8.14    0.54
  -4   8   0    8.00    0.53
   3  -8   0    0.67    0.21
  -3   8   0    0.63    0.22
  -3   8   0    0.72    0.22
   2  -8   0   17.41    0.91
  -2   8   0   18.73    0.94
  -2   8   0   18.63    0.91
   1  -8   0    2.68    0.33
  -1   8   0    3.04    0.33
  -1   8   0    2.66    0.32
   0  -8   0   21.26    1.05
   0  -8   0   21.76    1.05
   0   8   0   21.97    1.03
   0   8   0   19.46    1.03
  -1  -8   0   -0.06    0.20
   1   8   0   -0.03    0.19
   1   8   0   -0.04    0.18
  -2  -8   0   30.43    1.44
   2   8   0   29.90    1.46
   2   8   0   33.60    1.44
  -3  -8   0    0.00    0.24
   3   8   0    0.45    0.23
   3   8   0    0.38    0.23
  -4  -8   0    2.57    0.40
   4   8   0    2.32    0.37
  -5  -8   0   -0.14    0.29
  -6  -8   0   -0.13    0.31
  -6  -8   0    0.15    0.33
  -7  -8   0    1.52    0.42
  -7  -8   0    0.58    0.40
  -8  -8   0    1.92    0.50
 -11   9   0   -0.60    0.34
 -10   9   0   -0.08    0.31
  -9   9   0    0.23    0.31
  -8   9   0   -0.24    0.26
  -7   9   0    0.09    0.25
   6  -9   0    3.60    0.42
  -6   9   0    3.93    0.43
   5  -9   0   10.41    0.67
  -5   9   0    9.96    0.65
   4  -9   0    8.28    0.58
  -4   9   0    8.33    0.57
   3  -9   0   18.27    0.95
  -3   9   0   18.19    0.97
  -3   9   0   18.08    0.93
   2  -9   0    3.09    0.36
  -2   9   0    3.02    0.36
  -2   9   0    3.70    0.39
   1  -9   0    0.02    0.19
  -1   9   0    0.12    0.21
  -1   9   0    0.19    0.21
   0  -9   0    2.28    0.34
   0   9   0    2.04    0.33
   0   9   0    2.25    0.32
  -1  -9   0    0.46    0.28
  -1  -9   0   -0.04    0.22
   1   9   0    0.15    0.23
   1   9   0    0.20    0.23
  -2  -9   0    1.63    0.34
   2   9   0    2.34    0.34
   2   9   0    2.27    0.35
  -3  -9   0    0.10    0.28
   3   9   0    0.47    0.25
   3   9   0    0.37    0.26
  -4  -9   0    0.86    0.35
  -5  -9   0    0.74    0.35
  -5  -9   0    0.57    0.34
  -6  -9   0   -0.01    0.34
  -6  -9   0    0.39    0.36
  -7  -9   0   -0.27    0.36
  -7  -9   0    0.18    0.40
 -10  10   0   -0.16    0.35
  -9  10   0    6.43    0.62
  -8  10   0    0.53    0.32
  -7  10   0    0.67    0.32
   6 -10   0    2.84    0.41
  -6  10   0    2.52    0.41
   5 -10   0    0.37    0.26
   4 -10   0    5.30    0.50
  -4  10   0    4.48    0.46
   3 -10   0   12.46    0.78
  -3  10   0   13.45    0.81
  -3  10   0   13.40    0.77
   2 -10   0    7.42    0.58
  -2  10   0    8.96    0.61
  -2  10   0    8.03    0.61
   1 -10   0    2.03    0.33
  -1  10   0    1.51    0.33
  -1  10   0    1.66    0.32
   0 -10   0    0.97    0.30
   0  10   0    1.47    0.34
   0  10   0    1.03    0.29
  -1 -10   0    0.52    0.28
  -1 -10   0   -0.25    0.23
  -1 -10   0    0.64    0.31
   1  10   0    0.31    0.27
   1  10   0    0.31    0.26
  -2 -10   0    7.85    0.62
  -2 -10   0    5.90    0.59
  -2 -10   0    6.85    0.56
   2  10   0    8.01    0.62
  -3 -10   0   -0.15    0.28
  -3 -10   0    0.65    0.35
  -4 -10   0    6.24    0.62
  -4 -10   0    4.73    0.54
  -5 -10   0   -0.08    0.34
  -5 -10   0   -0.10    0.33
  -6 -10   0    0.85    0.42
  -6 -10   0    0.95    0.43
 -10  11   0    1.09    0.41
  -9  11   0    0.04    0.34
  -8  11   0    1.33    0.37
  -7  11   0    0.92    0.36
  -6  11   0   -0.11    0.29
   5 -11   0    0.29    0.29
  -5  11   0    0.90    0.33
   4 -11   0    2.35    0.39
  -4  11   0    2.59    0.40
   3 -11   0    0.18    0.27
  -3  11   0    0.30    0.29
   2 -11   0    3.40    0.44
  -2  11   0    3.39    0.44
   1 -11   0   -0.23    0.23
  -1  11   0   -0.22    0.26
   0 -11   0    0.21    0.28
   0  11   0    0.03    0.28
  -1 -11   0    0.20    0.28
  -1 -11   0    0.14    0.32
   1  11   0   -0.03    0.28
  -2 -11   0   -0.01    0.30
  -2 -11   0    0.50    0.36
  -3 -11   0   -0.29    0.30
  -3 -11   0    0.03    0.34
  -4 -11   0   -0.23    0.33
  -4 -11   0    0.54    0.38
  -5 -11   0    0.06    0.37
  -5 -11   0    0.20    0.39
  -9  12   0    1.25    0.44
  -8  12   0    0.61    0.37
  -7  12   0    2.43    0.45
  -6  12   0    0.59    0.35
   5 -12   0    0.36    0.31
  -5  12   0    0.28    0.33
   4 -12   0    0.98    0.34
  -4  12   0    0.47    0.33
   3 -12   0    0.23    0.30
  -3  12   0   -0.23    0.30
   2 -12   0    3.18    0.45
  -2  12   0    3.84    0.48
   1 -12   0    0.50    0.32
  -1  12   0   -0.06    0.30
   0 -12   0    2.05    0.40
   0  12   0    3.07    0.47
  -1 -12   0    0.02    0.31
  -2 -12   0    9.37    0.76
  -2 -12   0    9.13    0.79
  -3 -12   0   -0.17    0.33
  -3 -12   0    0.30    0.41
  -4 -12   0    5.16    0.66
  -4 -12   0    6.58    0.70
  -8  13   0   -0.18    0.38
  -7  13   0    1.56    0.46
  -6  13   0    1.83    0.44
  -5  13   0   -0.36    0.34
   4 -13   0    0.55    0.36
  -4  13   0    1.46    0.41
   3 -13   0    0.76    0.36
  -3  13   0    1.89    0.44
   2 -13   0    1.72    0.41
  -2  13   0    2.68    0.48
   1 -13   0    0.68    0.35
  -1  13   0    0.48    0.37
   0 -13   0    1.65    0.42
  -1 -13   0    0.08    0.35
  -2 -13   0    0.53    0.37
  -6  14   0    0.40    0.42
  -5  14   0    0.08    0.40
   4 -14   0    0.74    0.41
  -4  14   0    0.58    0.42
   3 -14   0    0.51    0.38
  -3  14   0    1.14    0.45
   2 -14   0    1.03    0.40
  -2  14   0    0.63    0.40
   1 -14   0    1.16    0.41
   0 -14   0   -0.27    0.35
  -1 -14   1    2.83    0.51
   0 -14   1   -0.12    0.35
  -1  14  -1    0.38    0.40
   1 -14   1    0.27    0.34
  -2  14  -1    0.20    0.39
   2 -14   1    0.28    0.36
  -3  14  -1   -0.19    0.38
   3 -14   1    0.35    0.36
  -4  14  -1    3.73    0.58
  -5  14  -1    0.20    0.39
  -6  14  -1   -0.05    0.39
  -3 -13   1    6.81    0.74
  -2 -13   1   -0.40    0.33
  -2 -13   1    0.38    0.44
  -1 -13   1    2.62    0.49
   0  13  -1    0.28    0.35
   0 -13   1    0.42    0.33
  -1  13  -1    1.72    0.45
   1 -13   1    1.92    0.42
  -2  13  -1    1.01    0.38
   2 -13   1    0.54    0.34
  -3  13  -1    5.03    0.57
   3 -13   1    4.16    0.54
  -4  13  -1    0.26    0.37
   4 -13   1    0.09    0.33
  -5  13  -1    1.38    0.41
  -6  13  -1    0.81    0.41
  -7  13  -1    0.83    0.41
  -8  13  -1    0.66    0.41
  -4 -12   1    0.13    0.41
  -3 -12   1    1.76    0.48
  -3 -12   1    0.97    0.41
  -2 -12   1    1.06    0.42
  -2 -12   1    0.36    0.34
   1  12  -1    7.86    0.69
  -1 -12   1    5.62    0.61
   0  12  -1    0.44    0.34
   0 -12   1   -0.26    0.27
  -1  12  -1    0.41    0.32
   1 -12   1    0.06    0.27
  -2  12  -1    2.28    0.44
   2 -12   1    2.60    0.42
  -3  12  -1    0.13    0.30
   3 -12   1    0.35    0.30
  -4  12  -1    1.48    0.39
   4 -12   1    1.77    0.38
  -5  12  -1    0.25    0.33
  -6  12  -1    1.92    0.41
  -7  12  -1    0.41    0.35
  -8  12  -1   -0.01    0.35
  -9  12  -1   -0.49    0.37
  -5 -11   1    0.33    0.40
  -5 -11   1    0.36    0.40
  -4 -11   1   -0.04    0.35
  -3 -11   1    3.97    0.53
   2  11  -1   -0.08    0.28
  -2 -11   1    0.04    0.28
  -2 -11   1    0.35    0.33
   1  11  -1    8.76    0.71
  -1 -11   1    9.66    0.71
  -1 -11   1    8.28    0.67
   0  11  -1    0.06    0.28
   0 -11   1   -0.19    0.24
  -1  11  -1    6.54    0.58
   1 -11   1    6.27    0.57
  -2  11  -1    0.53    0.30
  -2  11  -1    0.88    0.31
   2 -11   1    0.23    0.26
  -3  11  -1    6.11    0.58
  -3  11  -1    7.97    0.58
   3 -11   1    5.66    0.55
  -4  11  -1    2.06    0.37
   4 -11   1    1.43    0.33
  -5  11  -1    6.25    0.59
   5 -11   1    7.62    0.64
  -6  11  -1    1.74    0.37
  -7  11  -1    2.02    0.41
  -8  11  -1    3.08    0.46
  -9  11  -1    0.80    0.37
  -6 -10   1   -0.93    0.33
  -6 -10   1    0.79    0.39
  -5 -10   1    4.85    0.60
  -4 -10   1   -0.02    0.31
   3  10  -1    0.62    0.29
  -3 -10   1    0.13    0.31
   2  10  -1    0.53    0.28
  -2 -10   1    0.23    0.29
   1  10  -1    0.39    0.25
   1  10  -1    0.33    0.26
  -1 -10   1   -0.29    0.23
  -1 -10   1   -0.01    0.28
   0  10  -1    0.20    0.26
   0  10  -1    0.10    0.23
   0 -10   1   -0.09    0.23
  -1  10  -1   -0.03    0.22
  -1  10  -1   -0.19    0.22
   1 -10   1    0.10    0.23
  -2  10  -1    0.45    0.26
  -2  10  -1    0.37    0.27
   2 -10   1    0.42    0.24
  -3  10  -1    3.34    0.39
  -3  10  -1    3.10    0.40
   3 -10   1    3.32    0.40
  -4  10  -1    2.64    0.37
   4 -10   1    1.81    0.33
  -5  10  -1    1.13    0.30
   5 -10   1    0.93    0.30
  -6  10  -1    2.25    0.37
  -7  10  -1    0.76    0.32
  -8  10  -1   -0.46    0.27
  -9  10  -1    0.27    0.33
 -10  10  -1    0.63    0.38
  -7  -9   1    0.53    0.42
  -7  -9   1   -0.34    0.37
  -6  -9   1    2.37    0.46
  -5  -9   1   -0.27    0.31
  -4  -9   1    0.15    0.30
   3   9  -1    1.30    0.31
   3   9  -1    1.42    0.32
  -3  -9   1    0.71    0.31
   2   9  -1    0.35    0.24
   2   9  -1    0.26    0.23
  -2  -9   1    0.18    0.27
   1   9  -1   22.98    1.09
   1   9  -1   20.17    1.09
  -1  -9   1   21.53    1.09
   0   9  -1    1.18    0.28
   0   9  -1    0.89    0.25
   0  -9   1    1.52    0.31
   0  -9   1    1.55    0.29
  -1   9  -1    0.91    0.26
  -1   9  -1    1.16    0.26
   1  -9   1    1.63    0.29
  -2   9  -1    0.15    0.20
  -2   9  -1    0.05    0.21
   2  -9   1   -0.03    0.19
  -3   9  -1    8.68    0.60
  -3   9  -1    9.43    0.58
   3  -9   1    8.02    0.57
  -4   9  -1   12.87    0.74
   4  -9   1   13.72    0.77
  -5   9  -1    2.72    0.36
   5  -9   1    3.65    0.41
  -6   9  -1    0.08    0.24
   6  -9   1   -0.07    0.21
  -7   9  -1    0.99    0.30
  -8   9  -1    1.97    0.37
  -9   9  -1    1.57    0.38
 -10   9  -1    0.63    0.37
 -11   9  -1    0.43    0.41
  -8  -8   1    1.58    0.45
  -8  -8   1    0.35    0.42
  -7  -8   1    7.94    0.72
  -6  -8   1    0.27    0.32
  -5  -8   1    2.13    0.40
   4   8  -1    0.16    0.23
   4   8  -1    0.81    0.27
  -4  -8   1    0.52    0.28
   3   8  -1    1.23    0.28
   3   8  -1    1.02    0.26
  -3  -8   1    0.80    0.28
   2   8  -1    1.90    0.31
   2   8  -1    1.12    0.27
  -2  -8   1    1.45    0.30
   1   8  -1   16.64    0.85
   1   8  -1   14.99    0.85
  -1  -8   1   16.62    0.86
   0   8  -1    3.38    0.36
   0   8  -1    3.35    0.35
   0  -8   1    3.25    0.38
   0  -8   1    3.85    0.38
  -1   8  -1    7.30    0.51
  -1   8  -1    8.06    0.41
  -1   8  -1    7.34    0.51
   1  -8   1    7.84    0.53
  -2   8  -1    0.21    0.12
  -2   8  -1    0.18    0.19
  -2   8  -1    0.40    0.19
   2  -8   1    0.36    0.18
  -3   8  -1    0.98    0.16
  -3   8  -1    0.69    0.21
  -3   8  -1    0.81    0.23
   3  -8   1    0.88    0.22
  -4   8  -1    2.00    0.28
   4  -8   1    2.03    0.28
  -5   8  -1   -0.18    0.19
   5  -8   1   -0.04    0.18
  -6   8  -1   26.99    1.28
   6  -8   1   28.03    1.31
  -7   8  -1    0.21    0.24
  -8   8  -1    0.42    0.27
  -9   8  -1    0.71    0.32
 -10   8  -1    2.10    0.42
 -11   8  -1    0.03    0.38
  -9  -7   1   -0.15    0.37
  -8  -7   1    0.04    0.35
  -7  -7   1    2.55    0.45
  -6  -7   1    1.39    0.35
   5   7  -1    0.41    0.25
   5   7  -1    0.24    0.26
  -5  -7   1    0.91    0.29
   4   7  -1   -0.18    0.18
   4   7  -1    0.24    0.22
  -4  -7   1    0.11    0.24
   3   7  -1    5.29    0.46
   3   7  -1    5.82    0.45
  -3  -7   1    5.34    0.47
   2   7  -1    0.23    0.18
   2   7  -1    0.34    0.18
  -2  -7   1    0.09    0.19
   1   7  -1   49.99    2.18
   1   7  -1   51.68    2.14
  -1  -7   1   50.37    2.15
   0   7  -1   -0.09    0.15
   0   7  -1    0.16    0.15
   0  -7   1    0.14    0.18
   0  -7   1    0.07    0.18
  -1   7  -1    5.14    0.39
  -1   7  -1    5.02    0.29
  -1   7  -1    4.33    0.36
   1  -7   1    4.85    0.39
  -2   7  -1    3.07    0.23
  -2   7  -1    2.62    0.30
  -2   7  -1    2.78    0.29
   2  -7   1    2.68    0.29
  -3   7  -1    7.14    0.41
  -3   7  -1    7.49    0.46
  -3   7  -1    6.92    0.47
   3  -7   1    7.38    0.47
  -4   7  -1    3.88    0.34
   4  -7   1    3.57    0.35
  -5   7  -1   11.84    0.65
   5  -7   1   12.08    0.67
  -6   7  -1   -0.15    0.18
   6  -7   1    0.27    0.19
  -7   7  -1    3.33    0.37
  -8   7  -1    1.11    0.29
  -9   7  -1    0.81    0.32
 -10   7  -1   -0.25    0.30
 -11   7  -1    0.00    0.36
  -9  -6   1   -0.10    0.38
  -9  -6   1    0.38    0.39
  -8  -6   1    0.29    0.32
  -7  -6   1   15.66    0.93
   6   6  -1    0.19    0.24
  -6  -6   1    0.28    0.26
   5   6  -1   10.16    0.64
   5   6  -1    9.08    0.64
  -5  -6   1   10.69    0.66
   4   6  -1    0.06    0.17
   4   6  -1    0.30    0.19
  -4  -6   1    0.12    0.13
  -4  -6   1    0.32    0.22
   3   6  -1    2.31    0.29
   3   6  -1    3.25    0.32
  -3  -6   1    2.45    0.30
   2   6  -1    0.04    0.14
   2   6  -1    0.16    0.15
  -2  -6   1   -0.02    0.17
   1   6  -1   31.27    1.43
   1   6  -1   32.76    1.40
  -1  -6   1   33.31    1.42
   0   6  -1    0.81    0.17
   0   6  -1    0.58    0.17
   0  -6   1    0.98    0.18
   0  -6   1    0.80    0.18
  -1   6  -1    9.64    0.55
  -1   6  -1   10.40    0.49
  -1   6  -1   10.62    0.56
   1  -6   1   11.08    0.57
   1  -6   1   10.66    0.56
  -2   6  -1    0.03    0.13
  -2   6  -1   -0.02    0.08
  -2   6  -1    0.18    0.13
   2  -6   1    0.17    0.13
   2  -6   1    0.00    0.12
  -3   6  -1    4.68    0.33
  -3   6  -1    3.82    0.28
   3  -6   1    4.35    0.33
   3  -6   1    4.34    0.33
  -4   6  -1   10.94    0.58
   4  -6   1   10.89    0.60
  -5   6  -1    0.77    0.20
  -5   6  -1    1.02    0.13
   5  -6   1    1.41    0.23
  -6   6  -1   27.54    1.23
  -6   6  -1   26.38    1.18
   6  -6   1   27.93    1.26
  -7   6  -1   -0.05    0.14
  -7   6  -1   -0.10    0.20
  -8   6  -1    7.55    0.54
  -9   6  -1    0.09    0.27
 -10   6  -1    0.38    0.31
 -11   6  -1   -0.01    0.34
 -10  -5   1    1.89    0.48
  -9  -5   1    0.27    0.35
  -8  -5   1    2.16    0.42
   7   5  -1    0.38    0.26
  -7  -5   1    0.44    0.29
   6   5  -1    6.34    0.52
   6   5  -1    6.84    0.52
  -6  -5   1    6.77    0.54
   5   5  -1    1.86    0.29
   5   5  -1    1.48    0.26
  -5  -5   1    1.89    0.30
   4   5  -1    0.84    0.20
   4   5  -1    0.71    0.20
  -4  -5   1    1.06    0.23
  -4  -5   1    0.62    0.10
   3   5  -1   22.93    1.10
   3   5  -1   23.99    1.08
  -3  -5   1   24.24    1.09
   2   5  -1    0.60    0.16
   2   5  -1    0.70    0.16
  -2  -5   1    0.36    0.16
  -2  -5   1    0.47    0.16
   1   5  -1    1.56    0.20
   1   5  -1    1.73    0.21
  -1  -5   1    1.47    0.21
  -1  -5   1    1.82    0.21
   0   5  -1    7.08    0.43
   0   5  -1    8.12    0.45
   0  -5   1    7.93    0.44
   0  -5   1    8.91    0.46
  -1   5  -1    6.68    0.34
  -1   5  -1    7.15    0.40
  -1   5  -1    6.83    0.40
   1  -5   1    7.19    0.40
   1  -5   1    7.34    0.41
  -2   5  -1    4.05    0.29
  -2   5  -1    3.76    0.24
  -2   5  -1    4.52    0.31
   2  -5   1    4.08    0.28
   2  -5   1    3.73    0.28
  -3   5  -1   20.64    0.92
   3  -5   1   20.93    0.95
   3  -5   1   21.18    0.94
  -4   5  -1    1.40    0.13
  -4   5  -1    1.14    0.18
   4  -5   1    1.47    0.20
   4  -5   1    1.59    0.21
  -5   5  -1   25.10    1.11
  -5   5  -1   23.92    1.08
   5  -5   1   26.16    1.13
  -6   5  -1    2.46    0.23
  -6   5  -1    2.42    0.27
   6  -5   1    2.14    0.27
  -7   5  -1    7.69    0.48
  -7   5  -1    8.18    0.52
  -8   5  -1    0.01    0.22
  -8   5  -1    0.23    0.18
  -9   5  -1    0.47    0.28
  -9   5  -1    1.54    0.28
   9  -5   1    1.79    0.38
 -10   5  -1    0.42    0.31
 -11   5  -1    1.49    0.41
 -10  -4   1   -0.26    0.38
 -10  -4   1    1.93    0.44
  -9  -4   1    1.71    0.41
  -8  -4   1    2.40    0.40
   7   4  -1    6.65    0.55
  -7  -4   1    6.84    0.55
   6   4  -1    0.25    0.20
   6   4  -1    0.26    0.22
  -6  -4   1    0.15    0.21
   5   4  -1    9.23    0.53
   5   4  -1    7.42    0.53
  -5  -4   1    8.59    0.55
   4   4  -1    0.87    0.20
   4   4  -1    1.24    0.21
  -4  -4   1    0.77    0.20
   3   4  -1   49.28    2.06
   3   4  -1   49.17    2.10
  -3  -4   1   50.10    2.06
  -3  -4   1   50.41    2.11
   2   4  -1    0.63    0.15
   2   4  -1    0.40    0.12
  -2  -4   1    0.76    0.15
  -2  -4   1    0.68    0.15
   1   4  -1   55.49    2.31
   1   4  -1   56.19    2.27
  -1  -4   1   56.03    2.31
  -1  -4   1   56.69    2.28
   0   4  -1    0.67    0.12
   0   4  -1    0.70    0.12
   0  -4   1    0.81    0.14
   0  -4   1    0.84    0.13
  -1   4  -1  171.49    7.40
  -1   4  -1  180.00    6.99
  -1   4  -1  179.30    7.11
   1  -4   1  181.34    7.11
   1  -4   1  181.80    7.00
  -2   4  -1    5.54    0.31
  -2   4  -1    6.15    0.32
   2  -4   1    5.96    0.33
   2  -4   1    5.67    0.27
   2  -4   1    5.53    0.33
  -3   4  -1   27.91    1.17
  -3   4  -1   28.19    1.17
   3  -4   1   27.19    1.17
   3  -4   1   29.06    1.19
   3  -4   1   27.33    1.21
  -4   4  -1    0.06    0.09
  -4   4  -1   -0.09    0.10
   4  -4   1    0.06    0.11
  -5   4  -1    0.17    0.13
  -5   4  -1    0.15    0.11
   5  -4   1    0.06    0.12
  -6   4  -1    4.04    0.31
  -6   4  -1    4.05    0.34
   6  -4   1    3.53    0.33
  -7   4  -1   -0.21    0.17
  -7   4  -1    0.19    0.17
   7  -4   1   -0.12    0.20
  -8   4  -1    0.55    0.25
  -8   4  -1    0.87    0.23
   8  -4   1    1.03    0.30
  -9   4  -1    0.33    0.28
  -9   4  -1    0.52    0.23
   9  -4   1    0.07    0.29
 -10   4  -1    0.40    0.27
 -10   4  -1    0.10    0.31
 -11   4  -1    0.34    0.35
 -12   4  -1    0.81    0.44
 -11  -3   1   -0.07    0.39
 -11  -3   1    0.38    0.43
 -10  -3   1    1.92    0.43
 -10  -3   1    1.14    0.43
  -9  -3   1    0.62    0.33
   8   3  -1    0.02    0.23
  -8  -3   1    0.17    0.27
   7   3  -1    1.84    0.32
  -7  -3   1    2.06    0.33
   6   3  -1   16.03    0.90
   6   3  -1   18.69    0.89
  -6  -3   1   17.82    0.89
   5   3  -1    6.35    0.44
   5   3  -1    5.79    0.42
  -5  -3   1    6.48    0.45
  -5  -3   1    5.86    0.41
   4   3  -1    6.50    0.42
   4   3  -1    7.18    0.45
  -4  -3   1    7.52    0.46
  -4  -3   1    6.53    0.43
   3   3  -1    5.55    0.36
   3   3  -1    6.48    0.39
  -3  -3   1    6.31    0.38
  -3  -3   1    6.80    0.40
   2   3  -1    6.82    0.37
   2   3  -1    6.86    0.38
  -2  -3   1    7.04    0.38
  -2  -3   1    6.72    0.38
   1   3  -1  227.61    8.84
   1   3  -1  226.69    8.98
  -1  -3   1  227.90    8.98
  -1  -3   1  224.74    8.84
   0   3  -1    0.17    0.08
   0   3  -1    0.16    0.08
   0  -3   1    0.21    0.08
   0  -3   1    0.12    0.08
  -1   3  -1  147.90    5.69
  -1   3  -1  148.72    5.60
  -1   3  -1  142.76    5.59
  -1   3  -1  141.13    5.59
  -1   3  -1  129.73    5.92
   1  -3   1  143.82    5.60
   1  -3   1  147.75    5.68
  -2   3  -1   23.02    0.93
  -2   3  -1   21.84    0.91
  -2   3  -1   20.75    0.96
  -2   3  -1   21.24    0.92
   2  -3   1   23.07    0.94
   2  -3   1   22.94    0.93
   2  -3   1   20.89    0.92
  -3   3  -1    9.90    0.46
  -3   3  -1    9.77    0.45
  -3   3  -1    8.53    0.43
   3  -3   1    9.30    0.45
  -4   3  -1    1.36    0.15
  -4   3  -1    1.26    0.16
  -4   3  -1    0.91    0.15
   4  -3   1    1.02    0.15
  -5   3  -1    6.09    0.37
  -5   3  -1    5.71    0.36
   5  -3   1    5.58    0.37
  -6   3  -1    1.94    0.24
  -6   3  -1    2.16    0.25
   6  -3   1    2.27    0.26
   6  -3   1    2.13    0.29
  -7   3  -1    6.72    0.47
  -7   3  -1    7.06    0.47
   7  -3   1    5.98    0.52
  -8   3  -1    0.18    0.21
  -8   3  -1   -0.01    0.21
   8  -3   1    0.18    0.24
  -9   3  -1    1.73    0.32
  -9   3  -1    1.74    0.34
   9  -3   1    1.29    0.35
 -10   3  -1    3.75    0.47
 -10   3  -1    3.94    0.45
 -11   3  -1    0.83    0.39
 -11   3  -1    0.47    0.32
 -12   3  -1    1.54    0.46
 -11  -2   1    0.19    0.38
 -11  -2   1    0.09    0.40
 -10  -2   1    1.84    0.41
 -10  -2   1    1.07    0.41
  -9  -2   1    0.95    0.34
   8   2  -1    0.06    0.24
  -8  -2   1   -0.10    0.24
   7   2  -1    5.25    0.45
   7   2  -1    5.08    0.48
  -7  -2   1    5.01    0.45
   6   2  -1    2.18    0.31
   6   2  -1    2.45    0.29
  -6  -2   1    2.11    0.29
   5   2  -1   65.83    2.77
   5   2  -1   66.09    2.70
  -5  -2   1   65.19    2.70
   4   2  -1    0.07    0.14
   4   2  -1    0.40    0.13
  -4  -2   1    0.12    0.13
  -4  -2   1    0.14    0.15
   3   2  -1   30.59    1.31
   3   2  -1   30.10    1.28
  -3  -2   1   30.51    1.32
  -3  -2   1   30.46    1.28
   2   2  -1   10.28    0.49
   2   2  -1   10.59    0.50
  -2  -2   1   10.01    0.50
  -2  -2   1   10.99    0.50
   1   2  -1   22.97    0.98
   1   2  -1   24.46    1.00
  -1  -2   1   23.76    0.99
  -1  -2   1   23.87    0.98
  -1  -2   1   23.48    0.98
   0   2  -1    0.32    0.06
   0   2  -1    0.28    0.06
   0   2  -1    0.34    0.07
   0  -2   1    0.35    0.07
   0  -2   1    0.26    0.06
   0  -2   1    0.34    0.06
  -1   2  -1   18.81    0.75
  -1   2  -1   18.28    0.76
  -1   2  -1   17.44    0.79
  -1   2  -1   18.27    0.75
   1  -2   1   19.14    0.77
   1  -2   1   17.85    0.75
  -2   2  -1   16.29    0.74
  -2   2  -1   15.89    0.70
  -2   2  -1   17.84    0.69
  -2   2  -1   15.97    0.71
   2  -2   1   16.71    0.70
   2  -2   1   16.71    0.72
  -3   2  -1    0.29    0.08
  -3   2  -1    0.44    0.09
  -3   2  -1    0.35    0.09
   3  -2   1    0.29    0.08
  -4   2  -1    0.09    0.11
  -4   2  -1    0.06    0.10
  -4   2  -1    0.02    0.09
   4  -2   1    0.16    0.12
   4  -2   1    0.05    0.09
  -5   2  -1    1.77    0.22
  -5   2  -1    1.75    0.21
  -5   2  -1    1.83    0.21
   5  -2   1    1.76    0.25
   5  -2   1    2.29    0.23
  -6   2  -1   10.16    0.58
  -6   2  -1   10.40    0.56
   6  -2   1    9.27    0.60
   6  -2   1    9.78    0.55
  -7   2  -1   -0.01    0.19
  -7   2  -1   -0.18    0.17
   7  -2   1    0.01    0.20
  -8   2  -1   13.86    0.80
  -8   2  -1   13.68    0.77
   8  -2   1   14.11    0.83
  -9   2  -1    0.61    0.29
  -9   2  -1    0.35    0.26
   9  -2   1    0.91    0.34
 -10   2  -1    3.57    0.46
 -10   2  -1    4.08    0.47
 -11   2  -1    0.29    0.36
 -11   2  -1    0.12    0.32
 -11  -1   1   -0.38    0.34
 -11  -1   1   -0.10    0.37
 -10  -1   1    3.50    0.47
 -10  -1   1    2.96    0.49
  -9  -1   1    0.99    0.34
   8   1  -1    0.17    0.24
  -8  -1   1   -0.01    0.24
   7   1  -1    0.51    0.20
   7   1  -1    0.33    0.21
  -7  -1   1    0.58    0.23
   6   1  -1    5.14    0.37
   6   1  -1    4.30    0.40
  -6  -1   1    4.58    0.39
   5   1  -1    1.98    0.25
   5   1  -1    2.13    0.24
  -5  -1   1    2.17    0.27
  -5  -1   1    1.80    0.24
   4   1  -1   14.93    0.71
   4   1  -1   15.33    0.74
  -4  -1   1   15.21    0.72
  -4  -1   1   15.00    0.75
   3   1  -1    0.46    0.10
   3   1  -1    0.63    0.13
  -3  -1   1    0.63    0.13
  -3  -1   1    0.39    0.12
   2   1  -1   11.73    0.55
   2   1  -1   12.61    0.57
  -2  -1   1   12.79    0.57
  -2  -1   1   12.47    0.55
  -2  -1   1   12.87    0.56
   1   1  -1    6.13    0.32
   1   1  -1    7.51    0.32
   1   1  -1    7.47    0.33
  -1  -1   1    7.06    0.32
  -1  -1   1    7.38    0.32
   0   1  -1    0.12    0.03
   0   1  -1   -0.06    0.01
   0   1  -1   -0.07    0.01
   0   1  -1    0.10    0.03
   0  -1   1   -0.07    0.01
   0  -1   1   -0.06    0.01
  -1   1  -1   87.56    3.24
  -1   1  -1   83.06    3.39
  -1   1  -1   78.85    3.46
  -2   1  -1    4.28    0.25
  -2   1  -1    4.50    0.22
   2  -1   1    4.28    0.22
   2  -1   1    4.56    0.25
  -3   1  -1   32.29    1.34
  -3   1  -1   34.14    1.41
   3  -1   1   32.22    1.34
   3  -1   1   32.84    1.39
  -4   1  -1    3.33    0.25
  -4   1  -1    3.14    0.25
  -4   1  -1    3.32    0.28
   4  -1   1    3.26    0.28
   4  -1   1    3.02    0.24
  -5   1  -1    4.22    0.33
  -5   1  -1    3.67    0.31
  -5   1  -1    3.82    0.30
   5  -1   1    3.49    0.32
   5  -1   1    3.81    0.30
  -6   1  -1    9.31    0.54
  -6   1  -1    9.02    0.57
   6  -1   1    9.57    0.52
   6  -1   1    9.39    0.58
  -7   1  -1    4.50    0.41
  -7   1  -1    5.43    0.45
   7  -1   1    4.31    0.44
  -8   1  -1    3.08    0.37
  -8   1  -1    3.71    0.41
   8  -1   1    3.75    0.43
  -9   1  -1    5.44    0.51
  -9   1  -1    5.06    0.50
   9  -1   1    5.47    0.55
 -10   1  -1   -0.09    0.29
 -10   1  -1    0.36    0.32
 -11   1  -1   -0.15    0.35
 -11   1  -1    0.43    0.35
 -12   0   1    0.19    0.41
 -12   0   1    0.13    0.40
 -11   0   1    0.68    0.41
 -11   0   1    0.28    0.37
 -10   0   1    0.93    0.38
 -10   0   1    1.21    0.36
   9   0  -1    2.96    0.43
  -9   0   1    3.28    0.42
   8   0  -1    5.13    0.50
  -8   0   1    4.73    0.46
   7   0  -1    6.13    0.47
   7   0  -1    5.47    0.43
  -7   0   1    5.34    0.46
   6   0  -1    1.58    0.23
   6   0  -1    1.94    0.28
  -6   0   1    1.84    0.27
   5   0  -1    6.31    0.42
   5   0  -1    6.33    0.40
  -5   0   1    5.80    0.42
  -5   0   1    6.41    0.41
   4   0  -1    6.74    0.38
   4   0  -1    6.29    0.40
  -4   0   1    6.79    0.39
  -4   0   1    6.63    0.40
   3   0  -1   27.65    1.19
   3   0  -1   28.59    1.17
  -3   0   1   27.78    1.16
  -3   0   1   26.78    1.19
   2   0  -1   13.87    0.69
   2   0  -1   14.29    0.62
   2   0  -1   14.52    0.63
  -2   0   1   14.96    0.63
  -2   0   1   14.58    0.62
  -2   0   1   14.44    0.62
   1   0  -1   10.81    0.44
   1   0  -1   11.21    0.44
  -1   0   1    9.22    0.43
   0   0  -1   -0.01    0.01
   0   0  -1    0.01    0.01
   0   0   1    0.01    0.01
  -1   0  -1   14.67    0.63
  -1   0  -1   13.72    0.63
  -1   0  -1   15.26    0.58
  -1   0  -1   14.71    0.58
  -1   0  -1   15.16    0.61
   1   0   1   13.61    0.63
  -2   0  -1    0.07    0.06
  -2   0  -1    0.15    0.06
  -2   0  -1   -0.01    0.03
  -2   0  -1    0.14    0.09
  -2   0  -1    0.10    0.08
   2   0   1    0.07    0.05
   2   0   1    0.14    0.08
  -3   0  -1   28.40    1.19
  -3   0  -1   25.73    1.17
  -3   0  -1   27.61    1.12
  -3   0  -1   26.05    1.18
   3   0   1   26.63    1.12
   3   0   1   27.19    1.30
   3   0   1   27.74    1.17
  -4   0  -1    0.70    0.18
  -4   0  -1    0.74    0.15
  -4   0  -1    0.94    0.18
  -4   0  -1    0.70    0.15
   4   0   1    0.71    0.16
   4   0   1    1.08    0.14
  -5   0  -1    9.16    0.52
  -5   0  -1    9.84    0.54
  -5   0  -1    9.66    0.57
  -5   0  -1    9.45    0.55
   5   0   1    9.37    0.55
   5   0   1    9.33    0.50
  -6   0  -1    0.91    0.24
  -6   0  -1    1.16    0.22
   6   0   1    0.63    0.21
   6   0   1    0.99    0.19
  -7   0  -1    1.38    0.29
  -7   0  -1    1.52    0.27
   7   0   1    1.50    0.29
  -8   0  -1    9.86    0.65
  -8   0  -1   10.24    0.69
   8   0   1    9.97    0.69
  -9   0  -1    0.08    0.28
  -9   0  -1    0.12    0.28
 -10   0  -1   -0.54    0.29
 -10   0  -1    0.55    0.34
 -11   0  -1    0.17    0.34
 -11   0  -1    0.17    0.35
 -12   1   1    1.80    0.46
 -12   1   1    1.41    0.46
 -11   1   1    0.49    0.36
 -11   1   1   -0.79    0.33
 -10   1   1    3.41    0.47
 -10   1   1    3.45    0.48
   9  -1  -1    1.09    0.33
  -9   1   1    0.91    0.32
  -9   1   1    1.11    0.33
   8  -1  -1    0.35    0.25
  -8   1   1    0.13    0.23
   7  -1  -1    0.71    0.21
   7  -1  -1    0.65    0.22
  -7   1   1    0.34    0.22
   6  -1  -1   -0.06    0.18
   6  -1  -1    0.62    0.18
  -6   1   1    0.65    0.19
   5  -1  -1    1.09    0.20
   5  -1  -1    1.12    0.18
  -5   1   1    1.07    0.19
   4  -1  -1    5.18    0.35
   4  -1  -1    5.24    0.33
  -4   1   1    5.54    0.33
   3  -1  -1    2.72    0.22
   3  -1  -1    2.53    0.20
  -3   1   1    2.51    0.20
   2  -1  -1   12.07    0.53
  -2   1   1   11.94    0.52
  -2   1   1   12.39    0.53
   1  -1  -1    9.83    0.51
   1  -1  -1    9.10    0.41
   1  -1  -1    9.63    0.41
  -1   1   1    9.52    0.41
   0  -1  -1    0.24    0.04
   0  -1  -1    0.08    0.02
   0  -1  -1    0.25    0.04
   0  -1  -1    0.26    0.04
   0  -1  -1    0.27    0.03
   0  -1  -1    0.02    0.02
   0  -1  -1    0.34    0.08
   0   1   1    0.10    0.03
   0   1   1    0.14    0.03
   0   1   1    0.06    0.05
   0   1   1    0.15    0.04
  -1  -1  -1   68.34    2.56
  -1  -1  -1   69.27    2.61
  -1  -1  -1   66.36    2.75
  -1  -1  -1   62.55    3.07
  -1  -1  -1   67.56    2.68
   1   1   1   60.86    2.55
   1   1   1   57.72    3.07
   1   1   1   68.63    2.61
  -2  -1  -1    4.68    0.25
  -2  -1  -1    5.39    0.29
  -2  -1  -1    5.07    0.26
  -2  -1  -1    5.92    0.31
  -2  -1  -1    3.89    0.31
   2   1   1    4.86    0.28
   2   1   1    5.05    0.33
   2   1   1    5.06    0.26
  -3  -1  -1   40.22    1.71
  -3  -1  -1   40.42    1.65
  -3  -1  -1   40.99    1.64
  -3  -1  -1   38.78    1.73
   3   1   1   41.02    1.70
   3   1   1   40.49    1.64
   3   1   1   40.75    1.93
  -4  -1  -1   15.69    0.73
  -4  -1  -1   15.16    0.76
  -4  -1  -1   14.32    0.71
  -4  -1  -1   15.66    0.72
  -4  -1  -1   16.56    0.78
   4   1   1   15.80    0.71
   4   1   1   15.16    0.76
   4   1   1   15.63    0.79
  -5  -1  -1    4.31    0.35
  -5  -1  -1    4.64    0.39
   5   1   1    4.52    0.37
   5   1   1    4.83    0.34
  -6  -1  -1    1.36    0.27
  -6  -1  -1    1.53    0.25
   6   1   1    1.54    0.23
   6   1   1    1.52    0.27
  -7  -1  -1   11.97    0.73
  -7  -1  -1   11.54    0.68
   7   1   1   11.25    0.71
  -8  -1  -1    0.33    0.28
  -8  -1  -1    0.15    0.26
   8   1   1    0.11    0.26
  -9  -1  -1    3.34    0.46
  -9  -1  -1    2.84    0.42
 -10  -1  -1    0.77    0.37
 -10  -1  -1    0.57    0.34
 -11  -1  -1    0.99    0.40
 -11  -1  -1    0.56    0.39
 -12   2   1    1.43    0.45
 -12   2   1    0.11    0.37
 -11   2   1    0.21    0.34
 -11   2   1    0.51    0.37
 -10   2   1    0.34    0.32
 -10   2   1    0.44    0.32
   9  -2  -1    0.54    0.29
  -9   2   1    0.90    0.31
  -9   2   1    0.76    0.30
   8  -2  -1    1.56    0.28
   8  -2  -1    1.75    0.32
  -8   2   1    1.68    0.30
   7  -2  -1    4.29    0.38
   7  -2  -1    3.66    0.40
  -7   2   1    4.41    0.39
   6  -2  -1    9.01    0.53
   6  -2  -1    8.62    0.56
  -6   2   1    9.40    0.53
   5  -2  -1   40.26    1.78
   5  -2  -1   41.66    1.74
  -5   2   1   41.94    1.73
   4  -2  -1    8.25    0.45
  -4   2   1    8.70    0.44
   3  -2  -1   39.17    1.64
  -3   2   1   40.78    1.63
   2  -2  -1    0.14    0.07
  -2   2   1    0.07    0.06
   1  -2  -1  104.12    4.05
   1  -2  -1  111.29    4.12
   1  -2  -1   96.81    4.20
   1  -2  -1  103.79    4.06
  -1   2   1  101.14    4.05
  -1   2   1  104.32    4.12
   0  -2  -1   -0.09    0.05
   0  -2  -1    0.04    0.05
   0  -2  -1   -0.05    0.04
   0  -2  -1    0.04    0.05
   0  -2  -1   -0.08    0.05
   0   2   1   -0.06    0.05
   0   2   1   -0.02    0.05
  -1  -2  -1    6.56    0.33
  -1  -2  -1    6.35    0.31
  -1  -2  -1    6.01    0.32
  -1  -2  -1    6.86    0.34
   1   2   1    5.96    0.31
   1   2   1    6.80    0.33
  -2  -2  -1    2.17    0.20
  -2  -2  -1    2.80    0.20
  -2  -2  -1    2.24    0.17
  -2  -2  -1    2.47    0.20
   2   2   1    2.38    0.20
   2   2   1    2.27    0.18
  -3  -2  -1    6.67    0.36
  -3  -2  -1    6.49    0.40
  -3  -2  -1    5.57    0.32
  -3  -2  -1    6.45    0.36
   3   2   1    6.62    0.35
   3   2   1    6.31    0.38
  -4  -2  -1    9.94    0.53
  -4  -2  -1   10.28    0.54
  -4  -2  -1   10.27    0.50
  -4  -2  -1   10.26    0.58
   4   2   1   10.26    0.56
   4   2   1   10.31    0.52
  -5  -2  -1    1.63    0.24
  -5  -2  -1    2.39    0.29
  -5  -2  -1    1.74    0.17
   5   2   1    1.65    0.22
   5   2   1    1.57    0.25
  -6  -2  -1    2.83    0.36
  -6  -2  -1    2.78    0.32
   6   2   1    2.55    0.33
  -7  -2  -1   -0.15    0.24
  -7  -2  -1    0.22    0.22
   7   2   1   -0.13    0.21
  -8  -2  -1   14.09    0.81
  -8  -2  -1   13.59    0.86
   8   2   1   13.68    0.85
  -9  -2  -1    1.02    0.34
  -9  -2  -1    0.90    0.36
 -10  -2  -1    1.51    0.44
 -10  -2  -1    1.30    0.40
 -11  -2  -1    0.22    0.40
 -12   3   1    2.88    0.52
 -11   3   1    1.73    0.40
 -11   3   1    0.55    0.34
 -10   3   1    9.86    0.74
 -10   3   1   12.36    0.76
   9  -3  -1   -0.08    0.27
  -9   3   1   -0.07    0.25
  -9   3   1    0.23    0.25
   8  -3  -1    1.30    0.31
   8  -3  -1    0.36    0.22
  -8   3   1    1.16    0.28
  -8   3   1    0.59    0.24
   7  -3  -1    0.53    0.23
   7  -3  -1    0.29    0.18
  -7   3   1    0.45    0.20
   6  -3  -1   14.28    0.73
  -6   3   1   14.16    0.72
   5  -3  -1    1.12    0.19
  -5   3   1    1.14    0.19
   4  -3  -1   25.77    1.15
  -4   3   1   27.31    1.14
   3  -3  -1    6.63    0.38
  -3   3   1    7.74    0.38
   2  -3  -1    0.07    0.08
   2  -3  -1    0.15    0.08
  -2   3   1    0.11    0.08
   1  -3  -1    8.46    0.38
   1  -3  -1    7.55    0.37
   1  -3  -1    6.80    0.33
  -1   3   1    7.16    0.36
  -1   3   1    7.55    0.38
   0  -3  -1    0.07    0.08
   0  -3  -1    0.10    0.09
   0  -3  -1    0.17    0.09
   0  -3  -1   -0.01    0.08
   0   3   1    0.02    0.08
   0   3   1    0.08    0.07
  -1  -3  -1   28.21    1.23
  -1  -3  -1   29.68    1.21
  -1  -3  -1   28.14    1.19
   1   3   1   29.62    1.23
   1   3   1   28.66    1.19
  -2  -3  -1    0.66    0.14
  -2  -3  -1    0.87    0.13
  -2  -3  -1    0.63    0.14
   2   3   1    0.69    0.13
   2   3   1    0.74    0.14
  -3  -3  -1   27.51    1.18
  -3  -3  -1   26.94    1.22
  -3  -3  -1   26.40    1.20
   3   3   1   28.25    1.17
   3   3   1   27.80    1.22
  -4  -3  -1    0.43    0.17
  -4  -3  -1    0.40    0.10
   4   3   1    0.29    0.16
  -5  -3  -1    6.92    0.38
  -5  -3  -1    6.38    0.51
  -5  -3  -1    6.89    0.47
   5   3   1    7.49    0.46
   5   3   1    6.84    0.48
  -6  -3  -1    0.12    0.21
  -6  -3  -1    0.49    0.25
   6   3   1    0.25    0.21
  -7  -3  -1   10.94    0.73
  -7  -3  -1   11.54    0.69
   7   3   1   10.12    0.71
  -8  -3  -1    2.16    0.38
  -8  -3  -1    1.63    0.37
  -9  -3  -1    0.25    0.33
  -9  -3  -1    0.23    0.34
 -10  -3  -1    0.16    0.37
 -10  -3  -1    0.01    0.35
 -12   4   1   -0.62    0.35
 -11   4   1    0.50    0.34
 -10   4   1    2.78    0.42
 -10   4   1    3.00    0.39
   9  -4  -1    3.96    0.49
  -9   4   1    5.42    0.45
  -9   4   1    4.64    0.47
   8  -4  -1   16.97    0.88
   8  -4  -1   16.56    0.92
  -8   4   1   15.18    0.85
  -8   4   1   16.31    0.84
   7  -4  -1    7.54    0.51
  -7   4   1    6.91    0.46
  -7   4   1    6.75    0.49
   6  -4  -1    1.13    0.22
  -6   4   1    0.89    0.21
  -6   4   1    1.10    0.18
   5  -4  -1   14.84    0.73
  -5   4   1   14.07    0.66
  -5   4   1   15.14    0.72
   4  -4  -1    5.92    0.38
  -4   4   1    5.75    0.29
  -4   4   1    6.40    0.37
   3  -4  -1   68.08    2.82
   3  -4  -1   69.22    2.79
  -3   4   1   69.65    2.77
   2  -4  -1    1.54    0.18
   2  -4  -1    2.10    0.19
  -2   4   1    1.66    0.17
  -2   4   1    1.38    0.18
   1  -4  -1   97.94    3.84
   1  -4  -1   92.71    3.89
   1  -4  -1   96.65    3.79
  -1   4   1   96.10    3.85
  -1   4   1   93.80    3.77
   0  -4  -1   -0.10    0.09
   0  -4  -1   -0.09    0.09
   0  -4  -1   -0.05    0.10
   0  -4  -1    0.08    0.09
   0   4   1    0.01    0.08
   0   4   1    0.02    0.09
  -1  -4  -1   18.47    0.85
  -1  -4  -1   18.75    0.86
   1   4   1   19.53    0.87
   1   4   1   18.97    0.84
  -2  -4  -1    1.19    0.19
  -2  -4  -1    0.83    0.17
   2   4   1    0.97    0.17
   2   4   1    0.66    0.14
  -3  -4  -1   10.07    0.54
  -3  -4  -1   10.70    0.58
   3   4   1   10.85    0.59
   3   4   1   12.28    0.57
  -4  -4  -1    0.49    0.11
  -4  -4  -1    0.43    0.18
   4   4   1    0.66    0.18
   4   4   1    0.15    0.16
  -5  -4  -1    3.70    0.39
  -5  -4  -1    3.16    0.34
  -5  -4  -1    3.50    0.27
   5   4   1    4.29    0.36
   5   4   1    3.34    0.36
  -6  -4  -1    0.78    0.29
  -6  -4  -1    0.76    0.26
   6   4   1    1.33    0.29
  -7  -4  -1    0.84    0.30
  -7  -4  -1    0.36    0.27
   7   4   1    0.46    0.27
  -8  -4  -1    2.99    0.46
  -8  -4  -1    2.52    0.42
  -9  -4  -1    1.64    0.43
  -9  -4  -1    1.62    0.43
 -10  -4  -1    2.28    0.48
 -12   5   1    0.18    0.39
 -11   5   1    0.44    0.35
 -10   5   1    6.15    0.57
   9  -5  -1    0.04    0.28
  -9   5   1   -0.47    0.24
   8  -5  -1    7.75    0.57
  -8   5   1    8.13    0.57
  -8   5   1    7.92    0.50
   7  -5  -1   -0.28    0.16
  -7   5   1    0.04    0.19
  -7   5   1   -0.05    0.14
   6  -5  -1    0.81    0.21
  -6   5   1    1.36    0.24
  -6   5   1    0.97    0.14
   5  -5  -1    0.52    0.17
  -5   5   1    0.23    0.16
  -5   5   1    0.28    0.08
   4  -5  -1    6.19    0.40
  -4   5   1    6.31    0.40
   3  -5  -1    0.05    0.12
   3  -5  -1    0.21    0.13
  -3   5   1    0.09    0.12
   2  -5  -1   16.97    0.80
   2  -5  -1   17.54    0.81
  -2   5   1   17.54    0.79
  -2   5   1   17.24    0.82
   1  -5  -1    5.31    0.34
   1  -5  -1    4.81    0.28
   1  -5  -1    4.94    0.34
  -1   5   1    5.34    0.33
  -1   5   1    5.26    0.34
   0  -5  -1    0.11    0.12
   0  -5  -1   -0.01    0.13
   0  -5  -1    0.17    0.13
   0   5   1    0.09    0.11
   0   5   1    0.02    0.12
  -1  -5  -1    9.84    0.55
  -1  -5  -1    9.89    0.55
   1   5   1   10.47    0.55
   1   5   1   10.60    0.53
  -2  -5  -1   -0.09    0.14
   2   5   1   -0.03    0.12
   2   5   1   -0.12    0.13
  -3  -5  -1    3.92    0.35
  -3  -5  -1    3.76    0.30
   3   5   1    3.39    0.32
   3   5   1    3.55    0.34
  -4  -5  -1    1.56    0.18
  -4  -5  -1    0.89    0.24
   4   5   1    1.96    0.26
   4   5   1    1.81    0.28
  -5  -5  -1    4.92    0.47
  -5  -5  -1    4.88    0.45
   5   5   1    5.49    0.47
  -6  -5  -1    0.06    0.24
  -6  -5  -1    0.08    0.26
   6   5   1    0.19    0.24
  -7  -5  -1    0.29    0.30
  -7  -5  -1    0.10    0.28
  -8  -5  -1    2.48    0.43
  -9  -5  -1    2.73    0.48
  -9  -5  -1    2.51    0.49
 -12   6   1    0.03    0.39
 -11   6   1   -0.17    0.33
 -10   6   1    0.14    0.30
  -9   6   1    0.57    0.29
   8  -6  -1    0.28    0.23
  -8   6   1    0.52    0.24
   7  -6  -1    5.44    0.48
  -7   6   1    6.02    0.47
   6  -6  -1    2.00    0.29
  -6   6   1    1.92    0.27
  -6   6   1    1.98    0.16
   5  -6  -1   13.86    0.73
  -5   6   1   13.93    0.72
   4  -6  -1   11.58    0.63
  -4   6   1   11.40    0.61
   3  -6  -1   31.75    1.39
  -3   6   1   30.59    1.40
  -3   6   1   32.34    1.37
   2  -6  -1    0.29    0.15
  -2   6   1    0.11    0.14
  -2   6   1    0.35    0.15
   1  -6  -1   26.71    1.16
   1  -6  -1   25.41    1.11
  -1   6   1   26.11    1.17
  -1   6   1   25.03    1.13
   0  -6  -1    1.42    0.22
   0  -6  -1    1.87    0.20
   0  -6  -1    1.72    0.25
   0   6   1    1.64    0.22
   0   6   1    1.35    0.22
  -1  -6  -1    9.10    0.55
   1   6   1    9.23    0.52
   1   6   1    8.36    0.52
  -2  -6  -1   -0.31    0.16
   2   6   1   -0.03    0.13
   2   6   1   -0.17    0.14
  -3  -6  -1    4.15    0.35
  -3  -6  -1    3.74    0.38
   3   6   1    4.13    0.37
   3   6   1    3.91    0.38
  -4  -6  -1    2.34    0.24
  -4  -6  -1    1.45    0.29
  -4  -6  -1    2.16    0.34
   4   6   1    2.14    0.30
   4   6   1    1.89    0.31
  -5  -6  -1    2.65    0.39
  -5  -6  -1    2.22    0.36
   5   6   1    2.40    0.36
  -6  -6  -1   -0.13    0.26
  -6  -6  -1    0.21    0.28
  -7  -6  -1    0.49    0.34
  -7  -6  -1    0.28    0.32
  -8  -6  -1    1.56    0.43
  -8  -6  -1    1.99    0.43
  -9  -6  -1   -0.38    0.38
 -12   7   1    0.65    0.41
 -11   7   1    2.32    0.46
 -10   7   1    1.47    0.38
  -9   7   1    3.04    0.42
  -8   7   1   29.94    1.41
   7  -7  -1    2.74    0.38
  -7   7   1    3.28    0.37
   6  -7  -1    0.66    0.22
  -6   7   1    0.87    0.23
   5  -7  -1    1.66    0.27
  -5   7   1    1.74    0.27
   4  -7  -1    1.11    0.24
  -4   7   1    1.25    0.23
   3  -7  -1    5.31    0.40
  -3   7   1    5.33    0.40
  -3   7   1    4.77    0.40
   2  -7  -1   16.44    0.81
  -2   7   1   15.19    0.82
  -2   7   1   16.50    0.80
   1  -7  -1   -0.17    0.15
   1  -7  -1    0.37    0.13
  -1   7   1    0.28    0.16
  -1   7   1   -0.13    0.15
   0  -7  -1    0.51    0.16
   0  -7  -1    0.52    0.21
   0  -7  -1    0.32    0.18
   0   7   1    0.36    0.18
   0   7   1    0.72    0.19
  -1  -7  -1    2.98    0.34
  -1  -7  -1    3.37    0.31
   1   7   1    2.55    0.31
   1   7   1    3.54    0.34
  -2  -7  -1   -0.04    0.20
  -2  -7  -1    0.08    0.20
   2   7   1    0.13    0.17
   2   7   1   -0.11    0.17
  -3  -7  -1   13.99    0.80
  -3  -7  -1   14.92    0.80
   3   7   1   13.30    0.78
   3   7   1   13.84    0.77
  -4  -7  -1    0.34    0.26
  -4  -7  -1    0.19    0.26
   4   7   1    0.28    0.23
  -5  -7  -1   10.52    0.74
  -5  -7  -1   11.05    0.72
   5   7   1   10.38    0.72
  -6  -7  -1    1.88    0.40
  -6  -7  -1    1.38    0.38
  -7  -7  -1    1.01    0.39
  -7  -7  -1    1.36    0.39
  -8  -7  -1    0.91    0.40
  -8  -7  -1    0.28    0.40
 -11   8   1    1.71    0.44
 -10   8   1    0.22    0.33
  -9   8   1    2.69    0.42
  -8   8   1    9.68    0.67
   7  -8  -1    0.18    0.24
  -7   8   1    0.51    0.26
   6  -8  -1    0.40    0.22
  -6   8   1    0.42    0.23
  -5   8   1    0.35    0.22
   4  -8  -1    3.41    0.37
  -4   8   1    3.61    0.37
   3  -8  -1    2.47    0.31
  -3   8   1    2.44    0.31
  -3   8   1    1.87    0.29
   2  -8  -1    0.50    0.20
   2  -8  -1    0.42    0.11
  -2   8   1    0.50    0.22
  -2   8   1    0.60    0.21
   1  -8  -1   30.10    1.40
   1  -8  -1   31.74    1.33
  -1   8   1   28.97    1.40
  -1   8   1   30.27    1.37
   0  -8  -1    0.38    0.22
   0  -8  -1    0.59    0.19
   0   8   1    0.72    0.23
   0   8   1    0.33    0.21
  -1  -8  -1    3.63    0.40
  -1  -8  -1    3.94    0.42
  -1  -8  -1    4.22    0.37
   1   8   1    4.69    0.42
   1   8   1    4.21    0.41
  -2  -8  -1    0.47    0.25
  -2  -8  -1    0.16    0.22
   2   8   1   -0.04    0.19
   2   8   1   -0.09    0.19
  -3  -8  -1   13.46    0.78
  -3  -8  -1   12.47    0.78
   3   8   1   12.87    0.78
  -4  -8  -1    0.48    0.29
  -4  -8  -1    0.97    0.31
  -5  -8  -1   19.91    1.14
  -5  -8  -1   20.82    1.12
  -6  -8  -1   -0.07    0.32
  -6  -8  -1   -0.07    0.30
  -7  -8  -1   -0.27    0.36
  -7  -8  -1   -0.33    0.33
 -11   9   1    0.35    0.38
 -10   9   1    0.25    0.35
  -9   9   1   -0.22    0.31
  -8   9   1    0.80    0.32
   7  -9  -1    0.20    0.26
  -7   9   1    0.37    0.28
   6  -9  -1    0.45    0.26
  -6   9   1    0.10    0.24
   5  -9  -1   -0.01    0.22
  -5   9   1    0.74    0.25
   4  -9  -1    1.54    0.30
  -4   9   1    1.80    0.30
   3  -9  -1    0.96    0.26
  -3   9   1    0.60    0.26
  -3   9   1    0.98    0.26
   2  -9  -1    0.15    0.20
  -2   9   1   -0.13    0.20
  -2   9   1   -0.01    0.19
   1  -9  -1    0.82    0.26
   1  -9  -1    1.58    0.20
  -1   9   1    1.03    0.26
  -1   9   1    0.93    0.26
   0  -9  -1    1.52    0.30
   0  -9  -1    1.69    0.25
   0   9   1    1.64    0.31
   0   9   1    1.27    0.29
  -1  -9  -1    0.08    0.24
  -1  -9  -1   -0.21    0.20
  -1  -9  -1   -0.22    0.21
   1   9   1   -0.07    0.22
   1   9   1   -0.24    0.21
  -2  -9  -1   -0.13    0.24
  -2  -9  -1    0.03    0.23
   2   9   1   -0.19    0.23
   2   9   1   -0.18    0.22
  -3  -9  -1    9.50    0.70
  -3  -9  -1    9.66    0.70
  -4  -9  -1    0.41    0.33
  -4  -9  -1    1.00    0.32
  -5  -9  -1    0.00    0.30
  -5  -9  -1    0.01    0.32
  -6  -9  -1    0.38    0.38
  -6  -9  -1    0.19    0.35
  -7  -9  -1    0.49    0.42
 -10  10   1    0.13    0.36
  -9  10   1    0.10    0.33
  -8  10   1    1.21    0.37
   7 -10  -1    0.92    0.32
  -7  10   1    0.17    0.29
   6 -10  -1    0.61    0.29
  -6  10   1    0.86    0.33
   5 -10  -1    5.49    0.55
  -5  10   1    6.76    0.57
   4 -10  -1    0.07    0.24
  -4  10   1    0.58    0.27
   3 -10  -1   10.81    0.71
  -3  10   1   10.17    0.72
  -3  10   1   11.63    0.70
   2 -10  -1    2.28    0.35
  -2  10   1    2.09    0.36
  -2  10   1    2.16    0.35
   1 -10  -1   22.16    1.14
  -1  10   1   23.38    1.13
  -1  10   1   20.46    1.13
   0 -10  -1    0.46    0.27
   0  10   1    0.48    0.26
   0  10   1    0.19    0.25
  -1 -10  -1   -0.14    0.29
  -1 -10  -1   -0.06    0.26
  -1 -10  -1    0.07    0.23
   1  10   1   -0.22    0.25
  -2 -10  -1   -0.16    0.24
  -2 -10  -1    0.18    0.28
  -2 -10  -1    0.32    0.33
  -3 -10  -1    5.07    0.54
  -3 -10  -1    4.87    0.50
  -4 -10  -1   -0.29    0.29
  -4 -10  -1    0.06    0.35
  -5 -10  -1    3.29    0.50
  -5 -10  -1    2.96    0.50
  -6 -10  -1    0.01    0.34
  -6 -10  -1    0.82    0.40
 -10  11   1   -0.28    0.37
  -9  11   1    1.70    0.42
  -8  11   1    1.53    0.40
  -7  11   1    0.12    0.33
   6 -11  -1    1.96    0.39
  -6  11   1    1.49    0.39
   5 -11  -1    0.10    0.28
  -5  11   1    0.44    0.30
   4 -11  -1    3.07    0.44
  -4  11   1    4.47    0.49
   3 -11  -1    0.42    0.28
  -3  11   1    0.05    0.28
   2 -11  -1    1.57    0.35
  -2  11   1    2.56    0.40
   1 -11  -1    0.78    0.31
  -1  11   1    0.88    0.32
   0 -11  -1   -0.16    0.26
   0  11   1    0.47    0.30
  -1 -11  -1    0.38    0.30
  -2 -11  -1   -0.14    0.33
  -2 -11  -1   -0.37    0.26
  -3 -11  -1    2.16    0.44
  -3 -11  -1    2.30    0.47
  -4 -11  -1    0.43    0.33
  -4 -11  -1    0.05    0.36
  -9  12   1    0.03    0.38
  -8  12   1   -0.26    0.34
  -7  12   1    0.25    0.37
   6 -12  -1    3.37    0.51
  -6  12   1    3.49    0.51
   5 -12  -1    0.85    0.35
  -5  12   1    1.73    0.41
   4 -12  -1    2.00    0.40
  -4  12   1    1.59    0.39
   3 -12  -1    1.47    0.37
  -3  12   1    2.12    0.42
   2 -12  -1    0.62    0.32
  -2  12   1    0.23    0.31
   1 -12  -1    4.78    0.55
  -1  12   1    5.43    0.58
   0 -12  -1    0.16    0.30
  -1 -12  -1    2.88    0.47
  -2 -12  -1   -0.23    0.31
  -3 -12  -1    0.36    0.42
  -3 -12  -1   -0.40    0.33
  -7  13   1    0.83    0.41
  -6  13   1    2.64    0.48
   5 -13  -1    0.95    0.40
  -5  13   1    0.79    0.42
   4 -13  -1   -0.25    0.31
  -4  13   1    0.21    0.37
   3 -13  -1   -0.14    0.29
  -3  13   1   -0.04    0.34
   2 -13  -1    0.45    0.36
  -2  13   1    0.53    0.36
   1 -13  -1    0.42    0.35
   0 -13  -1    1.01    0.39
  -1 -13  -1    0.22    0.36
   5 -14  -1    0.87    0.42
  -5  14   1    1.14    0.45
   4 -14  -1    0.31    0.38
  -4  14   1    1.04    0.44
   3 -14  -1    0.58    0.39
  -3  14   1    1.40    0.47
   2 -14  -1   -0.16    0.35
   1 -14  -1    3.14    0.53
  -1 -14   2    1.03    0.42
   0  14  -2    0.46    0.41
   0 -14   2   -0.17    0.34
  -1  14  -2    0.16    0.40
   1 -14   2    0.05    0.33
  -2  14  -2    2.68    0.51
   2 -14   2    1.45    0.43
  -3  14  -2    1.08    0.42
  -4  14  -2    2.55    0.51
  -5  14  -2    2.16    0.48
  -6  14  -2    2.57    0.52
  -3 -13   2    0.47    0.45
  -3 -13   2    0.16    0.37
  -2 -13   2    2.82    0.51
  -2 -13   2    1.51    0.43
   1  13  -2   -0.04    0.35
  -1 -13   2    0.09    0.33
   0  13  -2    4.74    0.58
   0 -13   2    2.61    0.47
  -1  13  -2    1.38    0.40
   1 -13   2    0.19    0.32
  -2  13  -2    0.81    0.38
   2 -13   2    0.17    0.31
  -3  13  -2    0.84    0.37
   3 -13   2    0.00    0.30
  -4  13  -2    0.19    0.35
  -5  13  -2    3.66    0.51
  -6  13  -2    0.86    0.40
  -7  13  -2    0.10    0.40
  -5 -12   2    0.38    0.45
  -4 -12   2   -0.20    0.39
  -3 -12   2   -0.13    0.35
   2  12  -2    3.13    0.50
  -2 -12   2    2.74    0.46
  -2 -12   2    2.98    0.50
   1  12  -2    0.28    0.34
  -1 -12   2    0.41    0.37
  -1 -12   2    0.26    0.30
   0  12  -2    0.00    0.32
   0 -12   2    0.53    0.31
  -1  12  -2    0.28    0.32
   1 -12   2    0.91    0.33
  -2  12  -2    1.70    0.39
   2 -12   2    1.03    0.33
  -3  12  -2    0.17    0.31
   3 -12   2    0.55    0.31
  -4  12  -2    0.50    0.33
  -5  12  -2    0.23    0.31
  -6  12  -2    0.59    0.34
  -7  12  -2    8.14    0.70
  -8  12  -2    1.79    0.44
  -9  12  -2   -0.29    0.35
  -6 -11   2    6.42    0.72
  -5 -11   2    0.07    0.38
  -4 -11   2    4.47    0.58
   3  11  -2   -0.04    0.30
  -3 -11   2    0.18    0.36
   2  11  -2    7.57    0.66
  -2 -11   2    7.08    0.65
   1  11  -2    0.44    0.31
  -1 -11   2    0.27    0.29
  -1 -11   2    0.75    0.34
   0  11  -2    8.29    0.68
   0 -11   2    7.81    0.63
  -1  11  -2    0.98    0.32
  -1  11  -2    0.76    0.29
   1 -11   2    0.93    0.31
  -2  11  -2    3.96    0.46
  -2  11  -2    3.56    0.44
   2 -11   2    3.57    0.43
  -3  11  -2    0.15    0.27
  -3  11  -2    0.51    0.28
   3 -11   2    0.25    0.26
  -4  11  -2    4.41    0.48
   4 -11   2    5.09    0.51
  -5  11  -2   13.33    0.81
  -6  11  -2    2.05    0.39
  -7  11  -2   -0.51    0.29
  -8  11  -2    0.14    0.32
  -9  11  -2    0.16    0.34
  -7 -10   2    1.59    0.48
  -6 -10   2    1.76    0.47
  -5 -10   2   -0.27    0.33
   4  10  -2    0.62    0.31
  -4 -10   2    0.40    0.33
   3  10  -2    0.40    0.29
  -3 -10   2    0.10    0.29
   2  10  -2    0.18    0.25
   2  10  -2    0.19    0.25
  -2 -10   2    0.56    0.30
   1  10  -2   -0.12    0.23
   1  10  -2   -0.15    0.23
  -1 -10   2   -0.22    0.26
  -1 -10   2    0.25    0.26
   0  10  -2   11.91    0.73
   0  10  -2   11.24    0.72
   0 -10   2   12.29    0.76
   0 -10   2   10.38    0.72
  -1  10  -2    4.91    0.47
  -1  10  -2    4.86    0.47
   1 -10   2    4.99    0.48
  -2  10  -2    0.35    0.25
  -2  10  -2   -0.40    0.23
   2 -10   2    0.01    0.22
  -3  10  -2   -0.14    0.24
  -3  10  -2    0.09    0.23
   3 -10   2    0.00    0.22
  -4  10  -2    1.74    0.33
   4 -10   2    2.40    0.35
  -5  10  -2    1.43    0.31
  -6  10  -2    0.97    0.31
  -7  10  -2    9.49    0.67
  -8  10  -2    0.39    0.31
  -9  10  -2    0.08    0.31
 -10  10  -2    1.59    0.43
  -8  -9   2    1.98    0.51
  -7  -9   2    0.57    0.40
  -6  -9   2    9.29    0.76
  -5  -9   2    0.45    0.33
   4   9  -2   17.31    0.97
  -4  -9   2   16.58    0.98
   3   9  -2    0.00    0.24
   3   9  -2    0.09    0.23
  -3  -9   2    0.45    0.28
   2   9  -2    0.97    0.29
   2   9  -2    0.93    0.26
  -2  -9   2    0.91    0.30
   1   9  -2    1.09    0.27
   1   9  -2    0.57    0.23
  -1  -9   2    1.15    0.28
   0   9  -2   26.02    1.28
   0   9  -2   27.07    1.27
   0  -9   2   27.02    1.29
   0  -9   2   26.95    1.28
  -1   9  -2    0.15    0.21
  -1   9  -2    0.11    0.21
  -1   9  -2    0.18    0.14
   1  -9   2    0.08    0.20
  -2   9  -2    6.33    0.39
  -2   9  -2    6.10    0.49
  -2   9  -2    6.52    0.50
   2  -9   2    6.02    0.48
  -3   9  -2    0.08    0.15
  -3   9  -2    0.21    0.21
  -3   9  -2    0.01    0.20
   3  -9   2    0.04    0.20
  -4   9  -2    0.56    0.23
   4  -9   2    0.66    0.24
  -5   9  -2    2.53    0.34
   5  -9   2    2.49    0.35
  -6   9  -2    2.24    0.35
  -7   9  -2   12.82    0.76
  -8   9  -2   -0.01    0.27
  -9   9  -2    4.09    0.49
 -10   9  -2   -0.72    0.30
  -8  -8   2    0.30    0.40
  -7  -8   2    2.10    0.45
  -6  -8   2    5.39    0.57
   5   8  -2    0.64    0.28
   4   8  -2    4.14    0.43
   4   8  -2    3.08    0.39
  -4  -8   2    3.24    0.42
   3   8  -2    0.07    0.21
   3   8  -2   -0.08    0.20
  -3  -8   2   -0.24    0.22
   2   8  -2    0.85    0.25
   2   8  -2    1.59    0.29
  -2  -8   2    1.55    0.30
   1   8  -2    0.08    0.19
   1   8  -2   -0.01    0.19
  -1  -8   2    0.01    0.21
   0   8  -2   -0.03    0.16
   0   8  -2    0.23    0.19
   0  -8   2   -0.03    0.18
   0  -8   2    0.35    0.21
  -1   8  -2    1.65    0.18
  -1   8  -2    1.12    0.24
  -1   8  -2    1.26    0.24
   1  -8   2    1.30    0.25
  -2   8  -2    0.04    0.12
  -2   8  -2   -0.10    0.17
  -2   8  -2    0.10    0.18
   2  -8   2    0.00    0.17
  -3   8  -2    0.12    0.18
  -3   8  -2    0.23    0.14
  -3   8  -2    0.36    0.19
   3  -8   2    0.29    0.19
  -4   8  -2    0.21    0.20
   4  -8   2   -0.16    0.16
  -5   8  -2    4.76    0.42
   5  -8   2    4.96    0.44
  -6   8  -2    6.55    0.50
  -7   8  -2    0.21    0.24
  -8   8  -2    1.59    0.34
  -9   8  -2    1.14    0.33
 -10   8  -2    1.44    0.40
 -11   8  -2    0.44    0.38
  -9  -7   2    1.60    0.47
  -8  -7   2    1.07    0.39
  -7  -7   2   -0.05    0.31
  -6  -7   2    4.48    0.50
   5   7  -2    1.34    0.30
   5   7  -2    1.46    0.31
  -5  -7   2    0.73    0.28
   4   7  -2   12.98    0.75
   4   7  -2   14.01    0.75
  -4  -7   2   11.64    0.75
   3   7  -2    1.86    0.28
   3   7  -2    1.86    0.29
  -3  -7   2    2.19    0.32
   2   7  -2   10.89    0.63
   2   7  -2   11.67    0.64
  -2  -7   2   10.08    0.64
   1   7  -2    2.43    0.28
   1   7  -2    2.70    0.30
  -1  -7   2    3.15    0.32
   0   7  -2   41.95    1.71
   0   7  -2   38.76    1.74
   0  -7   2   39.17    1.72
  -1   7  -2    4.48    0.30
  -1   7  -2    4.77    0.37
  -1   7  -2    4.51    0.36
   1  -7   2    4.74    0.37
  -2   7  -2   40.01    1.77
  -2   7  -2   40.98    1.76
  -2   7  -2   41.28    1.73
   2  -7   2   40.43    1.74
  -3   7  -2    1.27    0.18
  -3   7  -2    1.04    0.20
   3  -7   2    1.49    0.13
   3  -7   2    1.19    0.21
  -4   7  -2    3.90    0.33
   4  -7   2    3.42    0.25
   4  -7   2    3.81    0.35
  -5   7  -2   -0.13    0.17
   5  -7   2   -0.10    0.16
  -6   7  -2    0.08    0.20
  -6   7  -2   -0.05    0.12
  -7   7  -2   14.51    0.78
  -8   7  -2    1.50    0.31
  -9   7  -2    0.09    0.28
 -10   7  -2    0.26    0.33
 -11   7  -2    1.07    0.41
 -10  -6   2    1.21    0.45
  -9  -6   2   -0.18    0.34
  -8  -6   2    0.94    0.35
  -7  -6   2    2.53    0.41
   6   6  -2    0.86    0.27
   6   6  -2    0.84    0.27
  -6  -6   2    0.89    0.30
   5   6  -2    4.04    0.41
   5   6  -2    4.72    0.43
  -5  -6   2    4.17    0.44
   4   6  -2    7.55    0.53
   4   6  -2    8.53    0.53
  -4  -6   2    7.79    0.55
   3   6  -2    4.57    0.39
   3   6  -2    5.59    0.42
  -3  -6   2    4.63    0.41
   2   6  -2    3.00    0.30
   2   6  -2    2.79    0.30
  -2  -6   2    3.07    0.32
   1   6  -2    0.23    0.14
   1   6  -2    0.05    0.13
  -1  -6   2    0.19    0.15
  -1  -6   2    0.07    0.16
   0   6  -2   45.94    1.94
   0   6  -2   44.10    1.90
   0  -6   2   46.95    1.93
   0  -6   2   45.89    1.92
  -1   6  -2    6.45    0.41
  -1   6  -2    6.78    0.37
  -1   6  -2    6.47    0.41
   1  -6   2    7.03    0.43
   1  -6   2    6.86    0.40
  -2   6  -2    0.04    0.12
  -2   6  -2    0.12    0.10
  -2   6  -2   -0.03    0.13
   2  -6   2    0.13    0.12
   2  -6   2    0.10    0.13
   2  -6   2    0.00    0.06
  -3   6  -2    1.92    0.21
  -3   6  -2    2.07    0.22
   3  -6   2    2.79    0.26
   3  -6   2    2.18    0.18
   3  -6   2    2.05    0.23
  -4   6  -2    3.63    0.32
   4  -6   2    4.60    0.35
  -5   6  -2    1.16    0.16
  -5   6  -2    1.36    0.22
   5  -6   2    1.65    0.24
  -6   6  -2    5.87    0.42
  -6   6  -2    5.67    0.38
   6  -6   2    5.85    0.44
  -7   6  -2    4.17    0.40
  -7   6  -2    5.27    0.37
  -8   6  -2    1.52    0.29
  -8   6  -2    1.56    0.25
   8  -6   2    1.33    0.33
  -9   6  -2    2.81    0.39
 -10   6  -2    0.19    0.32
 -11   6  -2   -0.12    0.35
 -10  -5   2    0.01    0.36
  -9  -5   2    2.84    0.48
  -8  -5   2    0.66    0.33
   7   5  -2    0.33    0.24
  -7  -5   2    0.53    0.28
   6   5  -2   10.33    0.73
   6   5  -2   13.86    0.75
  -6  -5   2   14.70    0.78
   5   5  -2    0.12    0.18
   5   5  -2   -0.05    0.18
  -5  -5   2   -0.10    0.20
   4   5  -2   24.25    1.14
   4   5  -2   25.16    1.12
  -4  -5   2   22.84    1.12
   3   5  -2    1.63    0.23
   3   5  -2    1.67    0.23
  -3  -5   2    1.65    0.24
   2   5  -2   19.53    0.92
   2   5  -2   18.29    0.92
  -2  -5   2   20.79    0.93
  -2  -5   2   21.55    0.94
   1   5  -2    4.75    0.34
   1   5  -2    5.35    0.35
  -1  -5   2    5.14    0.36
  -1  -5   2    5.82    0.35
   0   5  -2   99.07    3.92
   0   5  -2   98.12    3.98
   0  -5   2   96.87    3.97
   0  -5   2  100.03    3.93
  -1   5  -2    0.19    0.08
  -1   5  -2    0.03    0.11
  -1   5  -2    0.01    0.10
   1  -5   2    0.13    0.11
   1  -5   2    0.06    0.11
  -2   5  -2   42.21    1.78
  -2   5  -2   41.24    1.82
  -2   5  -2   42.05    1.74
   2  -5   2   43.84    1.76
   2  -5   2   41.22    1.75
   2  -5   2   43.80    1.78
  -3   5  -2    1.53    0.19
  -3   5  -2    1.87    0.19
   3  -5   2    1.58    0.19
   3  -5   2    1.91    0.15
   3  -5   2    1.82    0.21
  -4   5  -2   10.17    0.54
  -4   5  -2   10.77    0.52
   4  -5   2   11.78    0.59
   4  -5   2   10.78    0.55
  -5   5  -2    1.32    0.20
  -5   5  -2    1.22    0.17
   5  -5   2    1.66    0.22
  -6   5  -2    1.79    0.25
  -6   5  -2    2.04    0.23
   6  -5   2    2.05    0.26
  -7   5  -2    6.22    0.43
  -7   5  -2    5.88    0.45
  -8   5  -2    0.43    0.20
  -8   5  -2    0.40    0.24
   8  -5   2    0.46    0.28
  -9   5  -2    0.24    0.27
  -9   5  -2    0.16    0.23
   9  -5   2    0.71    0.32
 -10   5  -2    0.54    0.31
 -11   5  -2    0.99    0.38
 -11  -4   2    0.67    0.43
 -10  -4   2    1.10    0.41
  -9  -4   2    0.35    0.34
  -8  -4   2    2.07    0.38
   7   4  -2    2.25    0.35
   7   4  -2    2.69    0.35
  -7  -4   2    1.85    0.34
   6   4  -2    0.77    0.24
   6   4  -2    0.94    0.23
  -6  -4   2    0.72    0.25
   5   4  -2    3.75    0.35
   5   4  -2    3.52    0.36
  -5  -4   2    2.92    0.34
   4   4  -2    1.21    0.21
   4   4  -2    1.52    0.23
  -4  -4   2    1.33    0.22
   3   4  -2    0.70    0.16
   3   4  -2    0.57    0.16
  -3  -4   2    0.66    0.17
  -3  -4   2    0.28    0.16
   2   4  -2   60.47    2.45
   2   4  -2   58.54    2.49
  -2  -4   2   60.79    2.49
  -2  -4   2   61.56    2.46
   1   4  -2    3.49    0.27
   1   4  -2    4.30    0.28
  -1  -4   2    4.14    0.27
  -1  -4   2    3.86    0.29
   0   4  -2   54.13    2.17
   0   4  -2   52.08    2.14
   0  -4   2   51.76    2.14
   0  -4   2   53.70    2.17
  -1   4  -2   20.26    0.93
  -1   4  -2   22.05    0.93
  -1   4  -2   21.38    0.91
   1  -4   2   21.45    0.92
   1  -4   2   21.18    0.92
  -2   4  -2    0.01    0.08
  -2   4  -2    0.28    0.10
  -2   4  -2   -0.02    0.08
   2  -4   2    0.18    0.10
   2  -4   2    0.17    0.07
   2  -4   2    0.29    0.10
  -3   4  -2   14.30    0.64
  -3   4  -2   14.08    0.64
  -3   4  -2   14.98    0.66
  -3   4  -2   13.59    0.68
   3  -4   2   14.02    0.66
   3  -4   2   14.69    0.68
  -4   4  -2   -0.07    0.10
  -4   4  -2   -0.11    0.10
  -4   4  -2    0.09    0.09
   4  -4   2    0.17    0.12
  -5   4  -2    2.09    0.22
  -5   4  -2    2.81    0.25
   5  -4   2    2.42    0.24
  -6   4  -2    0.97    0.19
  -6   4  -2    0.80    0.18
   6  -4   2    0.81    0.19
   6  -4   2    0.89    0.23
  -7   4  -2    1.22    0.23
  -7   4  -2    1.00    0.23
   7  -4   2    1.32    0.28
  -8   4  -2    1.23    0.28
  -8   4  -2    1.30    0.26
   8  -4   2    1.62    0.34
  -9   4  -2    1.87    0.35
  -9   4  -2    1.70    0.31
   9  -4   2    1.42    0.37
 -10   4  -2    1.10    0.31
 -10   4  -2    1.05    0.36
 -11   4  -2    0.35    0.36
 -11  -3   2    2.03    0.48
 -11  -3   2    0.52    0.45
 -10  -3   2    1.02    0.38
  -9  -3   2    1.61    0.38
   8   3  -2    4.30    0.48
  -8  -3   2    3.74    0.44
   7   3  -2    0.65    0.25
   7   3  -2    1.02    0.25
  -7  -3   2    0.32    0.24
   6   3  -2    4.67    0.41
   6   3  -2    4.31    0.41
  -6  -3   2    4.71    0.42
   5   3  -2    0.33    0.18
   5   3  -2    0.39    0.17
  -5  -3   2    0.30    0.18
   4   3  -2   24.98    1.16
   4   3  -2   24.76    1.13
  -4  -3   2   27.32    1.18
  -4  -3   2   24.95    1.13
   3   3  -2    0.77    0.15
   3   3  -2    0.98    0.16
  -3  -3   2    0.95    0.17
  -3  -3   2    0.63    0.15
   2   3  -2   17.27    0.77
   2   3  -2   16.83    0.76
  -2  -3   2   16.67    0.76
  -2  -3   2   16.91    0.76
   1   3  -2    2.66    0.20
   1   3  -2    2.65    0.21
  -1  -3   2    3.10    0.20
  -1  -3   2    2.81    0.21
   0   3  -2    8.48    0.42
   0   3  -2    9.36    0.42
   0   3  -2    9.19    0.43
   0  -3   2    9.05    0.42
   0  -3   2    8.68    0.42
  -1   3  -2    7.28    0.35
  -1   3  -2    7.22    0.34
  -1   3  -2    6.74    0.35
  -1   3  -2    7.26    0.35
   1  -3   2    7.54    0.35
   1  -3   2    6.55    0.33
   1  -3   2    7.24    0.35
  -2   3  -2   57.28    2.36
  -2   3  -2   58.25    2.27
  -2   3  -2   55.84    2.42
  -2   3  -2   56.07    2.28
   2  -3   2   56.61    2.36
   2  -3   2   58.35    2.28
   2  -3   2   57.32    2.32
  -3   3  -2    5.58    0.30
  -3   3  -2    5.70    0.31
  -3   3  -2    5.32    0.31
  -3   3  -2    5.38    0.33
   3  -3   2    5.53    0.30
  -4   3  -2   56.92    2.37
  -4   3  -2   58.22    2.48
  -4   3  -2   60.75    2.39
   4  -3   2   60.84    2.39
  -5   3  -2    1.46    0.20
  -5   3  -2    1.30    0.18
  -5   3  -2    1.18    0.18
   5  -3   2    1.61    0.20
   5  -3   2    1.64    0.24
  -6   3  -2    5.93    0.41
  -6   3  -2    6.48    0.43
   6  -3   2    6.19    0.47
   6  -3   2    5.84    0.41
  -7   3  -2    1.25    0.25
  -7   3  -2    1.86    0.27
   7  -3   2    1.34    0.28
  -8   3  -2   -0.08    0.22
  -8   3  -2    0.04    0.21
   8  -3   2    0.16    0.25
  -9   3  -2    0.77    0.27
  -9   3  -2    0.23    0.27
   9  -3   2    0.30    0.31
 -10   3  -2    0.32    0.27
 -10   3  -2    0.32    0.32
 -11   3  -2    1.48    0.39
 -11   3  -2    0.81    0.38
 -11  -2   2    0.24    0.38
 -10  -2   2    2.03    0.42
  -9  -2   2    5.58    0.54
   8   2  -2    7.75    0.59
  -8  -2   2    7.23    0.58
   7   2  -2    0.29    0.21
   7   2  -2    0.57    0.21
  -7  -2   2    0.56    0.24
   6   2  -2    7.00    0.47
   6   2  -2    7.08    0.50
  -6  -2   2    6.91    0.50
   5   2  -2    3.41    0.31
   5   2  -2    3.58    0.34
  -5  -2   2    3.64    0.34
   4   2  -2    0.87    0.16
   4   2  -2    1.13    0.19
  -4  -2   2    0.83    0.18
  -4  -2   2    0.79    0.17
   3   2  -2    1.46    0.18
   3   2  -2    1.18    0.16
  -3  -2   2    1.42    0.18
  -3  -2   2    1.65    0.18
   2   2  -2   82.24    3.22
   2   2  -2   80.81    3.27
  -2  -2   2   80.90    3.22
  -2  -2   2   80.24    3.27
   1   2  -2    0.18    0.07
   1   2  -2    0.27    0.06
   1   2  -2    0.20    0.07
   1   2  -2    0.36    0.07
  -1  -2   2    0.33    0.07
  -1  -2   2    0.19    0.07
   0   2  -2   41.78    1.90
   0   2  -2   41.77    1.76
   0   2  -2   46.62    1.79
   0   2  -2   45.64    1.76
   0  -2   2   46.50    1.78
   0  -2   2   44.24    1.76
  -1   2  -2    2.38    0.16
  -1   2  -2    2.22    0.15
  -1   2  -2    2.51    0.14
   1  -2   2    2.30    0.14
   1  -2   2    2.16    0.14
   1  -2   2    2.27    0.15
  -2   2  -2   41.57    1.62
  -2   2  -2   40.70    1.74
  -2   2  -2   37.62    1.62
  -2   2  -2   40.14    1.70
   2  -2   2   43.52    1.62
  -3   2  -2   14.02    0.67
  -3   2  -2   14.75    0.62
   3  -2   2   14.59    0.63
  -4   2  -2    1.58    0.19
  -4   2  -2    1.95    0.19
   4  -2   2    2.67    0.26
   4  -2   2    1.89    0.19
  -5   2  -2   24.77    1.14
  -5   2  -2   25.79    1.13
  -5   2  -2   26.78    1.20
   5  -2   2   26.78    1.14
   5  -2   2   27.12    1.21
  -6   2  -2   -0.07    0.16
  -6   2  -2    0.24    0.16
   6  -2   2    0.19    0.18
   6  -2   2    0.13    0.14
  -7   2  -2    1.09    0.24
  -7   2  -2    0.77    0.23
   7  -2   2    1.31    0.28
  -8   2  -2    4.30    0.43
  -8   2  -2    4.66    0.44
   8  -2   2    5.57    0.52
  -9   2  -2   -0.25    0.26
  -9   2  -2   -0.02    0.25
   9  -2   2    0.30    0.28
 -10   2  -2    0.58    0.31
 -10   2  -2    0.12    0.31
 -11   2  -2    2.24    0.43
 -11   2  -2    2.20    0.44
 -12  -1   2    0.20    0.43
 -12  -1   2    0.12    0.42
 -11  -1   2    1.07    0.45
 -11  -1   2    1.44    0.43
 -10  -1   2    0.13    0.30
   9   1  -2   13.37    0.86
  -9  -1   2   14.11    0.84
   8   1  -2   -0.03    0.19
   8   1  -2    0.08    0.23
  -8  -1   2   -0.23    0.23
   7   1  -2    2.09    0.29
  -7  -1   2    1.97    0.30
   6   1  -2    6.26    0.45
   6   1  -2    6.32    0.44
  -6  -1   2    6.55    0.47
   5   1  -2    5.91    0.39
   5   1  -2    5.58    0.40
  -5  -1   2    5.77    0.41
  -5  -1   2    5.97    0.43
   4   1  -2   26.72    1.19
   4   1  -2   25.84    1.16
  -4  -1   2   27.79    1.20
  -4  -1   2   26.85    1.17
   3   1  -2    2.29    0.21
   3   1  -2    2.48    0.21
  -3  -1   2    2.62    0.22
  -3  -1   2    2.43    0.21
   2   1  -2   98.22    4.12
   2   1  -2   95.66    3.88
   2   1  -2   99.58    3.94
  -2  -1   2   98.00    3.88
  -2  -1   2  100.58    3.94
   1   1  -2    0.03    0.04
   1   1  -2    0.07    0.04
   1   1  -2    0.02    0.03
   1   1  -2    0.05    0.05
  -1  -1   2   -0.04    0.02
  -1  -1   2    0.03    0.04
  -1  -1   2   -0.04    0.04
   0   1  -2    0.81    0.06
   0   1  -2    0.80    0.06
   0   1  -2    0.81    0.05
   0   1  -2    0.62    0.08
   0  -1   2    0.66    0.07
  -1   1  -2    0.08    0.05
  -1   1  -2    0.01    0.05
  -1   1  -2    0.05    0.05
  -1   1  -2    0.08    0.03
  -1   1  -2    0.06    0.03
   1  -1   2    0.04    0.05
  -2   1  -2  134.23    5.27
  -2   1  -2  133.86    5.54
  -2   1  -2  128.06    5.70
  -2   1  -2  136.25    5.27
  -2   1  -2  139.64    5.64
   2  -1   2  135.96    5.27
   2  -1   2  139.92    5.39
  -3   1  -2    8.66    0.39
  -3   1  -2    7.89    0.43
  -3   1  -2    7.28    0.43
  -3   1  -2    8.59    0.40
   3  -1   2    8.62    0.44
   3  -1   2    8.31    0.39
  -4   1  -2   80.26    3.27
  -4   1  -2   84.49    3.45
   4  -1   2   82.24    3.27
   4  -1   2   82.83    3.38
  -5   1  -2    0.52    0.15
  -5   1  -2    0.32    0.17
  -5   1  -2    0.62    0.16
   5  -1   2    0.44    0.13
   5  -1   2    0.64    0.19
  -6   1  -2    0.21    0.17
  -6   1  -2    0.06    0.18
   6  -1   2    0.28    0.18
   6  -1   2    0.54    0.16
  -7   1  -2    5.49    0.46
  -7   1  -2    4.74    0.41
   7  -1   2    4.20    0.44
  -8   1  -2    4.25    0.44
  -8   1  -2    4.83    0.44
   8  -1   2    3.89    0.46
  -9   1  -2   11.39    0.74
  -9   1  -2   11.36    0.73
 -10   1  -2    1.28    0.36
 -10   1  -2    0.80    0.35
 -11   1  -2    0.57    0.38
 -11   1  -2    0.74    0.37
 -12   0   2    1.18    0.44
 -12   0   2    0.26    0.43
 -11   0   2    0.58    0.36
 -11   0   2    0.05    0.38
 -10   0   2    1.99    0.39
   9   0  -2    0.96    0.31
  -9   0   2    1.38    0.33
   8   0  -2   12.14    0.77
   8   0  -2   13.71    0.75
  -8   0   2   13.10    0.76
   7   0  -2    1.42    0.28
   7   0  -2    1.44    0.25
  -7   0   2    1.77    0.30
   6   0  -2    4.95    0.39
   6   0  -2    5.39    0.41
  -6   0   2    5.14    0.40
   5   0  -2    3.11    0.28
   5   0  -2    3.00    0.29
  -5   0   2    2.76    0.28
  -5   0   2    3.15    0.31
   4   0  -2    4.43    0.30
   4   0  -2    3.44    0.30
  -4   0   2    4.32    0.30
  -4   0   2    4.27    0.31
   3   0  -2    3.67    0.24
   3   0  -2    3.62    0.25
  -3   0   2    3.68    0.25
  -3   0   2    3.84    0.25
  -3   0   2    2.81    0.26
   2   0  -2    7.60    0.35
   2   0  -2    6.81    0.34
   2   0  -2    7.09    0.35
  -2   0   2    6.97    0.34
  -2   0   2    7.04    0.39
   1   0  -2    0.04    0.04
   1   0  -2    0.00    0.04
  -1   0   2   -0.02    0.02
  -1   0   2   -0.19    0.05
  -1   0   2    0.10    0.04
   0   0  -2    1.52    0.18
   0   0  -2    1.62    0.17
   0   0  -2    1.99    0.14
   0   0  -2    1.58    0.14
   0   0   2    1.76    0.17
  -1   0  -2    0.37    0.07
  -1   0  -2    0.28    0.06
  -1   0  -2    0.20    0.06
  -1   0  -2    0.29    0.06
   1   0   2    0.25    0.06
   1   0   2    0.35    0.07
  -2   0  -2    1.22    0.15
  -2   0  -2    1.34    0.11
  -2   0  -2    1.78    0.16
  -2   0  -2    1.36    0.12
  -2   0  -2    1.25    0.13
   2   0   2    1.63    0.15
   2   0   2    1.47    0.11
  -3   0  -2    2.07    0.17
  -3   0  -2    2.01    0.18
  -3   0  -2    2.29    0.21
  -3   0  -2    1.97    0.21
  -3   0  -2    1.87    0.17
   3   0   2    2.15    0.20
   3   0   2    1.77    0.19
   3   0   2    2.29    0.17
  -4   0  -2    3.12    0.25
  -4   0  -2    2.87    0.25
  -4   0  -2    2.78    0.28
  -4   0  -2    2.95    0.30
   4   0   2    3.25    0.23
   4   0   2    2.77    0.27
   4   0   2    3.48    0.26
  -5   0  -2   10.60    0.60
  -5   0  -2   10.48    0.55
  -5   0  -2    8.95    0.55
   5   0   2   10.57    0.60
   5   0   2   10.68    0.53
   5   0   2   10.89    0.58
  -6   0  -2    1.60    0.28
  -6   0  -2    1.58    0.25
   6   0   2    1.71    0.28
   6   0   2    2.00    0.20
  -7   0  -2    0.10    0.20
  -7   0  -2   -0.09    0.22
   7   0   2    0.12    0.23
  -8   0  -2    4.84    0.48
  -8   0  -2    4.28    0.44
   8   0   2    4.28    0.48
  -9   0  -2    6.17    0.57
  -9   0  -2    5.38    0.52
 -10   0  -2    1.03    0.38
 -10   0  -2    1.32    0.39
 -11   0  -2    1.19    0.41
 -11   0  -2    1.23    0.40
 -12   1   2    0.02    0.40
 -12   1   2   -0.72    0.37
 -11   1   2    1.88    0.43
 -11   1   2    0.33    0.39
 -10   1   2    0.64    0.32
   9  -1  -2   32.94    1.57
  -9   1   2   30.81    1.50
   8  -1  -2    5.52    0.48
   8  -1  -2    4.13    0.46
  -8   1   2    4.85    0.46
   7  -1  -2    6.02    0.49
   7  -1  -2    7.86    0.50
  -7   1   2    7.88    0.51
   6  -1  -2    0.04    0.16
   6  -1  -2    0.14    0.14
  -6   1   2    0.11    0.15
   5  -1  -2    1.95    0.18
   5  -1  -2    1.41    0.20
   5  -1  -2    1.14    0.21
  -5   1   2    1.07    0.19
   4  -1  -2   64.10    2.64
   4  -1  -2   65.72    3.08
   4  -1  -2   64.52    2.68
  -4   1   2   66.19    2.63
   3  -1  -2    3.95    0.25
   3  -1  -2    3.56    0.29
  -3   1   2    3.77    0.24
   2  -1  -2   98.75    3.79
   2  -1  -2   96.85    4.54
  -2   1   2   95.21    3.78
  -2   1   2   94.48    4.54
   1  -1  -2    0.36    0.08
   1  -1  -2    0.21    0.05
   1  -1  -2    0.28    0.06
   1  -1  -2    0.29    0.06
  -1   1   2    0.30    0.06
  -1   1   2    0.34    0.10
  -1   1   2    0.21    0.04
   0  -1  -2    5.60    0.28
   0  -1  -2    5.64    0.29
   0  -1  -2    6.41    0.28
   0  -1  -2    6.30    0.33
   0  -1  -2    6.76    0.28
   0   1   2    6.48    0.37
   0   1   2    6.45    0.28
   0   1   2    5.24    0.26
  -1  -1  -2   -0.01    0.05
  -1  -1  -2    0.07    0.06
  -1  -1  -2   -0.06    0.06
  -1  -1  -2   -0.05    0.07
  -1  -1  -2    0.01    0.04
   1   1   2   -0.03    0.06
   1   1   2   -0.08    0.11
   1   1   2    0.07    0.04
  -2  -1  -2   18.52    0.90
  -2  -1  -2   20.30    0.90
  -2  -1  -2   19.77    0.83
  -2  -1  -2   22.13    0.89
   2   1   2   19.99    0.87
   2   1   2   20.32    1.01
   2   1   2   19.75    0.82
  -3  -1  -2    1.69    0.16
  -3  -1  -2    1.89    0.21
  -3  -1  -2    1.56    0.16
  -3  -1  -2    1.58    0.20
   3   1   2    1.75    0.19
   3   1   2    1.64    0.15
   3   1   2    1.45    0.18
  -4  -1  -2   23.76    1.10
  -4  -1  -2   23.11    1.10
  -4  -1  -2   23.25    1.03
  -4  -1  -2   23.36    1.07
   4   1   2   24.17    1.19
   4   1   2   24.66    1.01
   4   1   2   23.00    1.08
  -5  -1  -2    2.50    0.23
  -5  -1  -2    2.57    0.30
  -5  -1  -2    2.45    0.27
  -5  -1  -2    1.91    0.24
   5   1   2    2.51    0.25
   5   1   2    2.85    0.25
   5   1   2    2.63    0.30
  -6  -1  -2   10.49    0.67
  -6  -1  -2   11.08    0.61
   6   1   2   10.24    0.65
  -7  -1  -2    2.33    0.33
  -7  -1  -2    3.07    0.38
   7   1   2    3.24    0.40
  -8  -1  -2    0.21    0.27
  -8  -1  -2    0.40    0.29
   8   1   2    0.14    0.26
  -9  -1  -2   10.26    0.73
  -9  -1  -2    8.31    0.66
 -10  -1  -2   -0.05    0.31
 -10  -1  -2    0.10    0.33
 -11  -1  -2    0.91    0.41
 -12   2   2    0.51    0.41
 -11   2   2    1.31    0.41
 -11   2   2    1.61    0.42
 -10   2   2    0.31    0.30
   9  -2  -2    0.06    0.26
  -9   2   2    0.13    0.26
   8  -2  -2    4.21    0.44
   8  -2  -2    4.08    0.42
  -8   2   2    3.71    0.41
   7  -2  -2   -0.02    0.17
   7  -2  -2    0.00    0.19
  -7   2   2   -0.29    0.17
   6  -2  -2    2.83    0.30
   6  -2  -2    2.65    0.30
  -6   2   2    2.22    0.27
   5  -2  -2   14.34    0.70
  -5   2   2   13.71    0.68
   4  -2  -2   19.67    0.90
  -4   2   2   20.25    0.88
   3  -2  -2    6.31    0.36
  -3   2   2    6.52    0.34
   2  -2  -2  105.32    4.14
   2  -2  -2  103.15    4.08
  -2   2   2  102.29    4.07
   1  -2  -2    5.44    0.26
   1  -2  -2    5.45    0.28
   1  -2  -2    4.95    0.25
   1  -2  -2    4.77    0.26
  -1   2   2    5.11    0.27
  -1   2   2    5.27    0.26
   0  -2  -2    0.11    0.07
   0  -2  -2    0.03    0.07
   0  -2  -2    0.08    0.06
   0  -2  -2   -0.04    0.07
   0  -2  -2    0.07    0.05
   0   2   2    0.07    0.08
   0   2   2   -0.02    0.07
   0   2   2   -0.02    0.06
   0   2   2    0.35    0.15
  -1  -2  -2    2.07    0.19
  -1  -2  -2    1.52    0.14
  -1  -2  -2    1.74    0.15
  -1  -2  -2    1.96    0.18
  -1  -2  -2    1.80    0.16
   1   2   2    1.93    0.15
   1   2   2    2.22    0.24
   1   2   2    1.99    0.17
  -2  -2  -2    0.16    0.08
  -2  -2  -2    0.05    0.11
  -2  -2  -2    0.39    0.10
  -2  -2  -2    0.20    0.10
  -2  -2  -2    0.20    0.12
   2   2   2    0.10    0.10
   2   2   2    0.22    0.08
   2   2   2    0.23    0.14
  -3  -2  -2    0.38    0.15
  -3  -2  -2    0.40    0.13
  -3  -2  -2    0.39    0.15
  -3  -2  -2    0.23    0.11
  -3  -2  -2    0.38    0.10
   3   2   2    0.42    0.11
   3   2   2    0.40    0.17
   3   2   2    0.52    0.14
  -4  -2  -2    0.07    0.10
  -4  -2  -2   -0.12    0.11
  -4  -2  -2   -0.07    0.15
  -4  -2  -2   -0.07    0.13
  -4  -2  -2    0.12    0.16
   4   2   2    0.18    0.14
   4   2   2    0.07    0.11
  -5  -2  -2    5.24    0.34
  -5  -2  -2    4.83    0.38
  -5  -2  -2    4.39    0.41
   5   2   2    4.78    0.39
   5   2   2    5.04    0.35
  -6  -2  -2    0.68    0.27
  -6  -2  -2    0.68    0.17
  -6  -2  -2    0.71    0.23
   6   2   2    0.62    0.23
  -7  -2  -2    0.17    0.25
  -7  -2  -2    0.10    0.23
   7   2   2   -0.21    0.21
  -8  -2  -2    1.14    0.32
  -8  -2  -2    1.35    0.35
   8   2   2    1.78    0.35
  -9  -2  -2    4.15    0.50
  -9  -2  -2    6.51    0.61
 -10  -2  -2    0.15    0.33
 -10  -2  -2    0.58    0.36
 -12   3   2    0.53    0.40
 -11   3   2    0.96    0.36
 -11   3   2    0.80    0.38
 -10   3   2    2.91    0.42
 -10   3   2    1.52    0.36
   9  -3  -2   -0.09    0.27
  -9   3   2   -0.22    0.24
   8  -3  -2    0.36    0.25
   8  -3  -2    0.36    0.22
  -8   3   2    0.35    0.23
   7  -3  -2   12.98    0.71
   7  -3  -2   11.95    0.72
  -7   3   2   13.10    0.71
   6  -3  -2    5.37    0.41
  -6   3   2    5.91    0.42
   5  -3  -2    2.16    0.24
  -5   3   2    2.73    0.26
   4  -3  -2   36.71    1.54
  -4   3   2   35.98    1.52
   3  -3  -2    5.92    0.35
  -3   3   2    5.96    0.34
   2  -3  -2   94.64    3.52
   2  -3  -2   88.70    3.55
  -2   3   2   90.62    3.56
  -2   3   2   79.64    3.59
  -2   3   2   89.01    3.50
   1  -3  -2    5.09    0.29
   1  -3  -2    5.21    0.25
   1  -3  -2    5.33    0.29
  -1   3   2    4.38    0.27
  -1   3   2    5.16    0.29
  -1   3   2    4.51    0.26
   0  -3  -2   16.94    0.71
   0  -3  -2   15.49    0.71
   0  -3  -2   16.17    0.71
   0  -3  -2   15.83    0.69
   0  -3  -2   15.43    0.71
   0   3   2   15.42    0.69
   0   3   2   16.33    0.72
  -1  -3  -2    0.98    0.15
  -1  -3  -2    1.10    0.13
  -1  -3  -2    1.10    0.16
  -1  -3  -2    1.16    0.15
   1   3   2    0.82    0.12
   1   3   2    1.15    0.15
  -2  -3  -2   24.08    1.12
  -2  -3  -2   25.75    1.09
  -2  -3  -2   26.04    1.08
  -2  -3  -2   25.85    1.16
  -2  -3  -2   26.41    1.16
   2   3   2   25.06    1.12
   2   3   2   24.76    1.07
  -3  -3  -2    0.58    0.18
  -3  -3  -2    0.40    0.14
  -3  -3  -2    0.45    0.12
  -3  -3  -2    0.52    0.17
  -3  -3  -2    0.51    0.13
   3   3   2    0.41    0.13
   3   3   2    0.24    0.14
  -4  -3  -2   12.00    0.68
  -4  -3  -2   11.78    0.62
  -4  -3  -2   11.45    0.59
   4   3   2   12.26    0.61
   4   3   2   12.59    0.65
  -5  -3  -2    0.66    0.21
  -5  -3  -2    0.25    0.13
  -5  -3  -2    0.20    0.21
   5   3   2    0.46    0.20
  -6  -3  -2    3.76    0.42
  -6  -3  -2    3.74    0.38
   6   3   2    3.99    0.43
  -7  -3  -2    0.30    0.26
  -7  -3  -2    0.25    0.27
   7   3   2    0.02    0.24
  -8  -3  -2    3.69    0.45
  -8  -3  -2    4.72    0.53
  -9  -3  -2    0.29    0.33
  -9  -3  -2    0.68    0.34
 -10  -3  -2    0.57    0.39
 -12   4   2    0.55    0.40
 -11   4   2    0.19    0.34
 -10   4   2    8.14    0.60
 -10   4   2    7.11    0.63
  -9   4   2   11.38    0.72
  -9   4   2   11.03    0.69
   8  -4  -2    3.09    0.41
   8  -4  -2    3.33    0.38
  -8   4   2    3.14    0.37
   7  -4  -2    3.84    0.39
  -7   4   2    3.92    0.38
   6  -4  -2    4.94    0.39
  -6   4   2    4.84    0.39
   5  -4  -2    3.67    0.32
  -5   4   2    3.28    0.30
   4  -4  -2    6.40    0.40
   4  -4  -2    6.77    0.41
  -4   4   2    5.99    0.39
   3  -4  -2   16.80    0.79
   3  -4  -2   16.57    0.78
  -3   4   2   17.03    0.77
   2  -4  -2    0.48    0.12
   2  -4  -2    0.16    0.11
   2  -4  -2    0.43    0.06
  -2   4   2    0.39    0.12
  -2   4   2    0.41    0.11
   1  -4  -2    6.89    0.40
   1  -4  -2    8.31    0.41
   1  -4  -2    7.04    0.35
  -1   4   2    7.13    0.39
  -1   4   2    6.85    0.40
   0  -4  -2   16.83    0.78
   0  -4  -2   16.63    0.77
   0  -4  -2   16.50    0.76
   0  -4  -2   17.82    0.78
   0   4   2   16.57    0.76
   0   4   2   17.42    0.79
  -1  -4  -2    0.05    0.12
  -1  -4  -2    0.00    0.12
  -1  -4  -2    0.03    0.12
   1   4   2    0.03    0.11
   1   4   2    0.03    0.10
  -2  -4  -2    6.05    0.39
  -2  -4  -2    6.00    0.40
  -2  -4  -2    5.88    0.40
  -2  -4  -2    5.96    0.38
   2   4   2    5.61    0.38
   2   4   2    5.12    0.35
  -3  -4  -2    4.65    0.32
  -3  -4  -2    4.30    0.38
  -3  -4  -2    5.26    0.38
   3   4   2    4.86    0.37
   3   4   2    5.02    0.35
  -4  -4  -2    0.23    0.12
  -4  -4  -2    0.15    0.18
  -4  -4  -2    0.69    0.23
   4   4   2    0.50    0.19
   4   4   2    0.27    0.16
  -5  -4  -2    3.65    0.37
  -5  -4  -2    4.06    0.42
  -5  -4  -2    3.43    0.27
   5   4   2    3.76    0.38
  -6  -4  -2    0.24    0.24
  -6  -4  -2    0.25    0.26
   6   4   2    0.31    0.24
  -7  -4  -2    1.00    0.31
  -7  -4  -2    0.40    0.30
   7   4   2    0.73    0.30
  -8  -4  -2    0.24    0.31
  -8  -4  -2    0.54    0.32
  -9  -4  -2    0.28    0.34
  -9  -4  -2    0.49    0.36
 -12   5   2    0.38    0.39
 -11   5   2    1.24    0.40
 -10   5   2    0.27    0.30
   9  -5  -2    0.51    0.30
  -9   5   2    0.29    0.28
   8  -5  -2   -0.18    0.20
  -8   5   2   -0.18    0.18
  -8   5   2   -0.04    0.22
   7  -5  -2    7.72    0.53
  -7   5   2    7.47    0.51
  -7   5   2    7.09    0.44
   6  -5  -2    2.12    0.29
  -6   5   2    1.81    0.18
  -6   5   2    1.52    0.25
   5  -5  -2    3.20    0.31
  -5   5   2    3.27    0.31
   4  -5  -2    0.59    0.18
  -4   5   2    1.07    0.19
   3  -5  -2    0.90    0.18
   3  -5  -2    1.24    0.18
  -3   5   2    1.04    0.17
   2  -5  -2   19.72    0.82
   2  -5  -2   18.64    0.89
   2  -5  -2   19.00    0.89
  -2   5   2   19.93    0.88
  -2   5   2   18.96    0.90
   1  -5  -2    1.05    0.12
   1  -5  -2    0.87    0.17
   1  -5  -2    1.33    0.19
  -1   5   2    1.17    0.18
  -1   5   2    0.94    0.16
   0  -5  -2   39.77    1.65
   0  -5  -2   38.64    1.67
   0  -5  -2   40.01    1.65
   0  -5  -2   39.17    1.67
   0   5   2   37.95    1.67
   0   5   2   38.97    1.63
  -1  -5  -2    0.00    0.15
  -1  -5  -2   -0.11    0.13
   1   5   2    0.12    0.13
   1   5   2   -0.19    0.12
  -2  -5  -2   32.23    1.39
  -2  -5  -2   32.08    1.44
   2   5   2   31.02    1.42
   2   5   2   32.21    1.37
  -3  -5  -2    0.12    0.14
  -3  -5  -2    0.07    0.18
  -3  -5  -2   -0.16    0.17
   3   5   2   -0.01    0.14
   3   5   2   -0.11    0.15
  -4  -5  -2   11.63    0.70
  -4  -5  -2   10.53    0.64
  -4  -5  -2   11.21    0.59
   4   5   2   11.97    0.67
  -5  -5  -2   -0.09    0.22
  -5  -5  -2    0.02    0.24
   5   5   2   -0.10    0.19
  -6  -5  -2    9.66    0.71
  -6  -5  -2   11.36    0.68
   6   5   2    8.78    0.66
  -7  -5  -2    0.80    0.32
  -7  -5  -2    1.01    0.34
  -8  -5  -2    0.38    0.34
  -8  -5  -2   -0.25    0.31
  -9  -5  -2    0.51    0.40
 -12   6   2   -0.67    0.34
 -11   6   2    1.11    0.40
 -10   6   2    1.08    0.35
  -9   6   2    1.23    0.33
   8  -6  -2    4.38    0.46
  -8   6   2    4.65    0.45
   7  -6  -2    1.66    0.29
  -7   6   2    1.65    0.29
   6  -6  -2   11.54    0.65
  -6   6   2    9.65    0.61
   5  -6  -2    3.80    0.36
  -5   6   2    4.02    0.36
   4  -6  -2   14.98    0.80
  -4   6   2   16.89    0.79
   3  -6  -2   -0.04    0.14
  -3   6   2    0.24    0.14
  -3   6   2    0.05    0.15
   2  -6  -2    1.89    0.14
   2  -6  -2    1.52    0.23
  -2   6   2    1.75    0.23
  -2   6   2    1.62    0.23
   1  -6  -2    3.07    0.29
   1  -6  -2    3.14    0.23
  -1   6   2    3.00    0.29
  -1   6   2    2.94    0.29
   0  -6  -2   41.73    1.79
   0  -6  -2   41.75    1.78
   0   6   2   41.32    1.81
   0   6   2   42.41    1.77
  -1  -6  -2    0.26    0.18
  -1  -6  -2    0.27    0.17
   1   6   2    0.19    0.16
   1   6   2    0.19    0.15
  -2  -6  -2    4.78    0.40
  -2  -6  -2    4.82    0.40
   2   6   2    4.32    0.37
   2   6   2    4.28    0.39
  -3  -6  -2    0.00    0.17
  -3  -6  -2    0.14    0.22
  -3  -6  -2    0.21    0.21
   3   6   2    0.18    0.18
   3   6   2    0.39    0.19
  -4  -6  -2    1.11    0.29
  -4  -6  -2    1.30    0.29
   4   6   2    1.12    0.27
  -5  -6  -2    2.27    0.36
  -5  -6  -2    2.34    0.37
   5   6   2    2.10    0.35
  -6  -6  -2    0.29    0.30
  -6  -6  -2    0.29    0.29
  -7  -6  -2    0.65    0.34
  -7  -6  -2    1.80    0.40
  -8  -6  -2   -0.17    0.33
  -8  -6  -2    0.41    0.38
 -12   7   2    0.18    0.40
 -11   7   2    2.01    0.45
 -10   7   2    0.33    0.34
  -9   7   2    0.10    0.28
   8  -7  -2    1.25    0.31
  -8   7   2    0.70    0.29
   7  -7  -2   17.16    0.95
  -7   7   2   17.88    0.92
   6  -7  -2    0.16    0.20
  -6   7   2    0.18    0.21
   5  -7  -2    3.28    0.36
  -5   7   2    3.71    0.36
   4  -7  -2    2.29    0.30
  -4   7   2    3.02    0.32
   3  -7  -2    1.02    0.22
  -3   7   2    0.58    0.19
  -3   7   2    0.69    0.22
   2  -7  -2   27.12    1.13
   2  -7  -2   26.02    1.22
  -2   7   2   25.82    1.23
  -2   7   2   27.12    1.20
   1  -7  -2    0.03    0.11
   1  -7  -2    0.04    0.16
  -1   7   2   -0.20    0.15
  -1   7   2   -0.05    0.15
   0  -7  -2   11.37    0.59
   0  -7  -2    9.74    0.62
   0   7   2   11.86    0.63
   0   7   2   10.95    0.64
  -1  -7  -2    1.67    0.27
  -1  -7  -2    1.87    0.26
  -1  -7  -2    1.72    0.29
   1   7   2    1.47    0.25
   1   7   2    1.92    0.28
  -2  -7  -2    6.63    0.51
  -2  -7  -2    7.81    0.53
   2   7   2    6.75    0.50
   2   7   2    6.45    0.50
  -3  -7  -2   -0.03    0.23
  -3  -7  -2    0.08    0.20
  -3  -7  -2    0.28    0.24
   3   7   2    0.23    0.22
  -4  -7  -2    9.49    0.68
  -4  -7  -2   10.22    0.67
   4   7   2    9.61    0.66
  -5  -7  -2    0.00    0.26
  -5  -7  -2    0.17    0.29
  -6  -7  -2    3.41    0.48
  -6  -7  -2    3.51    0.47
  -7  -7  -2    0.23    0.34
  -7  -7  -2    0.74    0.38
  -8  -7  -2    1.18    0.45
 -11   8   2    3.31    0.52
 -10   8   2    0.39    0.36
  -9   8   2    0.06    0.30
   8  -8  -2    2.14    0.38
  -8   8   2    2.22    0.39
   7  -8  -2    0.79    0.27
  -7   8   2    0.45    0.26
   6  -8  -2    5.51    0.50
  -6   8   2    5.81    0.50
   5  -8  -2    0.46    0.23
  -5   8   2    0.27    0.23
   4  -8  -2    2.15    0.32
  -4   8   2    2.30    0.31
   3  -8  -2    1.61    0.28
  -3   8   2    1.11    0.25
  -3   8   2    1.54    0.26
   2  -8  -2    2.13    0.31
   2  -8  -2    2.79    0.20
  -2   8   2    2.55    0.30
  -2   8   2    2.02    0.31
   1  -8  -2    8.29    0.46
   1  -8  -2    7.36    0.54
  -1   8   2    7.36    0.53
  -1   8   2    8.94    0.55
   0  -8  -2    6.13    0.42
   0  -8  -2    5.53    0.48
   0   8   2    5.01    0.46
   0   8   2    6.41    0.47
  -1  -8  -2    0.14    0.23
  -1  -8  -2    0.28    0.20
  -1  -8  -2    0.09    0.21
   1   8   2   -0.24    0.18
   1   8   2   -0.22    0.19
  -2  -8  -2    0.26    0.25
  -2  -8  -2    0.14    0.22
   2   8   2    0.26    0.23
  -3  -8  -2    0.34    0.27
  -3  -8  -2    0.11    0.24
   3   8   2    0.13    0.23
  -4  -8  -2    1.18    0.34
  -4  -8  -2    1.06    0.31
  -5  -8  -2    0.95    0.33
  -5  -8  -2    1.00    0.36
  -6  -8  -2    1.56    0.40
  -6  -8  -2    1.19    0.39
  -7  -8  -2    1.96    0.47
  -7  -8  -2    2.35    0.46
 -11   9   2    1.30    0.44
 -10   9   2   -0.22    0.32
  -9   9   2    2.10    0.42
  -8   9   2    0.05    0.28
   7  -9  -2    6.24    0.58
  -7   9   2    6.62    0.57
   6  -9  -2    0.61    0.27
  -6   9   2    0.67    0.28
   5  -9  -2    0.42    0.26
  -5   9   2    0.57    0.26
   4  -9  -2    0.42    0.24
  -4   9   2    0.14    0.23
   3  -9  -2    0.21    0.21
  -3   9   2    0.11    0.22
  -3   9   2    0.18    0.23
   2  -9  -2    2.76    0.36
  -2   9   2    1.97    0.34
  -2   9   2    2.30    0.32
   1  -9  -2    0.19    0.21
  -1   9   2    0.12    0.21
  -1   9   2    0.45    0.23
   0  -9  -2   19.32    0.93
   0  -9  -2   17.94    0.99
   0   9   2   18.42    1.00
   0   9   2   19.87    0.99
  -1  -9  -2    0.17    0.21
  -1  -9  -2    0.20    0.24
  -1  -9  -2    0.04    0.26
   1   9   2    0.11    0.24
   1   9   2    0.22    0.24
  -2  -9  -2    0.26    0.23
  -2  -9  -2   -0.19    0.26
  -2  -9  -2    0.29    0.27
   2   9   2    0.41    0.27
  -3  -9  -2    1.68    0.37
  -3  -9  -2    0.94    0.29
  -4  -9  -2    5.97    0.59
  -4  -9  -2    5.86    0.56
  -5  -9  -2    0.53    0.33
  -5  -9  -2    0.83    0.37
  -6  -9  -2    8.93    0.78
  -6  -9  -2    8.66    0.75
 -10  10   2    1.41    0.42
  -9  10   2   -0.09    0.32
  -8  10   2    1.25    0.38
   7 -10  -2    1.29    0.33
  -7  10   2    1.48    0.36
   6 -10  -2    2.06    0.37
  -6  10   2    2.05    0.39
   5 -10  -2    0.35    0.28
  -5  10   2   -0.32    0.24
   4 -10  -2    3.47    0.42
  -4  10   2    2.72    0.41
  -4  10   2    3.66    0.42
   3 -10  -2    0.29    0.25
  -3  10   2    0.00    0.24
  -3  10   2   -0.12    0.23
   2 -10  -2    0.83    0.29
  -2  10   2    0.40    0.26
  -2  10   2    0.41    0.28
   1 -10  -2    2.57    0.37
  -1  10   2    3.01    0.40
  -1  10   2    2.24    0.37
   0 -10  -2   15.62    0.93
   0  10   2   17.66    0.94
  -1 -10  -2    0.06    0.26
  -2 -10  -2    0.54    0.27
  -2 -10  -2    0.28    0.31
  -2 -10  -2   -0.02    0.27
  -3 -10  -2    1.19    0.38
  -3 -10  -2    0.94    0.31
  -3 -10  -2    0.89    0.32
  -4 -10  -2   -0.31    0.32
  -4 -10  -2    0.26    0.30
  -5 -10  -2    0.47    0.40
  -5 -10  -2    0.40    0.34
 -10  11   2   -0.32    0.37
  -9  11   2    0.30    0.36
  -8  11   2   -0.21    0.33
   7 -11  -2    2.16    0.42
  -7  11   2    1.88    0.42
   6 -11  -2    0.08    0.29
  -6  11   2    0.64    0.36
   5 -11  -2    7.34    0.66
  -5  11   2    6.98    0.61
   4 -11  -2    0.49    0.28
  -4  11   2    1.68    0.37
   3 -11  -2   -0.49    0.24
  -3  11   2    0.21    0.29
   2 -11  -2    2.09    0.40
  -2  11   2    2.64    0.40
   1 -11  -2    0.07    0.27
  -1  11   2    0.13    0.28
   0 -11  -2    4.83    0.53
  -1 -11  -2    0.20    0.30
  -2 -11  -2    4.55    0.55
  -3 -11  -2    0.64    0.35
  -3 -11  -2    0.21    0.36
  -4 -11  -2    0.34    0.35
  -4 -11  -2   -0.23    0.37
  -9  12   2    0.26    0.39
  -8  12   2    1.03    0.42
  -7  12   2    3.99    0.55
   6 -12  -2    1.89    0.42
  -6  12   2    2.05    0.44
   5 -12  -2    0.39    0.34
  -5  12   2    1.45    0.40
   4 -12  -2    1.51    0.38
  -4  12   2    1.82    0.41
   3 -12  -2    0.07    0.29
  -3  12   2   -0.04    0.32
   2 -12  -2    0.21    0.31
  -2  12   2    0.72    0.36
   1 -12  -2    0.30    0.31
   0 -12  -2   -0.04    0.29
  -1 -12  -2    0.29    0.33
  -2 -12  -2    4.73    0.59
  -3 -12  -2   -0.08    0.35
  -7  13   2    1.24    0.45
   6 -13  -2    0.20    0.36
  -6  13   2    0.89    0.43
   5 -13  -2    3.85    0.56
  -5  13   2    4.00    0.56
   4 -13  -2    0.16    0.33
  -4  13   2    0.52    0.38
   3 -13  -2    1.64    0.42
  -3  13   2    2.14    0.47
   2 -13  -2    0.15    0.34
   1 -13  -2   -0.03    0.33
   0 -13  -2    2.04    0.45
  -1 -13  -2   -0.12    0.35
   4 -14  -2    0.97    0.43
   3 -14  -2   -0.45    0.34
   1  14  -3    4.94    0.65
  -1 -14   3    4.18    0.58
   0  14  -3    0.80    0.43
   0 -14   3    0.37    0.37
  -1  14  -3    3.28    0.55
  -2  14  -3    0.28    0.39
  -3  14  -3    4.07    0.58
  -4  14  -3    0.78    0.43
  -5  14  -3    0.92    0.43
  -6  14  -3    1.89    0.48
  -3 -13   3    2.95    0.52
  -3 -13   3    2.59    0.53
   2  13  -3    0.38    0.39
  -2 -13   3    0.81    0.40
  -2 -13   3    0.00    0.40
   1  13  -3    0.09    0.38
  -1 -13   3   -0.11    0.33
   0  13  -3    1.81    0.43
   0 -13   3    1.33    0.40
  -1  13  -3    3.39    0.50
   1 -13   3    2.77    0.45
  -2  13  -3    1.74    0.42
   2 -13   3    0.91    0.34
  -3  13  -3    0.31    0.34
  -4  13  -3    0.16    0.34
  -5  13  -3   -0.35    0.32
  -6  13  -3    8.75    0.74
  -7  13  -3   -0.35    0.37
  -5 -12   3    1.13    0.48
  -4 -12   3    0.28    0.41
   3  12  -3   -0.23    0.32
  -3 -12   3    0.72    0.40
   2  12  -3   -0.12    0.32
  -2 -12   3    0.39    0.36
  -2 -12   3    0.08    0.31
   1  12  -3    3.19    0.50
  -1 -12   3    2.52    0.44
  -1 -12   3    3.04    0.51
   0  12  -3    0.06    0.30
   0 -12   3    0.17    0.29
  -1  12  -3    3.17    0.46
   1 -12   3    2.56    0.42
  -2  12  -3    0.36    0.32
   2 -12   3    0.00    0.27
  -3  12  -3    3.56    0.47
  -4  12  -3    1.40    0.37
  -5  12  -3    4.32    0.52
  -6  12  -3    6.47    0.61
  -7  12  -3    0.35    0.35
  -8  12  -3    0.07    0.34
  -6 -11   3    0.64    0.45
  -5 -11   3    5.58    0.64
   4  11  -3    0.44    0.34
  -4 -11   3    0.11    0.36
   3  11  -3    7.17    0.66
  -3 -11   3    7.20    0.68
   2  11  -3    0.36    0.30
  -2 -11   3   -0.16    0.31
   1  11  -3    0.78    0.32
  -1 -11   3    0.46    0.30
  -1 -11   3    1.21    0.37
   0  11  -3    0.08    0.28
   0  11  -3    0.69    0.28
   0 -11   3    0.77    0.32
   0 -11   3    0.36    0.27
  -1  11  -3   -0.14    0.25
  -1  11  -3   -0.09    0.26
   1 -11   3    0.08    0.25
  -2  11  -3    0.98    0.31
  -2  11  -3    1.30    0.33
   2 -11   3    0.87    0.29
  -3  11  -3    0.37    0.27
  -3  11  -3    0.24    0.27
   3 -11   3    0.30    0.25
  -4  11  -3    4.70    0.49
  -5  11  -3    0.36    0.29
  -6  11  -3    0.01    0.28
  -7  11  -3   -0.46    0.28
  -8  11  -3    2.15    0.41
  -9  11  -3    0.40    0.37
  -7 -10   3    0.24    0.43
  -6 -10   3    0.60    0.41
  -5 -10   3    0.96    0.40
   4  10  -3    0.99    0.35
  -4 -10   3    0.25    0.35
   3  10  -3    3.38    0.44
  -3 -10   3    2.73    0.44
   2  10  -3    0.31    0.26
   2  10  -3    0.82    0.29
  -2 -10   3    0.20    0.29
   1  10  -3    0.21    0.25
   1  10  -3    0.06    0.23
  -1 -10   3    0.02    0.26
   0  10  -3    0.31    0.24
   0  10  -3    0.00    0.22
   0 -10   3    0.08    0.24
   0 -10   3    0.07    0.24
  -1  10  -3   25.69    1.29
  -1  10  -3   27.44    1.29
   1 -10   3   26.88    1.30
  -2  10  -3    2.61    0.27
  -2  10  -3    2.02    0.34
  -2  10  -3    3.03    0.38
   2 -10   3    1.57    0.31
  -3  10  -3    9.01    0.64
  -3  10  -3    9.15    0.55
  -3  10  -3    9.21    0.62
   3 -10   3    9.14    0.62
  -4  10  -3    7.64    0.57
  -4  10  -3    8.18    0.52
  -5  10  -3    2.42    0.36
  -6  10  -3    0.19    0.27
  -7  10  -3    0.87    0.31
  -8  10  -3    0.67    0.34
  -9  10  -3   -0.20    0.31
 -10  10  -3   -0.10    0.35
  -8  -9   3    0.30    0.40
  -7  -9   3    1.53    0.45
  -6  -9   3    0.42    0.36
   5   9  -3    1.58    0.36
  -5  -9   3    1.11    0.37
   4   9  -3    2.54    0.38
   4   9  -3    1.14    0.32
  -4  -9   3    0.73    0.34
   3   9  -3   18.88    1.05
   3   9  -3   20.75    1.06
  -3  -9   3   20.58    1.07
   2   9  -3    0.94    0.26
   2   9  -3    0.87    0.27
  -2  -9   3    1.07    0.29
   1   9  -3    0.32    0.23
   1   9  -3    0.08    0.20
  -1  -9   3    0.52    0.26
   0   9  -3    1.01    0.25
   0   9  -3    0.88    0.25
   0  -9   3    0.79    0.26
   0  -9   3    1.73    0.31
  -1   9  -3   12.38    0.58
  -1   9  -3    8.89    0.63
  -1   9  -3   10.44    0.65
   1  -9   3   10.57    0.65
  -2   9  -3    0.15    0.19
  -2   9  -3    0.09    0.21
  -2   9  -3   -0.01    0.15
   2  -9   3    0.22    0.20
  -3   9  -3    7.82    0.57
  -3   9  -3    8.52    0.57
  -3   9  -3    9.25    0.52
   3  -9   3    9.02    0.58
  -4   9  -3    1.72    0.30
  -4   9  -3    1.83    0.26
   4  -9   3    1.83    0.30
  -5   9  -3    0.44    0.24
  -6   9  -3    0.78    0.28
  -7   9  -3    0.60    0.27
  -8   9  -3    1.24    0.33
  -9   9  -3    0.03    0.31
 -10   9  -3    2.68    0.45
  -9  -8   3    0.32    0.43
  -8  -8   3    0.67    0.39
  -7  -8   3    0.49    0.37
  -6  -8   3    0.40    0.32
   5   8  -3   19.39    1.10
   5   8  -3   22.19    1.10
  -5  -8   3   20.39    1.11
   4   8  -3   -0.02    0.22
   4   8  -3    0.34    0.24
  -4  -8   3    0.47    0.27
   3   8  -3    3.57    0.39
   3   8  -3    3.79    0.41
  -3  -8   3    4.03    0.44
   2   8  -3    0.96    0.25
   2   8  -3    1.32    0.27
  -2  -8   3    1.02    0.28
   1   8  -3    3.81    0.38
   1   8  -3    3.25    0.35
  -1  -8   3    3.29    0.37
   0   8  -3    2.20    0.28
   0   8  -3    1.79    0.26
   0  -8   3    2.28    0.31
   0  -8   3    1.94    0.29
  -1   8  -3   43.65    1.91
  -1   8  -3   43.62    1.88
  -1   8  -3   43.69    1.91
   1  -8   3   44.32    1.89
  -2   8  -3    1.80    0.28
  -2   8  -3    1.91    0.27
  -2   8  -3    1.97    0.23
   2  -8   3    1.74    0.26
  -3   8  -3    6.36    0.45
  -3   8  -3    5.97    0.41
   3  -8   3    6.19    0.45
  -4   8  -3    8.59    0.52
  -4   8  -3    8.19    0.54
   4  -8   3    9.08    0.55
  -5   8  -3    0.31    0.21
  -6   8  -3    0.01    0.21
  -7   8  -3    0.77    0.27
  -8   8  -3    8.51    0.61
  -9   8  -3    1.43    0.35
 -10   8  -3    0.24    0.34
  -9  -7   3    3.09    0.52
  -8  -7   3    1.56    0.43
  -7  -7   3    0.84    0.34
   6   7  -3    1.60    0.35
   6   7  -3    2.03    0.36
  -6  -7   3    1.81    0.37
   5   7  -3   36.38    1.64
   5   7  -3   36.35    1.69
  -5  -7   3   35.41    1.66
   4   7  -3    0.08    0.20
   4   7  -3   -0.17    0.18
  -4  -7   3   -0.01    0.23
   3   7  -3   47.37    2.13
   3   7  -3   49.74    2.10
  -3  -7   3   50.15    2.12
   2   7  -3    0.53    0.18
   2   7  -3    0.38    0.20
  -2  -7   3    0.11    0.20
   1   7  -3    0.03    0.16
   1   7  -3    0.07    0.15
  -1  -7   3    0.26    0.19
   0   7  -3   -0.24    0.14
   0   7  -3    0.02    0.16
   0  -7   3   -0.06    0.16
  -1   7  -3    0.30    0.17
  -1   7  -3    0.25    0.15
  -1   7  -3    0.58    0.14
   1  -7   3   -0.02    0.15
  -2   7  -3   20.91    1.03
  -2   7  -3   23.57    1.05
  -2   7  -3   22.57    1.02
   2  -7   3   22.89    1.04
  -3   7  -3    2.97    0.26
  -3   7  -3    2.32    0.26
   3  -7   3    2.38    0.28
  -4   7  -3    2.57    0.27
  -4   7  -3    2.81    0.30
   4  -7   3    3.56    0.33
  -5   7  -3    5.99    0.36
  -5   7  -3    5.94    0.42
   5  -7   3    6.05    0.43
  -6   7  -3    1.36    0.19
  -6   7  -3    1.18    0.25
  -7   7  -3    0.57    0.24
  -8   7  -3   17.50    0.92
  -9   7  -3    0.07    0.27
 -10   7  -3    2.49    0.42
 -11   7  -3   -0.37    0.35
 -10  -6   3    3.54    0.57
  -9  -6   3    0.33    0.38
  -8  -6   3    4.40    0.54
   7   6  -3    2.84    0.41
  -7  -6   3    1.03    0.36
   6   6  -3   -0.19    0.21
   6   6  -3    0.14    0.23
  -6  -6   3    0.07    0.25
   5   6  -3    1.37    0.28
   5   6  -3    1.42    0.28
  -5  -6   3    0.99    0.27
   4   6  -3    1.75    0.27
   4   6  -3    1.94    0.29
  -4  -6   3    2.21    0.31
   3   6  -3    4.35    0.39
   3   6  -3    4.94    0.39
  -3  -6   3    4.56    0.40
   2   6  -3    0.56    0.17
   2   6  -3    0.84    0.19
  -2  -6   3    0.55    0.19
   1   6  -3    1.40    0.21
   1   6  -3    0.98    0.18
  -1  -6   3    1.12    0.19
  -1  -6   3    1.44    0.22
   0   6  -3    5.24    0.38
   0   6  -3    5.65    0.37
   0  -6   3    5.35    0.38
   0  -6   3    5.80    0.36
  -1   6  -3    2.20    0.21
  -1   6  -3    1.99    0.23
  -1   6  -3    2.05    0.22
   1  -6   3    2.05    0.24
   1  -6   3    2.43    0.23
   1  -6   3    1.83    0.23
  -2   6  -3    0.22    0.12
  -2   6  -3    0.20    0.14
  -2   6  -3    0.56    0.15
   2  -6   3    0.32    0.14
   2  -6   3    0.45    0.15
  -3   6  -3   20.54    0.99
  -3   6  -3   21.25    0.95
   3  -6   3   22.25    0.98
   3  -6   3   20.72    0.96
  -4   6  -3   12.40    0.64
  -4   6  -3   12.00    0.57
  -4   6  -3   11.43    0.60
   4  -6   3   11.43    0.61
  -5   6  -3    9.30    0.52
  -5   6  -3    9.24    0.50
   5  -6   3    9.19    0.53
  -6   6  -3   -0.07    0.14
  -6   6  -3    0.17    0.18
  -7   6  -3    5.28    0.40
  -7   6  -3    4.69    0.41
  -8   6  -3    2.03    0.28
  -8   6  -3    1.42    0.29
   8  -6   3    1.38    0.35
  -9   6  -3    0.10    0.26
 -10   6  -3   -0.18    0.29
 -11   6  -3    0.06    0.35
 -10  -5   3    0.00    0.36
  -9  -5   3    5.24    0.58
  -8  -5   3    4.39    0.52
   7   5  -3    0.93    0.27
   7   5  -3    0.33    0.24
  -7  -5   3    0.41    0.28
   6   5  -3   -0.24    0.19
   6   5  -3   -0.02    0.19
  -6  -5   3    0.07    0.22
   5   5  -3    6.71    0.51
   5   5  -3    8.25    0.53
  -5  -5   3    8.08    0.55
   4   5  -3    1.03    0.21
   4   5  -3    0.74    0.20
  -4  -5   3    0.68    0.22
   3   5  -3   17.92    0.90
   3   5  -3   19.67    0.90
  -3  -5   3   18.93    0.90
   2   5  -3    3.51    0.29
   2   5  -3    3.16    0.28
  -2  -5   3    2.92    0.28
  -2  -5   3    3.35    0.30
   1   5  -3   88.06    3.70
   1   5  -3   92.36    3.66
  -1  -5   3   90.48    3.66
  -1  -5   3   94.79    3.71
   0   5  -3   -0.09    0.10
   0   5  -3   -0.01    0.11
   0  -5   3   -0.17    0.09
   0  -5   3    0.02    0.11
  -1   5  -3    7.08    0.39
  -1   5  -3    7.09    0.39
  -1   5  -3    7.66    0.39
   1  -5   3    6.79    0.40
   1  -5   3    6.89    0.40
   1  -5   3    6.67    0.39
  -2   5  -3    8.50    0.46
  -2   5  -3    8.45    0.44
   2  -5   3    8.72    0.45
   2  -5   3    8.34    0.44
  -3   5  -3    6.77    0.39
  -3   5  -3    5.83    0.36
  -3   5  -3    6.30    0.38
  -3   5  -3    6.09    0.34
   3  -5   3    6.08    0.37
   3  -5   3    6.37    0.39
  -4   5  -3    8.76    0.46
  -4   5  -3    8.74    0.51
  -4   5  -3    8.03    0.46
  -4   5  -3    9.52    0.49
   4  -5   3    8.48    0.47
   4  -5   3    8.87    0.51
  -5   5  -3    2.93    0.26
  -5   5  -3    2.46    0.26
  -5   5  -3    2.48    0.25
   5  -5   3    2.14    0.25
  -6   5  -3    0.32    0.17
  -6   5  -3    0.06    0.15
  -7   5  -3    0.22    0.20
  -7   5  -3    0.69    0.20
   7  -5   3    0.61    0.26
  -8   5  -3    2.55    0.34
  -8   5  -3    2.65    0.32
   8  -5   3    2.42    0.39
  -9   5  -3    0.04    0.22
  -9   5  -3    0.21    0.28
 -10   5  -3    3.66    0.47
 -11   5  -3   -0.31    0.35
 -11  -4   3   -0.07    0.38
 -10  -4   3    1.12    0.39
  -9  -4   3    1.94    0.40
   8   4  -3    1.70    0.35
  -8  -4   3    1.55    0.34
   7   4  -3    0.70    0.27
   7   4  -3    0.56    0.24
  -7  -4   3    0.58    0.28
   6   4  -3    1.79    0.30
   6   4  -3    1.94    0.29
  -6  -4   3    2.22    0.32
   5   4  -3    0.06    0.17
   5   4  -3    0.08    0.17
  -5  -4   3   -0.02    0.19
   4   4  -3    0.76    0.18
   4   4  -3    0.71    0.18
  -4  -4   3    0.82    0.21
   3   4  -3   30.14    1.33
   3   4  -3   30.67    1.35
  -3  -4   3   30.12    1.34
  -3  -4   3   32.59    1.37
   2   4  -3   14.69    0.69
   2   4  -3   14.83    0.69
  -2  -4   3   14.59    0.69
  -2  -4   3   13.94    0.69
   1   4  -3   17.97    0.83
   1   4  -3   19.82    0.85
  -1  -4   3   19.95    0.85
  -1  -4   3   18.64    0.85
   0   4  -3    0.14    0.09
   0   4  -3    0.06    0.09
   0  -4   3   -0.10    0.08
   0  -4   3    0.12    0.10
  -1   4  -3  103.25    4.66
  -1   4  -3  110.51    4.39
  -1   4  -3  112.57    4.46
  -1   4  -3  113.93    4.39
   1  -4   3  114.59    4.46
   1  -4   3  114.58    4.40
  -2   4  -3    0.14    0.09
  -2   4  -3    0.34    0.10
  -2   4  -3    0.32    0.09
  -2   4  -3    0.27    0.10
  -2   4  -3    0.25    0.10
   2  -4   3    0.40    0.11
   2  -4   3    0.21    0.10
  -3   4  -3   55.57    2.40
  -3   4  -3   56.07    2.25
  -3   4  -3   54.03    2.33
  -3   4  -3   54.90    2.23
   3  -4   3   57.94    2.25
  -4   4  -3    0.14    0.11
  -4   4  -3    0.12    0.11
  -4   4  -3    0.23    0.12
   4  -4   3    0.13    0.11
  -5   4  -3   13.17    0.65
  -5   4  -3   13.41    0.68
  -5   4  -3   13.59    0.66
   5  -4   3   14.06    0.66
  -6   4  -3    6.82    0.42
  -6   4  -3    5.90    0.43
   6  -4   3    6.19    0.49
  -7   4  -3    5.08    0.41
  -7   4  -3    5.58    0.43
   7  -4   3    4.79    0.47
  -8   4  -3    1.73    0.29
  -8   4  -3    1.50    0.30
   8  -4   3    1.69    0.35
  -9   4  -3    2.82    0.37
  -9   4  -3    2.12    0.36
   9  -4   3    2.20    0.42
 -10   4  -3    0.23    0.28
 -10   4  -3   -0.15    0.31
 -11   4  -3    0.12    0.37
 -11  -3   3    1.33    0.43
 -10  -3   3   -0.12    0.32
  -9  -3   3    0.54    0.32
   8   3  -3   -0.36    0.21
   8   3  -3   -0.12    0.22
  -8  -3   3    0.07    0.27
   7   3  -3   19.71    0.98
   7   3  -3   18.68    1.00
  -7  -3   3   18.47    0.99
   6   3  -3    1.85    0.28
   6   3  -3    2.28    0.30
  -6  -3   3    1.71    0.30
   5   3  -3    8.93    0.56
   5   3  -3    9.92    0.56
  -5  -3   3    9.77    0.58
   4   3  -3    0.82    0.17
   4   3  -3    0.71    0.17
  -4  -3   3    0.63    0.18
  -4  -3   3    0.50    0.18
   3   3  -3   10.33    0.56
   3   3  -3   11.43    0.57
  -3  -3   3   11.25    0.57
  -3  -3   3   11.13    0.57
   2   3  -3    9.77    0.47
   2   3  -3    8.83    0.47
  -2  -3   3    9.58    0.47
  -2  -3   3    9.06    0.47
   1   3  -3   47.36    1.84
   1   3  -3   44.57    1.82
  -1  -3   3   43.54    1.82
  -1  -3   3   45.00    1.84
   0   3  -3    0.64    0.10
   0   3  -3    0.64    0.09
   0   3  -3    0.55    0.09
   0  -3   3    0.64    0.09
   0  -3   3    0.56    0.10
  -1   3  -3    1.15    0.14
  -1   3  -3    1.68    0.13
   1  -3   3    1.88    0.15
   1  -3   3    2.04    0.14
  -2   3  -3    0.25    0.08
  -2   3  -3    0.26    0.09
  -2   3  -3    0.15    0.06
  -2   3  -3    0.25    0.07
   2  -3   3    0.23    0.08
  -3   3  -3    4.16    0.30
  -3   3  -3    3.58    0.24
  -3   3  -3    4.05    0.24
  -3   3  -3    4.52    0.28
   3  -3   3    4.13    0.25
  -4   3  -3   39.77    1.72
  -4   3  -3   40.18    1.62
   4  -3   3   38.35    1.70
   4  -3   3   40.78    1.64
  -5   3  -3    0.39    0.16
  -5   3  -3    0.50    0.15
   5  -3   3    0.53    0.15
   5  -3   3    0.18    0.18
  -6   3  -3   11.68    0.67
  -6   3  -3   12.20    0.63
   6  -3   3   13.07    0.72
  -7   3  -3    0.18    0.19
  -7   3  -3    0.01    0.19
   7  -3   3    0.18    0.23
  -8   3  -3    0.84    0.26
  -8   3  -3    0.99    0.27
   8  -3   3    1.16    0.32
  -9   3  -3    0.09    0.25
  -9   3  -3    0.24    0.28
   9  -3   3   -0.12    0.29
 -10   3  -3    8.41    0.64
 -10   3  -3    6.53    0.60
 -11   3  -3    1.47    0.39
 -11   3  -3    0.02    0.36
 -12  -2   3    0.52    0.43
 -11  -2   3    0.11    0.35
 -10  -2   3    4.42    0.53
  -9  -2   3    0.96    0.32
   8   2  -3   21.89    1.08
   8   2  -3   20.16    1.11
  -8  -2   3   21.24    1.10
   7   2  -3    2.12    0.29
   7   2  -3    1.88    0.31
  -7  -2   3    1.94    0.32
   6   2  -3    3.14    0.35
   6   2  -3    2.96    0.31
  -6  -2   3    2.25    0.31
   5   2  -3    0.42    0.17
   5   2  -3    0.41    0.15
  -5  -2   3    0.11    0.17
   4   2  -3    0.86    0.18
   4   2  -3    1.27    0.19
  -4  -2   3    1.14    0.19
  -4  -2   3    1.05    0.19
   3   2  -3    0.14    0.05
   3   2  -3    0.05    0.09
   3   2  -3    0.09    0.11
  -3  -2   3    0.01    0.10
  -3  -2   3    0.12    0.11
   2   2  -3    0.02    0.05
   2   2  -3    0.07    0.08
   2   2  -3    0.07    0.08
  -2  -2   3    0.06    0.09
  -2  -2   3   -0.02    0.07
   1   2  -3    1.23    0.13
   1   2  -3    1.50    0.14
   1   2  -3    1.69    0.12
   1   2  -3    1.00    0.12
  -1  -2   3    1.33    0.13
  -1  -2   3    1.62    0.12
   0   2  -3    0.65    0.07
   0   2  -3    0.46    0.07
   0   2  -3    0.54    0.09
   0  -2   3    0.54    0.06
   0  -2   3    0.65    0.08
  -1   2  -3   40.87    1.79
  -1   2  -3   39.25    1.81
  -1   2  -3   41.97    1.65
  -1   2  -3   41.29    1.75
  -1   2  -3   43.46    1.65
   1  -2   3   43.77    1.65
  -2   2  -3    0.18    0.08
  -2   2  -3    0.06    0.08
  -2   2  -3    0.29    0.06
  -2   2  -3    0.03    0.06
  -2   2  -3    0.02    0.08
   2  -2   3    0.15    0.05
  -3   2  -3    7.25    0.43
  -3   2  -3    7.98    0.44
  -3   2  -3    7.66    0.36
  -3   2  -3    7.22    0.42
  -3   2  -3    7.36    0.37
   3  -2   3    7.53    0.42
   3  -2   3    8.37    0.37
  -4   2  -3    7.64    0.40
  -4   2  -3    7.75    0.40
  -4   2  -3    7.39    0.45
   4  -2   3    7.72    0.40
   4  -2   3    7.95    0.46
  -5   2  -3   26.12    1.25
  -5   2  -3   30.64    1.26
  -5   2  -3   30.18    1.35
   5  -2   3   30.54    1.35
   5  -2   3   31.41    1.26
  -6   2  -3    6.71    0.44
  -6   2  -3    6.84    0.48
   6  -2   3    6.92    0.50
  -7   2  -3    2.68    0.34
  -7   2  -3    2.30    0.30
   7  -2   3    2.54    0.36
  -8   2  -3    1.29    0.29
  -8   2  -3    1.40    0.30
   8  -2   3    1.55    0.34
  -9   2  -3    0.03    0.25
  -9   2  -3    0.03    0.28
 -10   2  -3    0.05    0.32
 -10   2  -3   -0.06    0.28
 -11   2  -3   -0.22    0.35
 -11   2  -3    0.31    0.33
 -12  -1   3    0.66    0.41
 -11  -1   3    0.76    0.39
 -10  -1   3    0.98    0.36
   9   1  -3    2.08    0.37
  -9  -1   3    2.12    0.38
   8   1  -3    1.57    0.31
   8   1  -3    2.18    0.32
  -8  -1   3    1.56    0.33
   7   1  -3   12.42    0.69
   7   1  -3   10.72    0.69
  -7  -1   3   12.06    0.70
   6   1  -3    0.64    0.19
   6   1  -3    0.75    0.21
  -6  -1   3    0.83    0.22
   5   1  -3   15.22    0.77
   5   1  -3   16.03    0.80
  -5  -1   3   15.79    0.79
  -5  -1   3   16.68    0.82
   4   1  -3    1.61    0.20
   4   1  -3    1.55    0.19
  -4  -1   3    1.35    0.15
  -4  -1   3    1.23    0.19
  -4  -1   3    1.75    0.21
   3   1  -3   28.50    1.24
   3   1  -3   28.39    1.21
   3   1  -3   29.32    1.23
  -3  -1   3   28.73    1.22
  -3  -1   3   27.71    1.22
   2   1  -3    0.82    0.11
   2   1  -3    0.79    0.11
   2   1  -3    0.64    0.09
   2   1  -3    0.54    0.10
  -2  -1   3    0.90    0.11
  -2  -1   3    0.69    0.11
   1   1  -3   99.52    4.20
   1   1  -3  103.92    3.91
   1   1  -3   90.69    3.90
  -1  -1   3  100.20    3.95
  -1  -1   3  104.06    3.90
   0   1  -3    0.39    0.05
   0   1  -3    0.40    0.05
   0   1  -3    0.39    0.07
   0   1  -3    0.47    0.08
   0  -1   3    0.40    0.05
   0  -1   3    0.44    0.05
   0  -1   3    0.36    0.07
  -1   1  -3  164.34    6.99
  -1   1  -3  162.00    7.09
  -1   1  -3  170.72    6.88
   1  -1   3  176.79    6.66
  -2   1  -3    0.84    0.12
  -2   1  -3    0.60    0.11
  -2   1  -3    0.75    0.07
  -2   1  -3    0.71    0.12
   2  -1   3    0.67    0.11
  -3   1  -3    2.45    0.18
  -3   1  -3    2.47    0.22
  -3   1  -3    2.73    0.19
  -3   1  -3    3.11    0.25
   3  -1   3    2.51    0.17
   3  -1   3    2.25    0.22
  -4   1  -3    0.82    0.14
  -4   1  -3    0.59    0.16
  -4   1  -3    1.01    0.18
  -4   1  -3    0.80    0.14
   4  -1   3    0.91    0.18
   4  -1   3    0.89    0.12
  -5   1  -3    3.21    0.28
  -5   1  -3    3.71    0.29
  -5   1  -3    3.40    0.32
   5  -1   3    3.74    0.27
   5  -1   3    3.07    0.32
  -6   1  -3    0.30    0.20
  -6   1  -3   -0.04    0.17
   6  -1   3    0.27    0.14
   6  -1   3    0.23    0.19
  -7   1  -3   -0.03    0.20
  -7   1  -3    0.44    0.23
   7  -1   3    0.18    0.23
  -8   1  -3    1.61    0.33
  -8   1  -3    1.75    0.31
   8  -1   3    1.29    0.34
  -9   1  -3   -0.01    0.27
  -9   1  -3    0.07    0.29
 -10   1  -3    2.68    0.44
 -10   1  -3    2.10    0.41
 -11   1  -3    0.34    0.37
 -11   1  -3    0.21    0.35
 -12   0   3   -0.06    0.37
 -11   0   3    1.24    0.41
 -10   0   3   -0.26    0.29
   9   0  -3    0.91    0.30
  -9   0   3    1.10    0.32
   8   0  -3   31.87    1.56
   8   0  -3   33.85    1.52
  -8   0   3   33.43    1.54
   7   0  -3    7.70    0.51
   7   0  -3    6.32    0.51
  -7   0   3    7.14    0.53
   6   0  -3    7.74    0.51
   6   0  -3    7.34    0.49
  -6   0   3    8.05    0.51
   5   0  -3    1.44    0.21
   5   0  -3    1.29    0.21
  -5   0   3    1.25    0.21
   4   0  -3   -0.06    0.11
   4   0  -3    0.03    0.10
  -4   0   3   -0.05    0.10
  -4   0   3   -0.03    0.11
   3   0  -3    5.74    0.31
   3   0  -3    4.62    0.30
  -3   0   3    4.41    0.33
  -3   0   3    5.45    0.32
   2   0  -3    3.20    0.21
   2   0  -3    3.53    0.20
   2   0  -3    3.08    0.21
  -2   0   3    2.75    0.20
  -2   0   3    3.27    0.26
   1   0  -3   26.30    1.06
   1   0  -3   26.06    1.15
  -1   0   3   25.76    1.05
  -1   0   3   25.67    1.29
   0   0  -3    0.07    0.03
   0   0  -3    0.02    0.03
   0   0  -3   -0.03    0.05
   0   0  -3    0.00    0.07
   0   0   3    0.08    0.03
   0   0   3    0.04    0.03
   0   0   3    0.02    0.07
   0   0   3   -0.02    0.03
  -1   0  -3   11.08    0.47
  -1   0  -3   10.43    0.50
  -1   0  -3   10.54    0.51
  -1   0  -3   10.08    0.52
   1   0   3    9.97    0.59
   1   0   3   10.97    0.46
  -2   0  -3    0.85    0.14
  -2   0  -3    0.89    0.09
  -2   0  -3    0.85    0.09
  -2   0  -3    0.78    0.12
  -2   0  -3    0.88    0.13
  -2   0  -3    1.02    0.14
   2   0   3    0.70    0.11
   2   0   3    1.19    0.16
  -3   0  -3    1.43    0.20
  -3   0  -3    1.10    0.16
  -3   0  -3    1.30    0.18
  -3   0  -3    1.19    0.14
  -3   0  -3    1.21    0.13
   3   0   3    1.51    0.12
   3   0   3    1.29    0.18
   3   0   3    1.47    0.18
  -4   0  -3    5.32    0.36
  -4   0  -3    4.69    0.33
  -4   0  -3    5.14    0.39
  -4   0  -3    5.81    0.40
  -4   0  -3    5.58    0.35
   4   0   3    5.53    0.39
   4   0   3    5.77    0.38
   4   0   3    5.60    0.31
  -5   0  -3    5.59    0.42
  -5   0  -3    7.04    0.44
  -5   0  -3    7.71    0.50
  -5   0  -3    7.96    0.45
   5   0   3    7.73    0.41
   5   0   3    8.63    0.50
   5   0   3    7.57    0.49
  -6   0  -3    3.03    0.36
  -6   0  -3    3.24    0.32
   6   0   3    4.05    0.35
   6   0   3    3.01    0.36
  -7   0  -3    2.74    0.36
  -7   0  -3    2.64    0.32
   7   0   3    2.81    0.38
  -8   0  -3    1.77    0.32
  -8   0  -3    1.77    0.36
   8   0   3    1.75    0.36
  -9   0  -3    3.44    0.43
  -9   0  -3    2.75    0.42
 -10   0  -3    1.35    0.40
 -10   0  -3    1.08    0.36
 -12   1   3    4.25    0.56
 -12   1   3    1.80    0.51
 -11   1   3    1.03    0.39
 -10   1   3    0.21    0.31
   9  -1  -3    6.33    0.54
   9  -1  -3    4.64    0.51
  -9   1   3    5.21    0.51
   8  -1  -3    8.65    0.58
   8  -1  -3    8.78    0.61
  -8   1   3    6.99    0.58
   7  -1  -3    6.71    0.48
   7  -1  -3    6.63    0.50
  -7   1   3    6.70    0.50
   6  -1  -3    8.50    0.52
   6  -1  -3    8.84    0.55
  -6   1   3    8.89    0.54
   5  -1  -3   19.58    0.89
   5  -1  -3   18.01    0.89
  -5   1   3   19.02    0.88
   4  -1  -3    1.16    0.17
   4  -1  -3    1.91    0.20
  -4   1   3    1.23    0.17
   3  -1  -3   28.40    1.18
  -3   1   3   27.29    1.16
  -3   1   3   27.27    1.39
   2  -1  -3    9.53    0.43
   2  -1  -3    9.55    0.44
  -2   1   3    9.09    0.56
  -2   1   3    8.71    0.43
   1  -1  -3   61.81    2.45
   1  -1  -3   61.09    2.55
   1  -1  -3   57.00    2.43
   1  -1  -3   62.66    2.47
  -1   1   3   61.32    2.97
  -1   1   3   66.66    2.48
  -1   1   3   61.23    2.55
  -1   1   3   62.07    2.44
   0  -1  -3    2.28    0.15
   0  -1  -3    2.52    0.22
   0  -1  -3    2.47    0.15
   0  -1  -3    2.20    0.14
   0  -1  -3    2.15    0.18
   0  -1  -3    2.40    0.16
   0   1   3    2.41    0.25
   0   1   3    2.48    0.14
   0   1   3    2.23    0.15
  -1  -1  -3    4.42    0.22
  -1  -1  -3    4.47    0.24
  -1  -1  -3    3.78    0.25
  -1  -1  -3    4.07    0.21
  -1  -1  -3    3.92    0.26
  -1  -1  -3    4.58    0.28
   1   1   3    3.85    0.20
   1   1   3    4.34    0.24
   1   1   3    4.10    0.33
  -2  -1  -3    0.21    0.09
  -2  -1  -3    0.11    0.07
  -2  -1  -3    0.41    0.12
  -2  -1  -3    0.30    0.11
  -2  -1  -3    0.16    0.08
   2   1   3    0.25    0.12
   2   1   3    0.07    0.09
   2   1   3    0.29    0.07
  -3  -1  -3    5.00    0.32
  -3  -1  -3    4.97    0.36
  -3  -1  -3    5.40    0.30
  -3  -1  -3    5.33    0.36
  -3  -1  -3    5.17    0.30
   3   1   3    4.63    0.33
   3   1   3    5.62    0.28
   3   1   3    5.09    0.39
  -4  -1  -3   10.07    0.56
  -4  -1  -3    9.56    0.48
  -4  -1  -3    8.77    0.55
  -4  -1  -3    7.66    0.47
  -4  -1  -3   10.26    0.52
   4   1   3    8.88    0.52
   4   1   3    9.36    0.57
   4   1   3    9.84    0.46
  -5  -1  -3   -0.09    0.13
  -5  -1  -3   -0.03    0.14
  -5  -1  -3   -0.10    0.17
   5   1   3   -0.12    0.17
   5   1   3    0.03    0.16
  -6  -1  -3    4.31    0.37
  -6  -1  -3    4.47    0.38
  -6  -1  -3    4.30    0.42
   6   1   3    4.45    0.42
  -7  -1  -3    1.61    0.32
  -7  -1  -3    1.37    0.28
   7   1   3    1.50    0.31
  -8  -1  -3   -0.32    0.24
  -8  -1  -3    0.04    0.26
   8   1   3    0.29    0.28
  -9  -1  -3    0.26    0.32
  -9  -1  -3   -0.35    0.28
 -10  -1  -3    2.21    0.45
 -10  -1  -3    2.90    0.45
 -12   2   3    1.06    0.43
 -12   2   3   -0.14    0.39
 -11   2   3    0.32    0.35
 -10   2   3    0.48    0.32
   9  -2  -3    6.05    0.56
   9  -2  -3    5.60    0.53
  -9   2   3    6.13    0.54
   8  -2  -3   18.15    0.93
   8  -2  -3   18.42    0.97
  -8   2   3   16.31    0.92
   7  -2  -3    1.93    0.29
   7  -2  -3    2.41    0.32
  -7   2   3    1.84    0.29
   6  -2  -3    8.06    0.51
   6  -2  -3    8.12    0.53
  -6   2   3    8.64    0.52
   5  -2  -3    0.18    0.14
  -5   2   3    0.31    0.15
   4  -2  -3    0.20    0.11
  -4   2   3    0.24    0.11
   3  -2  -3    5.11    0.32
  -3   2   3    5.23    0.31
   2  -2  -3    9.53    0.45
  -2   2   3    9.06    0.43
  -2   2   3    8.64    0.42
  -2   2   3    9.87    0.60
   1  -2  -3    3.53    0.22
   1  -2  -3    3.80    0.23
   1  -2  -3    3.60    0.22
   1  -2  -3    3.77    0.22
  -1   2   3    4.08    0.23
  -1   2   3    3.76    0.22
  -1   2   3    3.16    0.22
  -1   2   3    4.32    0.41
   0  -2  -3    0.45    0.08
   0  -2  -3    0.43    0.09
   0  -2  -3    0.41    0.09
   0  -2  -3    0.52    0.07
   0  -2  -3    0.46    0.09
   0   2   3    0.53    0.10
   0   2   3    0.42    0.08
   0   2   3    0.60    0.18
  -1  -2  -3    0.58    0.14
  -1  -2  -3    0.89    0.12
  -1  -2  -3    0.69    0.11
  -1  -2  -3    0.92    0.14
   1   2   3    0.65    0.12
   1   2   3    0.86    0.10
   1   2   3    0.66    0.18
  -2  -2  -3    0.28    0.11
  -2  -2  -3    0.39    0.13
  -2  -2  -3    0.07    0.04
  -2  -2  -3    0.27    0.13
  -2  -2  -3    0.23    0.11
   2   2   3    0.31    0.09
   2   2   3    0.41    0.17
   2   2   3    0.28    0.11
  -3  -2  -3    7.44    0.44
  -3  -2  -3    7.13    0.48
  -3  -2  -3    8.19    0.48
  -3  -2  -3    8.11    0.42
   3   2   3    7.97    0.40
   3   2   3    8.76    0.46
   3   2   3    8.30    0.55
  -4  -2  -3    0.29    0.12
  -4  -2  -3    0.18    0.15
  -4  -2  -3    0.21    0.09
  -4  -2  -3    0.48    0.19
   4   2   3    0.53    0.17
   4   2   3    0.44    0.13
   4   2   3    0.20    0.21
  -5  -2  -3   33.88    1.39
  -5  -2  -3   32.89    1.46
  -5  -2  -3   30.62    1.49
   5   2   3   30.19    1.45
  -6  -2  -3    3.15    0.30
  -6  -2  -3    3.36    0.34
  -6  -2  -3    3.30    0.39
   6   2   3    2.86    0.36
  -7  -2  -3    4.34    0.41
  -7  -2  -3    4.03    0.45
   7   2   3    4.21    0.45
  -8  -2  -3    0.56    0.29
  -8  -2  -3    0.56    0.30
  -9  -2  -3    0.98    0.35
  -9  -2  -3    2.19    0.42
 -10  -2  -3    0.28    0.35
 -12   3   3    2.03    0.46
 -11   3   3    1.93    0.42
 -11   3   3    0.98    0.40
 -10   3   3    6.33    0.57
   9  -3  -3    5.47    0.51
   9  -3  -3    4.48    0.50
  -9   3   3    4.50    0.49
   8  -3  -3    0.88    0.25
   8  -3  -3    1.08    0.30
  -8   3   3    0.44    0.25
   7  -3  -3   11.60    0.66
  -7   3   3   10.17    0.64
   6  -3  -3    3.95    0.36
  -6   3   3    4.21    0.37
   5  -3  -3   13.17    0.69
  -5   3   3   14.05    0.68
   4  -3  -3    0.81    0.17
  -4   3   3    0.78    0.16
   3  -3  -3    3.04    0.25
   3  -3  -3    2.86    0.25
  -3   3   3    3.12    0.24
   2  -3  -3    2.84    0.22
   2  -3  -3    2.97    0.24
  -2   3   3    3.04    0.23
  -2   3   3    3.03    0.23
  -2   3   3    2.88    0.18
   1  -3  -3  112.44    4.85
   1  -3  -3  123.07    4.63
   1  -3  -3  118.87    4.69
   1  -3  -3  117.84    4.80
  -1   3   3  114.58    4.69
  -1   3   3  117.10    4.61
   0  -3  -3    0.34    0.09
   0  -3  -3    0.30    0.11
   0  -3  -3    0.36    0.11
   0  -3  -3    0.50    0.11
   0   3   3    0.31    0.10
   0   3   3    0.41    0.12
  -1  -3  -3   45.38    1.92
  -1  -3  -3   45.91    1.88
  -1  -3  -3   46.92    1.97
  -1  -3  -3   46.01    1.87
  -1  -3  -3   45.42    2.04
   1   3   3   46.14    1.86
   1   3   3   46.89    1.92
  -2  -3  -3    0.25    0.11
  -2  -3  -3    0.10    0.12
  -2  -3  -3   -0.03    0.12
  -2  -3  -3   -0.03    0.13
  -2  -3  -3    0.23    0.13
   2   3   3    0.11    0.12
   2   3   3    0.20    0.10
  -3  -3  -3   15.59    0.75
  -3  -3  -3   13.72    0.69
  -3  -3  -3   14.08    0.71
  -3  -3  -3   14.86    0.69
  -3  -3  -3   13.94    0.75
   3   3   3   14.24    0.72
   3   3   3   14.72    0.67
  -4  -3  -3    0.19    0.16
  -4  -3  -3    0.28    0.13
  -4  -3  -3    0.08    0.18
   4   3   3    0.13    0.16
   4   3   3    0.18    0.13
  -5  -3  -3    8.05    0.58
  -5  -3  -3    9.41    0.55
  -5  -3  -3    8.91    0.51
   5   3   3    8.21    0.56
  -6  -3  -3    5.05    0.49
  -6  -3  -3    6.47    0.48
   6   3   3    6.00    0.51
  -7  -3  -3    2.36    0.35
  -7  -3  -3    2.32    0.38
   7   3   3    2.19    0.37
  -8  -3  -3    0.52    0.31
  -8  -3  -3    0.09    0.28
  -9  -3  -3   -0.48    0.29
  -9  -3  -3    0.15    0.32
 -12   4   3    0.44    0.39
 -11   4   3    0.17    0.34
 -10   4   3    1.44    0.38
   9  -4  -3   -0.04    0.24
   9  -4  -3   -0.21    0.25
  -9   4   3    0.12    0.26
   8  -4  -3   -0.09    0.23
   8  -4  -3    0.20    0.22
  -8   4   3   -0.02    0.22
   7  -4  -3    0.15    0.18
  -7   4   3   -0.01    0.19
   6  -4  -3    4.15    0.40
  -6   4   3    5.80    0.41
   5  -4  -3    0.28    0.15
  -5   4   3    0.30    0.16
   4  -4  -3    7.31    0.44
   4  -4  -3    6.95    0.45
  -4   4   3    8.00    0.44
   3  -4  -3    3.56    0.30
   3  -4  -3    3.25    0.27
  -3   4   3    2.92    0.18
  -3   4   3    3.44    0.28
   2  -4  -3    0.15    0.07
   2  -4  -3    0.19    0.12
   2  -4  -3    0.05    0.11
  -2   4   3    0.15    0.11
  -2   4   3    0.17    0.08
  -2   4   3   -0.05    0.11
   1  -4  -3   37.70    1.61
   1  -4  -3   38.44    1.61
   1  -4  -3   38.83    1.59
  -1   4   3   38.16    1.58
  -1   4   3   37.46    1.61
   0  -4  -3    0.89    0.16
   0  -4  -3    1.19    0.18
   0  -4  -3    1.01    0.14
   0   4   3    0.68    0.15
   0   4   3    0.90    0.15
  -1  -4  -3    0.80    0.17
  -1  -4  -3    1.24    0.18
  -1  -4  -3    1.13    0.18
   1   4   3    0.77    0.16
   1   4   3    0.80    0.15
  -2  -4  -3    0.29    0.15
  -2  -4  -3   -0.02    0.14
  -2  -4  -3    0.33    0.16
  -2  -4  -3    0.14    0.15
   2   4   3    0.13    0.11
   2   4   3    0.15    0.14
  -3  -4  -3   12.45    0.66
  -3  -4  -3   12.92    0.67
  -3  -4  -3   13.77    0.72
   3   4   3   13.25    0.69
   3   4   3   12.39    0.64
  -4  -4  -3    4.25    0.31
  -4  -4  -3    4.42    0.37
  -4  -4  -3    4.04    0.41
   4   4   3    3.81    0.37
  -5  -4  -3    2.75    0.36
  -5  -4  -3    2.14    0.31
  -5  -4  -3    2.42    0.25
   5   4   3    1.89    0.30
  -6  -4  -3    2.78    0.39
  -6  -4  -3    2.08    0.33
   6   4   3    2.77    0.38
  -7  -4  -3    1.99    0.37
  -7  -4  -3    2.04    0.37
  -8  -4  -3    1.15    0.36
  -8  -4  -3    1.22    0.37
  -9  -4  -3    0.89    0.37
  -9  -4  -3    0.29    0.35
 -12   5   3    4.75    0.59
 -11   5   3    0.03    0.33
 -10   5   3    4.39    0.52
   9  -5  -3    0.18    0.27
   9  -5  -3    0.21    0.25
  -9   5   3    0.39    0.29
   8  -5  -3   -0.03    0.21
  -8   5   3   -0.19    0.22
   7  -5  -3    6.25    0.49
  -7   5   3    6.44    0.49
   6  -5  -3    0.17    0.18
  -6   5   3    0.11    0.19
   5  -5  -3   26.78    1.26
  -5   5   3   28.79    1.25
   4  -5  -3    0.00    0.14
  -4   5   3    0.37    0.16
   3  -5  -3   29.56    1.33
   3  -5  -3   30.74    1.33
  -3   5   3   30.18    1.30
   2  -5  -3    0.17    0.14
   2  -5  -3    0.11    0.08
   2  -5  -3    0.05    0.12
  -2   5   3    0.16    0.12
  -2   5   3    0.24    0.14
   1  -5  -3    2.32    0.25
   1  -5  -3    3.35    0.24
   1  -5  -3    3.02    0.27
  -1   5   3    2.79    0.25
  -1   5   3    2.66    0.26
   0  -5  -3    6.54    0.41
   0  -5  -3    5.69    0.39
   0  -5  -3    6.00    0.37
   0   5   3    5.65    0.38
   0   5   3    6.26    0.40
  -1  -5  -3   12.81    0.67
  -1  -5  -3   13.28    0.68
  -1  -5  -3   13.43    0.68
   1   5   3   13.91    0.69
   1   5   3   12.71    0.65
  -2  -5  -3   -0.05    0.16
  -2  -5  -3    0.14    0.17
  -2  -5  -3    0.08    0.17
   2   5   3    0.18    0.17
   2   5   3   -0.02    0.14
  -3  -5  -3   15.74    0.81
  -3  -5  -3   14.76    0.83
  -3  -5  -3   16.20    0.80
   3   5   3   16.58    0.78
   3   5   3   15.27    0.81
  -4  -5  -3    0.30    0.15
  -4  -5  -3    0.33    0.21
  -4  -5  -3    0.76    0.25
   4   5   3    0.28    0.21
  -5  -5  -3    1.56    0.31
  -5  -5  -3    1.95    0.34
   5   5   3    2.23    0.34
  -6  -5  -3    3.19    0.41
  -6  -5  -3    2.95    0.43
   6   5   3    3.39    0.43
  -7  -5  -3    1.18    0.35
  -7  -5  -3    1.34    0.36
  -8  -5  -3    1.46    0.40
  -8  -5  -3    0.62    0.37
 -12   6   3    0.24    0.41
 -11   6   3    0.48    0.37
 -10   6   3    0.73    0.35
   9  -6  -3    1.20    0.33
  -9   6   3    1.35    0.35
   8  -6  -3    3.00    0.40
  -8   6   3    2.22    0.36
   7  -6  -3    2.46    0.34
  -7   6   3    2.51    0.34
   6  -6  -3    8.76    0.58
  -6   6   3    8.74    0.56
   5  -6  -3    1.52    0.26
  -5   6   3    1.89    0.27
   4  -6  -3   10.27    0.61
  -4   6   3   11.06    0.61
   3  -6  -3   11.26    0.62
  -3   6   3   10.50    0.61
  -3   6   3   11.68    0.61
   2  -6  -3    0.66    0.19
   2  -6  -3    0.71    0.11
  -2   6   3    0.58    0.17
  -2   6   3    0.71    0.19
   1  -6  -3    7.15    0.39
   1  -6  -3    6.54    0.45
  -1   6   3    6.31    0.44
  -1   6   3    6.99    0.43
   0  -6  -3    1.07    0.18
   0  -6  -3    1.01    0.21
   0   6   3    0.84    0.20
   0   6   3    0.83    0.19
  -1  -6  -3    3.92    0.33
  -1  -6  -3    3.83    0.36
  -1  -6  -3    3.15    0.34
   1   6   3    4.01    0.34
   1   6   3    3.73    0.34
  -2  -6  -3    0.59    0.23
  -2  -6  -3    0.54    0.23
  -2  -6  -3    0.83    0.22
   2   6   3    0.40    0.20
   2   6   3    1.04    0.22
  -3  -6  -3    0.13    0.21
  -3  -6  -3    0.24    0.18
  -3  -6  -3    0.35    0.23
   3   6   3    0.13    0.20
  -4  -6  -3   -0.17    0.21
  -4  -6  -3   -0.21    0.22
   4   6   3   -0.07    0.20
  -5  -6  -3    5.40    0.52
  -5  -6  -3    5.12    0.49
   5   6   3    5.29    0.51
  -6  -6  -3    0.85    0.33
  -6  -6  -3    0.63    0.31
  -7  -6  -3    5.24    0.56
  -7  -6  -3    4.98    0.57
  -8  -6  -3    1.98    0.45
 -12   7   3   -0.11    0.38
 -11   7   3    0.27    0.38
 -10   7   3    3.20    0.47
   9  -7  -3    2.41    0.41
  -9   7   3    1.84    0.37
   8  -7  -3   -0.12    0.22
  -8   7   3   -0.10    0.25
   7  -7  -3    3.42    0.42
  -7   7   3    4.15    0.43
   6  -7  -3    1.13    0.28
  -6   7   3    2.07    0.31
   5  -7  -3    4.26    0.42
  -5   7   3    4.44    0.40
   4  -7  -3    2.10    0.30
  -4   7   3    2.51    0.30
   3  -7  -3    5.33    0.43
  -3   7   3    5.66    0.41
  -3   7   3    4.06    0.40
   2  -7  -3    1.96    0.27
   2  -7  -3    2.16    0.18
  -2   7   3    1.46    0.26
  -2   7   3    2.60    0.30
   1  -7  -3   12.51    0.62
   1  -7  -3   12.25    0.69
  -1   7   3   13.37    0.68
  -1   7   3   12.01    0.69
   0  -7  -3    0.00    0.14
   0  -7  -3    0.12    0.18
   0   7   3    0.01    0.16
   0   7   3    0.08    0.17
  -1  -7  -3   60.10    2.65
  -1  -7  -3   64.57    2.72
  -1  -7  -3   62.40    2.65
   1   7   3   67.05    2.65
   1   7   3   62.93    2.71
  -2  -7  -3    0.02    0.19
  -2  -7  -3   -0.21    0.20
   2   7   3   -0.26    0.18
  -3  -7  -3    6.62    0.53
  -3  -7  -3    7.15    0.50
  -3  -7  -3    6.29    0.53
   3   7   3    6.60    0.53
  -4  -7  -3    0.24    0.24
  -4  -7  -3   -0.02    0.26
   4   7   3   -0.06    0.24
  -5  -7  -3    0.51    0.29
  -5  -7  -3    0.88    0.33
  -6  -7  -3    2.29    0.44
  -6  -7  -3    3.17    0.45
  -7  -7  -3    4.66    0.58
  -7  -7  -3    4.71    0.57
 -11   8   3    0.07    0.38
 -10   8   3    2.19    0.44
  -9   8   3    0.62    0.33
   8  -8  -3   -0.05    0.25
  -8   8   3    0.29    0.29
   7  -8  -3    0.22    0.24
  -7   8   3    0.16    0.25
   6  -8  -3    9.51    0.66
  -6   8   3   10.23    0.64
   5  -8  -3    2.00    0.33
  -5   8   3    2.48    0.35
   4  -8  -3    0.90    0.25
  -4   8   3    0.98    0.26
   3  -8  -3    0.30    0.20
  -3   8   3    0.48    0.23
  -3   8   3    0.27    0.20
   2  -8  -3    0.17    0.20
   2  -8  -3   -0.03    0.10
  -2   8   3   -0.22    0.18
  -2   8   3   -0.01    0.20
   1  -8  -3    8.87    0.60
   1  -8  -3   10.36    0.52
  -1   8   3    8.55    0.59
  -1   8   3    9.34    0.59
   0  -8  -3   -0.12    0.19
   0  -8  -3   -0.08    0.15
   0   8   3   -0.02    0.19
   0   8   3    0.00    0.21
  -1  -8  -3    5.71    0.52
  -1  -8  -3    7.12    0.50
   1   8   3    7.43    0.54
  -2  -8  -3    0.32    0.26
  -2  -8  -3    0.86    0.25
  -2  -8  -3    0.01    0.23
   2   8   3    0.40    0.26
  -3  -8  -3    0.34    0.24
  -3  -8  -3    0.13    0.27
   3   8   3    0.18    0.26
  -4  -8  -3    0.29    0.30
  -4  -8  -3    0.14    0.26
  -5  -8  -3    0.28    0.29
  -5  -8  -3    0.76    0.35
  -6  -8  -3    0.08    0.30
  -6  -8  -3    0.66    0.37
 -11   9   3    0.47    0.41
 -10   9   3    2.49    0.47
  -9   9   3   -0.01    0.32
   8  -9  -3   -0.04    0.28
  -8   9   3    0.66    0.32
   7  -9  -3    0.82    0.31
  -7   9   3    1.13    0.32
   6  -9  -3    2.38    0.37
  -6   9   3    3.06    0.41
   5  -9  -3    4.18    0.45
  -5   9   3    4.29    0.45
   4  -9  -3    9.54    0.65
  -4   9   3    9.31    0.64
   3  -9  -3    5.57    0.51
  -3   9   3    5.71    0.53
  -3   9   3    7.06    0.53
   2  -9  -3    4.31    0.45
  -2   9   3    4.40    0.44
  -2   9   3    3.17    0.40
   1  -9  -3    0.72    0.25
  -1   9   3    0.11    0.22
  -1   9   3    0.44    0.24
   0  -9  -3    0.14    0.18
   0  -9  -3    0.03    0.23
   0   9   3   -0.12    0.22
   0   9   3    0.02    0.23
  -1  -9  -3   14.33    0.75
  -1  -9  -3   11.03    0.75
   1   9   3   12.36    0.79
  -2  -9  -3    0.27    0.24
  -2  -9  -3    0.09    0.25
  -2  -9  -3   -0.22    0.26
  -3  -9  -3    4.91    0.49
  -3  -9  -3    4.16    0.51
  -3  -9  -3    4.24    0.50
  -4  -9  -3    0.12    0.32
  -4  -9  -3    0.08    0.27
  -5  -9  -3   -0.22    0.29
  -5  -9  -3    0.04    0.36
  -6  -9  -3    0.87    0.37
  -6  -9  -3    0.53    0.42
 -10  10   3    0.67    0.42
  -9  10   3   -0.03    0.36
   8 -10  -3    0.30    0.32
  -8  10   3    0.86    0.36
   7 -10  -3    1.55    0.37
  -7  10   3    0.96    0.35
   6 -10  -3    3.28    0.46
  -6  10   3    2.89    0.44
   5 -10  -3    0.26    0.27
  -5  10   3    0.67    0.31
   4 -10  -3    0.71    0.29
  -4  10   3    1.13    0.31
   3 -10  -3    4.59    0.49
  -3  10   3    4.78    0.48
  -3  10   3    3.88    0.47
   2 -10  -3    0.62    0.28
  -2  10   3    0.55    0.29
  -2  10   3    0.88    0.29
   1 -10  -3    0.66    0.29
  -1  10   3    1.19    0.32
   0 -10  -3   -0.04    0.25
  -1 -10  -3    0.13    0.26
  -2 -10  -3   -0.35    0.24
  -2 -10  -3    0.12    0.24
  -3 -10  -3    0.76    0.30
  -3 -10  -3    1.02    0.37
  -3 -10  -3    1.29    0.36
  -4 -10  -3    0.10    0.37
  -4 -10  -3   -0.19    0.32
  -4 -10  -3    0.06    0.28
  -5 -10  -3    1.31    0.45
  -9  11   3    1.31    0.43
  -8  11   3    1.37    0.41
   7 -11  -3    0.62    0.35
  -7  11   3    0.57    0.36
   6 -11  -3    0.53    0.31
  -6  11   3    0.85    0.35
   5 -11  -3    1.71    0.40
  -5  11   3    2.42    0.41
   4 -11  -3    0.70    0.31
  -4  11   3    1.23    0.36
   3 -11  -3    4.27    0.51
  -3  11   3    4.27    0.50
   2 -11  -3    0.80    0.31
  -2  11   3    1.39    0.35
   1 -11  -3    2.27    0.40
   0 -11  -3   -0.06    0.27
  -1 -11  -3    4.83    0.53
  -3 -11  -3    4.04    0.53
  -8  12   3    0.08    0.38
   7 -12  -3    0.92    0.38
  -7  12   3    1.43    0.43
   6 -12  -3    1.61    0.42
  -6  12   3    1.02    0.41
   5 -12  -3    0.37    0.34
  -5  12   3    1.25    0.40
   4 -12  -3    2.03    0.42
  -4  12   3    3.69    0.49
   3 -12  -3    0.58    0.32
   2 -12  -3    1.74    0.41
   1 -12  -3    0.13    0.31
   0 -12  -3    0.19    0.32
  -1 -12  -3    1.62    0.42
  -2 -12  -3    0.10    0.34
   7 -13  -3    0.59    0.40
  -7  13   3    0.45    0.42
   6 -13  -3    1.13    0.44
  -6  13   3    0.99    0.45
   5 -13  -3    0.46    0.37
  -5  13   3    0.60    0.40
   4 -13  -3    0.56    0.37
   3 -13  -3    3.40    0.54
   2 -13  -3    0.81    0.38
   1 -13  -3    0.39    0.38
   0 -13  -3    0.25    0.35
   2  14  -4    2.80    0.54
  -2 -14   4    3.06    0.57
  -2 -14   4    1.49    0.46
   1  14  -4    0.46    0.42
  -1 -14   4    0.42    0.37
   0  14  -4    0.56    0.41
  -1  14  -4    1.06    0.44
  -2  14  -4    2.88    0.52
  -3  14  -4    0.25    0.38
  -4  14  -4    0.39    0.40
  -5  14  -4    1.21    0.43
  -6  14  -4    0.27    0.39
  -4 -13   4   -0.42    0.39
   3  13  -4    0.22    0.38
  -3 -13   4   -0.50    0.38
   2  13  -4    3.49    0.54
  -2 -13   4    2.27    0.46
  -2 -13   4    2.50    0.53
   1  13  -4    0.12    0.34
  -1 -13   4   -0.16    0.31
  -1 -13   4   -0.47    0.36
   0  13  -4    1.04    0.39
   0 -13   4    0.37    0.33
  -1  13  -4    0.72    0.37
  -2  13  -4    0.95    0.39
  -3  13  -4    3.30    0.50
  -4  13  -4    0.42    0.36
  -5  13  -4    0.19    0.35
  -6  13  -4    0.52    0.37
  -7  13  -4    2.21    0.47
   4  12  -4    6.17    0.68
  -4 -12   4    6.03    0.69
   3  12  -4   -0.15    0.32
  -3 -12   4    0.67    0.39
   2  12  -4   12.65    0.84
  -2 -12   4   10.25    0.82
   1  12  -4    0.67    0.35
  -1 -12   4    1.38    0.38
  -1 -12   4    0.94    0.39
   0  12  -4    7.35    0.65
   0 -12   4    5.35    0.56
  -1  12  -4    0.00    0.29
   1 -12   4    0.03    0.26
  -2  12  -4    7.85    0.66
  -3  12  -4    0.07    0.30
  -4  12  -4    2.80    0.44
  -5  12  -4    1.72    0.39
  -6  12  -4   -0.04    0.32
  -7  12  -4    1.53    0.41
  -8  12  -4    0.70    0.40
  -6 -11   4    0.39    0.43
  -5 -11   4    0.06    0.38
   4  11  -4    1.84    0.42
  -4 -11   4    1.47    0.43
   3  11  -4   -0.36    0.29
  -3 -11   4   -0.12    0.32
   2  11  -4    4.55    0.52
  -2 -11   4    3.36    0.49
   1  11  -4    0.08    0.28
   1  11  -4    0.38    0.28
  -1 -11   4    0.07    0.27
  -1 -11   4    0.72    0.32
   0  11  -4    0.26    0.27
   0  11  -4    0.73    0.29
   0 -11   4    0.38    0.28
   0 -11   4    0.61    0.32
  -1  11  -4    0.75    0.31
  -1  11  -4    1.26    0.31
   1 -11   4    0.37    0.26
  -2  11  -4    5.43    0.51
  -2  11  -4    5.24    0.50
   2 -11   4    4.37    0.47
  -3  11  -4    1.72    0.37
  -3  11  -4    2.11    0.38
  -4  11  -4    2.05    0.37
  -5  11  -4    2.96    0.42
  -6  11  -4    0.04    0.28
  -7  11  -4    0.00    0.31
  -8  11  -4    0.45    0.34
  -9  11  -4    0.31    0.36
  -7 -10   4    1.10    0.46
  -6 -10   4    2.79    0.51
   5  10  -4    0.23    0.32
  -5 -10   4   -0.32    0.32
   4  10  -4   11.93    0.81
  -4 -10   4   12.64    0.85
   3  10  -4    0.22    0.29
   3  10  -4    0.08    0.26
  -3 -10   4    0.34    0.30
   2  10  -4    9.14    0.67
   2  10  -4   10.34    0.68
  -2 -10   4    8.97    0.69
   1  10  -4    0.23    0.25
   1  10  -4    0.46    0.25
  -1 -10   4    0.61    0.28
   0  10  -4    0.50    0.26
   0  10  -4    0.71    0.26
   0 -10   4    0.05    0.24
   0 -10   4    0.28    0.27
  -1  10  -4    3.17    0.32
  -1  10  -4    3.69    0.41
  -1  10  -4    3.53    0.39
   1 -10   4    3.04    0.39
  -2  10  -4    5.01    0.49
  -2  10  -4    6.68    0.46
  -2  10  -4    6.51    0.51
   2 -10   4    4.74    0.47
  -3  10  -4   13.63    0.82
  -3  10  -4   14.44    0.78
  -3  10  -4   14.58    0.81
   3 -10   4   14.72    0.82
  -4  10  -4    8.37    0.54
  -4  10  -4    7.68    0.57
  -5  10  -4    0.39    0.26
  -6  10  -4    3.82    0.43
  -7  10  -4    0.40    0.29
  -8  10  -4   -0.28    0.29
  -9  10  -4    3.11    0.47
  -8  -9   4    3.94    0.60
  -7  -9   4   -0.08    0.37
   6   9  -4    1.09    0.37
  -6  -9   4    1.26    0.40
   5   9  -4    0.52    0.30
  -5  -9   4    0.88    0.35
   4   9  -4    0.54    0.29
   4   9  -4    0.41    0.27
  -4  -9   4    0.31    0.30
   3   9  -4    0.43    0.26
   3   9  -4    0.65    0.27
  -3  -9   4    0.57    0.29
   2   9  -4    0.94    0.25
   2   9  -4    0.97    0.28
  -2  -9   4    0.57    0.27
   1   9  -4    0.87    0.27
   1   9  -4    0.74    0.24
  -1  -9   4    0.95    0.29
   0   9  -4    1.99    0.31
   0   9  -4    1.59    0.28
   0  -9   4    1.81    0.32
   0  -9   4    2.87    0.36
  -1   9  -4   -0.15    0.18
  -1   9  -4    0.01    0.16
  -1   9  -4   -0.23    0.19
   1  -9   4    0.15    0.20
  -2   9  -4    0.57    0.22
  -2   9  -4    0.44    0.19
  -2   9  -4    0.35    0.22
   2  -9   4    0.04    0.20
  -3   9  -4   11.91    0.68
  -3   9  -4   12.18    0.66
   3  -9   4   10.75    0.67
  -4   9  -4    3.93    0.37
  -4   9  -4    4.61    0.42
  -5   9  -4   10.78    0.65
  -6   9  -4    1.01    0.29
  -7   9  -4    0.09    0.26
  -8   9  -4    0.42    0.30
  -9   9  -4   -0.14    0.30
 -10   9  -4    0.42    0.35
  -9  -8   4    1.88    0.51
  -8  -8   4    2.50    0.50
  -7  -8   4    1.14    0.39
   6   8  -4    1.03    0.32
  -6  -8   4    0.39    0.33
   5   8  -4   -0.03    0.25
   5   8  -4    0.01    0.26
  -5  -8   4   -0.16    0.27
   4   8  -4    3.13    0.37
   4   8  -4    2.64    0.38
  -4  -8   4    2.37    0.39
   3   8  -4    1.00    0.27
   3   8  -4    0.93    0.25
  -3  -8   4    0.81    0.28
   2   8  -4   79.40    3.44
   2   8  -4   85.03    3.40
  -2  -8   4   82.46    3.41
   1   8  -4    0.26    0.20
   1   8  -4    0.20    0.18
  -1  -8   4    0.11    0.21
   0   8  -4   33.07    1.48
   0   8  -4   31.94    1.49
   0  -8   4   34.77    1.50
  -1   8  -4    2.06    0.27
  -1   8  -4    2.43    0.25
  -1   8  -4    2.42    0.29
   1  -8   4    2.30    0.29
  -2   8  -4   16.21    0.78
  -2   8  -4   15.30    0.78
  -2   8  -4   14.51    0.79
   2  -8   4   15.04    0.79
  -3   8  -4    0.61    0.19
  -3   8  -4    0.81    0.22
   3  -8   4    0.50    0.19
  -4   8  -4   14.51    0.76
  -4   8  -4   14.94    0.79
  -5   8  -4    0.03    0.20
  -6   8  -4    4.02    0.39
  -7   8  -4    0.54    0.26
  -8   8  -4    1.11    0.31
  -9   8  -4    2.29    0.39
 -10   8  -4   -0.12    0.32
 -10  -7   4    0.94    0.46
  -9  -7   4    2.11    0.49
  -8  -7   4    1.98    0.44
   7   7  -4    0.02    0.26
  -7  -7   4    0.69    0.34
   6   7  -4    4.29    0.47
   6   7  -4    4.19    0.47
  -6  -7   4    3.68    0.47
   5   7  -4    0.19    0.23
   5   7  -4    0.90    0.26
  -5  -7   4    0.74    0.28
   4   7  -4    1.53    0.28
   4   7  -4    0.95    0.25
  -4  -7   4    1.80    0.31
   3   7  -4    4.02    0.39
   3   7  -4    2.90    0.33
  -3  -7   4    3.02    0.36
   2   7  -4    5.83    0.42
   2   7  -4    5.47    0.44
  -2  -7   4    5.60    0.45
   1   7  -4    2.13    0.26
   1   7  -4    1.72    0.25
  -1  -7   4    1.36    0.25
   0   7  -4   11.91    0.63
   0   7  -4   12.10    0.64
   0  -7   4   11.60    0.65
  -1   7  -4    0.28    0.15
  -1   7  -4    0.07    0.15
  -1   7  -4    0.20    0.16
   1  -7   4    0.09    0.14
   1  -7   4   -0.12    0.15
   1  -7   4    0.25    0.17
  -2   7  -4    6.88    0.46
  -2   7  -4    7.83    0.47
  -2   7  -4    7.01    0.44
   2  -7   4    7.40    0.46
   2  -7   4    7.56    0.45
  -3   7  -4    2.31    0.27
  -3   7  -4    2.84    0.28
   3  -7   4    2.85    0.28
  -4   7  -4   11.27    0.64
  -4   7  -4   10.82    0.60
   4  -7   4   12.24    0.63
  -5   7  -4   27.04    1.19
  -5   7  -4   26.19    1.19
  -6   7  -4    1.54    0.26
  -6   7  -4    1.66    0.23
  -7   7  -4   -0.02    0.22
  -8   7  -4    2.72    0.35
   8  -7   4    2.07    0.40
  -9   7  -4    1.06    0.32
 -10   7  -4   -0.22    0.32
 -10  -6   4   -0.32    0.38
  -9  -6   4    1.04    0.41
  -8  -6   4    0.74    0.36
   7   6  -4    9.05    0.64
   7   6  -4    8.51    0.65
  -7  -6   4    7.58    0.67
   6   6  -4    5.97    0.52
   6   6  -4    6.31    0.54
  -6  -6   4    5.77    0.55
   5   6  -4    0.84    0.25
   5   6  -4    0.78    0.24
  -5  -6   4    1.28    0.29
   4   6  -4    0.26    0.19
   4   6  -4    0.41    0.19
  -4  -6   4    0.37    0.21
   3   6  -4    1.11    0.21
   3   6  -4    1.13    0.22
  -3  -6   4    1.20    0.24
   2   6  -4   37.54    1.66
   2   6  -4   37.67    1.64
  -2  -6   4   38.51    1.66
  -2  -6   4   39.33    1.66
   1   6  -4    6.37    0.41
   1   6  -4    5.93    0.41
  -1  -6   4    6.36    0.43
  -1  -6   4    6.96    0.41
   0   6  -4   14.34    0.72
   0   6  -4   15.72    0.72
   0  -6   4   14.06    0.73
   0  -6   4   15.04    0.71
  -1   6  -4    3.69    0.30
  -1   6  -4    3.87    0.31
  -1   6  -4    3.63    0.30
   1  -6   4    3.78    0.31
   1  -6   4    4.52    0.34
   1  -6   4    3.92    0.29
  -2   6  -4    0.45    0.15
  -2   6  -4    0.23    0.14
   2  -6   4    0.12    0.13
   2  -6   4    0.07    0.12
  -3   6  -4   13.30    0.65
  -3   6  -4   13.44    0.70
   3  -6   4   13.08    0.66
   3  -6   4   14.14    0.68
  -4   6  -4   17.96    0.89
  -4   6  -4   17.81    0.82
  -4   6  -4   17.46    0.82
   4  -6   4   17.42    0.83
  -5   6  -4    8.42    0.48
  -5   6  -4    7.99    0.47
  -6   6  -4    4.41    0.36
  -6   6  -4    4.21    0.36
  -7   6  -4    1.63    0.27
  -7   6  -4    1.35    0.25
   7  -6   4    1.65    0.33
  -8   6  -4    1.65    0.27
  -8   6  -4    0.79    0.28
   8  -6   4    1.07    0.35
  -9   6  -4    0.74    0.31
 -10   6  -4   -0.06    0.30
 -11  -5   4    0.35    0.42
 -10  -5   4    2.06    0.47
  -9  -5   4    2.84    0.48
   8   5  -4    4.76    0.50
  -8  -5   4    4.43    0.54
   7   5  -4   -0.37    0.21
   7   5  -4    0.11    0.23
  -7  -5   4    0.03    0.26
   6   5  -4    9.63    0.64
   6   5  -4   10.84    0.66
  -6  -5   4    9.98    0.66
   5   5  -4    0.78    0.22
   5   5  -4    1.17    0.25
  -5  -5   4    0.83    0.25
   4   5  -4   10.80    0.59
   4   5  -4    8.94    0.57
  -4  -5   4   10.19    0.61
   3   5  -4    0.83    0.18
   3   5  -4    0.81    0.19
  -3  -5   4    0.79    0.19
  -3  -5   4    0.80    0.19
   2   5  -4    0.50    0.15
   2   5  -4    0.48    0.15
  -2  -5   4    0.55    0.16
  -2  -5   4    1.01    0.18
   1   5  -4    1.63    0.20
   1   5  -4    1.78    0.20
  -1  -5   4    2.06    0.22
  -1  -5   4    1.55    0.18
   0   5  -4   16.22    0.74
   0   5  -4   17.25    0.75
   0  -5   4   16.07    0.75
   0  -5   4   15.38    0.73
  -1   5  -4    0.06    0.11
  -1   5  -4   -0.05    0.10
  -1   5  -4    0.10    0.11
   1  -5   4    0.10    0.11
   1  -5   4    0.27    0.11
   1  -5   4    0.07    0.11
  -2   5  -4    1.92    0.19
  -2   5  -4    2.18    0.21
  -2   5  -4    1.72    0.21
   2  -5   4    2.08    0.20
   2  -5   4    2.63    0.22
  -3   5  -4    0.58    0.13
  -3   5  -4    0.66    0.15
  -3   5  -4    0.59    0.13
  -3   5  -4    0.59    0.14
  -3   5  -4    0.42    0.15
   3  -5   4    0.59    0.14
   3  -5   4    0.69    0.15
  -4   5  -4    1.42    0.19
  -4   5  -4    1.35    0.18
  -4   5  -4    1.09    0.18
  -4   5  -4    1.33    0.21
   4  -5   4    1.35    0.18
  -5   5  -4    6.23    0.38
  -5   5  -4    5.60    0.41
  -6   5  -4    0.38    0.18
  -6   5  -4    0.44    0.18
   6  -5   4    0.42    0.24
  -7   5  -4    2.32    0.30
  -7   5  -4    2.56    0.31
   7  -5   4    2.95    0.38
  -8   5  -4    0.00    0.23
  -8   5  -4   -0.06    0.20
   8  -5   4   -0.19    0.28
  -9   5  -4   -0.01    0.27
  -9   5  -4   -0.04    0.23
 -10   5  -4    0.12    0.31
 -11   5  -4    0.36    0.38
 -11  -4   4    0.73    0.44
 -10  -4   4    0.20    0.35
  -9  -4   4    3.11    0.47
   8   4  -4    1.78    0.35
   8   4  -4    2.30    0.38
  -8  -4   4    1.53    0.35
   7   4  -4    2.68    0.38
   7   4  -4    3.87    0.41
  -7  -4   4    2.54    0.38
   6   4  -4    5.08    0.44
   6   4  -4    4.68    0.45
  -6  -4   4    4.92    0.45
   5   4  -4    1.51    0.25
   5   4  -4    1.51    0.25
  -5  -4   4    1.15    0.25
   4   4  -4   23.84    1.13
   4   4  -4   24.14    1.14
  -4  -4   4   25.24    1.15
  -4  -4   4   25.52    1.14
   3   4  -4    0.18    0.14
   3   4  -4    0.31    0.14
  -3  -4   4    0.24    0.15
  -3  -4   4    0.32    0.15
   2   4  -4   36.71    1.56
   2   4  -4   37.85    1.57
  -2  -4   4   38.55    1.57
  -2  -4   4   35.88    1.56
   1   4  -4    2.76    0.22
   1   4  -4    2.71    0.23
  -1  -4   4    2.78    0.21
  -1  -4   4    3.02    0.25
   0   4  -4   22.44    0.94
   0   4  -4   21.14    0.94
   0   4  -4   22.24    0.94
   0  -4   4   21.84    0.93
   0  -4   4   21.55    0.94
  -1   4  -4    0.05    0.09
  -1   4  -4    0.05    0.09
  -1   4  -4   -0.03    0.08
  -1   4  -4    0.04    0.09
   1  -4   4    0.20    0.09
   1  -4   4    0.15    0.09
  -2   4  -4   33.06    1.50
  -2   4  -4   33.31    1.38
  -2   4  -4   32.90    1.46
   2  -4   4   35.67    1.39
   2  -4   4   34.72    1.42
  -3   4  -4    3.96    0.30
  -3   4  -4    3.38    0.24
  -3   4  -4    3.35    0.28
   3  -4   4    3.77    0.24
  -4   4  -4    0.94    0.15
  -4   4  -4    0.59    0.18
  -4   4  -4    0.82    0.16
  -4   4  -4    0.61    0.13
   4  -4   4    1.04    0.15
  -5   4  -4    0.06    0.14
  -5   4  -4    0.35    0.14
  -5   4  -4    0.17    0.11
   5  -4   4    0.08    0.17
  -6   4  -4    8.86    0.50
  -6   4  -4    8.82    0.54
   6  -4   4    7.69    0.57
  -7   4  -4   -0.04    0.18
  -7   4  -4    0.17    0.20
   7  -4   4    0.02    0.24
  -8   4  -4    1.17    0.27
  -8   4  -4    1.06    0.27
   8  -4   4    1.13    0.32
  -9   4  -4    9.51    0.67
  -9   4  -4   10.69    0.70
 -10   4  -4    0.00    0.32
 -10   4  -4   -0.22    0.28
 -11   4  -4    2.27    0.43
 -11   4  -4    1.86    0.44
 -11  -3   4    0.52    0.39
 -10  -3   4    1.07    0.38
  -9  -3   4    0.20    0.32
   8   3  -4    2.34    0.38
   8   3  -4    2.95    0.38
  -8  -3   4    2.33    0.39
   7   3  -4   12.12    0.73
   7   3  -4   11.49    0.70
  -7  -3   4   10.95    0.71
   6   3  -4   33.57    1.50
   6   3  -4   31.77    1.52
  -6  -3   4   34.21    1.51
   5   3  -4    0.75    0.20
   5   3  -4    0.84    0.20
  -5  -3   4    0.50    0.21
   4   3  -4   44.96    1.88
   4   3  -4   44.15    1.90
  -4  -3   4   44.61    1.89
  -4  -3   4   44.45    1.91
   3   3  -4    0.83    0.17
   3   3  -4    1.25    0.11
   3   3  -4    0.85    0.15
  -3  -3   4    0.88    0.16
  -3  -3   4    0.98    0.17
   2   3  -4    3.66    0.25
   2   3  -4    4.00    0.23
   2   3  -4    3.86    0.27
  -2  -3   4    3.74    0.28
  -2  -3   4    3.69    0.26
   1   3  -4    1.44    0.13
   1   3  -4    1.44    0.15
   1   3  -4    1.53    0.16
   1   3  -4    1.34    0.15
  -1  -3   4    1.35    0.15
  -1  -3   4    1.54    0.14
   0   3  -4    3.81    0.25
   0   3  -4    3.71    0.20
   0   3  -4    3.68    0.22
   0   3  -4    2.70    0.21
   0  -3   4    3.82    0.20
   0  -3   4    3.75    0.22
  -1   3  -4    1.14    0.13
  -1   3  -4    1.01    0.14
  -1   3  -4    1.29    0.12
  -1   3  -4    1.39    0.17
  -1   3  -4    1.19    0.11
   1  -3   4    1.33    0.11
   1  -3   4    1.24    0.12
  -2   3  -4    3.10    0.20
  -2   3  -4    2.85    0.19
  -2   3  -4    3.15    0.21
  -2   3  -4    3.26    0.24
  -2   3  -4    3.39    0.27
  -2   3  -4    3.26    0.26
   2  -3   4    3.24    0.19
  -3   3  -4    7.40    0.35
  -3   3  -4    6.80    0.42
  -3   3  -4    6.57    0.33
  -3   3  -4    6.27    0.40
   3  -3   4    6.54    0.33
  -4   3  -4    3.34    0.29
  -4   3  -4    3.23    0.25
  -4   3  -4    2.77    0.23
   4  -3   4    3.52    0.31
   4  -3   4    3.04    0.23
  -5   3  -4    3.23    0.31
  -5   3  -4    3.01    0.25
  -5   3  -4    3.54    0.27
   5  -3   4    2.72    0.31
  -6   3  -4    4.68    0.37
  -6   3  -4    5.17    0.41
   6  -3   4    4.66    0.44
  -7   3  -4    5.65    0.47
  -7   3  -4    6.73    0.45
   7  -3   4    5.68    0.51
  -8   3  -4    0.53    0.25
  -8   3  -4    0.97    0.27
   8  -3   4    0.46    0.29
  -9   3  -4    2.13    0.38
  -9   3  -4    2.47    0.39
 -10   3  -4    0.85    0.34
 -10   3  -4    0.56    0.32
 -12  -2   4    0.58    0.43
 -10  -2   4    0.15    0.33
   9   2  -4    0.42    0.29
   9   2  -4    0.92    0.29
  -9  -2   4    1.00    0.34
   8   2  -4    1.62    0.33
   8   2  -4    1.89    0.31
  -8  -2   4    1.46    0.34
   7   2  -4    7.20    0.54
   7   2  -4    7.98    0.55
  -7  -2   4    8.27    0.58
   6   2  -4    3.46    0.36
   6   2  -4    4.28    0.40
  -6  -2   4    3.44    0.37
   5   2  -4   14.10    0.73
   5   2  -4   13.05    0.73
  -5  -2   4   14.59    0.75
  -5  -2   4   14.68    0.74
   4   2  -4    1.56    0.14
   4   2  -4    1.96    0.23
   4   2  -4    2.05    0.22
  -4  -2   4    1.80    0.23
  -4  -2   4    2.08    0.24
   3   2  -4    1.62    0.19
   3   2  -4    1.58    0.14
   3   2  -4    1.61    0.19
  -3  -2   4    1.51    0.18
  -3  -2   4    1.82    0.20
   2   2  -4   11.78    0.54
   2   2  -4   10.31    0.53
   2   2  -4   11.66    0.53
  -2  -2   4   12.63    0.53
  -2  -2   4   10.90    0.54
   1   2  -4    1.02    0.10
   1   2  -4    0.87    0.12
   1   2  -4    1.14    0.12
   1   2  -4    0.90    0.12
  -1  -2   4    1.01    0.12
  -1  -2   4    1.09    0.10
   0   2  -4    8.26    0.37
   0   2  -4    7.96    0.43
   0   2  -4    8.42    0.37
   0  -2   4    8.17    0.37
  -1   2  -4    1.60    0.12
  -1   2  -4    1.17    0.15
  -1   2  -4    1.46    0.15
  -1   2  -4    1.41    0.11
  -1   2  -4    1.39    0.15
  -2   2  -4   16.35    0.83
  -2   2  -4   18.68    0.71
  -2   2  -4   17.15    0.70
  -2   2  -4   16.97    0.80
  -2   2  -4   16.81    0.81
   2  -2   4   17.64    0.76
  -3   2  -4    0.25    0.08
  -3   2  -4    0.42    0.09
  -3   2  -4    0.39    0.13
  -3   2  -4    0.36    0.14
  -3   2  -4    0.25    0.13
   3  -2   4    0.36    0.13
  -4   2  -4    6.11    0.34
  -4   2  -4    6.70    0.44
  -4   2  -4    5.94    0.41
  -4   2  -4    6.16    0.34
   4  -2   4    6.41    0.32
   4  -2   4    6.28    0.41
  -5   2  -4    9.25    0.57
  -5   2  -4    9.66    0.50
  -5   2  -4    9.85    0.50
   5  -2   4   10.06    0.58
  -6   2  -4   13.10    0.66
  -6   2  -4   13.10    0.73
   6  -2   4   12.66    0.73
  -7   2  -4    0.15    0.21
  -7   2  -4   -0.05    0.22
   7  -2   4   -0.05    0.23
  -8   2  -4    1.87    0.33
  -8   2  -4    1.57    0.30
   8  -2   4    1.22    0.33
  -9   2  -4   -0.02    0.26
  -9   2  -4   -0.06    0.28
 -10   2  -4    1.41    0.39
 -10   2  -4    2.44    0.42
 -12  -1   4    0.14    0.39
 -11  -1   4    0.91    0.38
 -10  -1   4    8.42    0.69
   9   1  -4   -0.04    0.25
   9   1  -4   -0.12    0.21
  -9  -1   4   -0.09    0.26
   8   1  -4    8.37    0.60
   8   1  -4    9.20    0.61
  -8  -1   4    8.65    0.63
   7   1  -4   12.44    0.74
   7   1  -4   14.41    0.75
  -7  -1   4   12.78    0.76
   6   1  -4    9.75    0.60
   6   1  -4   10.48    0.59
  -6  -1   4   10.19    0.61
  -6  -1   4    9.87    0.56
   5   1  -4    0.21    0.14
   5   1  -4    0.42    0.17
  -5  -1   4    0.42    0.13
  -5  -1   4   -0.02    0.16
  -5  -1   4    0.27    0.17
   4   1  -4   29.93    1.30
   4   1  -4   30.79    1.32
   4   1  -4   29.62    1.31
  -4  -1   4   30.01    1.31
  -4  -1   4   29.98    1.49
  -4  -1   4   29.39    1.31
   3   1  -4    0.12    0.10
   3   1  -4    0.25    0.09
   3   1  -4    0.30    0.11
  -3  -1   4    0.31    0.12
   2   1  -4    1.12    0.14
   2   1  -4    1.09    0.12
   2   1  -4    0.77    0.12
   2   1  -4    0.98    0.13
  -2  -1   4    1.08    0.14
  -2  -1   4    1.05    0.12
   1   1  -4    0.08    0.08
   1   1  -4    0.28    0.05
   1   1  -4    0.22    0.08
  -1  -1   4    0.42    0.08
   0   1  -4    5.63    0.29
   0   1  -4    4.20    0.29
  -1   1  -4    2.08    0.20
  -1   1  -4    1.81    0.17
  -1   1  -4    2.10    0.19
   1  -1   4    2.34    0.14
  -2   1  -4   22.79    1.04
  -2   1  -4   22.61    1.03
  -2   1  -4   23.10    1.06
   2  -1   4   22.96    0.97
  -3   1  -4    0.40    0.14
  -3   1  -4    0.50    0.14
  -3   1  -4    0.64    0.10
  -3   1  -4    0.79    0.10
  -3   1  -4    0.57    0.15
  -3   1  -4    0.48    0.14
   3  -1   4    0.51    0.14
  -4   1  -4    1.94    0.18
  -4   1  -4    1.76    0.24
  -4   1  -4    1.44    0.22
  -4   1  -4    1.71    0.18
   4  -1   4    1.95    0.23
   4  -1   4    1.83    0.15
  -5   1  -4    0.22    0.17
  -5   1  -4    0.36    0.14
  -5   1  -4    0.47    0.16
  -5   1  -4    0.53    0.19
   5  -1   4    0.61    0.19
  -6   1  -4    0.74    0.20
  -6   1  -4    0.45    0.22
   6  -1   4    0.38    0.19
   6  -1   4    0.35    0.22
  -7   1  -4    6.55    0.52
  -7   1  -4    5.46    0.45
   7  -1   4    5.70    0.52
  -8   1  -4    0.41    0.26
  -8   1  -4    0.48    0.28
   8  -1   4    0.64    0.31
  -9   1  -4    1.79    0.38
  -9   1  -4    1.54    0.34
 -10   1  -4    0.32    0.33
 -10   1  -4    1.27    0.37
 -12   0   4   -0.04    0.37
 -11   0   4    5.68    0.60
 -10   0   4    3.51    0.47
   9   0  -4    0.84    0.30
   9   0  -4    0.51    0.24
   8   0  -4    2.20    0.36
   8   0  -4    2.28    0.33
  -8   0   4    2.51    0.37
   7   0  -4    5.30    0.46
   7   0  -4    5.07    0.46
  -7   0   4    4.86    0.45
   6   0  -4   12.85    0.69
   6   0  -4   12.52    0.70
  -6   0   4   13.05    0.71
   5   0  -4    0.17    0.15
   5   0  -4    0.17    0.14
  -5   0   4    0.29    0.16
  -5   0   4    0.35    0.16
   4   0  -4    8.77    0.48
   4   0  -4    8.86    0.48
  -4   0   4    8.26    0.52
  -4   0   4    8.66    0.48
   3   0  -4    6.22    0.33
   3   0  -4    5.72    0.34
  -3   0   4    5.34    0.34
  -3   0   4    5.48    0.39
   2   0  -4   27.65    1.14
   2   0  -4   27.82    1.15
   2   0  -4   28.15    1.24
  -2   0   4   27.25    1.39
  -2   0   4   26.87    1.14
   1   0  -4    1.50    0.13
   1   0  -4    1.38    0.11
   1   0  -4    1.37    0.17
  -1   0   4    1.52    0.20
  -1   0   4    1.90    0.14
   0   0  -4  911.20   36.31
   0   0  -4  919.93   38.08
   0   0  -4  904.26   38.72
   0   0  -4 1000.00   36.88
   0   0  -4  925.03   39.28
   0   0  -4  974.98   36.34
   0   0   4  940.45   36.31
   0   0   4  918.43   43.85
  -1   0  -4    5.04    0.31
  -1   0  -4    5.46    0.33
  -1   0  -4    5.75    0.28
  -1   0  -4    5.36    0.33
   1   0   4    5.67    0.27
   1   0   4    5.34    0.39
  -2   0  -4   14.37    0.70
  -2   0  -4   15.30    0.67
  -2   0  -4   13.94    0.70
  -2   0  -4   13.61    0.71
   2   0   4   15.21    0.82
   2   0   4   15.08    0.66
  -3   0  -4    1.96    0.23
  -3   0  -4    2.35    0.18
  -3   0  -4    2.16    0.18
  -3   0  -4    2.22    0.24
  -3   0  -4    2.13    0.23
   3   0   4    2.49    0.27
   3   0   4    2.11    0.22
  -4   0  -4    4.97    0.32
  -4   0  -4    4.81    0.38
  -4   0  -4    4.21    0.29
  -4   0  -4    4.69    0.35
  -4   0  -4    4.39    0.37
   4   0   4    4.12    0.37
   4   0   4    3.98    0.34
   4   0   4    4.60    0.26
  -5   0  -4    0.04    0.18
  -5   0  -4   -0.02    0.14
  -5   0  -4   -0.04    0.15
   5   0   4    0.05    0.17
   5   0   4   -0.29    0.15
  -6   0  -4   11.10    0.60
  -6   0  -4   12.30    0.65
  -6   0  -4    9.71    0.67
   6   0   4    9.63    0.65
   6   0   4   11.89    0.70
  -7   0  -4    0.53    0.26
  -7   0  -4    0.52    0.23
   7   0   4    0.14    0.24
  -8   0  -4    0.45    0.29
  -8   0  -4    0.25    0.25
   8   0   4    0.30    0.28
  -9   0  -4    0.17    0.30
  -9   0  -4   -0.37    0.27
 -10   0  -4    0.69    0.35
 -10   0  -4   -0.08    0.32
 -12   1   4    0.04    0.38
 -11   1   4    0.02    0.35
 -10   1   4    0.19    0.32
   9  -1  -4    0.36    0.27
   9  -1  -4    0.74    0.27
  -9   1   4    0.88    0.30
   8  -1  -4    0.03    0.21
   8  -1  -4    0.42    0.22
  -8   1   4   -0.15    0.22
   7  -1  -4    0.45    0.20
   7  -1  -4    0.11    0.21
  -7   1   4    0.46    0.23
   6  -1  -4    6.06    0.46
   6  -1  -4    7.11    0.47
  -6   1   4    7.47    0.49
   5  -1  -4    7.40    0.47
   5  -1  -4    7.64    0.47
  -5   1   4    7.91    0.47
  -5   1   4    7.44    0.55
   4  -1  -4   44.68    1.85
  -4   1   4   43.43    2.18
  -4   1   4   44.88    1.84
   3  -1  -4    4.20    0.28
  -3   1   4    3.84    0.36
  -3   1   4    3.64    0.26
   2  -1  -4    2.90    0.20
   2  -1  -4    3.51    0.22
  -2   1   4    3.21    0.30
  -2   1   4    2.82    0.21
   1  -1  -4    0.88    0.10
   1  -1  -4    0.56    0.08
   1  -1  -4    0.92    0.11
   1  -1  -4    0.69    0.15
   1  -1  -4    1.00    0.11
  -1   1   4    1.00    0.11
  -1   1   4    1.09    0.19
  -1   1   4    0.89    0.10
   0  -1  -4  204.90    8.54
   0  -1  -4  207.34    7.88
   0  -1  -4  207.42    8.27
   0  -1  -4  192.57    7.87
   0  -1  -4  207.84    8.01
   0  -1  -4  191.54    8.39
   0   1   4  206.23    7.87
   0   1   4  201.84    9.54
   0   1   4  203.76    8.01
  -1  -1  -4    0.03    0.08
  -1  -1  -4   -0.04    0.06
  -1  -1  -4    0.02    0.06
  -1  -1  -4    0.17    0.10
  -1  -1  -4    0.10    0.10
  -1  -1  -4    0.04    0.08
  -1  -1  -4   -0.01    0.07
   1   1   4   -0.03    0.07
   1   1   4    0.03    0.05
   1   1   4   -0.06    0.12
  -2  -1  -4    5.87    0.36
  -2  -1  -4    5.81    0.30
  -2  -1  -4    5.84    0.30
  -2  -1  -4    6.32    0.36
  -2  -1  -4    5.88    0.39
   2   1   4    5.85    0.44
   2   1   4    5.62    0.33
   2   1   4    6.13    0.28
  -3  -1  -4    2.88    0.23
  -3  -1  -4    2.38    0.27
  -3  -1  -4    3.22    0.26
  -3  -1  -4    3.28    0.29
  -3  -1  -4    3.06    0.23
   3   1   4    3.31    0.33
   3   1   4    2.85    0.26
   3   1   4    3.24    0.20
  -4  -1  -4    0.01    0.17
  -4  -1  -4    0.16    0.13
  -4  -1  -4    0.13    0.13
  -4  -1  -4    0.08    0.16
  -4  -1  -4   -0.02    0.12
   4   1   4   -0.06    0.13
   4   1   4    0.04    0.09
   4   1   4    0.02    0.17
  -5  -1  -4    1.89    0.30
  -5  -1  -4    1.45    0.21
  -5  -1  -4    1.68    0.24
   5   1   4    1.43    0.24
   5   1   4    1.27    0.26
  -6  -1  -4    0.76    0.21
  -6  -1  -4    0.57    0.20
  -6  -1  -4    0.74    0.26
   6   1   4    0.57    0.23
  -7  -1  -4    8.88    0.66
  -7  -1  -4   10.14    0.60
   7   1   4    9.04    0.63
  -8  -1  -4   -0.20    0.26
  -8  -1  -4    0.59    0.27
   8   1   4   -0.16    0.26
  -9  -1  -4    1.40    0.35
  -9  -1  -4    2.19    0.44
 -10  -1  -4    0.17    0.33
 -12   2   4    0.17    0.40
 -11   2   4    5.21    0.57
 -10   2   4    0.05    0.31
   9  -2  -4    8.36    0.61
   9  -2  -4    7.82    0.63
  -9   2   4    8.17    0.62
   8  -2  -4    0.17    0.23
   8  -2  -4    0.22    0.21
  -8   2   4    0.14    0.23
   7  -2  -4    0.47    0.23
   7  -2  -4    0.24    0.19
  -7   2   4    0.49    0.23
   6  -2  -4    6.17    0.45
  -6   2   4    6.72    0.45
   5  -2  -4    8.63    0.52
  -5   2   4    9.23    0.51
   4  -2  -4   10.78    0.57
  -4   2   4   11.46    0.72
  -4   2   4   11.17    0.56
   3  -2  -4    6.03    0.36
  -3   2   4    6.02    0.34
  -3   2   4    5.71    0.47
   2  -2  -4   11.80    0.55
   2  -2  -4   11.44    0.54
  -2   2   4   11.50    0.54
  -2   2   4   11.95    0.71
   1  -2  -4    1.43    0.14
   1  -2  -4    1.58    0.14
   1  -2  -4    1.41    0.15
   1  -2  -4    1.30    0.14
  -1   2   4    1.32    0.14
  -1   2   4    1.73    0.25
  -1   2   4    1.44    0.14
   0  -2  -4    3.51    0.23
   0  -2  -4    3.96    0.25
   0  -2  -4    3.85    0.26
   0  -2  -4    3.39    0.29
   0  -2  -4    3.60    0.23
   0   2   4    4.60    0.39
   0   2   4    4.00    0.24
   0   2   4    3.83    0.23
  -1  -2  -4    0.54    0.13
  -1  -2  -4    0.22    0.08
  -1  -2  -4    0.26    0.10
  -1  -2  -4    0.53    0.12
  -1  -2  -4    0.36    0.10
  -1  -2  -4    0.46    0.11
  -1  -2  -4    0.39    0.14
   1   2   4    0.23    0.10
   1   2   4    0.19    0.18
   1   2   4    0.33    0.08
  -2  -2  -4   15.16    0.69
  -2  -2  -4   15.79    0.75
  -2  -2  -4   14.92    0.77
  -2  -2  -4   16.13    0.69
  -2  -2  -4   15.46    0.78
   2   2   4   16.87    0.91
   2   2   4   15.47    0.67
   2   2   4   15.27    0.73
  -3  -2  -4    0.19    0.13
  -3  -2  -4    0.16    0.12
  -3  -2  -4    0.06    0.11
  -3  -2  -4    0.35    0.17
  -3  -2  -4    0.06    0.15
   3   2   4    0.17    0.09
   3   2   4    0.16    0.19
   3   2   4    0.21    0.14
  -4  -2  -4    9.36    0.49
  -4  -2  -4    8.46    0.56
  -4  -2  -4    8.94    0.51
   4   2   4    8.97    0.64
   4   2   4    7.93    0.51
  -5  -2  -4    5.07    0.40
  -5  -2  -4    5.35    0.38
  -5  -2  -4    5.31    0.46
   5   2   4    4.87    0.43
   5   2   4    5.04    0.48
  -6  -2  -4    4.19    0.44
  -6  -2  -4    3.86    0.36
  -6  -2  -4    4.01    0.36
   6   2   4    3.65    0.40
  -7  -2  -4    1.23    0.29
  -7  -2  -4    0.78    0.30
   7   2   4    1.51    0.33
  -8  -2  -4    4.57    0.47
  -8  -2  -4    3.83    0.49
  -9  -2  -4    0.32    0.32
  -9  -2  -4    0.41    0.35
 -12   3   4    0.35    0.39
 -11   3   4    0.08    0.31
 -10   3   4    4.26    0.50
   9  -3  -4   -0.35    0.21
   9  -3  -4    0.47    0.30
  -9   3   4    0.39    0.27
   8  -3  -4    8.17    0.59
   8  -3  -4    7.99    0.58
  -8   3   4    7.32    0.58
   7  -3  -4    1.89    0.29
  -7   3   4    1.53    0.27
   6  -3  -4   20.06    0.99
  -6   3   4   20.63    0.98
   5  -3  -4    3.11    0.31
  -5   3   4    3.56    0.31
   4  -3  -4    6.84    0.41
  -4   3   4    5.61    0.38
   3  -3  -4    0.15    0.11
   3  -3  -4   -0.01    0.10
  -3   3   4    0.24    0.11
   2  -3  -4   10.57    0.51
   2  -3  -4   10.90    0.54
   2  -3  -4   11.05    0.53
  -2   3   4   10.89    0.53
  -2   3   4   11.00    0.53
  -2   3   4   10.67    0.73
   1  -3  -4   -0.09    0.09
   1  -3  -4    0.22    0.09
   1  -3  -4    0.06    0.10
   1  -3  -4    0.28    0.09
   1  -3  -4    0.13    0.06
  -1   3   4    0.03    0.09
  -1   3   4    0.01    0.09
  -1   3   4    0.27    0.21
   0  -3  -4   15.91    0.73
   0  -3  -4   16.17    0.71
   0  -3  -4   16.65    0.75
   0  -3  -4   15.06    0.71
   0  -3  -4   15.82    0.70
   0   3   4   15.28    0.73
   0   3   4   15.02    0.93
   0   3   4   16.21    0.70
  -1  -3  -4    0.06    0.09
  -1  -3  -4   -0.02    0.10
  -1  -3  -4    0.22    0.12
  -1  -3  -4    0.09    0.12
  -1  -3  -4    0.06    0.12
  -1  -3  -4    0.00    0.13
   1   3   4    0.05    0.09
   1   3   4   -0.21    0.20
   1   3   4    0.08    0.11
  -2  -3  -4    2.01    0.25
  -2  -3  -4    2.22    0.25
  -2  -3  -4    2.45    0.23
  -2  -3  -4    2.00    0.24
   2   3   4    2.44    0.34
   2   3   4    1.98    0.23
   2   3   4    2.23    0.20
  -3  -3  -4    0.85    0.18
  -3  -3  -4    0.09    0.09
  -3  -3  -4    0.62    0.19
  -3  -3  -4    0.48    0.15
   3   3   4    0.65    0.13
   3   3   4    0.60    0.28
   3   3   4    0.43    0.16
  -4  -3  -4    0.15    0.14
  -4  -3  -4    0.03    0.19
  -4  -3  -4   -0.21    0.16
   4   3   4    0.10    0.16
  -5  -3  -4    0.42    0.20
  -5  -3  -4    0.52    0.18
  -5  -3  -4    0.65    0.25
   5   3   4    0.48    0.22
  -6  -3  -4    4.27    0.40
  -6  -3  -4    4.33    0.46
   6   3   4    4.15    0.43
  -7  -3  -4    8.02    0.64
  -7  -3  -4    8.61    0.59
   7   3   4    7.81    0.62
  -8  -3  -4    0.31    0.29
  -8  -3  -4    0.56    0.31
  -9  -3  -4    0.32    0.33
  -9  -3  -4    0.05    0.33
 -12   4   4    0.90    0.42
 -11   4   4    2.88    0.48
 -10   4   4   -0.14    0.29
   9  -4  -4   22.65    1.20
   9  -4  -4   22.40    1.17
  -9   4   4   21.78    1.15
   8  -4  -4    0.03    0.21
  -8   4   4    0.04    0.22
   7  -4  -4    0.17    0.19
  -7   4   4    0.32    0.21
   6  -4  -4    1.62    0.26
  -6   4   4    1.70    0.26
   5  -4  -4    2.52    0.29
  -5   4   4    2.56    0.29
   4  -4  -4    0.53    0.16
   4  -4  -4    0.06    0.15
  -4   4   4    0.19    0.14
  -4   4   4    0.23    0.08
   3  -4  -4    2.50    0.24
   3  -4  -4    2.72    0.27
  -3   4   4    2.53    0.24
   2  -4  -4    8.86    0.43
   2  -4  -4    8.19    0.47
   2  -4  -4    8.57    0.47
  -2   4   4    8.87    0.46
  -2   4   4    8.32    0.47
   1  -4  -4    1.82    0.21
   1  -4  -4    1.70    0.17
   1  -4  -4    1.65    0.13
   1  -4  -4    1.73    0.21
  -1   4   4    2.20    0.21
  -1   4   4    1.57    0.20
   0  -4  -4   47.16    1.94
   0  -4  -4   45.98    1.96
   0  -4  -4   45.32    1.90
   0   4   4   44.85    1.88
   0   4   4   46.71    1.94
  -1  -4  -4    0.14    0.14
  -1  -4  -4   -0.11    0.12
  -1  -4  -4   -0.09    0.13
  -1  -4  -4    0.03    0.11
  -1  -4  -4   -0.10    0.16
  -1  -4  -4   -0.08    0.12
   1   4   4    0.05    0.13
   1   4   4    0.02    0.10
  -2  -4  -4   39.57    1.65
  -2  -4  -4   39.21    1.75
  -2  -4  -4   39.26    1.79
  -2  -4  -4   38.49    1.65
   2   4   4   38.82    1.63
   2   4   4   40.26    1.70
  -3  -4  -4    0.71    0.19
  -3  -4  -4    1.02    0.24
  -3  -4  -4    1.03    0.21
   3   4   4    0.67    0.19
  -4  -4  -4   10.48    0.68
  -4  -4  -4   11.55    0.62
  -4  -4  -4   10.85    0.62
   4   4   4   11.44    0.66
  -5  -4  -4    0.32    0.23
  -5  -4  -4   -0.06    0.15
  -5  -4  -4   -0.25    0.20
   5   4   4    0.08    0.21
  -6  -4  -4    5.23    0.47
  -6  -4  -4    4.87    0.50
   6   4   4    4.86    0.49
  -7  -4  -4    0.21    0.28
  -7  -4  -4    0.18    0.28
  -8  -4  -4    1.95    0.40
  -8  -4  -4    2.02    0.39
 -12   5   4   -0.06    0.37
 -11   5   4    1.04    0.40
 -10   5   4    0.52    0.33
   9  -5  -4    4.11    0.47
  -9   5   4    4.39    0.50
   8  -5  -4    0.49    0.26
  -8   5   4    0.86    0.28
   7  -5  -4    0.38    0.21
  -7   5   4    0.20    0.23
   6  -5  -4    7.50    0.53
  -6   5   4    8.01    0.52
   5  -5  -4    0.07    0.16
  -5   5   4    0.05    0.08
  -5   5   4   -0.08    0.16
   4  -5  -4   10.63    0.59
  -4   5   4   10.23    0.57
  -4   5   4   10.10    0.47
   3  -5  -4    0.13    0.15
  -3   5   4   -0.07    0.13
   2  -5  -4   15.60    0.78
   2  -5  -4   16.10    0.77
   2  -5  -4   15.83    0.72
  -2   5   4   15.86    0.76
  -2   5   4   15.85    0.78
   1  -5  -4    3.90    0.28
   1  -5  -4    4.29    0.33
   1  -5  -4    3.42    0.31
  -1   5   4    3.66    0.30
  -1   5   4    3.42    0.31
   0  -5  -4   17.64    0.82
   0  -5  -4   16.43    0.82
   0   5   4   16.87    0.80
   0   5   4   17.00    0.84
  -1  -5  -4    0.63    0.18
  -1  -5  -4    0.61    0.18
  -1  -5  -4    0.44    0.19
  -1  -5  -4    0.43    0.22
   1   5   4    0.36    0.17
   1   5   4    0.41    0.15
  -2  -5  -4    3.68    0.35
  -2  -5  -4    3.79    0.34
  -2  -5  -4    3.45    0.36
   2   5   4    3.63    0.32
   2   5   4    3.43    0.34
  -3  -5  -4    2.05    0.29
  -3  -5  -4    2.36    0.29
  -3  -5  -4    2.93    0.34
   3   5   4    2.05    0.29
  -4  -5  -4    2.82    0.29
  -4  -5  -4    2.37    0.32
  -4  -5  -4    2.04    0.33
   4   5   4    2.75    0.35
  -5  -5  -4    0.20    0.24
  -5  -5  -4    0.09    0.24
   5   5   4   -0.34    0.22
  -6  -5  -4    1.38    0.34
  -6  -5  -4    1.85    0.35
  -7  -5  -4    0.45    0.33
  -7  -5  -4    0.99    0.35
  -8  -5  -4    0.60    0.37
  -8  -5  -4    0.73    0.35
 -12   6   4    1.04    0.44
 -11   6   4    2.12    0.47
 -10   6   4    0.50    0.34
   9  -6  -4    4.62    0.50
  -9   6   4    2.47    0.42
   8  -6  -4   -0.05    0.24
  -8   6   4    0.04    0.24
   7  -6  -4    8.59    0.63
  -7   6   4    9.83    0.63
   6  -6  -4   -0.19    0.18
  -6   6   4    0.35    0.21
   5  -6  -4   10.36    0.64
  -5   6   4   11.16    0.63
   4  -6  -4   13.02    0.73
  -4   6   4   13.53    0.71
   3  -6  -4   11.46    0.66
  -3   6   4   12.04    0.65
  -3   6   4   11.49    0.63
   2  -6  -4    3.96    0.28
   2  -6  -4    3.54    0.35
  -2   6   4    3.37    0.33
  -2   6   4    4.14    0.34
   1  -6  -4    0.02    0.11
   1  -6  -4   -0.16    0.14
  -1   6   4   -0.13    0.14
  -1   6   4   -0.01    0.15
   0  -6  -4    3.45    0.29
   0  -6  -4    2.76    0.31
   0   6   4    3.38    0.31
   0   6   4    2.91    0.31
  -1  -6  -4    0.98    0.23
  -1  -6  -4    0.90    0.21
   1   6   4    0.89    0.20
   1   6   4    1.00    0.23
  -2  -6  -4   13.29    0.74
  -2  -6  -4   13.95    0.79
  -2  -6  -4   13.68    0.76
  -2  -6  -4   13.42    0.74
   2   6   4   13.71    0.76
  -3  -6  -4    0.52    0.23
  -3  -6  -4    0.70    0.25
  -3  -6  -4    0.61    0.22
   3   6   4    0.47    0.23
  -4  -6  -4    7.19    0.53
  -4  -6  -4    5.96    0.54
   4   6   4    6.55    0.53
  -5  -6  -4    0.03    0.27
  -5  -6  -4    0.18    0.26
  -6  -6  -4    4.87    0.51
  -6  -6  -4    5.05    0.54
  -7  -6  -4    1.20    0.39
  -7  -6  -4    1.73    0.41
 -12   7   4    2.58    0.52
 -11   7   4   -0.38    0.35
 -10   7   4    0.42    0.36
   9  -7  -4    0.64    0.32
  -9   7   4    0.60    0.33
   8  -7  -4    5.85    0.58
  -8   7   4    6.66    0.58
   7  -7  -4    1.07    0.30
  -7   7   4    1.30    0.30
   6  -7  -4    2.35    0.35
  -6   7   4    3.16    0.38
   5  -7  -4    4.77    0.45
  -5   7   4    5.53    0.46
   4  -7  -4    8.47    0.58
  -4   7   4    8.85    0.56
   3  -7  -4    0.43    0.20
  -3   7   4    0.69    0.22
  -3   7   4    0.95    0.22
   2  -7  -4   19.71    0.87
   2  -7  -4   18.61    0.95
  -2   7   4   19.37    0.93
  -2   7   4   17.71    0.95
   1  -7  -4    1.49    0.20
   1  -7  -4    1.24    0.25
  -1   7   4    1.38    0.25
  -1   7   4    1.07    0.24
   0  -7  -4    0.26    0.17
   0  -7  -4    0.17    0.18
   0   7   4    0.22    0.19
   0   7   4   -0.01    0.19
  -1  -7  -4    0.26    0.21
  -1  -7  -4    0.68    0.21
   1   7   4    0.09    0.21
  -2  -7  -4    1.07    0.26
  -2  -7  -4    0.65    0.24
  -2  -7  -4    1.41    0.30
  -2  -7  -4    0.55    0.25
   2   7   4    0.92    0.27
  -3  -7  -4    0.48    0.26
  -3  -7  -4    0.47    0.23
  -3  -7  -4    0.50    0.23
   3   7   4    0.45    0.25
  -4  -7  -4    6.03    0.54
  -4  -7  -4    4.96    0.52
  -5  -7  -4    0.39    0.32
  -5  -7  -4    0.59    0.31
  -6  -7  -4    0.64    0.35
  -6  -7  -4    0.29    0.32
  -7  -7  -4    0.44    0.38
 -11   8   4    2.04    0.49
 -10   8   4    0.23    0.37
   9  -8  -4    7.98    0.70
  -9   8   4    7.76    0.67
   8  -8  -4    0.11    0.26
  -8   8   4    0.34    0.29
   7  -8  -4    0.83    0.31
  -7   8   4    1.01    0.31
   6  -8  -4   -0.06    0.22
  -6   8   4   -0.07    0.23
   5  -8  -4    1.70    0.31
  -5   8   4    1.47    0.30
   4  -8  -4    2.48    0.35
  -4   8   4    1.79    0.30
   3  -8  -4    2.80    0.36
  -3   8   4    3.03    0.37
  -3   8   4    3.04    0.36
   2  -8  -4    2.06    0.32
  -2   8   4    2.38    0.34
  -2   8   4    2.54    0.33
   1  -8  -4    1.61    0.22
   1  -8  -4    1.63    0.30
  -1   8   4    1.47    0.29
  -1   8   4    1.72    0.28
   0  -8  -4    5.76    0.42
   0  -8  -4    3.90    0.42
   0   8   4    3.87    0.43
  -1  -8  -4    1.40    0.26
  -1  -8  -4    0.25    0.24
   1   8   4    0.69    0.27
  -2  -8  -4    9.06    0.66
  -2  -8  -4   10.00    0.70
  -2  -8  -4   10.91    0.67
  -2  -8  -4   10.94    0.69
   2   8   4    9.74    0.69
  -3  -8  -4    2.11    0.36
  -3  -8  -4    2.39    0.39
  -3  -8  -4    2.14    0.35
  -4  -8  -4    5.02    0.52
  -4  -8  -4    6.08    0.56
  -5  -8  -4    2.26    0.43
  -5  -8  -4    2.28    0.41
  -6  -8  -4    0.79    0.40
  -6  -8  -4    0.66    0.36
 -11   9   4   -0.01    0.40
 -10   9   4    0.03    0.36
   9  -9  -4    0.29    0.33
  -9   9   4    0.03    0.34
   8  -9  -4    0.71    0.33
  -8   9   4    0.98    0.35
   7  -9  -4    0.20    0.28
  -7   9   4   -0.24    0.27
   6  -9  -4    2.95    0.41
  -6   9   4    3.24    0.42
   5  -9  -4    4.68    0.49
  -5   9   4    4.10    0.48
   4  -9  -4    7.19    0.58
  -4   9   4    7.86    0.57
   3  -9  -4    9.62    0.67
  -3   9   4    9.11    0.66
  -3   9   4   10.53    0.65
   2  -9  -4   12.53    0.80
  -2   9   4   13.66    0.82
  -2   9   4   14.80    0.80
   1  -9  -4   -0.07    0.22
  -1   9   4   -0.16    0.23
   0  -9  -4    6.90    0.48
   0  -9  -4    5.54    0.51
   0   9   4    5.47    0.53
  -1  -9  -4    0.35    0.22
  -1  -9  -4    0.08    0.24
  -2  -9  -4    1.23    0.29
  -2  -9  -4    0.78    0.30
  -2  -9  -4    1.01    0.34
  -3  -9  -4    1.79    0.35
  -3  -9  -4    1.55    0.36
  -3  -9  -4    1.66    0.39
  -4  -9  -4    0.33    0.32
  -4  -9  -4    0.88    0.33
  -4  -9  -4    0.30    0.36
  -5  -9  -4    1.67    0.45
  -5  -9  -4    2.04    0.41
 -10  10   4    0.35    0.41
  -9  10   4    5.39    0.61
   8 -10  -4    0.14    0.32
  -8  10   4    0.19    0.34
   7 -10  -4   -0.41    0.25
  -7  10   4   -0.17    0.30
   6 -10  -4   -0.06    0.26
  -6  10   4   -0.21    0.28
   5 -10  -4    1.12    0.32
  -5  10   4    0.72    0.32
   4 -10  -4    1.17    0.33
  -4  10   4    4.92    0.51
   3 -10  -4   11.66    0.81
  -3  10   4   14.84    0.82
   2 -10  -4    1.28    0.32
   1 -10  -4    0.36    0.26
   0 -10  -4   -0.48    0.23
  -1 -10  -4    0.00    0.26
  -2 -10  -4    0.64    0.32
  -3 -10  -4    1.06    0.35
  -3 -10  -4    1.32    0.34
  -4 -10  -4    1.92    0.44
  -4 -10  -4    3.16    0.46
  -4 -10  -4    1.78    0.47
  -9  11   4    0.46    0.40
   8 -11  -4    1.17    0.40
  -8  11   4    0.41    0.38
   7 -11  -4    2.25    0.46
  -7  11   4    1.61    0.42
   6 -11  -4    1.21    0.38
  -6  11   4    1.96    0.43
   5 -11  -4    0.28    0.30
  -5  11   4    0.39    0.33
   4 -11  -4    2.42    0.42
  -4  11   4    3.43    0.47
   3 -11  -4    0.07    0.28
   2 -11  -4    5.61    0.57
   1 -11  -4    0.55    0.32
   0 -11  -4    0.48    0.31
  -1 -11  -4    0.28    0.31
  -2 -11  -4   -0.05    0.31
  -3 -11  -4   -0.43    0.31
   8 -12  -4   -0.25    0.33
  -8  12   4   -0.15    0.39
   7 -12  -4    1.95    0.46
  -7  12   4    1.81    0.45
   6 -12  -4    0.25    0.34
  -6  12   4   -0.35    0.33
   5 -12  -4    0.22    0.33
  -5  12   4    0.00    0.34
   4 -12  -4   -0.16    0.29
   3 -12  -4    0.15    0.31
   2 -12  -4    2.86    0.48
   1 -12  -4    0.60    0.35
   0 -12  -4    0.55    0.34
  -1 -12  -4    0.23    0.34
   6 -13  -4    1.21    0.44
   5 -13  -4    0.06    0.37
   4 -13  -4    0.75    0.40
   3 -13  -4    2.15    0.47
   2 -13  -4    3.05    0.53
   2  14  -5   -0.13    0.41
  -2 -14   5    0.09    0.37
  -2 -14   5    0.30    0.44
   1  14  -5    7.84    0.77
   0  14  -5    0.25    0.39
  -1  14  -5    0.40    0.40
  -2  14  -5    0.28    0.38
  -3  14  -5   -0.21    0.35
  -4  14  -5    7.21    0.72
  -5  14  -5    0.69    0.42
   4  13  -5    0.00    0.41
  -4 -13   5   -0.28    0.42
   3  13  -5    9.61    0.81
  -3 -13   5    6.61    0.74
   2  13  -5    1.07    0.40
  -2 -13   5    0.61    0.42
  -2 -13   5    0.01    0.35
   1  13  -5    0.95    0.40
  -1 -13   5    0.85    0.43
  -1 -13   5    0.84    0.37
   0  13  -5   -0.10    0.35
  -1  13  -5    0.29    0.34
  -2  13  -5    0.94    0.38
  -3  13  -5    5.64    0.60
  -4  13  -5   -0.13    0.34
  -5  13  -5    1.55    0.41
  -6  13  -5    0.34    0.37
  -7  13  -5    1.15    0.43
  -5 -12   5    2.35    0.52
   4  12  -5    0.28    0.37
  -4 -12   5   -0.26    0.36
   3  12  -5    6.20    0.64
  -3 -12   5    5.03    0.62
   2  12  -5    2.14    0.43
  -2 -12   5    1.37    0.43
   1  12  -5   18.88    1.05
  -1 -12   5   16.17    1.03
  -1 -12   5   18.70    1.07
   0  12  -5    0.26    0.32
   0 -12   5   -0.27    0.26
  -1  12  -5    2.10    0.41
  -2  12  -5    1.74    0.39
  -3  12  -5    0.14    0.30
  -4  12  -5    0.83    0.33
  -5  12  -5   -0.17    0.29
  -6  12  -5    1.20    0.38
  -7  12  -5    0.06    0.34
  -8  12  -5    0.10    0.36
  -6 -11   5    0.19    0.41
   5  11  -5    0.29    0.37
  -5 -11   5   -0.45    0.34
   4  11  -5    0.87    0.39
  -4 -11   5    0.36    0.37
   3  11  -5    7.85    0.68
  -3 -11   5    7.13    0.67
   2  11  -5    0.21    0.30
  -2 -11   5    0.02    0.31
   1  11  -5    4.29    0.48
   1  11  -5    4.47    0.50
  -1 -11   5    4.57    0.51
   0  11  -5   -0.17    0.24
   0  11  -5   -0.34    0.25
   0 -11   5    0.07    0.29
   0 -11   5   -0.19    0.24
  -1  11  -5    4.35    0.39
  -1  11  -5    3.60    0.44
  -1  11  -5    4.08    0.47
   1 -11   5    3.27    0.42
  -2  11  -5    0.12    0.23
  -2  11  -5    0.18    0.27
  -2  11  -5    0.18    0.26
  -3  11  -5    3.00    0.41
  -3  11  -5    2.87    0.35
  -4  11  -5    1.15    0.28
  -4  11  -5    0.86    0.32
  -5  11  -5    7.13    0.61
  -5  11  -5    8.30    0.60
  -6  11  -5    5.92    0.55
  -7  11  -5    1.82    0.40
  -8  11  -5   -0.08    0.32
  -7 -10   5    3.12    0.56
   6  10  -5    0.24    0.34
  -6 -10   5   -0.11    0.36
   5  10  -5    5.83    0.59
  -5 -10   5    4.38    0.56
   4  10  -5    0.44    0.30
  -4 -10   5    0.29    0.34
   3  10  -5    0.06    0.27
   3  10  -5    0.07    0.25
  -3 -10   5    0.46    0.31
   2  10  -5    1.13    0.31
   2  10  -5    0.95    0.30
  -2 -10   5    1.57    0.36
   1  10  -5    7.23    0.58
   1  10  -5    6.17    0.54
  -1 -10   5    7.01    0.59
   0  10  -5    0.17    0.24
   0  10  -5   -0.07    0.21
   0 -10   5    0.26    0.24
   0 -10   5    0.31    0.27
  -1  10  -5    6.92    0.56
  -1  10  -5    7.81    0.58
  -1  10  -5    8.66    0.52
   1 -10   5    7.23    0.56
  -2  10  -5    0.64    0.22
  -2  10  -5    0.42    0.23
  -2  10  -5    0.18    0.24
  -3  10  -5    0.30    0.22
  -3  10  -5    0.34    0.24
  -4  10  -5    2.18    0.31
  -4  10  -5    1.91    0.34
  -5  10  -5    0.03    0.25
  -5  10  -5   -0.09    0.24
  -6  10  -5    3.73    0.44
  -7  10  -5    0.31    0.29
  -8  10  -5    2.26    0.39
  -9  10  -5   -0.01    0.32
  -8  -9   5    2.60    0.53
  -7  -9   5    0.33    0.39
   6   9  -5    3.39    0.49
  -6  -9   5    2.80    0.50
   5   9  -5    9.62    0.71
  -5  -9   5    8.18    0.71
   4   9  -5    0.27    0.26
   4   9  -5    0.27    0.28
  -4  -9   5    0.32    0.31
   3   9  -5   -0.05    0.23
   3   9  -5    0.08    0.23
  -3  -9   5    0.14    0.27
   2   9  -5   -0.03    0.22
   2   9  -5   -0.02    0.21
  -2  -9   5   -0.16    0.24
   1   9  -5   32.59    1.46
   1   9  -5   30.15    1.46
  -1  -9   5   31.92    1.47
   0   9  -5    7.09    0.51
   0   9  -5    6.91    0.52
   0  -9   5    6.87    0.55
   0  -9   5    7.38    0.53
  -1   9  -5    4.20    0.41
  -1   9  -5    3.73    0.38
  -1   9  -5    4.09    0.36
   1  -9   5    3.55    0.38
  -2   9  -5    2.59    0.31
  -2   9  -5    2.71    0.33
  -2   9  -5    2.71    0.34
   2  -9   5    2.51    0.33
  -3   9  -5    9.51    0.59
  -3   9  -5    9.11    0.59
  -4   9  -5   14.12    0.74
  -4   9  -5   12.70    0.74
  -5   9  -5    3.52    0.37
  -5   9  -5    2.40    0.34
  -6   9  -5    0.07    0.24
  -7   9  -5    1.44    0.31
  -8   9  -5    1.15    0.34
  -9   9  -5    0.45    0.32
  -9  -8   5    3.32    0.57
  -8  -8   5    0.83    0.40
   7   8  -5    9.58    0.77
  -7  -8   5    8.83    0.77
   6   8  -5    0.11    0.27
  -6  -8   5   -0.06    0.31
   5   8  -5    8.36    0.62
   5   8  -5    7.69    0.61
  -5  -8   5    8.27    0.66
   4   8  -5    0.03    0.21
   4   8  -5   -0.10    0.23
  -4  -8   5   -0.31    0.23
   3   8  -5    1.08    0.25
   3   8  -5    0.91    0.27
  -3  -8   5    0.91    0.28
   2   8  -5    0.11    0.19
   2   8  -5    0.52    0.22
  -2  -8   5    0.55    0.24
   1   8  -5   23.52    1.08
   1   8  -5   21.26    1.06
  -1  -8   5   21.97    1.08
   0   8  -5    6.65    0.48
   0   8  -5    7.08    0.47
   0  -8   5    7.03    0.50
  -1   8  -5    4.88    0.39
  -1   8  -5    4.35    0.39
  -1   8  -5    4.83    0.38
   1  -8   5    4.28    0.39
  -2   8  -5    0.11    0.17
  -2   8  -5   -0.09    0.17
  -2   8  -5    0.10    0.17
   2  -8   5    0.01    0.16
  -3   8  -5    3.12    0.32
  -3   8  -5    3.20    0.33
   3  -8   5    3.39    0.33
  -4   8  -5    1.07    0.24
  -4   8  -5    0.78    0.22
  -5   8  -5    0.31    0.21
  -5   8  -5   -0.03    0.20
  -6   8  -5   13.79    0.75
  -7   8  -5   -0.35    0.22
  -8   8  -5    0.54    0.28
  -9   8  -5    0.54    0.32
 -10   8  -5    1.29    0.38
 -10  -7   5    0.63    0.48
  -9  -7   5   -0.24    0.37
  -8  -7   5    1.96    0.46
   7   7  -5    0.25    0.28
  -7  -7   5    0.11    0.32
   6   7  -5    2.60    0.39
   6   7  -5    2.22    0.37
  -6  -7   5    2.40    0.40
   5   7  -5    1.04    0.28
   5   7  -5    0.96    0.28
  -5  -7   5    1.45    0.32
   4   7  -5    0.19    0.21
   4   7  -5    0.01    0.20
  -4  -7   5   -0.04    0.22
   3   7  -5    0.18    0.19
   3   7  -5    0.12    0.17
  -3  -7   5    0.04    0.21
   2   7  -5    0.14    0.16
   2   7  -5    0.07    0.18
  -2  -7   5   -0.03    0.19
   1   7  -5   24.98    1.15
   1   7  -5   25.58    1.16
  -1  -7   5   25.11    1.16
   0   7  -5    0.00    0.15
   0   7  -5    0.12    0.14
   0  -7   5    0.09    0.15
   0  -7   5    0.09    0.17
  -1   7  -5    2.07    0.25
  -1   7  -5    2.25    0.25
  -1   7  -5    2.65    0.27
   1  -7   5    2.64    0.29
   1  -7   5    2.30    0.25
   1  -7   5    2.01    0.26
  -2   7  -5    5.67    0.40
  -2   7  -5    6.26    0.42
   2  -7   5    6.03    0.40
   2  -7   5    5.82    0.40
  -4   7  -5    0.98    0.22
  -4   7  -5    0.96    0.21
  -5   7  -5    6.38    0.43
  -5   7  -5    6.48    0.45
  -5   7  -5    6.68    0.51
  -6   7  -5    0.89    0.22
  -6   7  -5    0.58    0.22
  -7   7  -5    3.63    0.36
  -8   7  -5    0.33    0.26
   8  -7   5    0.53    0.32
  -9   7  -5    1.31    0.34
 -10   7  -5    0.03    0.33
 -10  -6   5    0.33    0.41
  -9  -6   5    0.45    0.38
   8   6  -5   -0.37    0.25
  -8  -6   5    0.40    0.33
   7   6  -5   19.09    1.07
   7   6  -5   19.73    1.05
  -7  -6   5   19.00    1.07
   6   6  -5    0.27    0.23
   6   6  -5    0.52    0.25
  -6  -6   5    0.18    0.26
   5   6  -5   15.52    0.87
   5   6  -5   16.14    0.86
  -5  -6   5   16.43    0.90
   4   6  -5    1.71    0.27
   4   6  -5    1.78    0.28
  -4  -6   5    1.46    0.28
   3   6  -5    7.32    0.48
   3   6  -5    6.87    0.46
  -3  -6   5    7.44    0.50
   2   6  -5    0.05    0.15
   2   6  -5    0.23    0.15
  -2  -6   5    0.36    0.18
  -2  -6   5    0.27    0.16
   1   6  -5   37.29    1.64
   1   6  -5   39.24    1.66
  -1  -6   5   40.24    1.66
  -1  -6   5   38.43    1.65
   0   6  -5    0.19    0.13
   0   6  -5    0.35    0.15
   0  -6   5    0.30    0.15
   0  -6   5    0.42    0.13
  -1   6  -5   22.44    1.09
  -1   6  -5   23.63    1.03
  -1   6  -5   23.74    1.05
   1  -6   5   22.96    1.04
   1  -6   5   23.73    1.05
   1  -6   5   24.04    1.04
  -2   6  -5    0.88    0.17
  -2   6  -5    0.90    0.18
  -2   6  -5    0.85    0.17
   2  -6   5    0.75    0.16
   2  -6   5    0.88    0.16
  -3   6  -5    1.33    0.19
  -3   6  -5    2.10    0.25
  -3   6  -5    1.31    0.20
   3  -6   5    1.20    0.20
   3  -6   5    1.90    0.21
  -4   6  -5    5.43    0.38
  -4   6  -5    6.21    0.39
  -4   6  -5    6.10    0.45
   4  -6   5    5.84    0.41
  -5   6  -5    0.25    0.20
  -5   6  -5    0.00    0.15
  -5   6  -5    0.10    0.16
  -6   6  -5   19.42    0.93
  -6   6  -5   17.59    0.87
  -7   6  -5    0.08    0.20
  -7   6  -5    0.25    0.22
   7  -6   5   -0.17    0.25
  -8   6  -5    2.73    0.35
  -8   6  -5    2.18    0.34
   8  -6   5    1.91    0.39
  -9   6  -5    0.08    0.29
 -10   6  -5    0.14    0.33
 -11  -5   5    1.05    0.46
 -10  -5   5    0.65    0.41
  -9  -5   5    1.31    0.41
   8   5  -5    2.04    0.38
  -8  -5   5    2.44    0.43
   7   5  -5    1.89    0.34
   7   5  -5    2.36    0.37
  -7  -5   5    2.09    0.38
   6   5  -5   10.08    0.65
   6   5  -5    8.72    0.63
  -6  -5   5   10.76    0.68
   5   5  -5    0.76    0.22
   5   5  -5    0.17    0.19
  -5  -5   5    0.12    0.22
   4   5  -5    4.60    0.37
   4   5  -5    4.36    0.38
  -4  -5   5    3.52    0.37
   3   5  -5    3.01    0.30
   3   5  -5    3.15    0.30
  -3  -5   5    2.88    0.31
  -3  -5   5    3.82    0.32
   2   5  -5    0.02    0.13
   2   5  -5    0.00    0.12
  -2  -5   5   -0.01    0.13
  -2  -5   5    0.23    0.14
   1   5  -5    0.55    0.15
   1   5  -5    0.42    0.13
  -1  -5   5    0.70    0.17
  -1  -5   5    0.32    0.13
   0   5  -5    3.96    0.26
   0   5  -5    3.39    0.28
   0  -5   5    4.08    0.30
   0  -5   5    3.81    0.26
  -1   5  -5    0.53    0.13
  -1   5  -5    0.38    0.13
  -1   5  -5    0.69    0.16
  -1   5  -5    0.72    0.15
   1  -5   5    0.94    0.14
   1  -5   5    0.42    0.13
   1  -5   5    0.81    0.15
  -2   5  -5    0.13    0.09
  -2   5  -5    0.22    0.13
  -2   5  -5    0.57    0.13
   2  -5   5    0.17    0.12
   2  -5   5    0.31    0.12
  -3   5  -5   11.32    0.65
  -3   5  -5   11.67    0.61
  -3   5  -5   12.01    0.57
   3  -5   5   12.15    0.57
   3  -5   5   12.69    0.60
  -4   5  -5    2.91    0.27
  -4   5  -5    2.15    0.22
  -4   5  -5    2.81    0.24
  -4   5  -5    2.69    0.29
   4  -5   5    2.60    0.23
  -5   5  -5   13.46    0.67
  -5   5  -5   15.11    0.76
  -6   5  -5    0.24    0.19
  -6   5  -5    0.00    0.16
   6  -5   5   -0.05    0.23
  -7   5  -5    2.76    0.31
  -7   5  -5    2.95    0.35
   7  -5   5    2.59    0.38
  -8   5  -5    1.30    0.29
  -8   5  -5    1.02    0.29
   8  -5   5    1.08    0.34
  -9   5  -5    1.81    0.34
  -9   5  -5    0.95    0.32
 -10   5  -5    0.20    0.32
 -11  -4   5    0.70    0.41
 -10  -4   5    6.33    0.66
  -9  -4   5    4.70    0.54
   8   4  -5    4.74    0.49
   8   4  -5    3.50    0.44
  -8  -4   5    3.38    0.46
   7   4  -5   14.96    0.89
   7   4  -5   17.19    0.90
  -7  -4   5   15.96    0.91
   6   4  -5    1.05    0.25
   6   4  -5    1.37    0.27
  -6  -4   5    0.92    0.27
   5   4  -5   18.61    0.93
   5   4  -5   17.75    0.93
  -5  -4   5   19.85    0.95
   4   4  -5    0.48    0.17
   4   4  -5    0.23    0.15
  -4  -4   5    0.19    0.17
  -4  -4   5    0.00    0.17
   3   4  -5   76.83    3.40
   3   4  -5   81.17    3.25
   3   4  -5   79.51    3.28
  -3  -4   5   81.53    3.28
  -3  -4   5   82.17    3.25
   2   4  -5    0.76    0.14
   2   4  -5    0.52    0.15
   2   4  -5    0.52    0.12
  -2  -4   5    0.69    0.16
  -2  -4   5    0.48    0.14
   1   4  -5   18.40    0.81
   1   4  -5   17.94    0.86
   1   4  -5   17.93    0.79
  -1  -4   5   17.62    0.79
  -1  -4   5   18.28    0.81
   0   4  -5   -0.06    0.11
   0   4  -5    0.14    0.08
   0   4  -5    0.08    0.10
   0   4  -5    0.08    0.09
   0  -4   5    0.09    0.08
   0  -4   5    0.04    0.09
  -1   4  -5   32.79    1.33
  -1   4  -5   32.35    1.45
  -1   4  -5   31.65    1.48
   1  -4   5   32.90    1.34
   1  -4   5   32.47    1.34
  -2   4  -5    0.19    0.11
  -2   4  -5    0.05    0.09
  -2   4  -5    0.02    0.09
  -2   4  -5    0.05    0.12
  -2   4  -5   -0.05    0.13
   2  -4   5    0.12    0.08
   2  -4   5   -0.01    0.09
  -3   4  -5   22.57    0.98
  -3   4  -5   24.05    0.98
  -3   4  -5   22.55    1.05
  -3   4  -5   24.29    1.10
  -3   4  -5   22.06    0.96
   3  -4   5   22.73    0.96
  -4   4  -5    2.25    0.20
  -4   4  -5    1.66    0.24
  -4   4  -5    2.26    0.19
  -4   4  -5    1.93    0.25
   4  -4   5    2.25    0.25
   4  -4   5    2.21    0.19
  -5   4  -5    1.11    0.17
  -5   4  -5    1.39    0.23
   5  -4   5    1.22    0.24
  -6   4  -5    5.29    0.37
  -6   4  -5    4.85    0.41
   6  -4   5    4.62    0.44
  -7   4  -5    0.32    0.22
  -7   4  -5    0.97    0.26
   7  -4   5    0.55    0.27
  -8   4  -5    0.64    0.26
  -8   4  -5    0.67    0.26
   8  -4   5    0.68    0.33
  -9   4  -5    1.12    0.32
  -9   4  -5    1.21    0.32
 -10   4  -5    0.43    0.31
 -10   4  -5   -0.20    0.32
 -12  -3   5    3.07    0.57
 -11  -3   5   -0.38    0.35
 -10  -3   5    1.81    0.42
   9   3  -5    0.35    0.26
  -9  -3   5   -0.11    0.31
   8   3  -5    0.03    0.21
   8   3  -5   -0.34    0.22
  -8  -3   5    0.10    0.26
   7   3  -5    1.39    0.28
   7   3  -5    0.91    0.27
  -7  -3   5    1.56    0.33
   6   3  -5    8.62    0.56
   6   3  -5    8.13    0.56
  -6  -3   5    9.12    0.60
   5   3  -5    3.05    0.31
   5   3  -5    3.06    0.31
   5   3  -5    2.08    0.17
  -5  -3   5    2.97    0.33
   4   3  -5   10.44    0.57
   4   3  -5    9.54    0.50
   4   3  -5   10.57    0.58
  -4  -3   5   11.63    0.59
  -4  -3   5   10.84    0.59
   3   3  -5    0.81    0.16
  -3  -3   5    1.42    0.20
  -3  -3   5    1.03    0.17
   2   3  -5    1.31    0.17
   2   3  -5    1.05    0.15
   2   3  -5    1.13    0.14
  -2  -3   5    1.48    0.16
  -2  -3   5    1.02    0.16
   1   3  -5   24.66    1.05
   1   3  -5   26.46    1.03
   1   3  -5   24.69    1.05
   1   3  -5   22.84    1.12
  -1  -3   5   24.70    1.03
  -1  -3   5   25.01    1.04
   0   3  -5    0.05    0.09
   0   3  -5    0.00    0.07
   0   3  -5    0.01    0.06
   0   3  -5    0.00    0.04
   0  -3   5    0.00    0.07
   0  -3   5   -0.07    0.06
  -1   3  -5    4.29    0.24
  -1   3  -5    4.43    0.23
  -1   3  -5    3.64    0.27
  -1   3  -5    4.00    0.30
  -1   3  -5    3.49    0.30
   1  -3   5    4.23    0.22
   1  -3   5    4.58    0.23
  -2   3  -5    5.95    0.37
  -2   3  -5    6.36    0.39
  -2   3  -5    5.98    0.30
  -2   3  -5    6.81    0.42
  -2   3  -5    6.03    0.29
  -3   3  -5    2.70    0.28
  -3   3  -5    2.64    0.19
  -3   3  -5    3.06    0.20
  -3   3  -5    2.12    0.25
  -3   3  -5    2.43    0.26
   3  -3   5    3.05    0.25
  -4   3  -5    1.10    0.14
  -4   3  -5    1.30    0.22
  -4   3  -5    1.46    0.22
  -4   3  -5    1.37    0.24
  -4   3  -5    1.21    0.15
   4  -3   5    1.11    0.21
  -5   3  -5    2.03    0.22
  -5   3  -5    2.36    0.29
   5  -3   5    2.53    0.30
  -6   3  -5    0.30    0.20
  -6   3  -5    0.26    0.18
   6  -3   5    0.36    0.22
  -7   3  -5    2.46    0.34
  -7   3  -5    2.81    0.31
   7  -3   5    1.96    0.35
  -8   3  -5    0.69    0.27
  -8   3  -5    1.30    0.31
   8  -3   5    0.73    0.32
  -9   3  -5    0.60    0.29
  -9   3  -5    0.05    0.28
 -10   3  -5    1.59    0.38
 -12  -2   5    0.18    0.40
 -11  -2   5   -0.08    0.36
 -10  -2   5    6.79    0.65
   9   2  -5    0.21    0.24
   9   2  -5    0.19    0.28
  -9  -2   5    0.18    0.31
   8   2  -5    4.12    0.43
   8   2  -5    4.04    0.45
  -8  -2   5    3.80    0.44
   7   2  -5    4.05    0.42
   7   2  -5    3.63    0.40
  -7  -2   5    2.85    0.38
   6   2  -5    0.38    0.19
   6   2  -5    0.07    0.08
   6   2  -5   -0.04    0.16
  -6  -2   5    0.16    0.14
  -6  -2   5   -0.01    0.19
   5   2  -5   62.79    2.62
   5   2  -5   60.12    2.56
   5   2  -5   59.65    2.58
  -5  -2   5   60.73    2.56
  -5  -2   5   63.68    2.60
   4   2  -5   -0.04    0.12
   4   2  -5   -0.05    0.12
   4   2  -5    0.11    0.08
  -4  -2   5    0.10    0.14
  -4  -2   5   -0.13    0.13
   3   2  -5   59.84    2.45
   3   2  -5   58.78    2.58
   3   2  -5   62.30    2.47
  -3  -2   5   59.72    2.45
  -3  -2   5   59.97    2.46
   2   2  -5    0.36    0.11
   2   2  -5    0.13    0.10
   2   2  -5    0.24    0.09
   2   2  -5    0.20    0.09
  -2  -2   5    0.44    0.10
  -2  -2   5    0.23    0.11
   1   2  -5   12.86    0.58
   1   2  -5   13.12    0.55
   1   2  -5   13.76    0.64
  -1  -2   5   12.26    0.55
  -1  -2   5   12.77    0.57
   0   2  -5    0.48    0.11
   0   2  -5    0.48    0.08
   0   2  -5    0.55    0.08
   0  -2   5    0.50    0.08
  -1   2  -5   27.42    1.26
  -1   2  -5   26.60    1.21
  -1   2  -5   28.48    1.24
  -2   2  -5    4.47    0.33
  -2   2  -5    4.30    0.33
  -2   2  -5    4.21    0.32
   2  -2   5    4.65    0.27
  -3   2  -5   15.56    0.75
  -3   2  -5   14.52    0.76
  -3   2  -5   14.75    0.74
   3  -2   5   13.94    0.69
  -4   2  -5   -0.03    0.10
  -4   2  -5    0.07    0.09
  -4   2  -5   -0.09    0.15
  -4   2  -5    0.08    0.15
   4  -2   5   -0.15    0.13
  -5   2  -5    2.64    0.32
  -5   2  -5    2.99    0.33
  -5   2  -5    3.24    0.26
   5  -2   5    2.52    0.30
  -6   2  -5    6.58    0.49
  -6   2  -5    6.23    0.42
   6  -2   5    6.31    0.48
  -7   2  -5    0.36    0.22
  -7   2  -5    0.40    0.21
   7  -2   5    0.33    0.25
  -8   2  -5   12.50    0.79
  -8   2  -5   12.97    0.72
   8  -2   5   12.17    0.82
  -9   2  -5    0.12    0.28
  -9   2  -5   -0.21    0.27
 -10   2  -5    5.02    0.56
 -10   2  -5    4.32    0.49
 -12  -1   5    0.72    0.41
 -11  -1   5    1.35    0.41
 -10  -1   5    4.37    0.53
   9   1  -5    5.35    0.53
   9   1  -5    5.43    0.52
  -9  -1   5    4.82    0.53
   8   1  -5   -0.14    0.19
   8   1  -5    0.38    0.24
  -8  -1   5   -0.37    0.24
   7   1  -5    1.01    0.25
   7   1  -5    1.53    0.26
  -7  -1   5    0.53    0.21
  -7  -1   5    0.81    0.26
   6   1  -5    2.78    0.32
   6   1  -5    2.61    0.31
  -6  -1   5    2.53    0.27
  -6  -1   5    3.11    0.34
   5   1  -5    4.34    0.35
   5   1  -5    4.16    0.36
   5   1  -5    4.52    0.30
  -5  -1   5    4.26    0.36
  -5  -1   5    3.90    0.35
  -5  -1   5    4.29    0.38
   4   1  -5   28.99    1.26
   4   1  -5   28.76    1.27
   4   1  -5   28.09    1.25
  -4  -1   5   27.28    1.44
  -4  -1   5   28.58    1.24
  -4  -1   5   28.49    1.26
   3   1  -5    0.98    0.15
   3   1  -5    1.70    0.18
   3   1  -5    1.16    0.17
  -3  -1   5    1.15    0.18
   2   1  -5    0.98    0.11
   2   1  -5    0.58    0.12
   2   1  -5    0.65    0.13
   2   1  -5    1.05    0.14
  -2  -1   5    0.71    0.13
   1   1  -5   17.03    0.83
   1   1  -5   17.38    0.75
  -1  -1   5   18.08    0.75
   0   1  -5    0.12    0.10
   0   1  -5    0.40    0.07
   0   1  -5    0.36    0.07
   0   1  -5    0.23    0.09
  -1   1  -5    9.99    0.56
  -1   1  -5    9.89    0.54
  -1   1  -5    9.04    0.53
   1  -1   5   12.56    0.46
  -2   1  -5    1.70    0.19
  -2   1  -5    1.58    0.20
  -2   1  -5    1.30    0.15
  -2   1  -5    1.63    0.20
   2  -1   5    1.43    0.15
  -3   1  -5   12.72    0.69
  -3   1  -5   12.61    0.68
  -3   1  -5   13.42    0.69
   3  -1   5   13.52    0.63
  -4   1  -5    6.34    0.43
  -4   1  -5    5.68    0.32
  -4   1  -5    5.74    0.32
  -4   1  -5    5.23    0.41
   4  -1   5    5.95    0.39
  -5   1  -5    0.15    0.18
  -5   1  -5    0.42    0.21
  -5   1  -5    0.45    0.15
   5  -1   5    0.18    0.19
   5  -1   5    0.19    0.19
  -6   1  -5    1.78    0.31
  -6   1  -5    2.88    0.34
  -6   1  -5    2.64    0.27
   6  -1   5    2.40    0.32
   6  -1   5    2.28    0.33
  -7   1  -5    2.73    0.30
  -7   1  -5    2.72    0.38
   7  -1   5    1.85    0.35
  -8   1  -5    0.56    0.27
  -8   1  -5    1.11    0.32
   8  -1   5    0.46    0.32
  -9   1  -5    2.68    0.43
 -10   1  -5    2.59    0.47
 -10   1  -5    2.43    0.41
 -12   0   5    1.52    0.46
 -11   0   5    0.71    0.38
 -10   0   5    4.80    0.56
   9   0  -5    2.76    0.39
   9   0  -5    2.78    0.41
  -9   0   5    3.17    0.44
   8   0  -5    9.29    0.61
   8   0  -5    8.40    0.62
  -8   0   5    9.01    0.63
   7   0  -5    6.67    0.49
   7   0  -5    6.30    0.49
  -7   0   5    7.18    0.52
   6   0  -5    3.84    0.37
   6   0  -5    4.05    0.37
  -6   0   5    3.93    0.38
  -6   0   5    3.75    0.37
   5   0  -5    1.68    0.23
   5   0  -5    1.24    0.21
  -5   0   5    1.35    0.23
  -5   0   5    1.37    0.22
   4   0  -5   11.98    0.60
   4   0  -5   12.31    0.61
  -4   0   5   11.08    0.60
  -4   0   5   11.50    0.69
   3   0  -5   57.02    2.32
   3   0  -5   55.46    2.32
   3   0  -5   59.01    2.48
  -3   0   5   56.07    2.31
  -3   0   5   56.94    2.78
   2   0  -5    2.08    0.19
   2   0  -5    1.88    0.21
   2   0  -5    2.57    0.19
  -2   0   5    1.85    0.18
  -2   0   5    1.87    0.25
   1   0  -5    8.72    0.40
   1   0  -5   10.26    0.51
   1   0  -5    8.75    0.43
  -1   0   5    9.44    0.43
  -1   0   5    9.48    0.58
   0   0  -5    0.75    0.12
   0   0  -5    0.52    0.11
   0   0  -5    0.91    0.09
   0   0  -5    0.85    0.08
   0   0  -5    0.71    0.14
   0   0  -5    0.73    0.08
   0   0   5    0.67    0.07
   0   0   5    0.80    0.18
  -1   0  -5   57.50    2.26
  -1   0  -5   56.35    2.45
  -1   0  -5   54.66    2.39
  -1   0  -5   54.63    2.37
   1   0   5   54.30    2.75
   1   0   5   57.74    2.25
  -2   0  -5    0.08    0.12
  -2   0  -5    0.05    0.12
  -2   0  -5    0.20    0.12
  -2   0  -5    0.22    0.12
   2   0   5    0.15    0.10
   2   0   5    0.23    0.15
  -3   0  -5   24.55    1.13
  -3   0  -5   24.14    1.14
  -3   0  -5   23.71    1.09
   3   0   5   24.38    1.28
   3   0   5   23.32    1.06
  -4   0  -5    0.11    0.15
  -4   0  -5    0.10    0.18
  -4   0  -5    0.09    0.11
  -4   0  -5   -0.06    0.16
  -4   0  -5    0.03    0.12
   4   0   5   -0.06    0.17
   4   0   5    0.00    0.14
  -5   0  -5    5.48    0.43
  -5   0  -5    5.23    0.44
  -5   0  -5    4.54    0.34
   5   0   5    4.81    0.40
   5   0   5    5.28    0.47
  -6   0  -5    1.46    0.23
  -6   0  -5    1.14    0.26
  -6   0  -5    1.54    0.30
   6   0   5    1.23    0.27
  -7   0  -5    0.13    0.21
  -7   0  -5    0.04    0.24
   7   0   5    0.04    0.23
  -8   0  -5    1.80    0.33
  -8   0  -5    2.13    0.40
   8   0   5    2.65    0.41
  -9   0  -5    0.74    0.34
  -9   0  -5    0.97    0.31
 -10   0  -5    0.43    0.33
 -12   1   5    0.81    0.41
 -11   1   5    1.99    0.45
  10  -1  -5    6.57    0.60
 -10   1   5    5.70    0.59
   9  -1  -5    3.44    0.44
   9  -1  -5    3.39    0.42
  -9   1   5    3.08    0.42
   8  -1  -5    0.07    0.23
   8  -1  -5    0.76    0.25
  -8   1   5    0.37    0.25
   7  -1  -5    5.91    0.47
   7  -1  -5    5.79    0.48
  -7   1   5    6.58    0.50
   6  -1  -5    2.38    0.30
   6  -1  -5    2.67    0.31
  -6   1   5    2.14    0.34
  -6   1   5    2.03    0.28
   5  -1  -5    0.80    0.18
   5  -1  -5    0.49    0.16
  -5   1   5    0.35    0.22
  -5   1   5    0.35    0.16
   4  -1  -5    1.13    0.18
  -4   1   5    1.11    0.18
  -4   1   5    0.99    0.23
   3  -1  -5    0.04    0.10
  -3   1   5    0.17    0.16
  -3   1   5    0.22    0.11
   2  -1  -5    0.46    0.10
   2  -1  -5    0.40    0.09
   2  -1  -5    0.40    0.11
   2  -1  -5    0.52    0.15
  -2   1   5    0.20    0.16
  -2   1   5    0.35    0.10
   1  -1  -5   10.11    0.57
   1  -1  -5   10.27    0.49
   1  -1  -5   10.74    0.47
   1  -1  -5   10.25    0.51
  -1   1   5   10.51    0.66
  -1   1   5   10.06    0.47
  -1   1   5   10.80    0.47
   0  -1  -5    0.07    0.07
   0  -1  -5    0.14    0.12
   0  -1  -5    0.07    0.06
   0  -1  -5   -0.01    0.08
   0  -1  -5   -0.01    0.07
   0  -1  -5   -0.01    0.09
   0   1   5    0.03    0.15
   0   1   5    0.00    0.06
   0   1   5   -0.01    0.07
  -1  -1  -5   51.63    2.23
  -1  -1  -5   50.91    2.22
  -1  -1  -5   50.92    2.29
  -1  -1  -5   52.20    2.06
  -1  -1  -5   52.91    2.13
  -1  -1  -5   52.01    2.06
   1   1   5   53.10    2.11
   1   1   5   50.11    2.57
   1   1   5   53.45    2.05
  -2  -1  -5    2.81    0.19
  -2  -1  -5    2.77    0.27
  -2  -1  -5    2.63    0.24
  -2  -1  -5    2.71    0.19
  -2  -1  -5    2.78    0.25
  -2  -1  -5    2.65    0.27
   2   1   5    2.82    0.23
   2   1   5    2.75    0.33
  -3  -1  -5   10.82    0.58
  -3  -1  -5   10.25    0.49
  -3  -1  -5   10.11    0.49
  -3  -1  -5    9.79    0.57
  -3  -1  -5   10.05    0.59
   3   1   5   10.18    0.54
   3   1   5   10.91    0.68
  -4  -1  -5    3.85    0.35
  -4  -1  -5    3.70    0.29
  -4  -1  -5    3.76    0.38
   4   1   5    4.23    0.35
   4   1   5    4.91    0.45
  -5  -1  -5    0.27    0.19
  -5  -1  -5    0.34    0.17
  -5  -1  -5    0.27    0.21
   5   1   5    0.11    0.19
   5   1   5    0.50    0.25
  -6  -1  -5    0.35    0.22
  -6  -1  -5    0.48    0.21
  -6  -1  -5    0.42    0.25
   6   1   5    0.40    0.23
  -7  -1  -5    6.61    0.47
  -7  -1  -5    4.68    0.52
   7   1   5    5.39    0.51
  -8  -1  -5    0.42    0.27
  -8  -1  -5    0.99    0.33
  -9  -1  -5    1.95    0.42
  -9  -1  -5    1.24    0.36
 -12   2   5    0.39    0.40
 -11   2   5    0.09    0.33
  10  -2  -5    1.36    0.33
 -10   2   5    1.26    0.38
   9  -2  -5    0.32    0.25
   9  -2  -5    0.68    0.30
  -9   2   5    1.25    0.34
   8  -2  -5    4.36    0.45
   8  -2  -5    4.47    0.47
  -8   2   5    3.82    0.43
   7  -2  -5    3.66    0.39
   7  -2  -5    4.02    0.41
  -7   2   5    3.93    0.40
   6  -2  -5    1.03    0.23
   6  -2  -5    0.58    0.19
  -6   2   5    0.99    0.23
   5  -2  -5   22.30    1.05
  -5   2   5   22.73    1.03
  -5   2   5   21.96    1.25
   4  -2  -5   10.90    0.58
  -4   2   5   11.23    0.73
  -4   2   5   10.43    0.56
   3  -2  -5   41.69    1.77
   3  -2  -5   42.52    1.77
  -3   2   5   42.37    1.75
  -3   2   5   43.07    2.15
   2  -2  -5    0.05    0.10
   2  -2  -5    0.23    0.09
   2  -2  -5    0.07    0.08
  -2   2   5    0.09    0.09
  -2   2   5   -0.14    0.18
   1  -2  -5    2.92    0.25
   1  -2  -5    3.62    0.34
   1  -2  -5    3.61    0.25
   1  -2  -5    3.22    0.23
   1  -2  -5    3.81    0.24
  -1   2   5    3.54    0.23
  -1   2   5    3.86    0.24
  -1   2   5    4.23    0.41
   0  -2  -5   -0.06    0.09
   0  -2  -5    0.01    0.08
   0  -2  -5   -0.03    0.09
   0  -2  -5   -0.03    0.05
   0  -2  -5    0.29    0.15
   0  -2  -5   -0.04    0.09
   0   2   5    0.18    0.10
   0   2   5   -0.05    0.07
   0   2   5    0.27    0.20
  -1  -2  -5    9.31    0.45
  -1  -2  -5    8.84    0.44
  -1  -2  -5    9.95    0.52
  -1  -2  -5    9.71    0.49
  -1  -2  -5    8.82    0.48
  -1  -2  -5    8.95    0.54
   1   2   5    9.77    0.44
   1   2   5    9.09    0.47
   1   2   5   10.12    0.66
  -2  -2  -5    0.95    0.15
  -2  -2  -5    1.16    0.19
  -2  -2  -5    1.19    0.20
  -2  -2  -5    1.08    0.19
  -2  -2  -5    1.01    0.14
   2   2   5    1.05    0.17
   2   2   5    0.81    0.25
   2   2   5    1.42    0.14
  -3  -2  -5   17.92    0.88
  -3  -2  -5   16.75    0.86
  -3  -2  -5   17.37    0.85
  -3  -2  -5   16.55    0.76
  -3  -2  -5   16.63    0.77
   3   2   5   16.46    0.99
   3   2   5   17.23    0.74
   3   2   5   16.98    0.81
  -4  -2  -5    0.30    0.16
  -4  -2  -5    0.16    0.16
  -4  -2  -5    0.42    0.20
   4   2   5    0.49    0.18
   4   2   5    0.44    0.27
  -5  -2  -5    1.57    0.31
  -5  -2  -5    1.53    0.26
  -5  -2  -5    1.52    0.24
   5   2   5    1.45    0.33
   5   2   5    1.95    0.29
  -6  -2  -5    0.40    0.22
  -6  -2  -5    0.69    0.24
  -6  -2  -5    0.37    0.25
   6   2   5    0.15    0.23
  -7  -2  -5    0.12    0.24
  -7  -2  -5    0.52    0.29
   7   2   5    0.16    0.26
  -8  -2  -5    5.21    0.49
  -8  -2  -5    5.16    0.56
  -9  -2  -5    1.00    0.34
  -9  -2  -5    1.35    0.40
 -12   3   5    0.40    0.41
 -11   3   5    1.47    0.42
  10  -3  -5    8.93    0.68
 -10   3   5    7.45    0.67
   9  -3  -5    1.17    0.34
   9  -3  -5    1.39    0.33
  -9   3   5    1.49    0.35
   8  -3  -5    0.47    0.26
   8  -3  -5    0.51    0.23
  -8   3   5    0.00    0.24
   7  -3  -5    0.81    0.23
  -7   3   5    0.65    0.24
   6  -3  -5   22.84    1.11
  -6   3   5   23.71    1.10
   5  -3  -5    6.91    0.46
  -5   3   5    6.85    0.45
   4  -3  -5    8.81    0.50
   4  -3  -5    8.76    0.52
  -4   3   5    9.67    0.51
   3  -3  -5    0.28    0.12
   3  -3  -5    0.14    0.13
  -3   3   5    0.45    0.26
  -3   3   5    0.18    0.13
   2  -3  -5    0.23    0.09
   2  -3  -5    0.07    0.10
   2  -3  -5    0.05    0.12
  -2   3   5    0.02    0.22
  -2   3   5    0.21    0.11
  -2   3   5    0.00    0.11
   1  -3  -5   12.98    0.62
   1  -3  -5   13.45    0.61
   1  -3  -5   11.81    0.59
   1  -3  -5   12.60    0.58
   1  -3  -5   12.65    0.61
  -1   3   5   12.12    0.59
  -1   3   5   12.61    0.60
  -1   3   5   12.92    0.83
   0  -3  -5    0.07    0.11
   0  -3  -5   -0.08    0.10
   0  -3  -5    0.10    0.12
   0  -3  -5   -0.01    0.08
   0  -3  -5    0.02    0.08
   0  -3  -5   -0.15    0.15
   0   3   5   -0.04    0.09
   0   3   5    0.13    0.22
   0   3   5   -0.03    0.11
  -1  -3  -5   13.10    0.69
  -1  -3  -5   13.39    0.63
  -1  -3  -5   13.12    0.72
  -1  -3  -5   12.90    0.65
   1   3   5   13.94    0.66
   1   3   5   13.26    0.87
   1   3   5   13.40    0.61
  -2  -3  -5    0.08    0.13
  -2  -3  -5    0.09    0.15
  -2  -3  -5    0.15    0.16
  -2  -3  -5    0.02    0.14
  -2  -3  -5    0.06    0.06
   2   3   5    0.09    0.14
   2   3   5   -0.03    0.24
   2   3   5    0.22    0.11
  -3  -3  -5   13.87    0.67
  -3  -3  -5   14.32    0.76
  -3  -3  -5   13.26    0.73
   3   3   5   13.54    0.71
   3   3   5   13.65    0.91
  -4  -3  -5    1.60    0.24
  -4  -3  -5    1.17    0.22
  -4  -3  -5    1.67    0.30
   4   3   5    1.95    0.39
   4   3   5    1.41    0.25
  -5  -3  -5    0.19    0.19
  -5  -3  -5    0.29    0.19
  -5  -3  -5    0.23    0.23
   5   3   5    0.06    0.21
  -6  -3  -5    0.11    0.22
  -6  -3  -5    0.41    0.26
   6   3   5    0.33    0.26
  -7  -3  -5    4.60    0.51
  -7  -3  -5    4.18    0.43
  -8  -3  -5    1.89    0.37
  -8  -3  -5    2.52    0.44
 -12   4   5    1.71    0.45
 -11   4   5    0.62    0.38
  10  -4  -5    4.47    0.53
 -10   4   5    3.72    0.51
   9  -4  -5    1.52    0.36
   9  -4  -5    1.43    0.33
  -9   4   5    1.04    0.32
   8  -4  -5    7.08    0.56
  -8   4   5    7.26    0.57
   7  -4  -5    2.60    0.35
  -7   4   5    2.50    0.33
   6  -4  -5    0.13    0.18
  -6   4   5    0.26    0.19
   5  -4  -5    8.61    0.54
  -5   4   5    8.44    0.52
   4  -4  -5    3.92    0.35
   4  -4  -5    3.51    0.31
  -4   4   5    3.46    0.32
   3  -4  -5   39.38    1.63
   3  -4  -5   36.80    1.63
  -3   4   5   37.81    1.60
   2  -4  -5    3.93    0.33
   2  -4  -5    4.10    0.32
   2  -4  -5    4.07    0.28
  -2   4   5    3.89    0.31
  -2   4   5    4.13    0.31
   1  -4  -5   18.85    0.87
   1  -4  -5   19.82    0.88
   1  -4  -5   18.24    0.82
   1  -4  -5   18.85    0.87
  -1   4   5   18.75    0.85
  -1   4   5   18.14    0.87
   0  -4  -5    0.13    0.11
   0  -4  -5    0.01    0.13
   0  -4  -5    0.10    0.14
   0  -4  -5    0.22    0.14
   0  -4  -5   -0.02    0.18
   0   4   5    0.08    0.12
   0   4   5    0.22    0.14
  -1  -4  -5    3.47    0.28
  -1  -4  -5    3.61    0.32
  -1  -4  -5    3.51    0.32
  -1  -4  -5    3.25    0.29
  -1  -4  -5    3.60    0.38
   1   4   5    3.12    0.30
   1   4   5    3.80    0.28
  -2  -4  -5    0.12    0.17
  -2  -4  -5    0.18    0.17
  -2  -4  -5    0.22    0.17
  -2  -4  -5    0.15    0.15
   2   4   5   -0.06    0.16
  -3  -4  -5   14.45    0.79
  -3  -4  -5   14.33    0.72
  -3  -4  -5   14.12    0.77
   3   4   5   14.07    0.75
  -4  -4  -5   -0.01    0.16
  -4  -4  -5   -0.01    0.21
  -4  -4  -5   -0.03    0.19
   4   4   5   -0.05    0.19
  -5  -4  -5    9.12    0.64
  -5  -4  -5    8.51    0.55
   5   4   5    8.29    0.60
  -6  -4  -5    0.50    0.27
  -6  -4  -5    0.62    0.29
   6   4   5    0.38    0.28
  -7  -4  -5   -0.22    0.27
  -7  -4  -5    0.33    0.29
  -8  -4  -5    0.37    0.33
  -8  -4  -5    0.39    0.32
 -12   5   5    0.02    0.39
 -11   5   5    1.21    0.42
  10  -5  -5    2.97    0.45
 -10   5   5    2.53    0.46
   9  -5  -5    0.66    0.30
  -9   5   5    0.53    0.31
   8  -5  -5    2.46    0.37
  -8   5   5    2.66    0.39
   7  -5  -5    1.25    0.28
  -7   5   5    1.63    0.29
   6  -5  -5    2.71    0.34
  -6   5   5    1.95    0.30
   5  -5  -5    3.80    0.38
  -5   5   5    4.51    0.38
   4  -5  -5    0.15    0.16
  -4   5   5    0.02    0.15
   3  -5  -5    3.32    0.32
  -3   5   5    2.79    0.29
   2  -5  -5   11.94    0.63
   2  -5  -5   11.72    0.58
  -2   5   5   11.25    0.61
  -2   5   5   11.80    0.63
   1  -5  -5   27.94    1.21
   1  -5  -5   28.49    1.22
  -1   5   5   25.61    1.21
  -1   5   5   25.83    1.18
   0  -5  -5    0.19    0.15
   0  -5  -5    0.42    0.16
   0   5   5    0.37    0.17
   0   5   5    0.59    0.16
  -1  -5  -5    1.15    0.28
  -1  -5  -5    1.71    0.24
  -1  -5  -5    1.06    0.21
   1   5   5    1.28    0.21
   1   5   5    1.25    0.23
  -2  -5  -5    1.04    0.23
  -2  -5  -5    1.23    0.26
  -2  -5  -5    1.08    0.22
  -2  -5  -5    1.29    0.25
   2   5   5    1.12    0.23
  -3  -5  -5    4.55    0.43
  -3  -5  -5    4.30    0.39
  -3  -5  -5    4.49    0.39
   3   5   5    4.25    0.41
  -4  -5  -5    6.03    0.54
  -4  -5  -5    6.72    0.49
  -4  -5  -5    6.67    0.47
   4   5   5    6.20    0.51
  -5  -5  -5    1.56    0.33
  -5  -5  -5    1.53    0.30
   5   5   5    1.25    0.32
  -6  -5  -5    2.29    0.40
  -6  -5  -5    2.53    0.38
  -7  -5  -5    0.41    0.32
  -7  -5  -5    0.52    0.32
 -12   6   5    1.36    0.50
 -11   6   5   -0.18    0.35
  10  -6  -5   -0.17    0.28
 -10   6   5   -0.05    0.34
   9  -6  -5    0.02    0.27
  -9   6   5   -0.11    0.29
   8  -6  -5    1.13    0.31
  -8   6   5    0.83    0.31
   7  -6  -5    5.22    0.50
  -7   6   5    5.34    0.50
   6  -6  -5    4.36    0.44
  -6   6   5    4.57    0.43
   5  -6  -5    4.79    0.44
  -5   6   5    4.96    0.43
   4  -6  -5    1.66    0.28
  -4   6   5    2.26    0.29
   3  -6  -5   22.76    1.10
  -3   6   5   24.15    1.08
  -3   6   5   22.12    1.09
   2  -6  -5    0.02    0.11
   2  -6  -5   -0.11    0.16
  -2   6   5   -0.13    0.15
  -2   6   5    0.07    0.18
   1  -6  -5   24.37    1.11
   1  -6  -5   23.90    1.14
  -1   6   5   24.47    1.12
  -1   6   5   24.82    1.15
   0  -6  -5    0.99    0.21
   0  -6  -5    0.52    0.18
   0   6   5    0.76    0.20
   0   6   5    0.84    0.22
  -1  -6  -5    7.43    0.58
  -1  -6  -5    7.51    0.51
  -1  -6  -5    7.35    0.52
   1   6   5    7.99    0.53
  -2  -6  -5    0.28    0.22
  -2  -6  -5    0.53    0.22
  -2  -6  -5    0.44    0.23
  -2  -6  -5    0.64    0.22
   2   6   5    0.29    0.22
  -3  -6  -5    0.51    0.24
  -3  -6  -5    0.47    0.26
  -3  -6  -5    0.60    0.23
  -3  -6  -5    0.20    0.23
   3   6   5    0.70    0.25
  -4  -6  -5    4.74    0.49
  -4  -6  -5    4.52    0.44
   4   6   5    4.45    0.47
  -5  -6  -5    3.60    0.46
  -5  -6  -5    4.25    0.45
  -6  -6  -5   -0.14    0.29
  -6  -6  -5    0.22    0.30
  -7  -6  -5   -0.32    0.32
 -12   7   5    0.09    0.42
 -11   7   5    0.97    0.41
  10  -7  -5    0.20    0.34
 -10   7   5    0.22    0.36
   9  -7  -5    1.20    0.36
  -9   7   5    1.02    0.36
   8  -7  -5   13.66    0.86
  -8   7   5   12.65    0.81
   7  -7  -5    5.73    0.56
  -7   7   5    6.53    0.56
   6  -7  -5   -0.08    0.21
  -6   7   5    0.41    0.25
   5  -7  -5    0.36    0.21
  -5   7   5    0.12    0.21
   4  -7  -5    1.48    0.29
  -4   7   5    1.37    0.27
   3  -7  -5    0.91    0.24
  -3   7   5    0.70    0.23
  -3   7   5    0.70    0.22
   2  -7  -5    4.62    0.42
   2  -7  -5    4.67    0.35
  -2   7   5    5.13    0.42
  -2   7   5    4.98    0.43
   1  -7  -5    1.80    0.23
   1  -7  -5    1.45    0.27
  -1   7   5    1.79    0.28
  -1   7   5    1.54    0.28
   0  -7  -5    0.09    0.20
   0  -7  -5   -0.06    0.16
   0   7   5    0.11    0.21
  -1  -7  -5    0.09    0.20
  -1  -7  -5    0.39    0.20
  -1  -7  -5    0.44    0.29
   1   7   5    0.30    0.23
  -2  -7  -5   -0.18    0.20
  -2  -7  -5    0.24    0.22
  -2  -7  -5    0.24    0.25
   2   7   5   -0.11    0.23
  -3  -7  -5    3.41    0.40
  -3  -7  -5    3.40    0.40
  -3  -7  -5    2.40    0.37
  -3  -7  -5    3.24    0.41
   3   7   5    2.97    0.40
  -4  -7  -5    0.12    0.25
  -4  -7  -5   -0.27    0.26
  -5  -7  -5    4.13    0.49
  -5  -7  -5    2.90    0.43
  -6  -7  -5    1.70    0.40
  -6  -7  -5    1.10    0.39
 -11   8   5    0.34    0.41
 -10   8   5    0.20    0.37
   9  -8  -5    0.37    0.34
  -9   8   5    0.49    0.35
   8  -8  -5   18.27    1.07
  -8   8   5   18.69    1.03
   7  -8  -5    0.41    0.28
  -7   8   5    0.22    0.27
   6  -8  -5    0.40    0.26
  -6   8   5   -0.06    0.24
   5  -8  -5    0.46    0.25
  -5   8   5    1.13    0.30
   4  -8  -5    1.67    0.32
  -4   8   5    1.41    0.31
   3  -8  -5    4.10    0.43
  -3   8   5    4.15    0.41
  -3   8   5    3.88    0.42
   2  -8  -5    0.28    0.21
  -2   8   5    0.27    0.24
  -2   8   5    0.41    0.23
   1  -8  -5   17.93    0.84
   1  -8  -5   16.23    0.90
  -1   8   5   15.30    0.90
   0  -8  -5   -0.28    0.20
   0  -8  -5    0.06    0.17
   0   8   5    0.10    0.24
  -1  -8  -5    4.55    0.42
  -1  -8  -5    4.08    0.50
  -1  -8  -5    3.44    0.42
   1   8   5    4.41    0.47
  -2  -8  -5    0.40    0.26
  -2  -8  -5    0.24    0.26
  -2  -8  -5    0.78    0.26
   2   8   5    0.33    0.28
  -3  -8  -5    4.20    0.49
  -3  -8  -5    3.85    0.46
  -3  -8  -5    5.20    0.50
  -4  -8  -5    0.12    0.32
  -4  -8  -5    0.38    0.29
  -4  -8  -5    0.67    0.30
  -5  -8  -5   13.59    0.88
  -5  -8  -5   12.81    0.87
  -5  -8  -5   14.01    0.91
 -11   9   5    0.26    0.44
 -10   9   5    0.87    0.39
   9  -9  -5    0.77    0.38
  -9   9   5    0.56    0.38
   8  -9  -5    0.11    0.31
  -8   9   5    0.19    0.33
   7  -9  -5    0.15    0.29
  -7   9   5    0.19    0.29
   6  -9  -5    0.15    0.25
  -6   9   5   -0.11    0.25
   5  -9  -5    1.00    0.31
  -5   9   5    2.23    0.37
   4  -9  -5    0.66    0.28
  -4   9   5    1.12    0.31
   3  -9  -5    0.53    0.26
  -3   9   5    0.47    0.28
  -3   9   5    0.48    0.26
   2  -9  -5    0.46    0.26
  -2   9   5    0.44    0.28
   1  -9  -5    0.07    0.24
  -1   9   5    0.56    0.28
   0  -9  -5    1.19    0.31
  -1  -9  -5    2.99    0.48
  -1  -9  -5    2.09    0.37
  -1  -9  -5    2.55    0.35
  -2  -9  -5    0.32    0.28
  -2  -9  -5    0.59    0.27
  -3  -9  -5    1.03    0.32
  -3  -9  -5    0.87    0.33
  -4  -9  -5   -0.34    0.29
  -4  -9  -5    0.29    0.30
  -4  -9  -5    0.16    0.36
 -10  10   5    0.34    0.43
   9 -10  -5    0.09    0.37
  -9  10   5    0.14    0.37
   8 -10  -5    1.26    0.40
  -8  10   5    1.50    0.41
   7 -10  -5    0.03    0.29
  -7  10   5    0.54    0.35
   6 -10  -5    0.97    0.33
  -6  10   5    1.43    0.36
   5 -10  -5    6.39    0.61
  -5  10   5    7.03    0.62
   4 -10  -5   -0.11    0.27
  -4  10   5    0.01    0.27
   3 -10  -5    4.25    0.49
   2 -10  -5    2.84    0.42
   1 -10  -5   15.94    0.94
   0 -10  -5    0.56    0.30
  -1 -10  -5    0.84    0.39
  -1 -10  -5    1.13    0.35
  -2 -10  -5    0.15    0.30
  -3 -10  -5    2.22    0.44
   9 -11  -5    1.45    0.45
  -9  11   5    2.20    0.51
   8 -11  -5    1.85    0.46
  -8  11   5    1.51    0.45
   7 -11  -5    0.49    0.37
  -7  11   5    0.16    0.35
   6 -11  -5    1.24    0.38
  -6  11   5    1.37    0.40
   5 -11  -5   -0.03    0.30
   4 -11  -5    0.26    0.31
   3 -11  -5    0.23    0.32
   2 -11  -5    2.27    0.41
   1 -11  -5    0.20    0.31
   0 -11  -5    0.23    0.30
  -1 -11  -5   -0.01    0.29
  -2 -11  -5   -0.05    0.32
   8 -12  -5   -0.26    0.34
  -8  12   5   -0.08    0.38
   7 -12  -5    0.60    0.38
  -7  12   5    0.30    0.39
   6 -12  -5    2.36    0.48
   5 -12  -5   -0.40    0.31
   4 -12  -5    3.96    0.54
   3 -12  -5   -0.15    0.32
   2 -12  -5    1.50    0.42
   1 -12  -5    1.09    0.38
   0 -12  -5   -0.39    0.30
   4 -13  -5    0.08    0.38
   2  14  -6    2.12    0.51
   1  14  -6    1.16    0.45
   0  14  -6    1.03    0.43
  -1  14  -6    0.27    0.39
  -2  14  -6   -0.51    0.34
  -3  14  -6    0.89    0.41
  -4  14  -6    1.13    0.42
  -5  14  -6    3.00    0.52
   4  13  -6   -0.13    0.41
  -4 -13   6    0.30    0.44
   3  13  -6    0.26    0.40
  -3 -13   6    0.32    0.43
   2  13  -6    4.93    0.61
   1  13  -6    0.33    0.36
   0  13  -6   11.97    0.85
  -1  13  -6    3.26    0.51
  -2  13  -6    4.76    0.56
  -3  13  -6    0.53    0.37
  -4  13  -6    0.28    0.35
  -5  13  -6    3.03    0.49
  -6  13  -6    0.17    0.36
   5  12  -6   -0.07    0.40
  -5 -12   6    0.10    0.41
   4  12  -6    3.47    0.56
  -4 -12   6    4.03    0.58
   3  12  -6   -0.07    0.33
  -3 -12   6    0.24    0.37
   2  12  -6    2.31    0.45
  -2 -12   6    2.55    0.46
   1  12  -6    0.79    0.35
  -1 -12   6    1.31    0.41
  -1 -12   6    1.17    0.36
   0  12  -6    0.38    0.33
  -1  12  -6    1.19    0.37
  -1  12  -6    1.19    0.35
  -2  12  -6    1.05    0.34
  -2  12  -6    0.61    0.33
  -3  12  -6    1.22    0.36
  -4  12  -6    0.36    0.32
  -5  12  -6    0.39    0.34
  -6  12  -6    0.14    0.33
  -7  12  -6    4.04    0.52
  -7 -11   6    0.60    0.48
   6  11  -6    6.05    0.68
  -6 -11   6    5.44    0.68
   5  11  -6   -0.37    0.32
  -5 -11   6    0.02    0.38
   4  11  -6    2.97    0.49
  -4 -11   6    3.78    0.53
   3  11  -6    0.51    0.34
  -3 -11   6    0.63    0.36
   2  11  -6    4.62    0.54
   2  11  -6    5.33    0.55
  -2 -11   6    5.13    0.55
   1  11  -6    1.24    0.33
   1  11  -6    0.63    0.28
  -1 -11   6    0.08    0.29
   0  11  -6    3.61    0.43
   0  11  -6    3.47    0.44
   0 -11   6    2.89    0.41
  -1  11  -6    0.64    0.25
  -1  11  -6    0.41    0.28
  -1  11  -6    0.54    0.28
  -2  11  -6    6.26    0.57
  -2  11  -6    6.67    0.59
  -2  11  -6    8.68    0.58
  -3  11  -6    1.20    0.30
  -3  11  -6    1.78    0.36
  -4  11  -6    3.03    0.38
  -4  11  -6    3.20    0.43
  -5  11  -6    6.58    0.57
  -5  11  -6    6.90    0.57
  -6  11  -6    1.14    0.34
  -7  11  -6   -0.07    0.31
  -8  11  -6    0.12    0.34
  -8 -10   6    1.09    0.52
  -7 -10   6    1.66    0.50
   6  10  -6    4.15    0.53
  -6 -10   6    2.64    0.53
   5  10  -6   -0.40    0.29
  -5 -10   6    0.29    0.35
   4  10  -6    8.45    0.66
  -4 -10   6    6.62    0.64
   3  10  -6    0.14    0.28
   3  10  -6    0.08    0.25
  -3 -10   6    0.18    0.29
   2  10  -6    2.82    0.41
   2  10  -6    1.93    0.34
  -2 -10   6    2.11    0.39
   1  10  -6    0.02    0.22
   1  10  -6    0.43    0.26
  -1 -10   6    0.14    0.26
   0  10  -6    6.10    0.53
   0  10  -6    6.91    0.52
   0 -10   6    6.66    0.56
   0 -10   6    5.81    0.53
  -1  10  -6    8.68    0.60
  -1  10  -6    8.36    0.60
  -1  10  -6    8.51    0.56
  -2  10  -6    0.87    0.27
  -3  10  -6    0.14    0.25
  -3  10  -6    0.44    0.23
  -4  10  -6    0.33    0.25
  -4  10  -6    0.27    0.25
  -5  10  -6    1.27    0.31
  -5  10  -6    0.89    0.29
  -6  10  -6    0.10    0.27
  -7  10  -6    3.40    0.42
  -8  10  -6    0.12    0.30
  -9  10  -6    0.40    0.35
  -8  -9   6    1.42    0.48
   7   9  -6   -0.01    0.33
  -7  -9   6   -0.03    0.36
   6   9  -6    6.37    0.63
  -6  -9   6    6.16    0.65
   5   9  -6    2.29    0.42
   5   9  -6    1.80    0.37
  -5  -9   6    2.46    0.46
   4   9  -6   25.64    1.26
   4   9  -6   23.09    1.24
  -4  -9   6   24.91    1.26
   3   9  -6    0.09    0.23
   3   9  -6    0.20    0.25
  -3  -9   6    0.05    0.28
   2   9  -6    0.15    0.22
   2   9  -6    0.03    0.23
  -2  -9   6    0.50    0.26
   1   9  -6    1.42    0.31
   1   9  -6    1.80    0.30
  -1  -9   6    1.60    0.32
   0   9  -6   22.97    1.13
   0   9  -6   23.48    1.14
   0  -9   6   24.05    1.16
   0  -9   6   24.02    1.16
  -1   9  -6   -0.07    0.20
  -1   9  -6    0.07    0.20
  -1   9  -6   -0.30    0.18
   1  -9   6    0.10    0.20
  -2   9  -6   16.01    0.91
  -2   9  -6   17.94    0.91
  -2   9  -6   19.61    0.94
  -3   9  -6    0.25    0.23
  -3   9  -6    0.30    0.21
  -4   9  -6    1.50    0.28
  -4   9  -6    1.20    0.27
  -5   9  -6    0.35    0.25
  -5   9  -6    0.17    0.24
  -6   9  -6    0.98    0.29
  -7   9  -6    0.86    0.29
  -8   9  -6    0.00    0.28
  -9   9  -6    1.99    0.39
  -9  -8   6    0.27    0.41
  -8  -8   6    3.47    0.54
   7   8  -6    3.15    0.47
  -7  -8   6    2.35    0.47
   6   8  -6   10.08    0.74
   6   8  -6   11.13    0.75
  -6  -8   6   10.55    0.77
   5   8  -6    4.29    0.48
   5   8  -6    3.81    0.45
  -5  -8   6    3.86    0.48
   4   8  -6   14.91    0.87
   4   8  -6   16.46    0.90
  -4  -8   6   17.17    0.93
   3   8  -6    0.00    0.19
   3   8  -6   -0.01    0.21
  -3  -8   6   -0.11    0.22
   2   8  -6    8.82    0.59
   2   8  -6    8.47    0.56
  -2  -8   6    9.29    0.62
   1   8  -6    0.07    0.18
   1   8  -6    0.35    0.20
  -1  -8   6    0.22    0.22
   0   8  -6    0.30    0.19
   0   8  -6    0.17    0.18
   0  -8   6    0.43    0.21
  -1   8  -6    0.06    0.17
  -1   8  -6    0.09    0.17
  -1   8  -6    0.13    0.18
   1  -8   6    0.26    0.19
  -2   8  -6    0.98    0.22
  -2   8  -6    0.74    0.21
  -3   8  -6    3.27    0.35
  -3   8  -6    2.77    0.32
  -4   8  -6    0.37    0.22
  -4   8  -6    0.24    0.20
  -5   8  -6    0.78    0.26
  -5   8  -6    1.06    0.24
  -6   8  -6    1.53    0.28
  -7   8  -6    1.81    0.31
  -8   8  -6    1.85    0.34
  -9   8  -6    3.89    0.46
 -10  -7   6    1.18    0.48
  -9  -7   6    1.24    0.44
   8   7  -6    1.76    0.38
  -8  -7   6    0.93    0.42
   7   7  -6   -0.07    0.27
  -7  -7   6    0.34    0.33
   6   7  -6    2.45    0.38
   6   7  -6    1.91    0.36
  -6  -7   6    2.37    0.40
   5   7  -6    0.46    0.24
   5   7  -6    0.74    0.26
  -5  -7   6    1.10    0.31
   4   7  -6   14.76    0.79
   4   7  -6   12.81    0.77
  -4  -7   6   14.04    0.81
   3   7  -6    1.37    0.27
   3   7  -6    1.46    0.25
  -3  -7   6    1.20    0.28
   2   7  -6    1.65    0.24
   2   7  -6    1.49    0.27
  -2  -7   6    1.70    0.27
   1   7  -6    0.28    0.16
   1   7  -6    0.11    0.16
  -1  -7   6    0.19    0.16
  -1  -7   6    0.03    0.17
   0   7  -6   10.65    0.58
   0   7  -6   10.76    0.60
   0  -7   6   11.59    0.58
   0  -7   6   10.50    0.61
  -1   7  -6    0.60    0.18
  -1   7  -6    0.51    0.17
  -1   7  -6    0.69    0.19
   1  -7   6    1.16    0.21
   1  -7   6    0.83    0.18
  -2   7  -6   21.79    0.99
  -2   7  -6   20.26    0.92
   2  -7   6   18.63    0.91
   2  -7   6   18.22    0.91
  -3   7  -6    0.86    0.22
  -3   7  -6    1.01    0.20
   3  -7   6    0.33    0.17
  -4   7  -6    3.32    0.31
  -4   7  -6    3.74    0.37
  -5   7  -6    0.19    0.23
  -5   7  -6    0.39    0.19
  -5   7  -6    0.39    0.20
  -6   7  -6    0.58    0.22
  -6   7  -6    0.36    0.21
  -7   7  -6    6.21    0.48
  -7   7  -6    6.20    0.50
   7  -7   6    5.77    0.55
  -8   7  -6    0.96    0.29
  -9   7  -6    0.48    0.30
 -10  -6   6    0.94    0.44
  -9  -6   6    0.46    0.37
   8   6  -6    3.20    0.46
  -8  -6   6    2.15    0.44
   7   6  -6    0.81    0.29
   7   6  -6    0.59    0.29
  -7  -6   6    0.34    0.31
   6   6  -6    0.26    0.23
   6   6  -6    0.34    0.25
  -6  -6   6    0.08    0.26
   5   6  -6    1.55    0.29
   5   6  -6    1.71    0.31
  -5  -6   6    1.62    0.32
   4   6  -6   16.14    0.84
   4   6  -6   15.72    0.84
  -4  -6   6   16.52    0.87
   3   6  -6    1.14    0.23
   3   6  -6    1.23    0.21
  -3  -6   6    1.00    0.23
   2   6  -6    4.23    0.36
   2   6  -6    4.11    0.33
  -2  -6   6    4.18    0.34
  -2  -6   6    4.56    0.38
   1   6  -6    2.06    0.24
   1   6  -6    2.08    0.23
  -1  -6   6    1.66    0.24
  -1  -6   6    1.90    0.22
   0   6  -6    0.36    0.15
   0   6  -6    0.53    0.15
   0  -6   6    0.76    0.18
   0  -6   6    0.83    0.16
  -1   6  -6    1.09    0.20
  -1   6  -6    0.90    0.17
  -1   6  -6    0.79    0.17
  -1   6  -6    0.73    0.16
   1  -6   6    0.99    0.16
   1  -6   6    1.07    0.18
   1  -6   6    0.81    0.17
  -2   6  -6    1.12    0.18
  -2   6  -6    0.92    0.17
  -2   6  -6    1.34    0.21
   2  -6   6    0.75    0.16
   2  -6   6    0.92    0.17
  -3   6  -6    2.42    0.28
  -3   6  -6    2.29    0.23
   3  -6   6    1.94    0.23
  -5   6  -6    0.89    0.25
  -5   6  -6    0.94    0.20
  -5   6  -6    1.23    0.24
  -6   6  -6    1.18    0.23
  -6   6  -6    1.30    0.26
   6  -6   6    1.66    0.32
  -7   6  -6   10.11    0.64
  -7   6  -6    8.86    0.57
  -8   6  -6    0.07    0.24
  -8   6  -6    0.16    0.24
  -9   6  -6    2.63    0.39
 -10   6  -6    0.31    0.36
 -11  -5   6    2.27    0.53
 -10  -5   6    0.00    0.37
   9   5  -6    6.04    0.59
  -9  -5   6    3.70    0.53
   8   5  -6    3.28    0.44
   8   5  -6    2.25    0.39
  -8  -5   6    2.42    0.44
   7   5  -6   -0.09    0.23
   7   5  -6    0.08    0.23
  -7  -5   6    0.27    0.28
   6   5  -6   10.50    0.66
   6   5  -6   10.01    0.67
  -6  -5   6   10.89    0.71
   5   5  -6    0.02    0.18
   5   5  -6    0.39    0.22
  -5  -5   6    0.33    0.23
   4   5  -6   27.98    1.27
   4   5  -6   27.17    1.27
  -4  -5   6   27.76    1.28
   3   5  -6    0.64    0.17
   3   5  -6    0.55    0.18
  -3  -5   6    0.79    0.20
  -3  -5   6    0.26    0.16
   2   5  -6   20.61    1.01
   2   5  -6   21.46    0.98
   2   5  -6   22.27    0.97
  -2  -5   6   22.59    0.97
  -2  -5   6   20.98    0.99
   1   5  -6   -0.03    0.10
   1   5  -6   -0.01    0.12
   1   5  -6    0.08    0.13
  -1  -5   6    0.11    0.12
  -1  -5   6   -0.09    0.13
   0   5  -6   68.85    2.81
   0   5  -6   70.32    2.83
   0   5  -6   70.40    3.05
   0   5  -6   70.34    2.81
   0  -5   6   70.08    2.83
   0  -5   6   69.00    2.81
  -1   5  -6    0.30    0.10
  -1   5  -6    0.48    0.13
  -1   5  -6    0.60    0.16
   1  -5   6    0.40    0.12
   1  -5   6    0.69    0.14
  -2   5  -6   25.31    1.19
  -2   5  -6   26.28    1.08
  -2   5  -6   24.27    1.08
   2  -5   6   25.00    1.08
   2  -5   6   26.34    1.10
  -3   5  -6   -0.09    0.11
  -3   5  -6    0.22    0.17
  -3   5  -6    0.06    0.13
  -3   5  -6    0.03    0.12
   3  -5   6    0.08    0.10
   3  -5   6    0.16    0.13
  -4   5  -6   12.09    0.59
  -4   5  -6   12.40    0.67
  -4   5  -6   11.67    0.70
   4  -5   6   13.28    0.65
  -5   5  -6   -0.12    0.17
  -5   5  -6   -0.02    0.19
  -5   5  -6   -0.03    0.14
   5  -5   6   -0.19    0.19
  -6   5  -6    3.23    0.36
  -6   5  -6    2.82    0.28
   6  -5   6    1.98    0.33
  -7   5  -6    4.41    0.43
  -7   5  -6    4.16    0.37
   7  -5   6    3.28    0.43
  -8   5  -6    0.99    0.30
  -8   5  -6    0.74    0.27
  -9   5  -6    1.26    0.33
  -9   5  -6    1.90    0.36
 -10   5  -6   -0.01    0.33
 -11  -4   6    0.39    0.39
 -10  -4   6    1.44    0.42
   9   4  -6    1.80    0.38
  -9  -4   6    1.56    0.40
   8   4  -6    0.84    0.31
   8   4  -6    1.13    0.32
  -8  -4   6    0.89    0.33
   7   4  -6    1.85    0.33
   7   4  -6    2.33    0.35
  -7  -4   6    1.99    0.36
   6   4  -6    4.37    0.43
   6   4  -6    4.88    0.47
  -6  -4   6    5.06    0.48
   5   4  -6    4.02    0.39
   5   4  -6    3.82    0.36
   5   4  -6    3.85    0.26
  -5  -4   6    4.06    0.39
   4   4  -6    4.76    0.38
   4   4  -6    4.94    0.40
   4   4  -6    5.71    0.32
  -4  -4   6    5.70    0.44
  -4  -4   6    5.43    0.39
   3   4  -6    6.49    0.39
   3   4  -6    6.80    0.44
   3   4  -6    7.64    0.41
  -3  -4   6    6.51    0.41
  -3  -4   6    6.38    0.45
   2   4  -6   58.77    2.39
   2   4  -6   58.55    2.39
   2   4  -6   58.73    2.54
  -2  -4   6   58.50    2.40
  -2  -4   6   57.76    2.39
   1   4  -6    0.16    0.11
   1   4  -6    0.16    0.12
   1   4  -6    0.13    0.11
   1   4  -6    0.10    0.09
  -1  -4   6    0.04    0.11
  -1  -4   6    0.09    0.10
   0   4  -6    0.37    0.09
   0   4  -6    0.67    0.13
   0   4  -6    0.25    0.08
   0   4  -6    0.58    0.16
   0  -4   6    0.37    0.10
   0  -4   6    0.69    0.12
  -1   4  -6    4.76    0.37
  -1   4  -6    4.33    0.33
  -1   4  -6    4.55    0.28
  -1   4  -6    4.76    0.29
   1  -4   6    4.86    0.28
   1  -4   6    4.63    0.26
  -2   4  -6    1.28    0.15
  -2   4  -6    1.26    0.14
  -2   4  -6    1.68    0.24
  -2   4  -6    1.81    0.22
   2  -4   6    1.08    0.14
   2  -4   6    1.37    0.13
  -3   4  -6   11.47    0.52
  -3   4  -6   11.25    0.68
  -3   4  -6   11.18    0.53
  -3   4  -6   12.38    0.65
  -3   4  -6   12.03    0.62
  -4   4  -6    4.69    0.39
  -4   4  -6    4.99    0.31
  -4   4  -6    4.16    0.28
   4  -4   6    4.13    0.35
  -5   4  -6    2.81    0.33
  -5   4  -6    2.73    0.24
   5  -4   6    2.75    0.32
  -6   4  -6    0.51    0.19
  -6   4  -6    0.28    0.21
   6  -4   6    0.91    0.26
  -7   4  -6    0.11    0.21
  -7   4  -6    0.22    0.22
   7  -4   6   -0.39    0.25
  -8   4  -6    0.11    0.25
  -8   4  -6    0.55    0.27
  -9   4  -6    0.38    0.30
  -9   4  -6    1.37    0.35
 -10   4  -6    0.20    0.32
 -10   4  -6    0.59    0.33
 -12  -3   6   -0.06    0.41
 -11  -3   6    1.10    0.43
 -10  -3   6    0.51    0.37
   9   3  -6    7.34    0.61
  -9  -3   6    5.62    0.58
   8   3  -6    0.75    0.29
   8   3  -6    0.78    0.26
  -8  -3   6    1.07    0.33
   7   3  -6    2.70    0.35
   7   3  -6    2.34    0.34
  -7  -3   6    2.41    0.38
   6   3  -6    0.21    0.19
   6   3  -6    0.26    0.09
   6   3  -6    0.21    0.20
  -6  -3   6    0.05    0.22
   5   3  -6    3.35    0.23
   5   3  -6    3.86    0.36
   5   3  -6    3.42    0.34
  -5  -3   6    3.00    0.34
   4   3  -6   22.58    1.02
   4   3  -6   20.90    1.00
   4   3  -6   21.79    1.02
  -4  -3   6   22.77    1.03
  -4  -3   6   22.21    1.02
   3   3  -6    0.33    0.15
   3   3  -6    0.24    0.11
   3   3  -6    0.35    0.13
  -3  -3   6    0.08    0.14
  -3  -3   6    0.43    0.14
   2   3  -6   11.81    0.65
   2   3  -6   13.67    0.60
   2   3  -6   13.03    0.64
  -2  -3   6   13.89    0.61
  -2  -3   6   13.49    0.64
   1   3  -6   -0.03    0.09
   1   3  -6   -0.08    0.09
   1   3  -6   -0.06    0.10
   1   3  -6   -0.13    0.06
  -1  -3   6   -0.05    0.09
  -1  -3   6   -0.09    0.07
   0   3  -6   14.44    0.64
   0   3  -6   14.40    0.63
   0   3  -6   14.09    0.74
   0  -3   6   14.70    0.63
  -1   3  -6    0.39    0.14
  -1   3  -6    0.09    0.07
  -1   3  -6    0.26    0.14
  -1   3  -6    0.06    0.10
  -1   3  -6    0.33    0.08
  -2   3  -6   28.05    1.32
  -2   3  -6   28.00    1.29
  -2   3  -6   27.18    1.26
   2  -3   6   28.28    1.18
  -3   3  -6    0.71    0.18
  -3   3  -6    0.57    0.19
  -3   3  -6    0.58    0.18
   3  -3   6    0.36    0.14
  -4   3  -6   27.76    1.15
  -4   3  -6   28.30    1.34
  -4   3  -6   28.29    1.32
  -4   3  -6   26.50    1.35
  -4   3  -6   30.26    1.16
   4  -3   6   26.95    1.25
  -5   3  -6    0.88    0.16
  -5   3  -6    0.99    0.23
   5  -3   6    0.81    0.23
  -6   3  -6    1.68    0.23
  -6   3  -6    1.53    0.28
   6  -3   6    1.46    0.29
  -7   3  -6   -0.14    0.21
  -7   3  -6   -0.02    0.21
   7  -3   6    0.17    0.26
  -8   3  -6    1.13    0.28
  -8   3  -6    1.24    0.33
  -9   3  -6    0.27    0.29
  -9   3  -6    0.25    0.30
 -10   3  -6    0.29    0.33
 -10   3  -6   -0.01    0.31
 -12  -2   6    0.98    0.45
 -11  -2   6   -0.09    0.36
  10   2  -6    7.10    0.64
 -10  -2   6    5.95    0.64
   9   2  -6    4.26    0.48
   9   2  -6    5.36    0.54
  -9  -2   6    4.56    0.52
   8   2  -6   18.68    1.05
   8   2  -6   20.91    1.05
  -8  -2   6   19.36    1.05
   7   2  -6    3.82    0.41
   7   2  -6    4.50    0.44
  -7  -2   6    4.23    0.39
  -7  -2   6    4.35    0.45
   6   2  -6   15.13    0.84
   6   2  -6   15.01    0.84
   6   2  -6   17.08    0.77
  -6  -2   6   17.34    0.88
  -6  -2   6   16.52    0.90
   5   2  -6    0.20    0.16
   5   2  -6    0.05    0.15
   5   2  -6    0.11    0.10
  -5  -2   6   -0.05    0.17
  -5  -2   6   -0.03    0.17
   4   2  -6    1.08    0.18
   4   2  -6    0.58    0.17
   4   2  -6    0.47    0.12
  -4  -2   6    0.57    0.19
  -4  -2   6    0.65    0.17
   3   2  -6    0.07    0.11
   3   2  -6    0.21    0.13
   3   2  -6   -0.04    0.10
  -3  -2   6    0.28    0.12
  -3  -2   6    0.21    0.14
   2   2  -6   33.22    1.37
   2   2  -6   33.31    1.36
   2   2  -6   32.99    1.46
   2   2  -6   32.30    1.34
  -2  -2   6   32.11    1.36
  -2  -2   6   30.69    1.34
   1   2  -6   -0.02    0.04
   1   2  -6    0.27    0.10
   1   2  -6    0.18    0.11
  -1  -2   6    0.17    0.09
   0   2  -6    2.65    0.25
   0   2  -6    2.37    0.18
   0   2  -6    2.28    0.17
   0  -2   6    2.17    0.16
  -1   2  -6    3.26    0.29
  -1   2  -6    2.83    0.26
  -1   2  -6    3.77    0.28
  -2   2  -6    4.28    0.39
  -2   2  -6    4.93    0.36
  -2   2  -6    4.53    0.37
   2  -2   6    5.69    0.29
  -3   2  -6    4.97    0.38
  -3   2  -6    5.12    0.38
  -3   2  -6    5.20    0.40
   3  -2   6    3.90    0.30
  -4   2  -6    1.77    0.26
  -4   2  -6    2.49    0.31
  -4   2  -6    1.33    0.24
   4  -2   6    1.06    0.21
  -5   2  -6    5.85    0.47
  -5   2  -6    4.88    0.44
  -5   2  -6    5.05    0.33
   5  -2   6    4.97    0.41
  -6   2  -6    0.49    0.25
  -6   2  -6    0.49    0.18
   6  -2   6    0.55    0.24
   6  -2   6    0.88    0.25
  -7   2  -6    1.18    0.30
  -7   2  -6    0.31    0.21
   7  -2   6    0.42    0.27
  -8   2  -6    2.60    0.41
  -8   2  -6    2.63    0.33
  -9   2  -6   -0.17    0.28
  -9   2  -6    0.02    0.28
 -12  -1   6   -0.52    0.37
 -11  -1   6    1.38    0.42
  10   1  -6    0.14    0.28
 -10  -1   6   -0.12    0.32
   9   1  -6   16.75    0.92
   9   1  -6   14.08    0.89
  -9  -1   6   15.76    0.93
   8   1  -6    0.22    0.22
   8   1  -6    0.57    0.25
  -8  -1   6    0.09    0.26
   7   1  -6    7.73    0.53
   7   1  -6    6.74    0.53
   7   1  -6    7.84    0.44
  -7  -1   6    6.62    0.57
  -7  -1   6    7.61    0.55
   6   1  -6    0.69    0.16
   6   1  -6    0.96    0.22
   6   1  -6    0.34    0.19
  -6  -1   6    1.30    0.26
  -6  -1   6    1.09    0.22
   5   1  -6    7.92    0.51
   5   1  -6    7.85    0.49
   5   1  -6    8.54    0.46
  -5  -1   6    7.44    0.51
  -5  -1   6    7.85    0.54
   4   1  -6   13.97    0.73
   4   1  -6   14.47    0.72
   4   1  -6   14.86    0.71
  -4  -1   6   14.88    0.74
  -4  -1   6   14.70    0.84
   3   1  -6    0.92    0.17
   3   1  -6    1.08    0.17
   3   1  -6    0.95    0.14
  -3  -1   6    1.16    0.18
   2   1  -6   10.92    0.59
   2   1  -6   11.10    0.55
   2   1  -6   11.02    0.54
   2   1  -6   11.41    0.50
  -2  -1   6   10.99    0.55
   1   1  -6    1.50    0.16
   1   1  -6    1.47    0.14
   1   1  -6    1.70    0.21
  -1  -1   6    1.41    0.14
   0   1  -6    0.90    0.16
   0   1  -6    1.20    0.18
   0   1  -6    1.13    0.10
   0   1  -6    1.28    0.12
  -1   1  -6    0.01    0.11
  -1   1  -6   -0.18    0.10
  -1   1  -6    0.16    0.11
  -2   1  -6   48.51    2.17
  -2   1  -6   48.97    2.19
  -2   1  -6   52.03    2.25
   2  -1   6   51.35    2.05
  -3   1  -6   -0.03    0.14
  -3   1  -6    0.01    0.15
  -3   1  -6    0.18    0.15
   3  -1   6    0.02    0.11
  -4   1  -6   31.23    1.45
  -4   1  -6   30.05    1.48
   4  -1   6   30.64    1.37
   4  -1   6   33.03    1.66
  -5   1  -6    6.77    0.51
  -5   1  -6    6.18    0.36
  -5   1  -6    7.01    0.51
   5  -1   6    5.38    0.44
   5  -1   6    6.80    0.54
  -6   1  -6    0.07    0.16
  -6   1  -6   -0.12    0.23
  -6   1  -6    0.26    0.24
   6  -1   6   -0.09    0.21
   6  -1   6    0.21    0.22
  -7   1  -6    1.03    0.23
  -7   1  -6    0.76    0.28
   7  -1   6    1.33    0.32
  -8   1  -6    2.01    0.31
  -8   1  -6    2.64    0.43
  -9   1  -6    3.80    0.42
  -9   1  -6    4.43    0.54
 -12   0   6    0.38    0.40
 -11   0   6    0.34    0.36
  10   0  -6    1.77    0.37
 -10   0   6    1.08    0.39
   9   0  -6    0.35    0.25
   9   0  -6    0.60    0.28
  -9   0   6    0.21    0.30
   8   0  -6    8.32    0.61
   8   0  -6    9.35    0.62
  -8   0   6    8.69    0.63
   7   0  -6    0.17    0.20
   7   0  -6    0.30    0.20
  -7   0   6    0.17    0.26
  -7   0   6    0.74    0.25
   6   0  -6    6.86    0.46
   6   0  -6    6.37    0.47
  -6   0   6    7.07    0.49
  -6   0   6    6.00    0.52
   5   0  -6    0.67    0.18
   5   0  -6    0.39    0.17
  -5   0   6    0.66    0.22
  -5   0   6    0.80    0.19
   4   0  -6    6.00    0.40
   4   0  -6    5.62    0.40
   4   0  -6    5.97    0.37
  -4   0   6    5.78    0.40
  -4   0   6    6.06    0.47
   3   0  -6    3.02    0.23
   3   0  -6    1.99    0.25
   3   0  -6    2.70    0.25
  -3   0   6    2.71    0.24
  -3   0   6    2.98    0.34
   2   0  -6   34.58    1.40
   2   0  -6   35.08    1.56
   2   0  -6   34.09    1.42
  -2   0   6   33.44    1.75
  -2   0   6   33.04    1.41
   1   0  -6    1.47    0.21
   1   0  -6    1.44    0.14
   1   0  -6    1.45    0.15
  -1   0   6    1.62    0.26
  -1   0   6    1.49    0.14
   0   0  -6    6.78    0.44
   0   0  -6    6.81    0.33
   0   0  -6    6.95    0.43
   0   0  -6    7.39    0.33
   0   0  -6    7.08    0.40
   0   0  -6    7.61    0.34
   0   0   6    6.84    0.51
  -1   0  -6    0.00    0.12
  -1   0  -6    0.11    0.11
  -1   0  -6    0.18    0.13
  -1   0  -6    0.23    0.10
   1   0   6    0.22    0.17
   1   0   6    0.15    0.08
  -2   0  -6    0.63    0.17
  -2   0  -6    0.37    0.14
  -2   0  -6    0.61    0.17
  -2   0  -6    0.78    0.17
   2   0   6    0.50    0.12
   2   0   6    0.77    0.22
  -3   0  -6    4.72    0.38
  -3   0  -6    4.71    0.40
  -3   0  -6    4.50    0.35
  -3   0  -6    5.02    0.38
   3   0   6    4.13    0.31
   3   0   6    4.55    0.44
  -4   0  -6    1.65    0.18
  -4   0  -6    1.47    0.25
  -4   0  -6    1.36    0.26
  -4   0  -6    1.42    0.26
   4   0   6    1.46    0.22
   4   0   6    1.85    0.31
  -5   0  -6    3.18    0.36
  -5   0  -6    3.71    0.40
  -5   0  -6    3.55    0.29
   5   0   6    3.60    0.35
   5   0   6    4.29    0.44
  -6   0  -6   -0.03    0.22
  -6   0  -6    0.14    0.18
  -6   0  -6    0.19    0.23
   6   0   6   -0.10    0.21
  -7   0  -6    0.52    0.28
  -7   0  -6   -0.20    0.25
  -7   0  -6    0.19    0.21
   7   0   6    0.36    0.26
  -8   0  -6    0.21    0.25
  -8   0  -6    0.40    0.31
  -9   0  -6    3.56    0.51
  -9   0  -6    3.25    0.41
 -12   1   6   -0.12    0.38
 -11   1   6    3.84    0.55
  10  -1  -6   -0.19    0.24
 -10   1   6    0.10    0.31
   9  -1  -6   20.34    1.17
   9  -1  -6   24.98    1.20
  -9   1   6   23.27    1.19
   8  -1  -6    0.06    0.23
   8  -1  -6    0.19    0.22
  -8   1   6    0.05    0.24
   7  -1  -6    7.41    0.54
   7  -1  -6    7.71    0.55
  -7   1   6    8.26    0.57
   6  -1  -6    0.53    0.20
   6  -1  -6    0.65    0.20
  -6   1   6    0.47    0.20
  -6   1   6    0.40    0.27
   5  -1  -6    4.72    0.37
   5  -1  -6    5.10    0.37
  -5   1   6    3.90    0.36
  -5   1   6    5.14    0.47
   4  -1  -6   19.67    0.92
  -4   1   6   19.07    0.90
  -4   1   6   19.87    1.11
   3  -1  -6    0.47    0.14
   3  -1  -6    0.53    0.17
  -3   1   6    0.37    0.12
  -3   1   6    0.31    0.20
   2  -1  -6   15.59    0.81
   2  -1  -6   16.09    0.68
   2  -1  -6   15.70    0.71
   2  -1  -6   14.87    0.69
  -2   1   6   15.35    0.92
  -2   1   6   15.45    0.70
   1  -1  -6    1.87    0.25
   1  -1  -6    2.04    0.20
   1  -1  -6    1.99    0.16
   1  -1  -6    2.14    0.19
  -1   1   6    1.82    0.29
  -1   1   6    1.99    0.17
  -1   1   6    2.07    0.16
   0  -1  -6   16.68    0.80
   0  -1  -6   16.85    0.72
   0  -1  -6   15.95    0.84
   0  -1  -6   15.91    0.70
   0  -1  -6   17.19    0.72
   0  -1  -6   16.20    0.78
   0   1   6   15.95    0.69
   0   1   6   16.13    0.96
   0   1   6   17.46    0.72
  -1  -1  -6    0.25    0.08
  -1  -1  -6    0.37    0.13
  -1  -1  -6    0.24    0.12
  -1  -1  -6    0.20    0.15
  -1  -1  -6    0.30    0.09
  -1  -1  -6    0.24    0.14
   1   1   6    0.14    0.19
   1   1   6    0.29    0.11
  -2  -1  -6    4.84    0.35
  -2  -1  -6    4.30    0.26
  -2  -1  -6    4.76    0.37
  -2  -1  -6    4.85    0.34
  -2  -1  -6    4.56    0.38
  -2  -1  -6    4.57    0.26
   2   1   6    4.80    0.45
   2   1   6    4.67    0.31
  -3  -1  -6    0.03    0.16
  -3  -1  -6    0.30    0.11
  -3  -1  -6    0.54    0.12
  -3  -1  -6    0.29    0.18
  -3  -1  -6    0.41    0.17
   3   1   6    0.23    0.14
   3   1   6    0.77    0.25
  -4  -1  -6   24.58    1.04
  -4  -1  -6   23.58    1.19
  -4  -1  -6   25.32    1.21
   4   1   6   23.11    1.12
   4   1   6   25.15    1.35
  -5  -1  -6    2.47    0.34
  -5  -1  -6    1.91    0.31
  -5  -1  -6    2.17    0.24
   5   1   6    1.81    0.34
   5   1   6    1.51    0.27
  -6  -1  -6    7.68    0.55
  -6  -1  -6    6.00    0.56
  -6  -1  -6    6.18    0.44
   6   1   6    6.75    0.52
  -7  -1  -6    0.38    0.23
  -7  -1  -6    0.32    0.28
   7   1   6    0.22    0.27
  -8  -1  -6    0.52    0.33
  -8  -1  -6    1.18    0.30
  -9  -1  -6    1.82    0.36
 -12   2   6    0.74    0.44
 -11   2   6   -0.53    0.30
  10  -2  -6    1.93    0.39
 -10   2   6    2.49    0.45
   9  -2  -6    1.76    0.38
   9  -2  -6    2.99    0.41
  -9   2   6    2.35    0.40
   8  -2  -6    7.86    0.60
   8  -2  -6    7.18    0.59
  -8   2   6    9.68    0.62
   7  -2  -6    0.01    0.20
   7  -2  -6   -0.14    0.17
  -7   2   6    0.04    0.21
   6  -2  -6    9.12    0.58
  -6   2   6    8.38    0.72
  -6   2   6    9.60    0.58
   5  -2  -6    0.70    0.19
  -5   2   6    0.76    0.19
  -5   2   6    1.16    0.32
   4  -2  -6   20.74    0.98
  -4   2   6   21.36    1.21
  -4   2   6   21.04    0.96
   3  -2  -6    1.72    0.21
   3  -2  -6    1.45    0.18
  -3   2   6    1.72    0.19
  -3   2   6    2.00    0.34
   2  -2  -6   83.58    3.29
   2  -2  -6   81.59    3.31
   2  -2  -6   82.11    3.62
   2  -2  -6   81.83    3.33
  -2   2   6   82.89    3.30
  -2   2   6   84.56    4.05
   1  -2  -6    1.23    0.23
   1  -2  -6    1.50    0.16
   1  -2  -6    1.41    0.17
   1  -2  -6    1.53    0.16
   1  -2  -6    1.25    0.17
  -1   2   6    1.22    0.29
  -1   2   6    1.34    0.15
  -1   2   6    1.26    0.15
   0  -2  -6   27.16    1.21
   0  -2  -6   26.81    1.17
   0  -2  -6   28.66    1.16
   0  -2  -6   26.22    1.13
   0  -2  -6   28.52    1.24
   0  -2  -6   26.56    1.31
   0   2   6   26.81    1.48
   0   2   6   27.73    1.13
   0   2   6   27.82    1.17
  -1  -2  -6    1.36    0.15
  -1  -2  -6    1.54    0.24
  -1  -2  -6    1.38    0.19
  -1  -2  -6    1.61    0.17
  -1  -2  -6    1.75    0.20
  -1  -2  -6    1.33    0.21
   1   2   6    2.19    0.33
   1   2   6    1.81    0.19
   1   2   6    1.70    0.15
  -2  -2  -6    0.63    0.13
  -2  -2  -6    0.63    0.19
  -2  -2  -6    0.79    0.19
  -2  -2  -6    0.62    0.13
  -2  -2  -6    0.81    0.20
   2   2   6    0.66    0.12
   2   2   6    0.93    0.27
   2   2   6    0.68    0.15
  -3  -2  -6    1.11    0.17
  -3  -2  -6    1.08    0.24
  -3  -2  -6    1.35    0.24
  -3  -2  -6    1.18    0.24
   3   2   6    0.83    0.19
   3   2   6    1.14    0.31
  -4  -2  -6   -0.06    0.19
  -4  -2  -6    0.00    0.17
  -4  -2  -6   -0.06    0.15
   4   2   6    0.12    0.18
   4   2   6   -0.19    0.28
  -5  -2  -6   11.31    0.60
  -5  -2  -6   10.79    0.71
   5   2   6   10.55    0.66
   5   2   6   12.52    0.86
  -6  -2  -6    0.41    0.23
  -6  -2  -6    0.35    0.26
  -6  -2  -6    0.49    0.25
   6   2   6    0.39    0.24
  -7  -2  -6    0.48    0.26
  -7  -2  -6    1.21    0.34
   7   2   6    0.81    0.31
  -8  -2  -6    0.20    0.28
  -8  -2  -6    0.68    0.35
 -12   3   6    0.11    0.41
  10  -3  -6    0.60    0.32
 -10   3   6    1.08    0.37
   9  -3  -6    0.51    0.28
   9  -3  -6    0.12    0.28
  -9   3   6    0.49    0.30
   8  -3  -6    0.53    0.26
   8  -3  -6    0.34    0.25
  -8   3   6    0.08    0.26
   7  -3  -6    5.40    0.50
  -7   3   6    6.87    0.52
   6  -3  -6    2.73    0.33
  -6   3   6    2.70    0.32
   5  -3  -6    6.13    0.45
  -5   3   6    5.89    0.44
   4  -3  -6    2.74    0.30
   4  -3  -6    3.33    0.29
  -4   3   6    3.24    0.30
  -4   3   6    2.54    0.42
   3  -3  -6    1.03    0.17
   3  -3  -6    1.39    0.21
  -3   3   6    0.90    0.17
  -3   3   6    1.26    0.32
   2  -3  -6   47.32    2.00
   2  -3  -6   45.04    1.95
   2  -3  -6   47.55    1.95
  -2   3   6   48.28    2.43
  -2   3   6   47.20    1.93
  -2   3   6   46.73    1.96
   1  -3  -6    3.64    0.30
   1  -3  -6    4.01    0.29
   1  -3  -6    4.42    0.31
   1  -3  -6    4.06    0.41
   1  -3  -6    3.85    0.27
   1  -3  -6    3.95    0.30
  -1   3   6    4.19    0.29
  -1   3   6    4.63    0.50
  -1   3   6    3.61    0.29
   0  -3  -6   22.56    1.03
   0  -3  -6   22.41    1.15
   0  -3  -6   22.77    1.07
   0  -3  -6   22.56    1.02
   0  -3  -6   22.85    1.00
   0   3   6   23.46    1.02
   0   3   6   23.84    0.99
   0   3   6   22.25    1.32
  -1  -3  -6    0.02    0.08
  -1  -3  -6   -0.07    0.11
  -1  -3  -6   -0.03    0.13
  -1  -3  -6   -0.29    0.13
  -1  -3  -6    0.29    0.18
   1   3   6   -0.02    0.13
   1   3   6    0.01    0.10
   1   3   6    0.07    0.27
  -2  -3  -6    2.82    0.30
  -2  -3  -6    2.72    0.31
  -2  -3  -6    2.80    0.32
  -2  -3  -6    2.44    0.25
   2   3   6    3.65    0.46
   2   3   6    3.04    0.28
  -3  -3  -6   -0.02    0.17
  -3  -3  -6   -0.22    0.17
  -3  -3  -6    0.10    0.16
   3   3   6   -0.18    0.15
   3   3   6   -0.44    0.29
  -4  -3  -6   10.45    0.62
  -4  -3  -6   10.10    0.67
  -4  -3  -6    9.48    0.55
   4   3   6   10.71    0.63
   4   3   6   10.69    0.84
  -5  -3  -6   -0.01    0.20
  -5  -3  -6   -0.03    0.23
  -5  -3  -6    0.08    0.20
   5   3   6   -0.08    0.22
  -6  -3  -6    2.13    0.31
  -6  -3  -6    2.47    0.39
   6   3   6    1.52    0.33
  -7  -3  -6    0.21    0.27
  -7  -3  -6   -0.16    0.26
  -8  -3  -6    1.32    0.35
 -12   4   6    0.44    0.42
 -11   4   6    3.55    0.54
  10  -4  -6    3.01    0.48
 -10   4   6    2.28    0.44
   9  -4  -6    7.28    0.63
   9  -4  -6    6.47    0.60
  -9   4   6    6.02    0.58
   8  -4  -6    2.25    0.37
  -8   4   6    1.93    0.36
   7  -4  -6    0.02    0.19
  -7   4   6   -0.04    0.22
   6  -4  -6    7.28    0.53
  -6   4   6    7.36    0.52
   5  -4  -6    0.36    0.19
  -5   4   6    0.14    0.18
   4  -4  -6   16.93    0.84
  -4   4   6   16.72    0.83
   3  -4  -6   10.00    0.55
   3  -4  -6    9.58    0.52
  -3   4   6    8.85    0.52
   2  -4  -6    6.36    0.42
   2  -4  -6    5.79    0.40
   2  -4  -6    6.57    0.39
  -2   4   6    6.62    0.64
  -2   4   6    5.93    0.40
  -2   4   6    5.79    0.39
   1  -4  -6    1.35    0.20
   1  -4  -6    1.35    0.21
   1  -4  -6    1.45    0.15
   1  -4  -6    1.32    0.21
  -1   4   6    1.44    0.20
  -1   4   6    1.50    0.37
  -1   4   6    1.21    0.20
   0  -4  -6   13.14    0.66
   0  -4  -6   12.18    0.62
   0  -4  -6   11.67    0.63
   0  -4  -6   11.68    0.74
   0  -4  -6   12.66    0.65
   0   4   6   12.47    0.64
   0   4   6   12.74    0.91
   0   4   6   11.83    0.61
  -1  -4  -6    0.47    0.16
  -1  -4  -6    0.65    0.20
  -1  -4  -6    0.43    0.21
   1   4   6   -0.09    0.31
   1   4   6    0.39    0.17
  -2  -4  -6    0.26    0.20
  -2  -4  -6    0.03    0.15
  -2  -4  -6    0.13    0.19
   2   4   6    0.10    0.17
   2   4   6   -0.09    0.34
  -3  -4  -6    2.07    0.27
  -3  -4  -6    2.90    0.30
  -3  -4  -6    2.49    0.34
  -3  -4  -6    1.79    0.28
   3   4   6    1.92    0.28
  -4  -4  -6    0.05    0.17
  -4  -4  -6    0.34    0.24
  -4  -4  -6    0.33    0.21
   4   4   6   -0.19    0.20
  -5  -4  -6    2.91    0.34
  -5  -4  -6    3.52    0.45
   5   4   6    2.96    0.39
  -6  -4  -6    1.15    0.34
  -6  -4  -6    1.41    0.31
  -7  -4  -6    0.68    0.33
  -7  -4  -6    1.25    0.33
 -12   5   6    0.54    0.44
 -11   5   6    0.70    0.41
  10  -5  -6    0.19    0.30
 -10   5   6    0.30    0.33
   9  -5  -6    0.86    0.32
  -9   5   6    0.41    0.32
   8  -5  -6   -0.20    0.23
  -8   5   6    0.12    0.26
   7  -5  -6    8.51    0.63
  -7   5   6    9.75    0.63
   6  -5  -6    0.01    0.20
  -6   5   6    0.46    0.23
   5  -5  -6    3.90    0.40
  -5   5   6    4.49    0.40
   4  -5  -6   -0.14    0.16
  -4   5   6    0.04    0.17
   3  -5  -6    2.26    0.29
  -3   5   6    2.42    0.28
   2  -5  -6    7.80    0.51
   2  -5  -6    8.26    0.47
   2  -5  -6    8.29    0.40
  -2   5   6    8.08    0.50
  -2   5   6    8.31    0.51
   1  -5  -6    1.32    0.22
   1  -5  -6    0.92    0.19
  -1   5   6    0.94    0.20
  -1   5   6    0.92    0.20
   0  -5  -6    9.70    0.57
   0  -5  -6    8.50    0.66
   0  -5  -6   10.07    0.57
   0   5   6   10.87    0.58
  -1  -5  -6    0.63    0.19
  -1  -5  -6    0.77    0.21
  -1  -5  -6    0.63    0.25
   1   5   6    0.37    0.20
  -2  -5  -6    5.79    0.49
  -2  -5  -6    6.65    0.46
  -2  -5  -6    6.38    0.51
   2   5   6    6.67    0.48
  -3  -5  -6    0.35    0.21
  -3  -5  -6    0.57    0.21
  -3  -5  -6    0.10    0.23
  -3  -5  -6    0.08    0.21
   3   5   6    0.58    0.23
  -4  -5  -6    0.63    0.27
  -4  -5  -6    0.51    0.22
  -4  -5  -6    0.89    0.26
   4   5   6    0.82    0.28
  -5  -5  -6    1.02    0.33
  -5  -5  -6    0.92    0.29
   5   5   6    0.99    0.31
  -6  -5  -6    7.47    0.58
  -6  -5  -6    6.80    0.65
  -7  -5  -6    0.43    0.32
 -12   6   6   -0.05    0.42
 -11   6   6    1.47    0.44
  10  -6  -6    1.21    0.40
 -10   6   6    1.61    0.42
   9  -6  -6    2.46    0.43
  -9   6   6    2.80    0.46
   8  -6  -6    4.47    0.51
  -8   6   6    3.62    0.45
   7  -6  -6    0.23    0.24
  -7   6   6    0.24    0.25
   6  -6  -6   11.30    0.73
  -6   6   6   12.11    0.72
   5  -6  -6    2.03    0.31
  -5   6   6    2.60    0.33
   4  -6  -6    6.73    0.51
  -4   6   6    7.63    0.51
   3  -6  -6    0.06    0.18
  -3   6   6    0.09    0.19
  -3   6   6    0.31    0.19
   2  -6  -6    3.04    0.26
   2  -6  -6    2.03    0.30
  -2   6   6    2.08    0.30
  -2   6   6    2.88    0.30
   1  -6  -6    1.19    0.24
   1  -6  -6    1.23    0.21
  -1   6   6    1.26    0.24
   0  -6  -6   21.27    1.03
   0  -6  -6   22.37    1.05
   0  -6  -6   19.41    1.16
   0   6   6   22.96    1.07
  -1  -6  -6    0.20    0.26
  -1  -6  -6    0.73    0.22
  -1  -6  -6    0.30    0.20
   1   6   6    0.77    0.24
  -2  -6  -6   14.95    0.82
  -2  -6  -6   16.11    0.87
  -2  -6  -6   15.90    0.90
   2   6   6   15.53    0.86
  -3  -6  -6    1.25    0.28
  -3  -6  -6    1.05    0.28
  -3  -6  -6    1.11    0.29
  -3  -6  -6    0.87    0.26
   3   6   6    1.22    0.29
  -4  -6  -6   -0.09    0.25
  -4  -6  -6   -0.02    0.24
  -4  -6  -6   -0.27    0.23
   4   6   6   -0.07    0.26
  -5  -6  -6   -0.26    0.25
  -5  -6  -6    0.43    0.28
  -6  -6  -6   -0.19    0.29
  -6  -6  -6    0.29    0.32
 -12   7   6    0.11    0.44
 -11   7   6    1.37    0.46
  10  -7  -6    0.16    0.33
 -10   7   6    0.45    0.38
   9  -7  -6    0.11    0.30
  -9   7   6    0.38    0.33
   8  -7  -6   -0.05    0.28
  -8   7   6    0.09    0.30
   7  -7  -6   12.45    0.80
  -7   7   6   12.28    0.77
   6  -7  -6    0.60    0.26
  -6   7   6    0.33    0.26
   5  -7  -6    0.93    0.26
  -5   7   6    1.14    0.29
   4  -7  -6   -0.14    0.20
  -4   7   6   -0.08    0.21
   3  -7  -6    2.74    0.36
  -3   7   6    2.18    0.32
  -3   7   6    1.72    0.30
   2  -7  -6   13.41    0.78
   2  -7  -6   14.86    0.72
  -2   7   6   13.69    0.78
   1  -7  -6    0.75    0.24
   1  -7  -6    0.75    0.19
  -1   7   6    0.48    0.23
   0  -7  -6    2.45    0.44
   0  -7  -6    3.52    0.37
   0  -7  -6    4.52    0.38
   0   7   6    3.58    0.39
  -1  -7  -6    0.39    0.27
  -1  -7  -6    0.14    0.21
  -1  -7  -6    0.01    0.20
   1   7   6    0.05    0.24
  -2  -7  -6    3.66    0.40
  -2  -7  -6    4.26    0.48
  -2  -7  -6    3.75    0.41
   2   7   6    3.38    0.42
  -3  -7  -6    2.34    0.35
  -3  -7  -6    2.32    0.37
  -3  -7  -6    2.26    0.35
  -4  -7  -6    1.65    0.35
  -4  -7  -6    2.11    0.40
  -4  -7  -6    2.51    0.40
  -5  -7  -6    0.50    0.34
  -5  -7  -6    0.46    0.31
  -5  -7  -6    1.00    0.34
 -11   8   6    3.63    0.59
  10  -8  -6    1.43    0.44
 -10   8   6    1.46    0.45
   9  -8  -6   -0.27    0.30
  -9   8   6   -0.15    0.32
   8  -8  -6    0.91    0.35
  -8   8   6    1.22    0.37
   7  -8  -6    0.80    0.31
  -7   8   6    0.88    0.34
   6  -8  -6    2.43    0.40
  -6   8   6    2.35    0.38
   5  -8  -6    2.32    0.37
  -5   8   6    2.88    0.38
   4  -8  -6    2.44    0.37
  -4   8   6    2.21    0.35
   3  -8  -6    0.79    0.28
  -3   8   6    1.38    0.32
   2  -8  -6    0.91    0.27
  -2   8   6    0.15    0.24
   1  -8  -6    6.33    0.47
   1  -8  -6    5.75    0.51
  -1   8   6    6.86    0.56
   0  -8  -6    3.58    0.42
   0  -8  -6    4.78    0.41
   0   8   6    4.27    0.46
  -1  -8  -6    0.95    0.26
  -1  -8  -6    0.25    0.30
  -1  -8  -6    0.24    0.25
   1   8   6    0.43    0.28
  -2  -8  -6    3.60    0.46
  -2  -8  -6    2.63    0.38
  -2  -8  -6    1.82    0.34
  -3  -8  -6    0.59    0.30
  -3  -8  -6    0.66    0.30
  -4  -8  -6   -0.15    0.27
  -4  -8  -6    0.11    0.28
  -5  -8  -6    0.99    0.36
  -5  -8  -6    0.38    0.37
  -5  -8  -6    0.70    0.35
 -11   9   6    1.28    0.49
  10  -9  -6    0.38    0.39
 -10   9   6    0.56    0.42
   9  -9  -6   -0.35    0.33
  -9   9   6   -0.06    0.35
   8  -9  -6    0.30    0.34
  -8   9   6    1.00    0.38
   7  -9  -6    2.33    0.43
  -7   9   6    2.53    0.43
   6  -9  -6    0.27    0.28
  -6   9   6    0.11    0.28
   5  -9  -6    1.54    0.35
  -5   9   6    1.39    0.35
   4  -9  -6    1.27    0.33
   3  -9  -6    2.40    0.38
  -3   9   6    1.41    0.35
   2  -9  -6    0.00    0.24
  -2   9   6    0.13    0.27
   1  -9  -6    0.10    0.24
   0  -9  -6    4.28    0.47
  -1  -9  -6    0.10    0.27
  -1  -9  -6   -0.36    0.28
  -2  -9  -6   -0.03    0.25
  -2  -9  -6   -0.12    0.28
  -3  -9  -6    0.27    0.29
  -3  -9  -6    0.36    0.30
  -4  -9  -6    1.77    0.41
 -10  10   6    0.27    0.42
   9 -10  -6    1.11    0.44
  -9  10   6    0.97    0.44
   8 -10  -6    1.32    0.43
  -8  10   6    1.00    0.40
   7 -10  -6   -0.06    0.29
  -7  10   6   -0.63    0.30
   6 -10  -6    1.57    0.37
  -6  10   6    1.38    0.38
   5 -10  -6    0.15    0.29
   4 -10  -6    5.00    0.55
   3 -10  -6    1.19    0.34
   2 -10  -6    0.97    0.33
   1 -10  -6    0.91    0.32
   0 -10  -6   10.59    0.76
  -1 -10  -6    0.12    0.33
  -1 -10  -6   -0.03    0.29
  -2 -10  -6    0.50    0.33
   9 -11  -6    0.25    0.39
  -9  11   6    0.25    0.41
   8 -11  -6    0.29    0.36
  -8  11   6   -0.18    0.36
   7 -11  -6    1.12    0.41
   6 -11  -6   -0.40    0.29
   5 -11  -6    8.84    0.78
   4 -11  -6   -0.50    0.28
   3 -11  -6    0.00    0.31
   2 -11  -6    0.16    0.31
   1 -11  -6    0.17    0.30
   0 -11  -6    0.33    0.33
  -1 -11  -6    0.77    0.35
   7 -12  -6    2.05    0.49
   6 -12  -6    3.29    0.53
   5 -12  -6   -0.11    0.34
   4 -12  -6    2.45    0.49
   3 -12  -6    0.22    0.35
   2 -12  -6    1.15    0.41
   1 -12  -6    0.82    0.38
   2  14  -7    0.31    0.43
   1  14  -7    2.84    0.55
   0  14  -7   -0.13    0.39
  -1  14  -7    4.13    0.57
  -2  14  -7    1.07    0.42
  -3  14  -7    1.62    0.44
  -4  14  -7    0.00    0.38
   4  13  -7    0.35    0.42
   3  13  -7    5.86    0.67
   2  13  -7    0.26    0.37
   1  13  -7    0.97    0.40
   0  13  -7    2.38    0.47
  -1  13  -7    3.38    0.51
  -2  13  -7    2.97    0.48
  -3  13  -7    2.43    0.45
  -4  13  -7    0.21    0.35
  -5  13  -7   -0.49    0.33
  -6  13  -7    3.35    0.52
   5  12  -7    2.88    0.54
  -5 -12   7    2.37    0.53
   4  12  -7    1.12    0.44
  -4 -12   7    0.52    0.41
   3  12  -7    0.09    0.35
  -3 -12   7    0.22    0.39
   2  12  -7    0.39    0.35
   1  12  -7    0.77    0.35
   0  12  -7    0.41    0.31
   0  12  -7    0.30    0.32
  -1  12  -7    1.27    0.37
  -1  12  -7    1.34    0.34
  -1  12  -7    1.70    0.34
  -2  12  -7    0.04    0.30
  -2  12  -7   -0.11    0.25
  -2  12  -7    0.24    0.30
  -3  12  -7    2.71    0.45
  -3  12  -7    3.91    0.44
  -4  12  -7   -0.30    0.26
  -4  12  -7    0.29    0.32
  -5  12  -7    2.36    0.40
  -5  12  -7    1.73    0.40
  -6  12  -7    0.48    0.34
  -7  12  -7    0.53    0.37
  -7 -11   7    3.45    0.62
   6  11  -7    0.56    0.42
  -6 -11   7    0.23    0.45
   5  11  -7    6.72    0.68
  -5 -11   7    5.54    0.67
   4  11  -7    0.04    0.34
  -4 -11   7    0.34    0.36
   3  11  -7   12.40    0.84
  -3 -11   7   11.81    0.85
   2  11  -7   -0.13    0.27
   2  11  -7   -0.11    0.27
  -2 -11   7    0.26    0.31
   1  11  -7    0.52    0.28
   1  11  -7    0.58    0.30
   0  11  -7    1.99    0.38
   0  11  -7    2.06    0.36
  -1  11  -7   -0.07    0.27
  -1  11  -7    0.08    0.26
  -1  11  -7   -0.03    0.24
  -2  11  -7    3.40    0.43
  -2  11  -7    3.27    0.42
  -2  11  -7    3.32    0.40
  -3  11  -7    1.64    0.35
  -3  11  -7    2.01    0.34
  -4  11  -7    8.15    0.62
  -4  11  -7    8.38    0.63
  -5  11  -7   -0.02    0.28
  -5  11  -7   -0.07    0.27
  -6  11  -7    1.38    0.36
  -7  11  -7    0.05    0.31
  -8 -10   7    0.46    0.46
   7  10  -7   -0.08    0.38
  -7 -10   7    0.39    0.44
   6  10  -7    0.29    0.37
  -6 -10   7    0.48    0.41
   5  10  -7    0.09    0.33
  -5 -10   7   -0.22    0.33
   4  10  -7    0.53    0.30
   4  10  -7    0.81    0.34
  -4 -10   7    0.83    0.38
   3  10  -7    0.55    0.30
   3  10  -7   -0.19    0.24
  -3 -10   7   -0.09    0.28
   2  10  -7    0.54    0.27
   2  10  -7    0.17    0.28
  -2 -10   7    0.07    0.28
   1  10  -7    0.52    0.25
   1  10  -7    0.83    0.29
  -1 -10   7    0.33    0.28
   0  10  -7    0.16    0.22
   0  10  -7    0.66    0.26
  -1  10  -7   13.16    0.75
  -1  10  -7   12.10    0.74
  -1  10  -7   12.37    0.75
  -2  10  -7    0.02    0.25
  -2  10  -7    0.39    0.24
  -2  10  -7    0.41    0.25
  -3  10  -7    5.93    0.51
  -3  10  -7    5.40    0.50
  -4  10  -7    9.49    0.64
  -4  10  -7    9.53    0.66
  -5  10  -7    1.23    0.32
  -5  10  -7    2.15    0.37
  -6  10  -7    0.13    0.27
  -7  10  -7   -0.08    0.28
  -8  10  -7   -0.12    0.30
   8   9  -7    0.49    0.39
  -8  -9   7    0.12    0.43
   7   9  -7    2.43    0.46
  -7  -9   7    2.22    0.50
   6   9  -7   -0.07    0.29
  -6  -9   7    0.42    0.36
   5   9  -7    1.73    0.37
   5   9  -7    1.54    0.36
  -5  -9   7    2.49    0.45
   4   9  -7    0.91    0.30
   4   9  -7    0.74    0.31
  -4  -9   7    0.54    0.33
   3   9  -7   30.96    1.49
   3   9  -7   31.34    1.50
  -3  -9   7   32.82    1.52
   2   9  -7    0.15    0.21
   2   9  -7   -0.39    0.21
  -2  -9   7    0.05    0.25
   1   9  -7    4.96    0.44
   1   9  -7    5.79    0.49
  -1  -9   7    5.16    0.49
   0   9  -7    0.33    0.21
   0   9  -7    0.26    0.23
   0  -9   7    0.30    0.24
   0  -9   7    0.22    0.23
  -1   9  -7   12.08    0.69
  -1   9  -7   10.63    0.65
  -1   9  -7   10.44    0.64
  -2   9  -7    0.01    0.20
  -2   9  -7    0.41    0.23
  -3   9  -7    7.17    0.55
  -3   9  -7    7.79    0.53
  -4   9  -7   -0.06    0.23
  -4   9  -7    0.10    0.24
  -5   9  -7    1.22    0.31
  -5   9  -7    0.80    0.26
  -6   9  -7    0.13    0.25
  -7   9  -7    0.16    0.26
  -8   9  -7    2.39    0.38
  -9  -8   7    0.29    0.43
   8   8  -7    0.25    0.35
  -8  -8   7    0.65    0.42
   7   8  -7    0.72    0.35
  -7  -8   7    1.13    0.40
   6   8  -7    0.16    0.27
   6   8  -7    0.38    0.30
  -6  -8   7    0.34    0.33
   5   8  -7   11.52    0.73
   5   8  -7   10.78    0.74
  -5  -8   7   10.15    0.76
   4   8  -7    0.90    0.28
   4   8  -7    0.69    0.26
   3   8  -7    2.04    0.31
   3   8  -7    1.62    0.31
  -3  -8   7    1.38    0.32
   2   8  -7    0.25    0.19
   2   8  -7   -0.14    0.20
  -2  -8   7    0.25    0.22
   1   8  -7    0.17    0.20
   1   8  -7    0.33    0.19
  -1  -8   7    0.38    0.22
   0   8  -7    0.53    0.19
   0   8  -7    0.73    0.22
   0  -8   7    0.88    0.23
  -1   8  -7    4.29    0.37
  -1   8  -7    3.90    0.35
  -1   8  -7    3.57    0.37
  -2   8  -7    0.50    0.23
  -2   8  -7    0.39    0.20
  -3   8  -7    2.10    0.28
  -3   8  -7    1.62    0.29
  -4   8  -7   11.12    0.67
  -4   8  -7    9.54    0.59
  -5   8  -7    0.29    0.21
  -5   8  -7    0.35    0.26
  -7   8  -7    1.14    0.28
  -8   8  -7    7.50    0.57
  -9   8  -7   -0.02    0.30
 -10  -7   7    0.19    0.44
  -9  -7   7    1.61    0.48
   8   7  -7    3.66    0.49
  -8  -7   7    2.90    0.50
   7   7  -7    0.26    0.29
  -7  -7   7   -0.17    0.32
   6   7  -7    0.02    0.24
   6   7  -7   -0.04    0.24
  -6  -7   7    0.34    0.32
   5   7  -7   33.83    1.58
   5   7  -7   33.71    1.59
  -5  -7   7   34.39    1.60
   4   7  -7    0.92    0.25
   4   7  -7    0.85    0.26
  -4  -7   7    0.99    0.29
   3   7  -7   44.07    1.92
   3   7  -7   42.31    1.92
  -3  -7   7   46.58    1.95
   2   7  -7    0.24    0.19
   2   7  -7    0.37    0.18
  -2  -7   7    0.56    0.21
   1   7  -7    6.95    0.48
   1   7  -7    7.45    0.46
  -1  -7   7    7.64    0.51
  -1  -7   7    6.72    0.44
   0   7  -7    0.82    0.18
   0   7  -7    0.71    0.20
   0  -7   7    0.63    0.21
   0  -7   7    1.01    0.18
  -1   7  -7   11.83    0.65
  -1   7  -7   12.42    0.66
  -1   7  -7   14.37    0.73
   1  -7   7   13.21    0.67
   1  -7   7   12.80    0.64
  -2   7  -7    5.82    0.44
  -2   7  -7    5.05    0.38
   2  -7   7    4.80    0.37
  -3   7  -7    3.88    0.32
  -3   7  -7    3.84    0.39
   3  -7   7    3.65    0.32
  -4   7  -7    2.50    0.33
  -4   7  -7    2.31    0.27
  -5   7  -7    2.62    0.35
  -5   7  -7    2.50    0.28
  -5   7  -7    2.21    0.30
  -6   7  -7    1.14    0.24
  -6   7  -7    1.08    0.27
  -7   7  -7    0.13    0.23
  -7   7  -7    0.25    0.22
  -8   7  -7    8.18    0.59
  -9   7  -7    0.46    0.32
 -10  -6   7    3.65    0.59
   9   6  -7    7.14    0.67
  -9  -6   7    5.78    0.65
   8   6  -7    8.27    0.67
  -8  -6   7    5.79    0.63
   7   6  -7    6.44    0.59
   7   6  -7    7.40    0.62
  -7  -6   7    6.38    0.62
   6   6  -7    0.18    0.24
   6   6  -7    0.20    0.23
  -6  -6   7   -0.25    0.25
   5   6  -7    2.40    0.34
   5   6  -7    1.73    0.30
  -5  -6   7    1.81    0.33
   4   6  -7    0.21    0.21
   4   6  -7    0.17    0.18
  -4  -6   7    0.34    0.24
   3   6  -7    1.40    0.25
   3   6  -7    1.88    0.25
  -3  -6   7    1.81    0.26
  -3  -6   7    1.72    0.28
   2   6  -7    0.05    0.16
   2   6  -7    0.25    0.15
  -2  -6   7    0.30    0.18
  -2  -6   7    0.21    0.15
   1   6  -7    1.68    0.24
   1   6  -7    2.18    0.23
  -1  -6   7    1.78    0.24
  -1  -6   7    2.21    0.22
   0   6  -7   -0.06    0.13
   0   6  -7   -0.07    0.11
   0  -6   7    0.00    0.12
   0  -6   7    0.07    0.14
  -1   6  -7    1.20    0.19
  -1   6  -7    1.40    0.20
  -1   6  -7    0.87    0.21
   1  -6   7    1.52    0.18
   1  -6   7    1.49    0.20
  -2   6  -7    0.28    0.18
  -2   6  -7    0.00    0.14
   2  -6   7    0.18    0.13
  -3   6  -7   12.23    0.61
  -3   6  -7   12.06    0.72
   3  -6   7   13.68    0.64
  -4   6  -7    7.67    0.53
  -4   6  -7    6.91    0.47
  -4   6  -7    7.27    0.42
   4  -6   7    7.17    0.47
  -5   6  -7    0.64    0.26
  -5   6  -7    0.88    0.19
  -5   6  -7    0.91    0.24
   5  -6   7    0.63    0.25
  -6   6  -7    0.29    0.19
  -6   6  -7    0.52    0.23
  -7   6  -7    1.77    0.28
  -7   6  -7    1.69    0.33
  -8   6  -7    1.85    0.32
  -8   6  -7    1.74    0.36
  -9   6  -7    0.16    0.30
 -11  -5   7    1.86    0.51
 -10  -5   7    0.30    0.40
   9   5  -7    8.68    0.73
  -9  -5   7    7.51    0.71
   8   5  -7    4.16    0.50
   8   5  -7    5.62    0.56
   7   5  -7    2.99    0.42
   7   5  -7    3.06    0.40
  -7  -5   7    3.08    0.44
   6   5  -7    0.98    0.27
   6   5  -7    0.96    0.26
  -6  -5   7    0.71    0.30
   5   5  -7    5.28    0.43
   5   5  -7    6.05    0.47
  -5  -5   7    4.92    0.47
   4   5  -7    0.48    0.21
   4   5  -7    0.95    0.20
   4   5  -7    0.36    0.15
  -4  -5   7    0.62    0.22
   3   5  -7   17.12    0.82
   3   5  -7   16.48    0.84
   3   5  -7   17.58    0.84
  -3  -5   7   17.40    0.86
  -3  -5   7   16.61    0.82
   2   5  -7   -0.08    0.13
   2   5  -7    0.18    0.15
   2   5  -7    0.11    0.12
  -2  -5   7   -0.08    0.12
  -2  -5   7   -0.02    0.14
   1   5  -7   35.11    1.51
   1   5  -7   34.70    1.49
   1   5  -7   35.75    1.62
  -1  -5   7   35.70    1.49
  -1  -5   7   36.52    1.51
   0   5  -7    1.05    0.17
   0   5  -7    1.30    0.18
   0   5  -7    1.15    0.15
   0   5  -7    1.09    0.21
   0  -5   7    1.62    0.19
   0  -5   7    1.27    0.15
  -1   5  -7    6.53    0.38
  -1   5  -7    7.63    0.50
  -1   5  -7    5.34    0.37
  -1   5  -7    7.86    0.48
   1  -5   7    7.57    0.39
   1  -5   7    6.73    0.36
  -2   5  -7    0.78    0.20
  -2   5  -7    0.73    0.14
  -2   5  -7    0.71    0.22
  -2   5  -7    1.04    0.16
   2  -5   7    0.81    0.14
   2  -5   7    0.87    0.14
  -3   5  -7    5.97    0.42
  -3   5  -7    5.92    0.34
  -3   5  -7    6.66    0.47
   3  -5   7    5.44    0.37
  -4   5  -7    1.72    0.27
  -4   5  -7    2.22    0.21
  -4   5  -7    2.02    0.30
   4  -5   7    2.50    0.26
   4  -5   7    1.93    0.27
  -5   5  -7    4.07    0.42
  -5   5  -7    3.81    0.38
  -5   5  -7    3.83    0.30
   5  -5   7    3.40    0.37
  -6   5  -7    0.25    0.18
  -6   5  -7    0.22    0.22
  -7   5  -7    0.99    0.30
  -7   5  -7    0.77    0.24
  -8   5  -7    0.33    0.29
  -8   5  -7    0.11    0.25
  -9   5  -7    0.25    0.31
  -9   5  -7   -0.16    0.29
 -11  -4   7    0.93    0.45
  10   4  -7   -0.31    0.29
 -10  -4   7    0.22    0.38
   9   4  -7    1.68    0.37
  -9  -4   7    1.05    0.39
   8   4  -7    1.53    0.34
   8   4  -7    1.38    0.34
  -8  -4   7    1.12    0.36
   7   4  -7    0.44    0.25
   7   4  -7    0.71    0.27
  -7  -4   7    0.25    0.28
   6   4  -7    2.12    0.30
   6   4  -7    1.68    0.30
  -6  -4   7    1.83    0.33
   5   4  -7    5.17    0.42
   5   4  -7    5.53    0.45
   5   4  -7    6.05    0.36
  -5  -4   7    6.22    0.50
   4   4  -7    0.19    0.12
   4   4  -7    0.31    0.18
   4   4  -7    0.14    0.15
  -4  -4   7    0.08    0.17
  -4  -4   7    0.00    0.17
   3   4  -7    7.57    0.41
   3   4  -7    6.52    0.44
   3   4  -7    5.92    0.41
  -3  -4   7    6.65    0.46
  -3  -4   7    7.03    0.41
   2   4  -7    1.16    0.15
   2   4  -7    0.88    0.18
   2   4  -7    0.85    0.18
  -2  -4   7    1.20    0.20
  -2  -4   7    1.05    0.16
   1   4  -7    0.05    0.08
   1   4  -7   -0.10    0.11
   1   4  -7    0.05    0.13
   1   4  -7   -0.05    0.11
  -1  -4   7    0.07    0.09
  -1  -4   7   -0.16    0.11
   0   4  -7    0.14    0.14
   0   4  -7    0.08    0.09
   0   4  -7    0.48    0.12
   0  -4   7    0.20    0.08
   0  -4   7    0.10    0.10
  -1   4  -7   30.57    1.49
  -1   4  -7   30.97    1.46
  -1   4  -7   32.40    1.32
  -1   4  -7   32.89    1.31
   1  -4   7   32.85    1.31
   1  -4   7   32.16    1.31
  -2   4  -7    4.17    0.37
  -2   4  -7    5.13    0.42
  -2   4  -7    5.03    0.28
  -2   4  -7    4.90    0.28
  -2   4  -7    4.82    0.37
   2  -4   7    4.86    0.29
  -3   4  -7   14.24    0.62
  -3   4  -7   13.85    0.61
  -3   4  -7   13.19    0.75
  -3   4  -7   13.10    0.79
  -3   4  -7   14.33    0.74
   3  -4   7   14.57    0.69
  -4   4  -7    2.94    0.36
  -4   4  -7    2.58    0.20
  -4   4  -7    2.12    0.29
  -4   4  -7    2.51    0.32
   4  -4   7    2.07    0.27
  -5   4  -7    2.41    0.35
  -5   4  -7    3.69    0.39
   5  -4   7    3.40    0.35
  -6   4  -7    4.90    0.36
  -6   4  -7    4.92    0.46
   6  -4   7    4.07    0.43
  -7   4  -7    1.02    0.25
  -7   4  -7    2.03    0.35
  -8   4  -7   -0.16    0.25
  -8   4  -7    0.12    0.27
  -9   4  -7    0.73    0.30
  -9   4  -7    0.72    0.33
 -12  -3   7    1.74    0.54
 -11  -3   7    0.46    0.41
  10   3  -7    0.06    0.29
 -10  -3   7    0.05    0.35
   9   3  -7    0.10    0.27
   9   3  -7    0.54    0.28
  -9  -3   7    0.05    0.31
   8   3  -7    0.22    0.25
   8   3  -7   -0.03    0.23
  -8  -3   7    0.23    0.29
   7   3  -7   13.03    0.80
   7   3  -7   14.36    0.81
  -7  -3   7   13.96    0.82
  -7  -3   7   14.40    0.85
   6   3  -7    7.54    0.53
   6   3  -7    8.68    0.55
   6   3  -7    7.82    0.41
  -6  -3   7    6.12    0.55
   5   3  -7    3.54    0.36
   5   3  -7    2.72    0.24
   5   3  -7    3.31    0.32
  -5  -3   7    3.11    0.35
  -5  -3   7    3.07    0.33
   4   3  -7    3.89    0.35
   4   3  -7    3.38    0.31
   4   3  -7    3.96    0.28
  -4  -3   7    3.60    0.32
  -4  -3   7    3.78    0.35
   3   3  -7   13.67    0.64
   3   3  -7   12.51    0.67
   3   3  -7   12.89    0.67
  -3  -3   7   12.91    0.63
  -3  -3   7   13.82    0.68
   2   3  -7    0.68    0.16
   2   3  -7    0.82    0.12
   2   3  -7    0.40    0.14
   2   3  -7    0.48    0.14
  -2  -3   7    0.55    0.15
  -2  -3   7    0.77    0.12
   1   3  -7   15.23    0.77
   1   3  -7   14.86    0.69
  -1  -3   7   14.89    0.68
   0   3  -7    0.10    0.09
   0   3  -7    0.22    0.14
   0   3  -7    0.07    0.09
   0  -3   7    0.05    0.08
  -1   3  -7    0.44    0.09
  -1   3  -7    0.33    0.16
  -1   3  -7    0.58    0.16
  -1   3  -7    0.49    0.16
  -1   3  -7    0.45    0.10
  -2   3  -7    2.00    0.25
  -2   3  -7    1.63    0.24
  -2   3  -7    1.59    0.26
   2  -3   7    1.85    0.17
  -3   3  -7   10.55    0.59
  -3   3  -7    9.18    0.59
  -3   3  -7    9.95    0.58
   3  -3   7    8.66    0.49
  -4   3  -7   15.30    0.81
  -4   3  -7   14.14    0.81
  -4   3  -7   14.34    0.83
   4  -3   7   14.52    0.73
  -5   3  -7    5.59    0.49
  -5   3  -7    5.34    0.49
   5  -3   7    4.90    0.42
  -6   3  -7    2.89    0.27
  -6   3  -7    3.28    0.38
   6  -3   7    3.13    0.37
  -7   3  -7    1.42    0.32
  -7   3  -7    1.26    0.24
  -8   3  -7    0.60    0.24
  -8   3  -7    0.65    0.30
  -9   3  -7   -0.08    0.30
 -12  -2   7    1.26    0.46
 -11  -2   7    0.63    0.41
  10   2  -7    1.98    0.40
 -10  -2   7    1.80    0.44
   9   2  -7    0.67    0.28
   9   2  -7    0.55    0.28
  -9  -2   7    0.38    0.32
   8   2  -7   15.00    0.88
   8   2  -7   15.08    0.88
  -8  -2   7   16.36    0.92
   7   2  -7    9.20    0.48
   7   2  -7    8.83    0.59
   7   2  -7    8.56    0.61
  -7  -2   7    9.27    0.63
  -7  -2   7    8.54    0.64
   6   2  -7    7.10    0.42
   6   2  -7    7.62    0.52
   6   2  -7    6.78    0.48
  -6  -2   7    6.66    0.54
  -6  -2   7    7.24    0.53
   5   2  -7    9.39    0.54
   5   2  -7    8.60    0.57
   5   2  -7    9.82    0.51
  -5  -2   7    9.28    0.56
  -5  -2   7    9.60    0.59
   4   2  -7    0.05    0.13
   4   2  -7    0.17    0.12
   4   2  -7   -0.07    0.14
  -4  -2   7   -0.04    0.15
  -4  -2   7   -0.15    0.14
   3   2  -7    0.03    0.10
   3   2  -7   -0.12    0.10
   3   2  -7    0.27    0.14
  -3  -2   7    0.07    0.12
  -3  -2   7    0.13    0.14
   2   2  -7   -0.11    0.10
   2   2  -7    0.12    0.13
   2   2  -7    0.00    0.12
  -2  -2   7    0.06    0.11
   1   2  -7   17.44    0.85
   1   2  -7   15.84    0.73
   1   2  -7   17.44    0.75
  -1  -2   7   16.35    0.73
   0   2  -7    0.14    0.08
   0   2  -7    0.05    0.08
   0   2  -7   -0.09    0.12
  -1   2  -7    5.85    0.39
  -1   2  -7    4.96    0.39
  -1   2  -7    5.04    0.38
  -2   2  -7   -0.02    0.16
  -2   2  -7   -0.07    0.13
  -2   2  -7    0.03    0.13
   2  -2   7    0.10    0.09
  -3   2  -7    5.35    0.43
  -3   2  -7    5.26    0.44
  -3   2  -7    5.84    0.43
   3  -2   7    5.50    0.34
  -4   2  -7    0.44    0.21
  -4   2  -7    0.23    0.21
  -4   2  -7    0.77    0.23
   4  -2   7    0.31    0.18
  -5   2  -7   13.82    0.80
  -5   2  -7   14.02    0.82
   5  -2   7   13.94    0.75
  -6   2  -7    9.17    0.65
  -6   2  -7    8.29    0.61
   6  -2   7    9.43    0.68
   6  -2   7    7.35    0.57
  -7   2  -7    0.68    0.21
  -7   2  -7    0.94    0.31
  -8   2  -7    0.17    0.29
  -8   2  -7   -0.17    0.21
  -9   2  -7   -0.21    0.30
 -12  -1   7    4.14    0.60
 -11  -1   7    0.58    0.40
  10   1  -7    0.00    0.28
 -10  -1   7    0.27    0.35
   9   1  -7    3.41    0.44
   9   1  -7    4.08    0.47
  -9  -1   7    3.56    0.48
   8   1  -7    3.12    0.39
   8   1  -7    1.94    0.34
  -8  -1   7    1.85    0.37
   7   1  -7   10.22    0.61
   7   1  -7    9.09    0.52
   7   1  -7    8.58    0.60
  -7  -1   7    9.45    0.63
  -7  -1   7    7.85    0.63
   6   1  -7    0.99    0.19
   6   1  -7    0.59    0.22
   6   1  -7    0.47    0.20
  -6  -1   7    0.52    0.23
  -6  -1   7    0.43    0.23
   5   1  -7   20.80    0.99
   5   1  -7   20.51    1.00
   5   1  -7   20.56    0.97
  -5  -1   7   20.17    1.00
  -5  -1   7   20.58    1.14
   4   1  -7    0.26    0.16
   4   1  -7    0.35    0.14
   4   1  -7    0.19    0.13
  -4  -1   7    0.16    0.18
  -4  -1   7    0.31    0.17
   3   1  -7   11.55    0.55
   3   1  -7   11.21    0.60
   3   1  -7   11.84    0.63
  -3  -1   7   11.82    0.61
  -3  -1   7   11.82    0.74
   2   1  -7    0.90    0.14
   2   1  -7    0.92    0.16
   2   1  -7    0.76    0.17
   2   1  -7    0.78    0.11
  -2  -1   7    0.92    0.15
   1   1  -7  117.05    4.98
   1   1  -7  117.30    4.57
   1   1  -7  111.91    4.55
  -1  -1   7  117.80    4.55
   0   1  -7    0.13    0.09
   0   1  -7    0.09    0.12
   0   1  -7    0.29    0.15
   0   1  -7    0.05    0.11
   0   1  -7    0.18    0.07
  -1   1  -7  113.83    4.95
  -1   1  -7  113.53    4.79
  -1   1  -7  117.69    4.86
  -2   1  -7    0.50    0.17
  -2   1  -7    0.58    0.19
  -2   1  -7    0.18    0.15
   2  -1   7    0.44    0.11
   3  -1   7    0.59    0.23
   3  -1   7    0.76    0.15
  -4   1  -7    4.98    0.46
  -4   1  -7    4.56    0.43
   4  -1   7    5.16    0.37
   4  -1   7    5.44    0.53
  -5   1  -7    7.17    0.54
  -5   1  -7    8.01    0.57
   5  -1   7    5.28    0.45
   5  -1   7    8.18    0.62
  -6   1  -7    0.07    0.24
  -6   1  -7    0.03    0.23
  -7   1  -7    1.68    0.35
  -7   1  -7    0.90    0.33
  -7   1  -7    0.84    0.22
  -8   1  -7    1.12    0.26
  -8   1  -7    1.50    0.37
  -9   1  -7    0.08    0.32
 -12   0   7    0.37    0.45
 -11   0   7    0.00    0.37
  10   0  -7    0.06    0.27
 -10   0   7    0.01    0.32
   9   0  -7    1.24    0.33
   9   0  -7    0.76    0.31
  -9   0   7    0.82    0.35
   8   0  -7   13.20    0.79
   8   0  -7   13.27    0.81
  -8   0   7   13.96    0.83
   7   0  -7    7.08    0.52
   7   0  -7    7.07    0.54
  -7   0   7    6.85    0.55
  -7   0   7    7.62    0.63
   6   0  -7    2.73    0.30
   6   0  -7    2.02    0.30
   6   0  -7    2.41    0.30
  -6   0   7    2.68    0.33
  -6   0   7    2.70    0.36
   5   0  -7    1.99    0.26
   5   0  -7    1.44    0.23
   5   0  -7    1.99    0.28
  -5   0   7    2.11    0.32
  -5   0   7    1.70    0.26
   4   0  -7   -0.01    0.13
   4   0  -7    0.04    0.15
   4   0  -7    0.00    0.13
  -4   0   7    0.01    0.13
  -4   0   7    0.01    0.19
   3   0  -7    0.54    0.15
   3   0  -7    0.43    0.17
   3   0  -7    0.93    0.14
  -3   0   7    0.67    0.15
  -3   0   7    0.65    0.22
   2   0  -7    8.33    0.53
   2   0  -7    8.98    0.47
   2   0  -7    9.06    0.42
   2   0  -7    8.59    0.45
  -2   0   7    9.18    0.46
  -2   0   7    9.37    0.64
   1   0  -7    8.44    0.47
   1   0  -7    8.02    0.41
   1   0  -7    9.16    0.44
   1   0  -7    8.19    0.52
  -1   0   7    8.43    0.42
  -1   0   7    8.92    0.63
   0   0  -7    0.30    0.13
   0   0  -7    0.40    0.08
   0   0  -7    0.32    0.09
   0   0  -7    0.31    0.13
   0   0  -7    0.55    0.17
   0   0   7    0.10    0.19
  -1   0  -7   25.03    1.25
  -1   0  -7   25.15    1.20
  -1   0  -7   26.21    1.10
  -1   0  -7   26.03    1.19
   1   0   7   26.58    1.42
   1   0   7   25.86    1.08
  -2   0  -7    1.71    0.21
  -2   0  -7    1.52    0.24
  -2   0  -7    1.14    0.20
  -2   0  -7    1.21    0.23
   2   0   7    1.63    0.17
   2   0   7    1.53    0.29
  -3   0  -7    0.30    0.19
  -3   0  -7    0.54    0.20
  -3   0  -7    0.33    0.18
   3   0   7    0.57    0.25
   3   0   7    0.56    0.16
  -4   0  -7    0.93    0.25
  -4   0  -7    1.34    0.26
  -4   0  -7    1.03    0.26
   4   0   7    0.89    0.20
   4   0   7    0.67    0.28
  -5   0  -7    7.19    0.57
  -5   0  -7    7.78    0.57
   5   0   7    8.42    0.66
   5   0   7    7.45    0.51
  -6   0  -7    4.04    0.46
  -6   0  -7    4.00    0.32
  -6   0  -7    4.72    0.46
  -7   0  -7    0.96    0.23
  -7   0  -7    0.93    0.32
  -7   0  -7    0.31    0.30
  -8   0  -7    0.04    0.23
  -8   0  -7    0.01    0.30
 -12   1   7    2.83    0.54
  11  -1  -7    0.29    0.32
 -11   1   7   -0.15    0.36
  10  -1  -7    0.26    0.29
 -10   1   7   -0.23    0.31
   9  -1  -7    3.32    0.43
   9  -1  -7    2.23    0.38
  -9   1   7    1.65    0.38
   8  -1  -7    0.06    0.22
   8  -1  -7    0.14    0.24
  -8   1   7   -0.12    0.24
   7  -1  -7    3.53    0.40
   7  -1  -7    2.29    0.34
  -7   1   7    3.08    0.37
  -7   1   7    3.37    0.46
   6  -1  -7    9.60    0.59
   6  -1  -7   10.28    0.62
  -6   1   7    9.27    0.75
  -6   1   7   10.21    0.61
   5  -1  -7   17.81    0.88
  -5   1   7   17.50    0.87
  -5   1   7   17.39    1.05
   4  -1  -7    0.54    0.20
   4  -1  -7    0.30    0.15
  -4   1   7    0.52    0.17
  -4   1   7    0.64    0.26
   3  -1  -7   11.10    0.53
   3  -1  -7   10.25    0.63
   3  -1  -7   10.63    0.56
  -3   1   7   10.51    0.74
  -3   1   7   10.67    0.55
   2  -1  -7    6.29    0.37
   2  -1  -7    6.02    0.45
   2  -1  -7    5.79    0.35
   2  -1  -7    6.36    0.33
  -2   1   7    6.22    0.36
  -2   1   7    5.97    0.54
   1  -1  -7   41.52    1.64
   1  -1  -7   39.58    1.84
   1  -1  -7   39.86    1.74
   1  -1  -7   40.82    1.63
   1  -1  -7   37.11    1.61
  -1   1   7   41.14    2.08
  -1   1   7   39.71    1.62
   0  -1  -7    0.88    0.12
   0  -1  -7    0.73    0.20
   0  -1  -7    0.66    0.14
   0  -1  -7    0.46    0.15
   0  -1  -7    0.81    0.11
   0  -1  -7    0.61    0.12
   0   1   7    0.83    0.25
   0   1   7    0.70    0.10
   0   1   7    0.65    0.11
  -1  -1  -7    3.27    0.33
  -1  -1  -7    2.63    0.27
  -1  -1  -7    3.17    0.22
  -1  -1  -7    3.04    0.21
  -1  -1  -7    3.83    0.34
  -1  -1  -7    3.17    0.26
   1   1   7    4.58    0.46
   1   1   7    3.24    0.24
  -2  -1  -7    0.06    0.14
  -2  -1  -7    0.34    0.17
  -2  -1  -7   -0.02    0.09
  -2  -1  -7   -0.15    0.15
  -2  -1  -7    0.07    0.15
   2   1   7    0.16    0.23
   2   1   7    0.06    0.12
  -3  -1  -7    0.44    0.18
  -3  -1  -7    0.34    0.20
  -3  -1  -7    0.22    0.19
   3   1   7    0.24    0.25
   3   1   7    0.35    0.15
  -4  -1  -7    6.37    0.52
  -4  -1  -7    6.91    0.37
  -4  -1  -7    7.99    0.55
   4   1   7    7.07    0.61
   4   1   7    6.13    0.45
  -5  -1  -7    0.12    0.16
  -5  -1  -7    0.58    0.25
  -5  -1  -7    0.22    0.23
   5   1   7    0.10    0.20
   5   1   7    0.40    0.29
  -6  -1  -7    5.91    0.53
  -6  -1  -7    6.44    0.58
  -6  -1  -7    6.20    0.42
  -7  -1  -7    1.58    0.27
  -7  -1  -7    1.84    0.38
  -8  -1  -7    0.23    0.26
  -8  -1  -7    0.10    0.31
 -12   2   7   -0.01    0.41
  11  -2  -7    1.32    0.40
 -11   2   7    1.67    0.44
  10  -2  -7    0.13    0.28
 -10   2   7    0.79    0.33
   9  -2  -7    7.58    0.60
   9  -2  -7    5.77    0.58
  -9   2   7    6.08    0.58
   8  -2  -7   18.56    1.02
   8  -2  -7   19.47    1.04
  -8   2   7   19.18    1.03
   7  -2  -7    4.73    0.45
   7  -2  -7    4.34    0.43
  -7   2   7    4.40    0.45
   6  -2  -7    6.91    0.51
  -6   2   7    6.59    0.50
  -6   2   7    7.29    0.67
   5  -2  -7    6.31    0.45
  -5   2   7    5.61    0.43
  -5   2   7    5.89    0.59
   4  -2  -7    1.18    0.19
   4  -2  -7    1.36    0.22
  -4   2   7    1.12    0.33
  -4   2   7    1.35    0.22
   3  -2  -7    3.64    0.29
   3  -2  -7    3.76    0.32
   3  -2  -7    4.24    0.41
  -3   2   7    4.33    0.32
  -3   2   7    3.81    0.46
   2  -2  -7    1.20    0.16
   2  -2  -7    1.17    0.25
   2  -2  -7    1.22    0.19
   2  -2  -7    1.12    0.16
  -2   2   7    1.56    0.18
  -2   2   7    1.08    0.31
   1  -2  -7    0.60    0.20
   1  -2  -7    0.29    0.11
   1  -2  -7    0.10    0.12
   1  -2  -7    0.50    0.13
   1  -2  -7    0.20    0.12
   1  -2  -7    0.03    0.04
  -1   2   7    0.33    0.24
  -1   2   7    0.27    0.11
  -1   2   7    0.05    0.11
   0  -2  -7    0.15    0.10
   0  -2  -7    0.15    0.17
   0  -2  -7    0.39    0.15
   0  -2  -7    0.12    0.11
   0  -2  -7    0.11    0.12
   0  -2  -7    0.28    0.12
   0   2   7    0.29    0.12
   0   2   7    0.27    0.10
   0   2   7    0.25    0.25
  -1  -2  -7    0.01    0.11
  -1  -2  -7    0.11    0.14
  -1  -2  -7    0.08    0.10
  -1  -2  -7    0.13    0.13
  -1  -2  -7    0.02    0.16
  -1  -2  -7    0.23    0.16
   1   2   7    0.16    0.25
   1   2   7    0.12    0.12
  -2  -2  -7    0.21    0.12
  -2  -2  -7   -0.06    0.16
  -2  -2  -7    0.00    0.16
  -2  -2  -7    0.11    0.17
   2   2   7   -0.02    0.14
   2   2   7   -0.07    0.25
  -3  -2  -7    0.82    0.24
  -3  -2  -7    0.34    0.16
  -3  -2  -7    0.62    0.21
   3   2   7    0.74    0.20
   3   2   7    0.76    0.32
  -4  -2  -7    4.75    0.44
  -4  -2  -7    4.42    0.32
  -4  -2  -7    3.93    0.44
   4   2   7    5.19    0.41
   4   2   7    4.70    0.55
  -5  -2  -7    9.61    0.54
  -5  -2  -7    9.63    0.69
  -5  -2  -7   12.35    0.72
   5   2   7   10.06    0.84
   5   2   7    9.62    0.62
  -6  -2  -7    0.34    0.28
  -6  -2  -7    0.55    0.22
  -7  -2  -7    1.82    0.40
  -7  -2  -7    2.05    0.31
  -8  -2  -7    0.80    0.29
 -12   3   7    2.77    0.54
  11  -3  -7    0.26    0.34
 -11   3   7    0.38    0.37
  10  -3  -7    4.53    0.55
 -10   3   7    4.31    0.55
   9  -3  -7    0.39    0.29
   9  -3  -7    0.44    0.31
  -9   3   7   -0.01    0.30
   8  -3  -7    4.96    0.50
   8  -3  -7    3.75    0.44
  -8   3   7    3.91    0.45
   7  -3  -7    5.17    0.48
  -7   3   7    4.01    0.43
   6  -3  -7    0.76    0.24
  -6   3   7    0.63    0.23
   5  -3  -7    8.11    0.53
  -5   3   7    8.14    0.77
  -5   3   7    8.35    0.53
   4  -3  -7   -0.20    0.14
   4  -3  -7    0.01    0.14
  -4   3   7   -0.15    0.29
  -4   3   7    0.04    0.15
   3  -3  -7    0.76    0.19
   3  -3  -7    0.54    0.15
  -3   3   7    0.70    0.17
  -3   3   7    0.35    0.31
   2  -3  -7   -0.15    0.19
   2  -3  -7   -0.07    0.12
   2  -3  -7    0.05    0.11
   2  -3  -7    0.07    0.13
  -2   3   7    0.18    0.28
  -2   3   7   -0.10    0.11
  -2   3   7   -0.25    0.12
   1  -3  -7   38.11    1.91
   1  -3  -7   41.84    1.76
   1  -3  -7   40.88    1.71
   1  -3  -7   40.69    1.68
   1  -3  -7   41.48    1.78
   1  -3  -7   39.22    1.71
  -1   3   7   41.14    1.72
  -1   3   7   41.42    1.68
  -1   3   7   40.83    2.17
   0  -3  -7    0.12    0.19
   0  -3  -7    0.26    0.13
   0  -3  -7    0.17    0.15
   0  -3  -7    0.06    0.06
   0  -3  -7    0.17    0.14
   0   3   7    0.11    0.13
   0   3   7    0.09    0.29
   0   3   7    0.28    0.12
  -1  -3  -7   21.72    1.02
  -1  -3  -7   22.79    1.04
  -1  -3  -7   21.40    1.07
  -1  -3  -7   22.37    1.14
  -1  -3  -7   21.68    0.98
   1   3   7   21.75    1.01
   1   3   7   23.05    1.33
  -2  -3  -7    0.24    0.14
  -2  -3  -7    0.52    0.21
  -2  -3  -7    0.79    0.22
   2   3   7    0.54    0.18
   2   3   7    0.37    0.35
  -3  -3  -7    9.49    0.62
  -3  -3  -7    9.60    0.53
  -3  -3  -7   10.41    0.65
   3   3   7    9.83    0.58
   3   3   7   10.92    0.83
  -4  -3  -7    3.54    0.41
  -4  -3  -7    3.80    0.39
  -4  -3  -7    3.49    0.30
   4   3   7    2.48    0.33
   4   3   7    3.21    0.52
  -5  -3  -7    4.05    0.36
  -5  -3  -7    3.99    0.43
  -5  -3  -7    3.94    0.47
   5   3   7    3.77    0.42
  -6  -3  -7    0.95    0.27
  -6  -3  -7    0.04    0.27
  -7  -3  -7    1.21    0.36
  -7  -3  -7    2.12    0.34
 -12   4   7   -0.12    0.40
  11  -4  -7   -0.23    0.32
 -11   4   7   -0.07    0.36
  10  -4  -7    2.17    0.45
 -10   4   7    2.31    0.46
   9  -4  -7    1.36    0.36
   9  -4  -7    0.83    0.33
  -9   4   7    1.32    0.37
   8  -4  -7   -0.21    0.22
  -8   4   7    0.08    0.26
   7  -4  -7    0.86    0.27
  -7   4   7    0.79    0.26
   6  -4  -7    1.14    0.26
  -6   4   7    1.02    0.25
   5  -4  -7    2.18    0.32
  -5   4   7    3.09    0.33
   4  -4  -7    1.98    0.27
  -4   4   7    1.52    0.25
  -4   4   7    2.36    0.48
   3  -4  -7    0.07    0.15
   3  -4  -7    0.08    0.14
  -3   4   7    0.28    0.16
  -3   4   7    0.05    0.33
   2  -4  -7    0.14    0.16
   2  -4  -7    0.21    0.13
   2  -4  -7    0.11    0.10
   2  -4  -7   -0.03    0.14
  -2   4   7    0.06    0.14
  -2   4   7    0.24    0.15
  -2   4   7    0.73    0.35
   1  -4  -7    1.32    0.22
   1  -4  -7    1.28    0.21
   1  -4  -7    1.24    0.21
   1  -4  -7    1.07    0.29
   1  -4  -7    1.49    0.17
  -1   4   7    1.71    0.23
  -1   4   7    1.71    0.40
  -1   4   7    1.12    0.20
   0  -4  -7    0.01    0.15
   0  -4  -7   -0.06    0.14
   0  -4  -7   -0.03    0.21
   0  -4  -7   -0.03    0.12
   0   4   7    0.04    0.15
   0   4   7    0.18    0.33
  -1  -4  -7   -0.01    0.14
  -1  -4  -7    0.06    0.19
  -1  -4  -7   -0.09    0.17
   1   4   7    0.14    0.35
   1   4   7    0.10    0.17
  -2  -4  -7    2.18    0.33
  -2  -4  -7    2.01    0.25
  -2  -4  -7    1.76    0.29
   2   4   7    1.72    0.27
   2   4   7    2.34    0.50
  -3  -4  -7    0.08    0.20
  -3  -4  -7    0.33    0.22
  -3  -4  -7   -0.07    0.18
   3   4   7   -0.50    0.36
   3   4   7   -0.27    0.19
  -4  -4  -7    6.86    0.57
  -4  -4  -7    6.28    0.47
  -4  -4  -7    7.48    0.53
  -4  -4  -7    6.43    0.47
   4   4   7    6.53    0.51
  -5  -4  -7   -0.13    0.21
  -5  -4  -7    0.21    0.26
  -6  -4  -7    1.82    0.34
  -6  -4  -7    2.96    0.43
  -7  -4  -7    0.30    0.30
  11  -5  -7   -0.10    0.34
 -11   5   7    0.42    0.39
  10  -5  -7    2.34    0.45
 -10   5   7    3.36    0.52
   9  -5  -7    0.51    0.32
  -9   5   7    0.38    0.34
   8  -5  -7    1.02    0.31
  -8   5   7    0.69    0.31
   7  -5  -7    2.27    0.37
  -7   5   7    2.34    0.36
   6  -5  -7    1.34    0.29
  -6   5   7    1.23    0.28
   5  -5  -7   14.32    0.82
  -5   5   7   15.62    0.81
   4  -5  -7    1.34    0.26
  -4   5   7    2.13    0.29
   3  -5  -7    7.55    0.51
  -3   5   7    7.32    0.49
   2  -5  -7    0.50    0.16
   2  -5  -7    0.18    0.19
  -2   5   7    0.22    0.18
  -2   5   7    0.38    0.19
   1  -5  -7    3.34    0.45
   1  -5  -7    3.45    0.34
   1  -5  -7    4.17    0.35
  -1   5   7    3.12    0.32
   0  -5  -7    0.95    0.31
   0  -5  -7    1.46    0.25
   0  -5  -7    1.40    0.24
   0   5   7    1.27    0.24
  -1  -5  -7   11.87    0.77
  -1  -5  -7   11.27    0.65
  -1  -5  -7   12.76    0.71
   1   5   7   12.35    0.69
  -2  -5  -7    0.24    0.22
  -2  -5  -7    0.19    0.22
  -2  -5  -7    0.48    0.19
   2   5   7   -0.03    0.20
  -3  -5  -7   15.05    0.81
  -3  -5  -7   12.86    0.72
  -3  -5  -7   13.45    0.80
   3   5   7   11.59    0.75
  -4  -5  -7    0.31    0.23
  -4  -5  -7    0.24    0.26
  -4  -5  -7    0.35    0.22
  -4  -5  -7    0.29    0.25
   4   5   7   -0.10    0.24
  -5  -5  -7    0.79    0.30
  -5  -5  -7    1.12    0.28
  -5  -5  -7    1.19    0.33
  -6  -5  -7    1.53    0.33
  -6  -5  -7    1.04    0.35
 -12   6   7   -0.83    0.41
  11  -6  -7    0.38    0.38
 -11   6   7    0.10    0.39
  10  -6  -7   -0.15    0.33
 -10   6   7    0.01    0.37
   9  -6  -7    2.16    0.42
  -9   6   7    2.14    0.43
   8  -6  -7    0.16    0.28
  -8   6   7    0.68    0.29
   7  -6  -7    5.66    0.55
  -7   6   7    5.53    0.53
   6  -6  -7    4.73    0.49
  -6   6   7    4.28    0.45
   5  -6  -7    3.80    0.43
  -5   6   7    4.52    0.44
   4  -6  -7    2.26    0.32
  -4   6   7    1.30    0.28
   3  -6  -7   19.76    0.99
  -3   6   7   17.94    0.96
  -3   6   7   20.03    0.96
   2  -6  -7    1.75    0.24
   2  -6  -7    1.85    0.29
  -2   6   7    1.65    0.28
   1  -6  -7    0.65    0.32
   1  -6  -7    1.36    0.24
   1  -6  -7    1.13    0.25
  -1   6   7    0.85    0.24
   0  -6  -7    0.55    0.22
   0  -6  -7    0.29    0.29
   0  -6  -7    0.52    0.21
   0   6   7    0.63    0.23
  -1  -6  -7    1.25    0.27
  -1  -6  -7    1.34    0.33
  -1  -6  -7    0.83    0.23
   1   6   7    1.43    0.29
  -2  -6  -7    0.55    0.26
  -2  -6  -7   -0.25    0.19
  -2  -6  -7    0.22    0.21
   2   6   7   -0.15    0.23
  -3  -6  -7    0.96    0.29
  -3  -6  -7    0.31    0.23
  -3  -6  -7    0.96    0.29
   3   6   7    0.68    0.29
  -4  -6  -7    0.27    0.26
  -4  -6  -7   -0.15    0.22
  -5  -6  -7    0.62    0.32
  -5  -6  -7    0.38    0.28
  -5  -6  -7    0.74    0.32
  11  -7  -7   -0.38    0.34
 -11   7   7   -0.28    0.40
  10  -7  -7    6.52    0.70
 -10   7   7    6.07    0.66
   9  -7  -7    3.36    0.50
  -9   7   7    2.77    0.47
   8  -7  -7    0.76    0.33
  -8   7   7    0.82    0.35
   7  -7  -7    1.09    0.34
  -7   7   7    1.53    0.36
   6  -7  -7    0.39    0.27
  -6   7   7    0.57    0.28
   5  -7  -7    1.65    0.32
  -5   7   7    1.75    0.32
   4  -7  -7    8.75    0.63
  -4   7   7    9.81    0.63
   3  -7  -7    2.80    0.36
  -3   7   7    1.67    0.31
   2  -7  -7    0.23    0.17
   2  -7  -7    0.30    0.23
  -2   7   7    0.29    0.23
   1  -7  -7    6.58    0.46
   1  -7  -7    3.83    0.42
  -1   7   7    4.79    0.45
   0  -7  -7    0.26    0.29
   0  -7  -7    0.22    0.20
   0  -7  -7    0.23    0.22
   0   7   7    0.25    0.24
  -1  -7  -7   18.84    1.06
  -1  -7  -7   16.25    0.91
  -1  -7  -7   19.04    0.96
   1   7   7   16.57    0.95
  -2  -7  -7   -0.15    0.22
  -2  -7  -7    0.57    0.29
  -2  -7  -7    0.32    0.25
   2   7   7   -0.20    0.26
  -3  -7  -7    3.35    0.40
  -3  -7  -7    4.09    0.46
  -4  -7  -7   -0.13    0.25
  -4  -7  -7    0.36    0.29
  -5  -7  -7   -0.21    0.29
  -5  -7  -7    0.01    0.31
 -11   8   7    0.53    0.43
  10  -8  -7    0.26    0.38
 -10   8   7    0.26    0.39
   9  -8  -7   -0.07    0.33
  -9   8   7    0.25    0.35
   8  -8  -7    1.02    0.38
  -8   8   7    0.52    0.35
   7  -8  -7    2.10    0.41
  -7   8   7    1.63    0.38
   6  -8  -7    2.65    0.41
  -6   8   7    3.30    0.45
   5  -8  -7    3.19    0.42
  -5   8   7    3.60    0.43
   4  -8  -7    5.02    0.50
   3  -8  -7    3.68    0.44
  -3   8   7    4.51    0.46
   2  -8  -7    0.46    0.26
  -2   8   7   -0.18    0.24
   1  -8  -7    0.21    0.23
  -1   8   7    0.11    0.26
   0  -8  -7    0.15    0.25
   0  -8  -7    0.01    0.21
   0  -8  -7   -0.18    0.29
   0   8   7    0.08    0.26
  -1  -8  -7    0.14    0.28
  -1  -8  -7    0.26    0.25
  -1  -8  -7    0.19    0.23
  -2  -8  -7    0.42    0.27
  -2  -8  -7    0.39    0.27
  -2  -8  -7    0.23    0.29
  -3  -8  -7    1.44    0.35
  -3  -8  -7    0.17    0.28
  -4  -8  -7    0.18    0.30
  -4  -8  -7    0.19    0.30
  10  -9  -7    5.40    0.67
 -10   9   7    4.30    0.62
   9  -9  -7   -0.24    0.35
  -9   9   7   -0.70    0.36
   8  -9  -7    0.84    0.38
  -8   9   7    0.74    0.40
   7  -9  -7    0.99    0.36
  -7   9   7    0.78    0.37
   6  -9  -7    0.36    0.31
   5  -9  -7    3.39    0.45
   4  -9  -7    2.95    0.44
   3  -9  -7    6.31    0.58
   2  -9  -7    4.90    0.51
   1  -9  -7    1.55    0.35
   0  -9  -7   -0.31    0.32
   0  -9  -7   -0.27    0.26
  -1  -9  -7    3.01    0.44
  -1  -9  -7    3.48    0.50
  -2  -9  -7   -0.23    0.28
  -3  -9  -7    1.83    0.40
  -3  -9  -7    1.89    0.40
   9 -10  -7   -0.17    0.36
  -9  10   7    0.46    0.43
   8 -10  -7    0.38    0.37
   7 -10  -7    0.74    0.35
   6 -10  -7   -0.12    0.29
   5 -10  -7   -0.24    0.28
   4 -10  -7    1.05    0.36
   3 -10  -7    1.50    0.37
   2 -10  -7    0.17    0.29
   1 -10  -7    0.35    0.32
   0 -10  -7   -0.26    0.29
   0 -10  -7   -0.63    0.34
  -1 -10  -7    0.07    0.32
  -1 -10  -7    0.23    0.35
   8 -11  -7    0.73    0.41
   7 -11  -7   -0.43    0.34
   6 -11  -7   -0.26    0.30
   5 -11  -7    0.10    0.32
   4 -11  -7    1.48    0.41
   3 -11  -7    0.39    0.33
   2 -11  -7    0.04    0.32
   1 -11  -7    0.14    0.32
   0 -11  -7    0.26    0.34
   5 -12  -7    0.97    0.40
   4 -12  -7    0.63    0.41
   2  14  -8    3.51    0.59
   1  14  -8    0.66    0.42
   0  14  -8   -0.08    0.38
  -1  14  -8    0.11    0.39
  -2  14  -8    1.85    0.47
  -3  14  -8    0.53    0.39
   4  13  -8    0.57    0.42
   3  13  -8   -0.07    0.40
   2  13  -8    8.08    0.75
   1  13  -8    0.37    0.37
   0  13  -8   -0.17    0.34
  -1  13  -8   -0.05    0.32
  -2  13  -8    0.97    0.38
  -3  13  -8    2.81    0.47
  -4  13  -8    0.59    0.37
  -5  13  -8    0.05    0.35
   5  12  -8    0.07    0.40
   4  12  -8    5.23    0.63
   3  12  -8    0.21    0.35
   2  12  -8    9.15    0.74
   1  12  -8    0.95    0.36
   0  12  -8    4.29    0.52
   0  12  -8    4.08    0.50
   0  12  -8    5.02    0.48
  -1  12  -8    0.72    0.31
  -1  12  -8    0.31    0.30
  -1  12  -8    0.66    0.34
  -2  12  -8    0.53    0.34
  -2  12  -8    1.73    0.36
  -3  12  -8   -0.09    0.31
  -3  12  -8    0.03    0.28
  -4  12  -8    0.51    0.32
  -4  12  -8    0.92    0.36
  -5  12  -8    0.73    0.34
  -5  12  -8    0.98    0.36
  -6  12  -8    1.19    0.39
   7  11  -8    0.70    0.42
  -7 -11   8    0.13    0.46
   6  11  -8    1.22    0.45
  -6 -11   8    0.87    0.47
   5  11  -8   -0.13    0.34
  -5 -11   8   -0.49    0.37
   4  11  -8    1.55    0.43
  -4 -11   8    1.36    0.44
   3  11  -8    0.49    0.34
   2  11  -8    6.98    0.63
   2  11  -8    6.33    0.59
   1  11  -8    0.10    0.28
   1  11  -8    0.34    0.26
   0  11  -8    1.95    0.35
   0  11  -8    1.88    0.37
  -1  11  -8    0.22    0.25
  -1  11  -8    0.13    0.25
  -1  11  -8    0.22    0.29
  -2  11  -8   -0.17    0.26
  -2  11  -8    0.00    0.26
  -3  11  -8    1.39    0.34
  -3  11  -8    1.38    0.34
  -4  11  -8    0.41    0.31
  -4  11  -8    0.44    0.31
  -5  11  -8    0.61    0.30
  -5  11  -8    0.57    0.33
  -6  11  -8    0.43    0.31
  -7  11  -8    0.00    0.31
   8  10  -8    0.20    0.40
  -8 -10   8    0.04    0.47
   7  10  -8    2.23    0.51
  -7 -10   8    1.27    0.50
   6  10  -8    0.66    0.39
  -6 -10   8    0.82    0.43
   5  10  -8    0.10    0.33
  -5 -10   8    0.18    0.37
   4  10  -8    3.81    0.47
   4  10  -8    3.79    0.51
  -4 -10   8    3.84    0.53
   3  10  -8    0.18    0.26
   3  10  -8    0.22    0.28
  -3 -10   8   -0.06    0.29
   2  10  -8    9.96    0.66
   2  10  -8    8.25    0.65
   1  10  -8    0.24    0.26
   1  10  -8    0.26    0.23
   0  10  -8    6.86    0.53
   0  10  -8    6.00    0.51
  -1  10  -8    0.11    0.24
  -1  10  -8   -0.01    0.24
  -1  10  -8   -0.11    0.22
  -2  10  -8    6.60    0.55
  -2  10  -8    5.91    0.52
  -3  10  -8    4.63    0.48
  -3  10  -8    4.24    0.44
  -4  10  -8    5.62    0.49
  -4  10  -8    5.93    0.54
  -5  10  -8    0.00    0.26
  -5  10  -8    0.12    0.29
  -6  10  -8    0.81    0.35
  -6  10  -8    0.86    0.31
  -7  10  -8    0.18    0.29
   8   9  -8   11.18    0.89
  -8  -9   8   10.95    0.95
   7   9  -8    0.75    0.38
  -7  -9   8    0.47    0.41
   6   9  -8    6.79    0.65
  -6  -9   8    6.36    0.67
   5   9  -8   -0.01    0.26
   5   9  -8   -0.01    0.28
  -5  -9   8    0.19    0.32
   4   9  -8   -0.34    0.24
   4   9  -8    0.02    0.25
  -4  -9   8    0.01    0.29
   3   9  -8    0.04    0.23
   3   9  -8    0.22    0.25
  -3  -9   8   -0.40    0.25
   2   9  -8    0.95    0.27
   2   9  -8    0.99    0.28
  -2  -9   8    1.12    0.31
   1   9  -8    0.14    0.20
   1   9  -8    0.21    0.22
   0   9  -8    3.12    0.37
   0   9  -8    3.14    0.34
  -1   9  -8    1.16    0.27
  -1   9  -8    1.22    0.28
  -1   9  -8    1.07    0.25
  -2   9  -8    1.60    0.31
  -2   9  -8    1.25    0.28
  -3   9  -8    5.85    0.52
  -3   9  -8    6.33    0.49
  -4   9  -8    0.48    0.25
  -4   9  -8    0.13    0.26
  -5   9  -8    8.90    0.66
  -5   9  -8    8.26    0.57
  -6   9  -8    0.13    0.24
  -6   9  -8   -0.22    0.28
  -7   9  -8    0.05    0.26
  -8   9  -8    0.18    0.28
   9   8  -8    1.68    0.46
  -9  -8   8    1.96    0.52
   8   8  -8    2.28    0.47
  -8  -8   8    1.43    0.47
   7   8  -8    1.07    0.37
  -7  -8   8    1.45    0.41
   6   8  -8    1.63    0.36
   6   8  -8    1.66    0.38
  -6  -8   8    0.95    0.38
   5   8  -8   -0.10    0.26
   5   8  -8   -0.11    0.24
  -5  -8   8   -0.08    0.29
   4   8  -8    0.33    0.23
   4   8  -8    0.71    0.28
  -4  -8   8    0.62    0.30
   3   8  -8   -0.06    0.22
   3   8  -8    0.08    0.19
  -3  -8   8    0.08    0.26
   2   8  -8   44.59    1.98
   2   8  -8   45.99    1.97
  -2  -8   8   45.45    1.99
   1   8  -8    0.30    0.21
   1   8  -8   -0.03    0.17
  -1  -8   8    0.18    0.22
   0   8  -8   19.86    0.96
   0   8  -8   19.73    0.95
  -1   8  -8   -0.04    0.18
  -1   8  -8   -0.39    0.18
  -1   8  -8    0.04    0.17
   1  -8   8   -0.04    0.16
  -2   8  -8    2.46    0.33
  -2   8  -8    2.66    0.30
  -3   8  -8    2.07    0.32
  -3   8  -8    1.89    0.28
  -4   8  -8   10.30    0.69
  -4   8  -8    9.98    0.58
  -5   8  -8    1.26    0.26
  -5   8  -8    1.66    0.35
  -6   8  -8    2.05    0.32
  -6   8  -8    1.60    0.28
  -7   8  -8    2.08    0.32
  -8   8  -8    0.74    0.29
 -10  -7   8    0.25    0.45
   9   7  -8    1.46    0.42
  -9  -7   8    1.69    0.50
   8   7  -8    2.85    0.47
  -8  -7   8    2.15    0.47
   7   7  -8   -0.16    0.27
   7   7  -8   -0.01    0.28
  -7  -7   8   -0.45    0.32
   6   7  -8    9.09    0.67
   6   7  -8    9.45    0.68
  -6  -7   8   10.26    0.76
   5   7  -8    0.04    0.23
   5   7  -8    0.11    0.23
  -5  -7   8    0.10    0.27
   4   7  -8    0.05    0.19
   4   7  -8    0.26    0.23
  -4  -7   8   -0.27    0.22
   3   7  -8   -0.03    0.20
   3   7  -8    0.09    0.18
  -3  -7   8    0.20    0.23
   2   7  -8    0.33    0.17
   2   7  -8    0.02    0.18
  -2  -7   8   -0.07    0.17
  -2  -7   8    0.33    0.21
   1   7  -8    0.05    0.17
   1   7  -8    0.06    0.15
  -1  -7   8    0.12    0.19
  -1  -7   8   -0.05    0.14
   0   7  -8   10.56    0.58
   0   7  -8    9.34    0.54
   0  -7   8   10.37    0.54
  -1   7  -8    1.83    0.25
  -1   7  -8    2.11    0.30
   1  -7   8    2.22    0.23
  -2   7  -8    0.21    0.20
  -2   7  -8   -0.12    0.16
  -3   7  -8    1.42    0.28
  -3   7  -8    0.87    0.21
  -4   7  -8    2.00    0.24
  -4   7  -8    0.95    0.27
  -5   7  -8   15.80    0.92
  -5   7  -8   15.62    0.76
  -5   7  -8   16.28    0.86
  -6   7  -8    0.47    0.25
  -6   7  -8    0.12    0.20
  -7   7  -8    1.29    0.31
  -7   7  -8    0.97    0.26
  -8   7  -8    0.84    0.29
 -10  -6   8    0.19    0.43
   9   6  -8    1.96    0.44
  -9  -6   8    1.16    0.42
   8   6  -8    0.35    0.31
  -8  -6   8    0.29    0.38
   7   6  -8    8.06    0.62
   7   6  -8    9.11    0.68
  -7  -6   8    6.78    0.65
   6   6  -8    1.02    0.30
   6   6  -8    1.08    0.28
  -6  -6   8    0.66    0.32
   5   6  -8    4.63    0.47
   5   6  -8    5.32    0.46
  -5  -6   8    4.42    0.46
   4   6  -8    0.09    0.18
   4   6  -8   -0.04    0.19
  -4  -6   8   -0.06    0.23
   3   6  -8   -0.16    0.17
   3   6  -8    0.17    0.17
   3   6  -8    0.34    0.16
  -3  -6   8    0.17    0.19
  -3  -6   8   -0.09    0.17
   2   6  -8   22.93    1.01
   2   6  -8   21.95    1.09
   2   6  -8   21.49    1.03
  -2  -6   8   21.16    1.03
  -2  -6   8   22.54    1.01
   1   6  -8    1.62    0.26
   1   6  -8    1.46    0.22
   1   6  -8    1.23    0.18
  -1  -6   8    1.55    0.23
  -1  -6   8    1.29    0.18
   0   6  -8    1.61    0.23
   0   6  -8    1.99    0.29
   0   6  -8    1.67    0.20
   0  -6   8    2.21    0.21
   0  -6   8    2.12    0.25
  -1   6  -8    0.48    0.19
  -1   6  -8    0.31    0.15
  -1   6  -8    0.61    0.24
   1  -6   8    0.19    0.13
  -2   6  -8    0.97    0.24
  -2   6  -8    1.32    0.20
   2  -6   8    1.28    0.18
  -3   6  -8    4.32    0.42
  -3   6  -8    4.23    0.32
  -4   6  -8   17.06    0.89
  -4   6  -8   18.06    0.94
  -4   6  -8   16.45    0.78
  -5   6  -8    0.24    0.17
  -5   6  -8    0.37    0.23
  -5   6  -8   -0.18    0.23
  -6   6  -8    7.31    0.46
  -6   6  -8    6.77    0.55
  -7   6  -8   -0.12    0.24
  -7   6  -8    0.21    0.23
  -8   6  -8    0.83    0.32
  -8   6  -8    1.00    0.29
 -11  -5   8    0.19    0.44
  10   5  -8    2.63    0.47
 -10  -5   8    2.13    0.50
   9   5  -8    0.13    0.31
  -9  -5   8    0.15    0.34
   8   5  -8    7.54    0.64
   8   5  -8    5.71    0.57
  -8  -5   8    6.67    0.63
   7   5  -8    0.13    0.25
   7   5  -8    0.19    0.24
  -7  -5   8    0.21    0.29
   6   5  -8   14.37    0.83
   6   5  -8   15.46    0.86
  -6  -5   8   15.24    0.89
   5   5  -8    1.33    0.28
   5   5  -8    2.28    0.24
   5   5  -8    2.58    0.31
  -5  -5   8    2.22    0.35
   4   5  -8   11.08    0.67
   4   5  -8   12.20    0.64
   4   5  -8   11.35    0.61
  -4  -5   8   11.11    0.64
  -4  -5   8   11.10    0.68
   3   5  -8    0.73    0.18
   3   5  -8    1.10    0.23
   3   5  -8    0.96    0.18
  -3  -5   8    0.70    0.22
  -3  -5   8    0.61    0.18
   2   5  -8   12.94    0.67
   2   5  -8   12.21    0.61
   2   5  -8   14.18    0.70
  -2  -5   8   11.58    0.61
  -2  -5   8   12.58    0.66
   1   5  -8    0.81    0.20
   1   5  -8    0.89    0.18
   1   5  -8    0.61    0.13
   1   5  -8    1.01    0.18
  -1  -5   8    0.78    0.14
  -1  -5   8    1.21    0.19
   0   5  -8   15.77    0.73
   0   5  -8   17.08    0.85
   0   5  -8   15.35    0.69
   0  -5   8   14.93    0.69
   0  -5   8   16.26    0.73
  -1   5  -8    0.46    0.20
  -1   5  -8    0.63    0.20
  -1   5  -8    0.70    0.15
  -1   5  -8    0.60    0.15
   1  -5   8    0.71    0.12
  -2   5  -8    0.63    0.22
  -2   5  -8    0.41    0.20
  -2   5  -8    0.55    0.14
   2  -5   8    0.34    0.12
  -3   5  -8    0.25    0.22
  -3   5  -8    0.05    0.11
  -3   5  -8    0.27    0.19
  -3   5  -8    0.14    0.19
   3  -5   8    0.14    0.15
  -4   5  -8    0.23    0.21
  -4   5  -8    0.21    0.20
  -4   5  -8    0.13    0.12
  -5   5  -8    7.38    0.54
  -5   5  -8    6.69    0.40
  -5   5  -8    7.97    0.58
  -6   5  -8    0.09    0.23
  -7   5  -8    2.52    0.39
  -8   5  -8   -0.10    0.28
  -9   5  -8    0.13    0.31
 -11  -4   8    4.22    0.60
  10   4  -8    1.07    0.38
 -10  -4   8    0.29    0.38
   9   4  -8    5.00    0.56
  -9  -4   8    2.81    0.53
   8   4  -8    0.34    0.29
   8   4  -8    0.39    0.26
  -8  -4   8   -0.16    0.29
   7   4  -8    0.27    0.24
   7   4  -8    0.06    0.24
  -7  -4   8    0.49    0.31
   6   4  -8    2.86    0.37
   6   4  -8    2.97    0.34
  -6  -4   8    3.09    0.40
   5   4  -8    1.55    0.25
   5   4  -8    1.80    0.29
   5   4  -8    1.72    0.21
  -5  -4   8    1.74    0.30
   4   4  -8    5.70    0.41
   4   4  -8    6.77    0.42
   4   4  -8    6.03    0.46
  -4  -4   8    6.62    0.43
  -4  -4   8    5.75    0.47
   3   4  -8   -0.16    0.14
   3   4  -8   -0.04    0.13
   3   4  -8   -0.15    0.11
  -3  -4   8   -0.18    0.15
  -3  -4   8    0.07    0.14
   2   4  -8   34.27    1.39
   2   4  -8   33.41    1.44
   2   4  -8   32.71    1.54
  -2  -4   8   32.53    1.43
  -2  -4   8   33.48    1.40
   1   4  -8    1.25    0.18
   1   4  -8    1.32    0.18
   1   4  -8    1.42    0.23
  -1  -4   8    1.21    0.18
   0   4  -8   11.99    0.70
   0   4  -8   13.16    0.60
   0   4  -8   11.62    0.58
   0  -4   8   12.55    0.58
  -1   4  -8    0.42    0.18
  -1   4  -8    0.34    0.18
  -1   4  -8    0.55    0.12
  -1   4  -8    0.50    0.12
  -2   4  -8   14.08    0.74
  -2   4  -8   14.68    0.80
  -2   4  -8   14.16    0.77
   2  -4   8   13.06    0.64
  -3   4  -8    0.73    0.25
  -3   4  -8    0.90    0.23
  -3   4  -8    0.65    0.21
   3  -4   8    0.85    0.17
  -4   4  -8    0.24    0.24
  -4   4  -8    0.14    0.21
  -4   4  -8    0.14    0.19
   4  -4   8    0.20    0.18
  -5   4  -8    0.18    0.24
  -5   4  -8    0.32    0.23
  -5   4  -8   -0.24    0.25
  -6   4  -8    6.29    0.56
  -7   4  -8    0.17    0.28
  -8   4  -8    0.75    0.34
  -9   4  -8    2.04    0.44
 -12  -3   8    0.50    0.47
 -11  -3   8    0.26    0.41
  10   3  -8    1.05    0.34
 -10  -3   8    0.84    0.39
   9   3  -8    0.08    0.26
   9   3  -8    0.30    0.29
  -9  -3   8   -0.17    0.31
   8   3  -8    3.71    0.45
   8   3  -8    4.85    0.49
  -8  -3   8    5.39    0.55
   7   3  -8    1.51    0.31
   7   3  -8    1.70    0.31
  -7  -3   8    1.52    0.34
  -7  -3   8    1.50    0.30
   6   3  -8   27.86    1.34
   6   3  -8   30.34    1.37
   6   3  -8   29.73    1.32
  -6  -3   8   27.08    1.37
   5   3  -8    0.28    0.18
   5   3  -8    0.00    0.16
   5   3  -8    0.14    0.13
  -5  -3   8   -0.15    0.19
  -5  -3   8    0.51    0.22
   4   3  -8   40.52    1.81
   4   3  -8   38.70    1.72
   4   3  -8   40.88    1.75
  -4  -3   8   41.34    1.73
  -4  -3   8   40.68    1.76
   3   3  -8    0.09    0.14
   3   3  -8    0.08    0.11
   3   3  -8   -0.09    0.15
  -3  -3   8   -0.07    0.13
  -3  -3   8   -0.20    0.14
   2   3  -8    0.73    0.11
   2   3  -8    1.13    0.17
   2   3  -8    0.93    0.19
   2   3  -8    0.90    0.18
  -2  -3   8    1.08    0.18
   1   3  -8    1.56    0.24
   1   3  -8    2.19    0.21
   1   3  -8    1.41    0.17
  -1  -3   8    2.04    0.19
   0   3  -8    9.19    0.46
   0   3  -8    8.78    0.44
   0   3  -8    9.87    0.57
   0  -3   8    8.91    0.43
  -1   3  -8    1.27    0.21
  -1   3  -8    0.46    0.19
  -1   3  -8    0.76    0.18
  -2   3  -8    6.46    0.47
  -2   3  -8    7.07    0.48
  -2   3  -8    7.06    0.52
  -3   3  -8    0.92    0.23
  -3   3  -8    0.68    0.23
  -3   3  -8    1.08    0.23
   3  -3   8    0.70    0.15
  -4   3  -8    5.93    0.50
  -4   3  -8    4.45    0.47
  -4   3  -8    6.03    0.49
   4  -3   8    5.75    0.40
  -5   3  -8    7.26    0.58
  -5   3  -8    5.86    0.54
  -6   3  -8    1.27    0.31
  -7   3  -8    5.98    0.58
  -8   3  -8    0.49    0.31
 -12  -2   8    0.01    0.44
  11   2  -8    4.01    0.54
 -11  -2   8    3.35    0.55
  10   2  -8    0.19    0.31
 -10  -2   8    0.80    0.39
   9   2  -8    0.13    0.27
   9   2  -8    0.14    0.27
  -9  -2   8    0.46    0.32
   8   2  -8    0.15    0.25
   8   2  -8   -0.06    0.23
  -8  -2   8    0.55    0.31
   7   2  -8    9.15    0.64
   7   2  -8    9.30    0.52
   7   2  -8    8.99    0.60
  -7  -2   8    8.47    0.64
  -7  -2   8    9.99    0.68
   6   2  -8    0.78    0.17
   6   2  -8    1.16    0.24
   6   2  -8    0.64    0.23
  -6  -2   8    0.72    0.25
  -6  -2   8    0.88    0.28
   5   2  -8   16.55    0.82
   5   2  -8   16.23    0.85
   5   2  -8   16.33    0.81
  -5  -2   8   16.40    0.86
   4   2  -8    3.49    0.34
   4   2  -8    3.83    0.30
   4   2  -8    3.20    0.29
  -4  -2   8    3.06    0.33
   3   2  -8    0.15    0.14
   3   2  -8    0.07    0.14
   3   2  -8    0.01    0.11
  -3  -2   8    0.01    0.15
   2   2  -8    2.47    0.23
   2   2  -8    2.23    0.27
   2   2  -8    1.95    0.23
  -2  -2   8    2.20    0.23
   1   2  -8    2.48    0.28
   1   2  -8    2.30    0.21
   1   2  -8    2.57    0.22
  -1  -2   8    2.13    0.19
   0   2  -8   15.36    0.83
   0   2  -8   15.84    0.66
   0   2  -8   15.07    0.66
   0   2  -8   14.60    0.78
  -1   2  -8    0.05    0.14
  -1   2  -8   -0.08    0.14
  -1   2  -8    0.12    0.16
  -2   2  -8    3.78    0.35
  -2   2  -8    3.57    0.38
  -2   2  -8    3.24    0.33
  -3   2  -8    0.49    0.20
  -3   2  -8    0.44    0.22
  -3   2  -8    0.09    0.18
   3  -2   8    0.17    0.12
  -5   2  -8    9.89    0.69
  -5   2  -8   10.77    0.72
   5  -2   8   11.58    0.80
  -6   2  -8    5.24    0.53
  -6   2  -8    5.34    0.52
  -7   2  -8   -0.11    0.25
  -8   2  -8    0.59    0.33
 -12  -1   8   -0.28    0.40
  11   1  -8    1.30    0.39
 -11  -1   8    1.08    0.43
  10   1  -8    4.04    0.52
 -10  -1   8    4.10    0.55
   9   1  -8    0.09    0.25
   9   1  -8    0.09    0.25
  -9  -1   8    0.05    0.30
   8   1  -8    6.39    0.53
   8   1  -8    6.62    0.58
  -8  -1   8    6.99    0.61
   7   1  -8    4.35    0.44
   7   1  -8    3.95    0.35
   7   1  -8    4.70    0.43
  -7  -1   8    3.57    0.43
  -7  -1   8    4.10    0.44
   6   1  -8    8.40    0.57
   6   1  -8    8.79    0.51
   6   1  -8    7.94    0.53
  -6  -1   8    8.87    0.59
  -6  -1   8    7.65    0.63
   5   1  -8    2.08    0.28
   5   1  -8    2.66    0.28
   5   1  -8    2.04    0.26
  -5  -1   8    1.87    0.32
  -5  -1   8    2.18    0.30
   4   1  -8   29.76    1.34
   4   1  -8   31.79    1.42
   4   1  -8   29.20    1.30
  -4  -1   8   30.41    1.61
  -4  -1   8   28.98    1.34
   3   1  -8    0.53    0.17
   3   1  -8    0.32    0.12
   3   1  -8    0.24    0.15
  -3  -1   8    0.86    0.24
  -3  -1   8    0.50    0.16
   2   1  -8   -0.02    0.08
   2   1  -8    0.14    0.14
   2   1  -8    0.19    0.13
  -2  -1   8   -0.04    0.17
  -2  -1   8    0.31    0.13
   1   1  -8    0.72    0.12
   1   1  -8    0.60    0.19
   1   1  -8    0.43    0.13
  -1  -1   8    0.54    0.21
  -1  -1   8    0.46    0.12
   0   1  -8    1.08    0.20
   0   1  -8    1.58    0.15
   0   1  -8    0.69    0.17
   0   1  -8    0.48    0.19
   0  -1   8    0.94    0.27
  -1   1  -8    2.30    0.26
  -1   1  -8    2.03    0.29
  -1   1  -8    2.18    0.26
   1  -1   8    2.85    0.40
  -2   1  -8   23.17    1.11
  -2   1  -8   22.97    1.15
  -2   1  -8   22.68    1.10
   2  -1   8   22.17    1.29
   2  -1   8   21.80    0.95
  -3   1  -8    1.81    0.29
  -3   1  -8    1.95    0.28
  -3   1  -8    1.57    0.29
   3  -1   8    0.94    0.17
   3  -1   8    1.48    0.33
  -4   1  -8    0.24    0.23
  -4   1  -8    0.43    0.22
   4  -1   8    0.24    0.17
   4  -1   8    0.54    0.28
  -5   1  -8    0.23    0.24
  -5   1  -8    0.13    0.24
   5  -1   8    0.81    0.30
  -6   1  -8    0.48    0.27
  -6   1  -8    0.21    0.28
  -7   1  -8    2.42    0.41
  -7   1  -8    2.24    0.41
  -8   1  -8    0.12    0.31
 -12   0   8    0.55    0.45
  11   0  -8    4.88    0.58
 -11   0   8    5.32    0.63
  10   0  -8    0.37    0.30
 -10   0   8   -0.07    0.33
   9   0  -8    0.31    0.28
   9   0  -8    0.46    0.28
  -9   0   8    0.16    0.32
   8   0  -8   -0.02    0.22
   8   0  -8   -0.13    0.21
   8   0  -8   -0.14    0.19
  -8   0   8   -0.02    0.34
  -8   0   8    0.24    0.28
   7   0  -8    4.76    0.39
   7   0  -8    3.88    0.41
   7   0  -8    4.52    0.47
  -7   0   8    4.80    0.47
  -7   0   8    4.18    0.49
   6   0  -8    0.85    0.22
   6   0  -8    0.88    0.23
   6   0  -8    1.10    0.23
  -6   0   8    1.01    0.27
  -6   0   8    0.55    0.28
   5   0  -8    0.02    0.16
   5   0  -8    0.15    0.17
   5   0  -8    0.05    0.15
  -5   0   8   -0.01    0.17
  -5   0   8    0.05    0.24
   4   0  -8    3.66    0.34
   4   0  -8    3.60    0.29
   4   0  -8    3.17    0.34
  -4   0   8    3.31    0.32
  -4   0   8    3.74    0.43
   3   0  -8    1.37    0.16
   3   0  -8    1.40    0.21
   3   0  -8    1.23    0.23
  -3   0   8    0.83    0.26
  -3   0   8    1.55    0.21
   2   0  -8    3.10    0.33
   2   0  -8    3.40    0.21
   2   0  -8    3.27    0.27
  -2   0   8    3.11    0.41
  -2   0   8    3.18    0.26
   1   0  -8    0.39    0.17
   1   0  -8    0.37    0.10
   1   0  -8    0.33    0.12
  -1   0   8    0.32    0.11
  -1   0   8    0.22    0.20
   0   0  -8  137.82    5.40
   0   0  -8  139.30    5.75
   0   0  -8  137.80    5.82
   0   0  -8  139.59    5.95
   0   0  -8  136.93    5.41
   0   0   8  138.36    6.66
  -1   0  -8    3.41    0.33
  -1   0  -8    3.50    0.37
  -1   0  -8    3.13    0.30
  -1   0  -8    2.93    0.23
   1   0   8    2.95    0.42
   1   0   8    3.22    0.22
  -2   0  -8    5.93    0.47
  -2   0  -8    5.69    0.47
  -2   0  -8    6.45    0.40
  -2   0  -8    6.30    0.46
   2   0   8    6.07    0.58
   2   0   8    7.12    0.36
  -3   0  -8    8.28    0.57
  -3   0  -8    9.11    0.60
  -3   0  -8    8.70    0.56
   3   0   8    7.83    0.69
   3   0   8    8.20    0.47
  -4   0  -8    0.72    0.25
  -5   0  -8    0.77    0.27
  -5   0  -8    1.54    0.32
   5   0   8    0.81    0.32
  -6   0  -8    3.45    0.45
  -6   0  -8    4.34    0.48
  -7   0  -8    0.08    0.28
  -8   0  -8    0.74    0.35
 -12   1   8    0.48    0.44
  11  -1  -8    0.66    0.36
 -11   1   8    0.44    0.40
  10  -1  -8    0.74    0.33
 -10   1   8    0.00    0.32
   9  -1  -8    0.09    0.26
   9  -1  -8   -0.07    0.25
  -9   1   8    0.25    0.31
   8  -1  -8    1.32    0.32
   8  -1  -8    2.01    0.35
  -8   1   8    1.05    0.32
  -8   1   8    1.72    0.46
   7  -1  -8   -0.13    0.19
   7  -1  -8    0.06    0.21
  -7   1   8   -0.08    0.34
  -7   1   8    0.67    0.25
   6  -1  -8    8.99    0.57
   6  -1  -8    9.25    0.61
  -6   1   8    8.50    0.75
  -6   1   8   11.01    0.63
   5  -1  -8    1.94    0.28
   5  -1  -8    2.53    0.32
  -5   1   8    2.78    0.31
  -5   1   8    2.40    0.40
   4  -1  -8   29.70    1.43
   4  -1  -8   29.32    1.32
  -4   1   8   30.91    1.63
  -4   1   8   28.24    1.30
   3  -1  -8    0.26    0.18
   3  -1  -8    0.04    0.11
   3  -1  -8    0.01    0.14
  -3   1   8    0.03    0.13
  -3   1   8   -0.15    0.22
   2  -1  -8    3.66    0.25
   2  -1  -8    3.71    0.30
   2  -1  -8    4.65    0.42
   2  -1  -8    3.39    0.28
  -2   1   8    4.06    0.30
  -2   1   8    3.95    0.46
   1  -1  -8    0.05    0.13
   1  -1  -8    0.05    0.11
   1  -1  -8    0.05    0.10
   1  -1  -8    0.02    0.10
   1  -1  -8    0.24    0.12
  -1   1   8    0.02    0.20
  -1   1   8    0.11    0.10
   0  -1  -8   88.33    3.59
   0  -1  -8   88.20    3.92
   0  -1  -8   88.16    3.52
   0  -1  -8   90.13    3.80
   0  -1  -8   89.03    3.76
   0  -1  -8   90.47    3.54
   0   1   8   90.39    4.40
   0   1   8   89.63    3.58
  -1  -1  -8    0.07    0.14
  -1  -1  -8    0.00    0.08
  -1  -1  -8   -0.04    0.09
  -1  -1  -8   -0.02    0.15
  -1  -1  -8    0.09    0.17
  -1  -1  -8    0.07    0.14
   1   1   8   -0.07    0.11
   1   1   8    0.08    0.24
  -2  -1  -8   12.36    0.75
  -2  -1  -8   12.04    0.66
  -2  -1  -8   13.69    0.75
  -2  -1  -8   13.66    0.72
   2   1   8   12.54    0.63
   2   1   8   12.93    0.90
  -3  -1  -8    3.80    0.41
  -3  -1  -8    3.92    0.41
   3   1   8    3.65    0.32
   3   1   8    5.19    0.55
  -4  -1  -8    4.58    0.45
  -4  -1  -8    4.82    0.47
   4   1   8    4.34    0.53
  -5  -1  -8    1.48    0.34
  -5  -1  -8    1.20    0.32
   5   1   8    1.82    0.39
  -6  -1  -8    0.08    0.28
  -6  -1  -8    0.13    0.28
  -7  -1  -8    3.40    0.48
 -12   2   8    0.37    0.43
  11  -2  -8    5.33    0.61
 -11   2   8    4.04    0.57
  10  -2  -8    0.24    0.29
 -10   2   8    0.44    0.35
   9  -2  -8    3.00    0.43
   9  -2  -8    2.74    0.42
  -9   2   8    2.53    0.43
   8  -2  -8   -0.39    0.22
   8  -2  -8    0.16    0.24
  -8   2   8   -0.14    0.26
   7  -2  -8   -0.04    0.21
   7  -2  -8   -0.15    0.19
  -7   2   8   -0.25    0.39
  -7   2   8    0.28    0.24
   6  -2  -8    1.11    0.25
  -6   2   8    1.70    0.43
  -6   2   8    1.15    0.27
   5  -2  -8   11.13    0.66
  -5   2   8   11.30    0.65
  -5   2   8   12.09    0.88
   4  -2  -8    0.56    0.23
   4  -2  -8    0.22    0.17
   4  -2  -8    0.40    0.15
  -4   2   8    0.13    0.30
  -4   2   8    0.24    0.17
   3  -2  -8    3.56    0.31
   3  -2  -8    2.69    0.34
   3  -2  -8    2.76    0.25
  -3   2   8    2.67    0.45
  -3   2   8    2.95    0.28
   2  -2  -8    3.41    0.26
   2  -2  -8    2.60    0.27
   2  -2  -8    3.14    0.26
   2  -2  -8    2.97    0.36
  -2   2   8    3.16    0.46
  -2   2   8    2.94    0.26
   1  -2  -8    1.00    0.25
   1  -2  -8    1.01    0.16
   1  -2  -8    1.21    0.18
   1  -2  -8    1.32    0.19
   1  -2  -8    0.89    0.19
  -1   2   8    0.90    0.32
  -1   2   8    0.96    0.15
  -1   2   8    0.94    0.16
   0  -2  -8    0.16    0.13
   0  -2  -8    0.14    0.19
   0  -2  -8    0.19    0.16
   0  -2  -8    0.11    0.12
   0  -2  -8    0.18    0.14
   0   2   8   -0.04    0.26
   0   2   8    0.46    0.13
  -1  -2  -8   -0.01    0.16
  -1  -2  -8    0.05    0.18
  -1  -2  -8   -0.14    0.14
  -1  -2  -8   -0.07    0.12
  -1  -2  -8   -0.15    0.14
   1   2   8   -0.19    0.12
   1   2   8   -0.16    0.26
  -2  -2  -8   21.54    1.03
  -2  -2  -8   21.33    0.91
  -2  -2  -8   19.16    1.05
  -2  -2  -8   21.72    1.00
  -2  -2  -8   19.75    1.08
   2   2   8   20.33    1.26
   2   2   8   20.73    0.96
  -3  -2  -8   -0.09    0.19
  -3  -2  -8    0.30    0.13
  -3  -2  -8   -0.07    0.19
   3   2   8    0.15    0.18
   3   2   8    0.28    0.32
  -4  -2  -8    4.34    0.45
  -4  -2  -8    5.32    0.51
  -4  -2  -8    5.41    0.35
   4   2   8    4.82    0.57
  -5  -2  -8    0.32    0.26
  -5  -2  -8    0.14    0.19
  -5  -2  -8    0.02    0.26
  -6  -2  -8    0.78    0.31
  -6  -2  -8    0.58    0.22
  -7  -2  -8    0.32    0.32
 -12   3   8    0.74    0.46
  11  -3  -8    1.00    0.38
 -11   3   8    0.77    0.42
  10  -3  -8    2.76    0.47
 -10   3   8    2.70    0.46
   9  -3  -8    5.03    0.54
   9  -3  -8    5.77    0.58
  -9   3   8    5.46    0.57
   8  -3  -8    7.42    0.60
   8  -3  -8    6.97    0.59
  -8   3   8    7.99    0.63
   7  -3  -8    0.62    0.26
  -7   3   8    0.58    0.25
   6  -3  -8    9.71    0.63
  -6   3   8    9.54    0.62
  -6   3   8    9.43    0.88
   5  -3  -8    1.62    0.28
  -5   3   8    1.71    0.27
  -5   3   8    1.65    0.44
   4  -3  -8   13.84    0.74
   4  -3  -8   13.84    0.69
  -4   3   8   13.35    0.99
  -4   3   8   13.23    0.71
   3  -3  -8    3.21    0.33
   3  -3  -8    2.90    0.27
   3  -3  -8    2.84    0.39
  -3   3   8    3.50    0.31
  -3   3   8    3.40    0.52
   2  -3  -8    9.12    0.53
   2  -3  -8    9.44    0.54
   2  -3  -8    9.08    0.64
   2  -3  -8    9.12    0.51
  -2   3   8    9.77    0.82
  -2   3   8    9.23    0.51
   1  -3  -8    0.03    0.20
   1  -3  -8    0.03    0.14
   1  -3  -8    0.12    0.15
   1  -3  -8    0.29    0.13
   1  -3  -8    0.18    0.16
  -1   3   8   -0.30    0.28
  -1   3   8    0.15    0.14
   0  -3  -8    6.71    0.47
   0  -3  -8    5.93    0.41
   0  -3  -8    6.03    0.41
   0  -3  -8    6.54    0.41
   0  -3  -8    6.03    0.51
   0   3   8    5.86    0.65
   0   3   8    6.01    0.39
  -1  -3  -8    0.07    0.17
  -1  -3  -8   -0.09    0.19
  -1  -3  -8    0.00    0.17
  -1  -3  -8    0.03    0.14
  -1  -3  -8   -0.02    0.15
   1   3   8    0.23    0.34
   1   3   8    0.17    0.16
  -2  -3  -8    0.58    0.23
  -2  -3  -8    0.48    0.16
  -2  -3  -8    0.52    0.23
   2   3   8    0.22    0.35
   2   3   8    0.59    0.20
  -3  -3  -8    1.02    0.28
  -3  -3  -8    1.31    0.29
  -3  -3  -8    1.03    0.20
   3   3   8    0.85    0.24
   3   3   8    1.30    0.41
  -4  -3  -8    2.25    0.36
  -4  -3  -8    1.60    0.24
  -4  -3  -8    1.49    0.30
   4   3   8    1.54    0.46
  -5  -3  -8    1.19    0.23
  -5  -3  -8    1.04    0.24
  -5  -3  -8    0.99    0.32
  -5  -3  -8    1.37    0.34
  -6  -3  -8   -0.20    0.21
  -6  -3  -8   -0.07    0.27
 -12   4   8   -0.27    0.40
  11  -4  -8    4.02    0.58
 -11   4   8    3.65    0.58
  10  -4  -8    0.59    0.35
 -10   4   8    0.51    0.38
   9  -4  -8   10.04    0.76
  -9   4   8    9.87    0.76
   8  -4  -8    0.49    0.29
  -8   4   8    0.28    0.29
   7  -4  -8    0.25    0.24
  -7   4   8    0.22    0.26
   6  -4  -8    0.04    0.21
  -6   4   8    0.19    0.22
   5  -4  -8    0.19    0.20
  -5   4   8   -0.12    0.19
   4  -4  -8    0.60    0.22
  -4   4   8    0.51    0.21
  -4   4   8    0.91    0.44
   3  -4  -8    3.38    0.35
  -3   4   8    3.58    0.57
  -3   4   8    3.61    0.34
   2  -4  -8    0.18    0.12
   2  -4  -8   -0.02    0.23
   2  -4  -8    0.22    0.15
   2  -4  -8    0.19    0.17
   2  -4  -8    0.20    0.16
  -2   4   8    0.24    0.38
  -2   4   8   -0.08    0.15
   1  -4  -8    0.67    0.15
   1  -4  -8    0.57    0.19
   1  -4  -8    0.33    0.26
   1  -4  -8    0.57    0.18
  -1   4   8    0.51    0.19
  -1   4   8    0.75    0.40
   0  -4  -8    4.69    0.49
   0  -4  -8    5.12    0.43
   0  -4  -8    5.41    0.37
   0  -4  -8    4.63    0.38
   0   4   8    3.59    0.34
   0   4   8    5.48    0.65
  -1  -4  -8   -0.05    0.15
  -1  -4  -8   -0.15    0.21
  -1  -4  -8    0.09    0.19
   1   4   8   -0.36    0.35
   1   4   8   -0.01    0.18
  -2  -4  -8    8.50    0.52
  -2  -4  -8   10.30    0.65
  -2  -4  -8    9.01    0.62
   2   4   8    9.36    0.58
   2   4   8    8.20    0.84
  -3  -4  -8    0.10    0.24
  -3  -4  -8    0.38    0.19
  -3  -4  -8    0.26    0.23
   3   4   8   -0.73    0.38
   3   4   8    0.07    0.22
  -4  -4  -8    3.94    0.44
  -4  -4  -8    3.40    0.34
  -4  -4  -8    4.23    0.48
  -5  -4  -8    0.12    0.22
  -5  -4  -8    0.39    0.29
  -6  -4  -8    3.06    0.37
  -6  -4  -8    2.83    0.47
  -6  -4  -8    3.00    0.36
 -12   5   8    0.04    0.44
  11  -5  -8    0.10    0.36
 -11   5   8    0.52    0.43
  10  -5  -8    0.42    0.34
 -10   5   8    0.45    0.38
   9  -5  -8   11.71    0.82
  -9   5   8   10.47    0.80
   8  -5  -8    0.38    0.30
  -8   5   8    0.62    0.32
   7  -5  -8   -0.08    0.24
  -7   5   8    0.36    0.27
   6  -5  -8    5.65    0.53
  -6   5   8    6.75    0.52
   5  -5  -8    3.51    0.42
  -5   5   8    3.56    0.39
   4  -5  -8   13.91    0.80
  -4   5   8   14.76    0.78
   3  -5  -8    0.06    0.19
   2  -5  -8   14.67    0.80
   2  -5  -8   16.27    0.78
   2  -5  -8   12.25    0.91
  -2   5   8   15.60    0.78
   1  -5  -8    1.43    0.24
   1  -5  -8    1.12    0.32
   1  -5  -8    0.78    0.23
  -1   5   8    1.19    0.24
   0  -5  -8    0.55    0.22
   0  -5  -8    0.19    0.26
   0  -5  -8    0.08    0.20
   0   5   8    0.06    0.19
  -1  -5  -8   -0.11    0.19
  -1  -5  -8    0.05    0.24
  -1  -5  -8    0.02    0.18
   1   5   8   -0.13    0.20
  -2  -5  -8    4.03    0.43
  -2  -5  -8    2.84    0.32
  -2  -5  -8    3.11    0.41
   2   5   8    3.02    0.37
  -3  -5  -8    0.23    0.26
  -3  -5  -8    0.06    0.20
  -3  -5  -8    0.47    0.25
  -4  -5  -8    2.27    0.36
  -4  -5  -8    1.73    0.30
  -4  -5  -8    2.05    0.38
  -5  -5  -8   -0.10    0.27
  -5  -5  -8   -0.09    0.23
 -12   6   8    0.94    0.48
  11  -6  -8    2.72    0.52
 -11   6   8    2.94    0.54
  10  -6  -8    1.95    0.47
   9  -6  -8    5.01    0.59
  -9   6   8    4.65    0.56
   8  -6  -8   -0.02    0.28
  -8   6   8    0.22    0.32
   7  -6  -8    8.58    0.69
  -7   6   8   10.10    0.69
   6  -6  -8    0.33    0.27
  -6   6   8    0.45    0.28
   5  -6  -8    0.60    0.26
  -5   6   8    1.25    0.30
   4  -6  -8    7.23    0.55
   3  -6  -8    8.16    0.58
   2  -6  -8    0.85    0.26
   2  -6  -8    1.04    0.22
   2  -6  -8    0.39    0.33
  -2   6   8    0.92    0.26
   1  -6  -8    0.03    0.21
   1  -6  -8   -0.07    0.27
   1  -6  -8    0.03    0.17
  -1   6   8   -0.07    0.20
   0  -6  -8    2.32    0.32
   0  -6  -8    1.54    0.28
   0  -6  -8    1.51    0.37
   0   6   8    1.65    0.31
  -1  -6  -8    1.16    0.33
  -1  -6  -8    1.76    0.31
  -1  -6  -8    0.95    0.27
   1   6   8    1.10    0.29
  -2  -6  -8    4.96    0.48
  -2  -6  -8    5.54    0.54
  -2  -6  -8    4.48    0.43
   2   6   8    5.22    0.49
  -3  -6  -8    0.13    0.25
  -3  -6  -8    0.25    0.27
  -3  -6  -8    0.15    0.22
  -4  -6  -8    1.68    0.37
  -4  -6  -8    1.42    0.31
  -5  -6  -8    0.27    0.27
  -5  -6  -8    0.01    0.30
  11  -7  -8    0.58    0.43
 -11   7   8    0.26    0.44
  10  -7  -8    0.31    0.38
 -10   7   8    0.25    0.40
   9  -7  -8    0.88    0.40
  -9   7   8    0.29    0.38
   8  -7  -8    2.58    0.46
  -8   7   8    2.95    0.47
   7  -7  -8    3.82    0.50
  -7   7   8    3.73    0.49
   6  -7  -8    0.84    0.30
  -6   7   8    0.93    0.30
   5  -7  -8    2.69    0.40
   4  -7  -8    1.47    0.31
   3  -7  -8    1.88    0.34
  -3   7   8    1.49    0.32
   2  -7  -8    5.26    0.51
   2  -7  -8    6.90    0.48
  -2   7   8    5.34    0.50
   1  -7  -8    0.84    0.27
   1  -7  -8    1.31    0.27
   1  -7  -8    0.23    0.32
  -1   7   8    1.54    0.31
   0  -7  -8    0.97    0.34
   0  -7  -8    0.81    0.26
   0  -7  -8    0.73    0.26
   0   7   8    0.76    0.29
  -1  -7  -8   -0.09    0.23
  -1  -7  -8    0.35    0.29
  -1  -7  -8   -0.04    0.22
   1   7   8   -0.20    0.26
  -2  -7  -8    0.49    0.27
  -2  -7  -8    0.70    0.30
  -2  -7  -8    0.50    0.26
  -3  -7  -8   -0.06    0.25
  -3  -7  -8    0.10    0.28
  -4  -7  -8    4.62    0.48
  -4  -7  -8    5.46    0.59
  11  -8  -8    0.45    0.43
 -11   8   8    0.26    0.45
  10  -8  -8    0.97    0.44
 -10   8   8    1.55    0.46
   9  -8  -8    4.71    0.60
  -9   8   8    3.18    0.53
   8  -8  -8    0.33    0.33
  -8   8   8    0.48    0.35
   7  -8  -8    1.29    0.38
   6  -8  -8   -0.01    0.27
   5  -8  -8    0.45    0.28
   4  -8  -8    0.09    0.25
   3  -8  -8    0.37    0.27
  -3   8   8    0.43    0.29
   2  -8  -8   -0.12    0.25
  -2   8   8   -0.01    0.25
   1  -8  -8   -0.33    0.32
   1  -8  -8   -0.20    0.24
  -1   8   8    0.50    0.29
   0  -8  -8    0.61    0.25
   0  -8  -8    0.22    0.26
   0  -8  -8    0.24    0.33
  -1  -8  -8   -0.02    0.30
  -1  -8  -8    0.29    0.27
  -1  -8  -8    0.19    0.26
  -2  -8  -8    1.38    0.34
  -2  -8  -8    2.15    0.41
  -2  -8  -8    1.79    0.36
  -3  -8  -8    0.34    0.30
  -3  -8  -8    0.60    0.32
  10  -9  -8    0.01    0.40
 -10   9   8    0.37    0.43
   9  -9  -8   -0.23    0.34
   8  -9  -8   -0.06    0.35
   7  -9  -8    1.38    0.41
   6  -9  -8    0.54    0.34
   5  -9  -8    0.59    0.31
   4  -9  -8    3.35    0.46
   3  -9  -8    1.57    0.37
   2  -9  -8    6.75    0.61
   1  -9  -8   -0.21    0.34
   1  -9  -8    0.22    0.29
   0  -9  -8    4.92    0.52
   0  -9  -8    6.01    0.69
  -1  -9  -8   -0.35    0.31
  -1  -9  -8   -0.45    0.28
  -2  -9  -8    0.83    0.34
   9 -10  -8    3.53    0.59
   8 -10  -8    1.03    0.43
   7 -10  -8    1.84    0.45
   6 -10  -8    0.42    0.34
   5 -10  -8    2.46    0.43
   4 -10  -8   -0.06    0.30
   3 -10  -8    5.22    0.58
   2 -10  -8   -0.19    0.30
   1 -10  -8   -0.72    0.34
   1 -10  -8    0.22    0.32
   0 -10  -8    0.31    0.39
   0 -10  -8   -0.18    0.31
   7 -11  -8   -0.30    0.33
   6 -11  -8    1.50    0.44
   5 -11  -8    0.09    0.34
   4 -11  -8    1.65    0.44
   3 -11  -8    0.52    0.38
   2 -11  -8    3.40    0.51
   1  14  -9    7.09    0.74
   0  14  -9   -0.57    0.38
  -1  14  -9    0.76    0.42
  -2  14  -9    0.01    0.37
   4  13  -9    0.05    0.41
   3  13  -9    3.28    0.55
   2  13  -9   -0.29    0.35
   1  13  -9    0.28    0.37
   0  13  -9    0.15    0.35
  -1  13  -9   -0.15    0.34
  -2  13  -9    0.32    0.35
  -2  13  -9    0.06    0.33
  -3  13  -9    1.36    0.39
  -3  13  -9    1.35    0.40
  -4  13  -9    0.78    0.39
  -4  13  -9    0.95    0.39
   5  12  -9    7.24    0.77
   4  12  -9    0.50    0.40
   3  12  -9    6.26    0.66
   2  12  -9    0.28    0.36
   1  12  -9   14.18    0.90
   0  12  -9    0.20    0.28
   0  12  -9   -0.18    0.30
  -1  12  -9    3.59    0.49
  -1  12  -9    3.72    0.46
  -2  12  -9    0.23    0.31
  -2  12  -9    0.19    0.33
  -3  12  -9    0.85    0.36
  -3  12  -9    0.38    0.33
  -4  12  -9    0.48    0.33
  -4  12  -9    0.68    0.35
  -5  12  -9    0.56    0.36
  -5  12  -9    0.70    0.33
   7  11  -9    0.63    0.44
   6  11  -9    0.33    0.40
   5  11  -9    0.48    0.38
   4  11  -9    0.26    0.34
   3  11  -9    1.50    0.37
   3  11  -9    1.29    0.37
   2  11  -9    0.88    0.31
   2  11  -9    0.78    0.34
   1  11  -9    1.11    0.31
   1  11  -9    0.74    0.34
   0  11  -9    0.82    0.32
  -1  11  -9    2.11    0.38
  -1  11  -9    2.49    0.40
  -2  11  -9    2.92    0.41
  -2  11  -9    2.49    0.40
  -3  11  -9    0.65    0.33
  -3  11  -9    0.35    0.30
  -4  11  -9   -0.30    0.28
  -4  11  -9    0.27    0.31
  -5  11  -9    1.85    0.41
  -5  11  -9    1.94    0.38
  -6  11  -9    7.47    0.61
  -6  11  -9    6.60    0.65
   8  10  -9    0.73    0.45
  -8 -10   9    0.46    0.49
   7  10  -9    6.29    0.68
  -7 -10   9    6.18    0.73
   6  10  -9    0.21    0.35
  -6 -10   9    0.12    0.41
   5  10  -9    6.75    0.68
   4  10  -9    0.49    0.32
   4  10  -9    0.50    0.30
   3  10  -9    0.51    0.31
   3  10  -9    0.61    0.30
   2  10  -9    0.65    0.29
   2  10  -9   -0.22    0.23
   1  10  -9    3.44    0.40
   1  10  -9    4.15    0.45
   0  10  -9    1.36    0.32
   0  10  -9    1.51    0.30
  -1  10  -9    9.35    0.65
  -1  10  -9   10.60    0.70
  -2  10  -9    0.09    0.25
  -2  10  -9    0.05    0.26
  -3  10  -9    0.36    0.30
  -3  10  -9    0.41    0.27
  -4  10  -9    1.01    0.33
  -4  10  -9    1.40    0.33
  -5  10  -9    1.29    0.37
  -5  10  -9    1.44    0.32
  -6  10  -9    2.25    0.36
  -6  10  -9    0.89    0.37
  -7  10  -9   -0.20    0.27
   8   9  -9    1.01    0.42
  -8  -9   9    0.41    0.44
   7   9  -9    0.93    0.38
  -7  -9   9    0.65    0.44
   6   9  -9    2.90    0.48
  -6  -9   9    4.19    0.55
   5   9  -9   10.13    0.73
   5   9  -9   10.47    0.76
  -5  -9   9   10.97    0.80
   4   9  -9    0.09    0.28
   4   9  -9    0.27    0.27
  -4  -9   9    0.62    0.32
   3   9  -9   -0.06    0.23
   3   9  -9   -0.08    0.25
   2   9  -9    0.18    0.22
   2   9  -9    0.28    0.25
   1   9  -9    6.49    0.53
   1   9  -9    6.49    0.48
   0   9  -9    1.12    0.25
   0   9  -9    0.96    0.27
  -1   9  -9    0.49    0.26
  -1   9  -9    0.23    0.23
  -2   9  -9    1.81    0.31
  -2   9  -9    2.10    0.35
  -3   9  -9    3.95    0.39
  -3   9  -9    3.54    0.45
  -4   9  -9    4.39    0.40
  -4   9  -9    4.20    0.48
  -5   9  -9    3.87    0.47
  -5   9  -9    3.26    0.37
  -6   9  -9    0.61    0.34
  -6   9  -9    0.39    0.26
  -7   9  -9    0.56    0.28
   9   8  -9    1.31    0.43
  -9  -8   9    0.88    0.49
   8   8  -9    0.25    0.34
  -8  -8   9    0.10    0.40
   7   8  -9    4.10    0.52
  -7  -8   9    3.50    0.54
   6   8  -9    0.02    0.28
   6   8  -9    0.18    0.28
  -6  -8   9   -0.36    0.30
   5   8  -9    4.66    0.47
   5   8  -9    4.09    0.48
  -5  -8   9    3.51    0.48
   4   8  -9    0.29    0.26
   4   8  -9    0.45    0.24
  -4  -8   9   -0.12    0.26
   3   8  -9    3.38    0.40
   3   8  -9    2.87    0.34
  -3  -8   9    2.29    0.37
   2   8  -9   -0.01    0.18
   2   8  -9   -0.06    0.22
   1   8  -9   25.80    1.18
   1   8  -9   24.33    1.15
   0   8  -9    0.16    0.18
   0   8  -9    0.21    0.21
  -1   8  -9    7.19    0.53
  -1   8  -9    5.81    0.46
  -2   8  -9    0.39    0.21
  -2   8  -9    0.33    0.25
  -3   8  -9    3.19    0.33
  -3   8  -9    3.52    0.42
  -4   8  -9    0.78    0.23
  -4   8  -9    1.21    0.32
  -5   8  -9   -0.04    0.28
  -5   8  -9   -0.15    0.20
  -6   8  -9    6.36    0.47
  -6   8  -9    6.08    0.59
  -7   8  -9    0.08    0.24
  10   7  -9    1.36    0.47
 -10  -7   9    1.23    0.49
  -9  -7   9    1.96    0.51
   8   7  -9    0.25    0.32
  -8  -7   9    0.18    0.38
   7   7  -9    1.04    0.34
   7   7  -9    1.26    0.36
  -7  -7   9    1.80    0.43
   6   7  -9    0.82    0.30
   6   7  -9    1.64    0.36
  -6  -7   9    1.01    0.37
   5   7  -9    2.33    0.38
   5   7  -9    1.52    0.30
  -5  -7   9    1.71    0.37
   4   7  -9    0.35    0.22
   4   7  -9    0.59    0.25
  -4  -7   9    0.46    0.27
   3   7  -9    0.07    0.21
   3   7  -9   -0.03    0.18
  -3  -7   9   -0.26    0.22
   2   7  -9    0.06    0.16
   2   7  -9   -0.05    0.18
  -2  -7   9   -0.09    0.17
   1   7  -9    6.33    0.48
   1   7  -9    7.26    0.43
  -1  -7   9    7.29    0.44
   0   7  -9    0.90    0.19
   0   7  -9    1.12    0.22
  -1   7  -9    1.75    0.24
  -1   7  -9    1.87    0.30
  -2   7  -9    2.60    0.36
  -2   7  -9    2.35    0.27
  -3   7  -9   -0.18    0.16
  -3   7  -9   -0.14    0.22
  -4   7  -9    0.29    0.18
  -4   7  -9    0.36    0.26
  -5   7  -9    4.21    0.42
  -5   7  -9    4.17    0.46
  -5   7  -9    4.08    0.33
  -6   7  -9    1.46    0.25
  -6   7  -9    1.92    0.34
  -7   7  -9    2.43    0.31
  -7   7  -9    1.90    0.37
  10   6  -9    3.66    0.56
 -10  -6   9    2.18    0.54
   9   6  -9    1.47    0.41
  -9  -6   9    0.79    0.44
   8   6  -9    0.47    0.32
  -8  -6   9    0.73    0.37
   7   6  -9   11.33    0.75
   7   6  -9   11.03    0.78
  -7  -6   9   11.45    0.83
   6   6  -9    0.59    0.29
   6   6  -9    0.18    0.23
  -6  -6   9    0.32    0.31
   5   6  -9   15.69    0.80
   5   6  -9   14.65    0.83
   5   6  -9   16.04    0.88
  -5  -6   9   14.96    0.89
   4   6  -9    1.33    0.23
   4   6  -9    0.89    0.26
   4   6  -9    0.39    0.20
  -4  -6   9    0.41    0.26
   3   6  -9    0.76    0.19
   3   6  -9    0.82    0.21
   3   6  -9    0.28    0.20
  -3  -6   9    0.58    0.20
  -3  -6   9    0.70    0.23
   2   6  -9    0.23    0.18
   2   6  -9    0.16    0.18
   2   6  -9    0.19    0.15
  -2  -6   9    0.24    0.16
  -2  -6   9    0.08    0.19
   1   6  -9   25.23    1.17
   1   6  -9   26.59    1.13
   1   6  -9   27.60    1.30
  -1  -6   9   25.36    1.13
   0   6  -9    0.22    0.22
   0   6  -9    0.26    0.17
   0  -6   9    0.22    0.13
  -1   6  -9   21.35    0.96
  -1   6  -9   21.70    1.12
  -1   6  -9   21.73    1.10
  -2   6  -9    0.52    0.26
  -2   6  -9    0.13    0.15
  -2   6  -9    0.25    0.22
  -3   6  -9    0.63    0.17
  -3   6  -9    1.32    0.29
  -4   6  -9    3.83    0.42
  -4   6  -9    3.25    0.27
  -4   6  -9    2.95    0.35
  -5   6  -9    0.04    0.23
  -5   6  -9    0.15    0.16
  -5   6  -9    0.23    0.26
  -6   6  -9    8.74    0.65
  -6   6  -9    9.17    0.51
  -7   6  -9    0.01    0.25
  -8   6  -9    2.82    0.43
 -11  -5   9    1.61    0.50
  10   5  -9    1.34    0.41
 -10  -5   9    0.77    0.44
   9   5  -9    1.61    0.41
  -9  -5   9    1.18    0.42
   8   5  -9    1.42    0.36
   8   5  -9    1.04    0.33
  -8  -5   9    2.17    0.42
   7   5  -9    2.40    0.38
   7   5  -9    3.61    0.45
  -7  -5   9    2.57    0.43
   6   5  -9    7.20    0.59
   6   5  -9    5.97    0.52
  -6  -5   9    7.12    0.60
   5   5  -9    0.07    0.21
   5   5  -9    0.52    0.18
   5   5  -9    0.37    0.20
  -5  -5   9    0.08    0.25
   4   5  -9    1.07    0.21
   4   5  -9    0.94    0.25
   4   5  -9    1.18    0.21
  -4  -5   9    0.99    0.23
  -4  -5   9    1.21    0.27
   3   5  -9    4.74    0.38
   3   5  -9    5.02    0.41
  -3  -5   9    3.01    0.30
  -3  -5   9    3.45    0.36
   2   5  -9    0.07    0.12
   2   5  -9   -0.01    0.16
   2   5  -9   -0.06    0.16
  -2  -5   9   -0.01    0.13
  -2  -5   9   -0.13    0.15
   1   5  -9    0.64    0.21
   1   5  -9    0.61    0.17
   1   5  -9    0.53    0.11
   0   5  -9    3.80    0.38
   0   5  -9    3.91    0.31
  -1   5  -9    0.51    0.21
  -1   5  -9    0.94    0.25
  -1   5  -9    0.79    0.16
  -2   5  -9    2.38    0.31
  -2   5  -9    2.13    0.20
  -2   5  -9    2.05    0.33
  -3   5  -9    0.26    0.20
  -3   5  -9   -0.02    0.23
  -3   5  -9    0.16    0.22
  -4   5  -9    0.08    0.27
  -4   5  -9    0.24    0.22
  -4   5  -9    0.21    0.24
  -5   5  -9    1.07    0.31
  -5   5  -9    1.21    0.30
  -6   5  -9    0.42    0.27
  -7   5  -9    0.50    0.30
  -8   5  -9    0.85    0.34
  11   4  -9    0.58    0.38
 -11  -4   9    0.35    0.44
  10   4  -9    8.60    0.76
 -10  -4   9    6.56    0.72
   9   4  -9    1.57    0.39
  -9  -4   9    1.89    0.45
   8   4  -9    1.40    0.34
   8   4  -9    0.41    0.27
  -8  -4   9    0.75    0.34
   7   4  -9    5.14    0.49
   7   4  -9    4.79    0.50
  -7  -4   9    5.14    0.54
   6   4  -9    0.04    0.21
   6   4  -9   -0.03    0.15
   6   4  -9    0.14    0.20
  -6  -4   9    0.07    0.26
   5   4  -9   18.02    0.91
   5   4  -9   16.98    0.93
   5   4  -9   18.51    0.92
  -5  -4   9   19.21    0.97
   4   4  -9    0.48    0.17
   4   4  -9    0.06    0.15
   4   4  -9    0.12    0.18
  -4  -4   9    0.43    0.19
  -4  -4   9    0.09    0.20
   3   4  -9   39.97    1.63
   3   4  -9   38.21    1.78
   3   4  -9   39.22    1.69
  -3  -4   9   38.51    1.64
  -3  -4   9   37.37    1.67
   2   4  -9    0.00    0.15
   2   4  -9    0.17    0.17
   2   4  -9    0.19    0.10
   2   4  -9    0.14    0.16
  -2  -4   9    0.19    0.16
   1   4  -9    1.08    0.23
   1   4  -9    0.89    0.18
  -1  -4   9    1.18    0.17
   0   4  -9    0.72    0.15
   0   4  -9    0.73    0.15
   0   4  -9    0.57    0.21
  -1   4  -9    9.91    0.48
  -1   4  -9    9.72    0.47
  -1   4  -9   10.16    0.64
  -1   4  -9    9.88    0.62
  -2   4  -9    0.12    0.17
  -2   4  -9   -0.02    0.19
  -2   4  -9   -0.16    0.18
  -3   4  -9   13.23    0.75
  -3   4  -9   12.42    0.76
  -3   4  -9   13.07    0.80
  -4   4  -9    7.16    0.58
  -4   4  -9    7.11    0.55
  -4   4  -9    8.12    0.62
  -5   4  -9    1.82    0.34
  -5   4  -9    1.51    0.32
  -5   4  -9    1.41    0.35
  -6   4  -9    1.81    0.36
  -7   4  -9    0.28    0.29
  -8   4  -9    0.76    0.36
 -12  -3   9    1.41    0.51
  11   3  -9    0.85    0.38
 -11  -3   9    1.75    0.51
  10   3  -9    0.83    0.35
 -10  -3   9    0.74    0.39
   9   3  -9    1.55    0.36
   9   3  -9    1.73    0.39
  -9  -3   9    2.11    0.42
   8   3  -9    1.05    0.32
   8   3  -9    0.95    0.30
  -8  -3   9    1.21    0.36
   7   3  -9    3.30    0.39
   7   3  -9    3.32    0.42
  -7  -3   9    3.44    0.46
  -7  -3   9    3.32    0.42
   6   3  -9    4.25    0.40
   6   3  -9    3.44    0.32
   6   3  -9    4.44    0.45
  -6  -3   9    4.07    0.45
   5   3  -9    0.52    0.21
   5   3  -9    0.21    0.17
   5   3  -9    0.44    0.17
  -5  -3   9    0.14    0.19
  -5  -3   9   -0.15    0.20
   4   3  -9    4.86    0.42
   4   3  -9    4.15    0.36
   4   3  -9    5.12    0.35
  -4  -3   9    4.76    0.42
   3   3  -9   12.49    0.60
   3   3  -9   14.29    0.72
   3   3  -9   12.50    0.68
  -3  -3   9   11.55    0.67
   2   3  -9    0.85    0.17
   2   3  -9    0.54    0.17
   2   3  -9    0.76    0.20
  -2  -3   9    0.83    0.17
   1   3  -9    0.00    0.12
   1   3  -9    0.07    0.16
   1   3  -9   -0.05    0.12
  -1  -3   9    0.10    0.11
   0   3  -9    0.03    0.16
   0   3  -9   -0.05    0.16
   0   3  -9   -0.07    0.10
   0   3  -9    0.07    0.11
  -1   3  -9    0.01    0.17
  -1   3  -9    0.03    0.15
  -1   3  -9    0.44    0.20
  -2   3  -9    6.34    0.53
  -2   3  -9    7.16    0.51
  -2   3  -9    6.48    0.48
  -3   3  -9    1.32    0.25
  -3   3  -9    0.56    0.26
  -3   3  -9    0.74    0.24
  -4   3  -9    1.34    0.30
  -4   3  -9    1.29    0.31
  -4   3  -9    1.67    0.31
  -5   3  -9   -0.22    0.25
  -5   3  -9    0.35    0.26
  -6   3  -9    0.26    0.28
  -6   3  -9    0.36    0.32
  -7   3  -9    1.32    0.36
  -8   3  -9    0.65    0.35
 -12  -2   9   -0.11    0.44
  11   2  -9   -0.21    0.32
 -11  -2   9    0.09    0.38
  10   2  -9    6.57    0.64
 -10  -2   9    5.02    0.58
   9   2  -9    0.53    0.30
   9   2  -9    0.48    0.30
  -9  -2   9    0.40    0.35
   8   2  -9    3.10    0.40
   8   2  -9    3.77    0.44
  -8  -2   9    2.96    0.45
   7   2  -9    3.87    0.34
   7   2  -9    3.99    0.41
   7   2  -9    3.77    0.44
  -7  -2   9    3.78    0.45
  -7  -2   9    3.75    0.45
   6   2  -9    0.03    0.20
   6   2  -9    0.02    0.18
   6   2  -9    0.28    0.16
  -6  -2   9    0.35    0.24
  -6  -2   9    0.21    0.24
   5   2  -9   33.23    1.46
   5   2  -9   31.69    1.49
   5   2  -9   31.74    1.42
  -5  -2   9   30.55    1.45
  -5  -2   9   32.89    1.73
   4   2  -9    1.84    0.25
   4   2  -9    1.33    0.20
   4   2  -9    1.88    0.27
  -4  -2   9    2.00    0.28
   3   2  -9   33.19    1.54
   3   2  -9   32.66    1.43
  -3  -2   9   31.89    1.42
   2   2  -9    2.04    0.28
   2   2  -9    1.93    0.23
  -2  -2   9    1.34    0.20
   1   2  -9   12.12    0.60
   1   2  -9   13.35    0.73
   1   2  -9   12.74    0.59
  -1  -2   9   12.07    0.58
   0   2  -9    0.19    0.18
   0   2  -9    0.11    0.16
   0   2  -9    0.18    0.10
  -1   2  -9   12.60    0.76
  -1   2  -9   13.16    0.71
  -1   2  -9   12.52    0.71
  -2   2  -9    3.20    0.39
  -2   2  -9    3.00    0.34
  -2   2  -9    3.13    0.34
  -3   2  -9   32.50    1.60
  -3   2  -9   33.38    1.61
  -3   2  -9   36.47    1.68
  -4   2  -9    0.56    0.26
  -4   2  -9    0.98    0.28
  -4   2  -9    0.46    0.24
   4  -2   9    0.81    0.31
  -5   2  -9    3.84    0.45
  -5   2  -9    2.82    0.41
   5  -2   9    2.75    0.45
  -6   2  -9    0.93    0.32
  -6   2  -9    0.57    0.32
  -7   2  -9    0.43    0.31
  -8   2  -9    5.85    0.62
 -12  -1   9   -0.16    0.42
  11   1  -9    1.19    0.42
 -11  -1   9    1.09    0.44
  10   1  -9    0.63    0.32
 -10  -1   9    1.03    0.39
   9   1  -9    4.92    0.52
   9   1  -9    6.03    0.58
  -9  -1   9    4.80    0.57
   8   1  -9    0.55    0.20
   8   1  -9    0.60    0.27
   8   1  -9    0.12    0.22
  -8  -1   9    0.50    0.30
  -8  -1   9    0.31    0.31
   7   1  -9    1.77    0.26
   7   1  -9    2.00    0.34
   7   1  -9    1.60    0.29
  -7  -1   9    1.72    0.34
  -7  -1   9    1.78    0.37
   6   1  -9    0.91    0.21
   6   1  -9    1.04    0.26
   6   1  -9    0.56    0.21
  -6  -1   9    1.03    0.27
  -6  -1   9    0.91    0.32
   5   1  -9    4.13    0.36
   5   1  -9    4.99    0.43
   5   1  -9    4.69    0.38
  -5  -1   9    4.25    0.41
  -5  -1   9    4.40    0.50
   4   1  -9   13.72    0.73
   4   1  -9   12.12    0.69
   4   1  -9   12.93    0.64
  -4  -1   9   12.07    0.84
  -4  -1   9   13.15    0.71
   3   1  -9    8.08    0.43
   3   1  -9    7.19    0.49
   3   1  -9    9.72    0.56
   3   1  -9    9.17    0.50
  -3  -1   9    8.24    0.66
  -3  -1   9    8.01    0.51
   2   1  -9   -0.03    0.06
   2   1  -9    0.25    0.15
   2   1  -9    0.05    0.16
  -2  -1   9    0.11    0.21
  -2  -1   9    0.21    0.13
   1   1  -9    0.69    0.16
   1   1  -9    0.56    0.20
   1   1  -9    0.86    0.13
  -1  -1   9    0.82    0.27
  -1  -1   9    0.62    0.13
   0   1  -9    0.16    0.15
   0   1  -9   -0.01    0.17
   0   1  -9   -0.20    0.14
   0  -1   9   -0.26    0.21
  -1   1  -9    6.09    0.46
  -1   1  -9    6.50    0.50
  -1   1  -9    5.42    0.44
   1  -1   9    6.13    0.58
  -2   1  -9    0.79    0.23
  -2   1  -9    1.11    0.23
  -2   1  -9    1.16    0.26
   2  -1   9    0.34    0.26
  -3   1  -9    4.91    0.49
  -3   1  -9    5.27    0.48
  -3   1  -9    4.51    0.43
   3  -1   9    5.06    0.57
  -4   1  -9    9.63    0.69
  -4   1  -9    9.50    0.68
   4  -1   9   10.06    0.78
  -5   1  -9   -0.01    0.26
  -5   1  -9    0.06    0.25
   5  -1   9    0.54    0.31
  -6   1  -9   -0.44    0.25
  -6   1  -9   -0.36    0.28
  -7   1  -9    0.36    0.33
  -7   1  -9    0.20    0.31
 -12   0   9    1.40    0.51
  11   0  -9    0.00    0.32
 -11   0   9    0.57    0.40
  10   0  -9   10.61    0.79
 -10   0   9   10.21    0.80
   9   0  -9    2.15    0.38
   9   0  -9    1.69    0.38
  -9   0   9    1.70    0.40
   8   0  -9    4.94    0.42
   8   0  -9    4.64    0.50
   8   0  -9    4.55    0.46
  -8   0   9    5.76    0.54
  -8   0   9    4.13    0.56
   7   0  -9    1.43    0.31
   7   0  -9    2.39    0.31
   7   0  -9    1.11    0.27
  -7   0   9    2.09    0.34
  -7   0   9    1.58    0.40
   6   0  -9    0.82    0.24
   6   0  -9    1.34    0.24
   6   0  -9    1.19    0.25
  -6   0   9    0.67    0.32
  -6   0   9    0.62    0.25
   5   0  -9    1.06    0.25
   5   0  -9    1.48    0.27
   5   0  -9    1.24    0.22
  -5   0   9    1.50    0.35
  -5   0   9    1.80    0.28
   4   0  -9    0.33    0.19
   4   0  -9    0.51    0.19
   4   0  -9    0.60    0.16
  -4   0   9    0.37    0.19
  -4   0   9    0.55    0.27
   3   0  -9   29.41    1.23
   3   0  -9   30.93    1.24
   3   0  -9   28.69    1.26
   3   0  -9   27.96    1.41
   3   0  -9   29.04    1.29
  -3   0   9   27.09    1.27
  -3   0   9   30.18    1.62
   2   0  -9   -0.02    0.05
   2   0  -9    0.35    0.18
   2   0  -9    0.29    0.14
  -2   0   9    0.18    0.14
  -2   0   9    0.05    0.22
   1   0  -9   10.45    0.65
   1   0  -9   10.65    0.50
   1   0  -9   10.22    0.52
  -1   0   9    9.93    0.77
   0   0  -9    0.86    0.20
   0   0  -9    1.02    0.12
   0   0  -9    0.74    0.19
   0   0  -9    1.08    0.14
   0   0  -9    1.22    0.26
   0   0   9    1.11    0.31
  -1   0  -9    8.28    0.55
  -1   0  -9    9.06    0.60
  -1   0  -9    8.86    0.54
   1   0   9    7.65    0.70
  -2   0  -9   -0.02    0.17
  -2   0  -9    0.31    0.20
  -2   0  -9    0.40    0.22
   2   0   9    0.10    0.27
  -3   0  -9   12.85    0.75
  -3   0  -9   12.47    0.77
  -3   0  -9   13.11    0.79
   3   0   9   12.06    0.91
  -4   0  -9    0.92    0.29
  -4   0  -9    1.37    0.33
   4   0   9    1.52    0.36
  -5   0  -9    2.65    0.41
  -5   0  -9    3.33    0.44
   5   0   9    3.97    0.52
  -6   0  -9    0.28    0.31
  -6   0  -9    0.32    0.28
  -7   0  -9    0.64    0.33
  12  -1  -9    0.07    0.36
 -12   1   9    0.66    0.44
  11  -1  -9    0.08    0.33
 -11   1   9    0.08    0.38
  10  -1  -9    3.19    0.49
 -10   1   9    3.77    0.53
   9  -1  -9    2.00    0.39
   9  -1  -9    1.90    0.36
  -9   1   9    1.52    0.39
   8  -1  -9    5.69    0.55
   8  -1  -9    5.90    0.49
   8  -1  -9    5.42    0.52
  -8   1   9    6.09    0.56
  -8   1   9    4.66    0.63
   7  -1  -9    5.99    0.51
   7  -1  -9    6.94    0.53
   7  -1  -9    6.96    0.57
  -7   1   9    7.67    0.58
  -7   1   9    7.57    0.72
   6  -1  -9    0.49    0.22
   6  -1  -9    0.24    0.21
   6  -1  -9    0.06    0.19
  -6   1   9   -0.07    0.33
  -6   1   9    0.05    0.21
   5  -1  -9    0.19    0.16
   5  -1  -9   -0.01    0.17
   5  -1  -9    0.13    0.21
  -5   1   9    0.24    0.19
  -5   1   9    0.15    0.30
   4  -1  -9    4.64    0.45
   4  -1  -9    5.18    0.36
   4  -1  -9    5.11    0.41
  -4   1   9    5.08    0.57
  -4   1   9    5.00    0.40
   3  -1  -9    9.72    0.62
   3  -1  -9    9.32    0.47
   3  -1  -9    8.62    0.53
  -3   1   9    8.68    0.75
  -3   1   9    9.66    0.53
   2  -1  -9   -0.14    0.17
   2  -1  -9    0.04    0.08
   2  -1  -9    0.26    0.11
   2  -1  -9    0.20    0.14
  -2   1   9   -0.18    0.24
  -2   1   9    0.01    0.13
   1  -1  -9    0.21    0.14
   1  -1  -9    0.56    0.22
   1  -1  -9    0.21    0.15
   1  -1  -9    0.48    0.18
   1  -1  -9    0.28    0.11
  -1   1   9    0.27    0.27
   0  -1  -9    0.10    0.12
   0  -1  -9    0.01    0.14
   0  -1  -9    0.11    0.12
   0  -1  -9    0.24    0.20
   0  -1  -9    0.05    0.16
   0   1   9    0.03    0.27
   0   1   9    0.06    0.10
  -1  -1  -9    2.97    0.38
  -1  -1  -9    3.67    0.34
  -1  -1  -9    3.76    0.38
   1   1   9    3.71    0.50
   1   1   9    3.46    0.26
  -2  -1  -9   -0.01    0.19
  -2  -1  -9    0.41    0.19
  -2  -1  -9    0.11    0.20
   2   1   9   -0.11    0.29
  -3  -1  -9    2.88    0.38
  -3  -1  -9    2.68    0.38
   3   1   9    3.35    0.48
  -4  -1  -9    0.39    0.28
  -4  -1  -9    0.12    0.24
   4   1   9    0.84    0.33
  -5  -1  -9   -0.06    0.25
  -5  -1  -9    0.28    0.29
  -6  -1  -9    0.07    0.29
  -6  -1  -9    0.12    0.30
  12  -2  -9    0.53    0.40
 -12   2   9    0.57    0.43
  11  -2  -9    0.11    0.33
 -11   2   9    0.52    0.42
  10  -2  -9    3.03    0.50
 -10   2   9    3.36    0.51
   9  -2  -9   -0.20    0.27
   9  -2  -9   -0.04    0.28
  -9   2   9    0.25    0.31
   8  -2  -9    3.20    0.45
   8  -2  -9    3.99    0.45
  -8   2   9    4.25    0.65
  -8   2   9    4.00    0.47
   7  -2  -9    0.73    0.26
   7  -2  -9    0.65    0.27
  -7   2   9    0.97    0.29
  -7   2   9    0.59    0.43
   6  -2  -9    0.24    0.21
  -6   2   9    0.23    0.21
  -6   2   9   -0.46    0.36
   5  -2  -9    9.90    0.63
   5  -2  -9   10.92    0.69
  -5   2   9   10.40    0.85
  -5   2   9    9.71    0.62
   4  -2  -9    1.24    0.24
   4  -2  -9    1.53    0.30
   4  -2  -9    1.32    0.21
  -4   2   9    1.25    0.23
  -4   2   9    1.84    0.43
   3  -2  -9   24.03    1.26
   3  -2  -9   25.72    1.13
   3  -2  -9   24.28    1.07
  -3   2   9   24.07    1.45
  -3   2   9   23.61    1.09
   2  -2  -9    0.07    0.20
   2  -2  -9    0.10    0.13
   2  -2  -9   -0.03    0.15
  -2   2   9   -0.01    0.28
   1  -2  -9    3.83    0.36
   1  -2  -9    3.63    0.32
   1  -2  -9    4.10    0.32
   1  -2  -9    3.69    0.30
   1  -2  -9    3.16    0.40
  -1   2   9    4.00    0.29
  -1   2   9    3.46    0.50
   0  -2  -9    0.03    0.13
   0  -2  -9   -0.15    0.15
   0  -2  -9    0.15    0.15
   0  -2  -9    0.04    0.15
   0  -2  -9    0.15    0.20
   0   2   9    0.27    0.31
   0   2   9    0.03    0.13
  -1  -2  -9    6.57    0.52
  -1  -2  -9    6.86    0.46
  -1  -2  -9    5.58    0.37
  -1  -2  -9    6.47    0.49
   1   2   9    5.83    0.65
   1   2   9    5.89    0.39
  -2  -2  -9    0.22    0.13
  -2  -2  -9   -0.09    0.20
  -2  -2  -9    0.34    0.21
  -2  -2  -9   -0.23    0.17
   2   2   9   -0.14    0.30
  -3  -2  -9    8.27    0.62
  -3  -2  -9    8.18    0.61
   3   2   9    8.37    0.76
  -4  -2  -9    0.46    0.26
  -4  -2  -9    0.60    0.28
   4   2   9    0.05    0.37
  -5  -2  -9    0.96    0.33
  -5  -2  -9    1.06    0.32
  -6  -2  -9    0.44    0.31
  12  -3  -9    0.60    0.41
 -12   3   9    0.20    0.45
  11  -3  -9    3.70    0.56
 -11   3   9    3.29    0.55
  10  -3  -9    6.23    0.65
 -10   3   9    5.84    0.64
   9  -3  -9    0.94    0.35
   9  -3  -9    1.34    0.38
  -9   3   9    1.86    0.41
   8  -3  -9    1.42    0.35
   8  -3  -9    1.44    0.34
  -8   3   9    1.28    0.35
   7  -3  -9    1.41    0.32
  -7   3   9    1.70    0.54
  -7   3   9    1.07    0.32
   6  -3  -9    1.98    0.33
  -6   3   9    1.87    0.32
  -6   3   9    2.49    0.55
   5  -3  -9    3.83    0.40
  -5   3   9    3.49    0.37
  -5   3   9    3.53    0.58
   4  -3  -9    3.86    0.47
   4  -3  -9    3.87    0.39
   4  -3  -9    4.37    0.36
  -4   3   9    4.50    0.62
  -4   3   9    4.42    0.39
   3  -3  -9    0.77    0.22
   3  -3  -9    0.38    0.25
   3  -3  -9    0.24    0.16
  -3   3   9    0.72    0.41
   2  -3  -9    0.18    0.14
   2  -3  -9    0.33    0.18
   2  -3  -9    0.22    0.15
   2  -3  -9    0.33    0.16
   2  -3  -9    0.17    0.24
  -2   3   9    0.37    0.36
   1  -3  -9    3.85    0.33
   1  -3  -9    4.46    0.35
   1  -3  -9    5.03    0.41
   1  -3  -9    3.74    0.45
   1  -3  -9    3.58    0.33
  -1   3   9    5.39    0.65
  -1   3   9    4.11    0.33
   0  -3  -9   -0.09    0.14
   0  -3  -9    0.36    0.24
   0  -3  -9    0.09    0.16
   0  -3  -9    0.00    0.16
   0   3   9    0.19    0.37
  -1  -3  -9    0.34    0.22
  -1  -3  -9    0.33    0.22
  -1  -3  -9    0.35    0.16
  -1  -3  -9    0.18    0.18
   1   3   9   -0.33    0.34
   1   3   9    0.20    0.17
  -2  -3  -9    1.18    0.29
  -2  -3  -9    1.18    0.29
  -2  -3  -9    0.86    0.19
   2   3   9    0.54    0.40
  -3  -3  -9    2.53    0.26
  -3  -3  -9    2.42    0.36
  -3  -3  -9    2.53    0.38
   3   3   9    2.70    0.55
  -4  -3  -9    2.63    0.40
  -4  -3  -9    2.97    0.41
  -4  -3  -9    2.65    0.27
   4   3   9    2.40    0.56
  -5  -3  -9   -0.26    0.27
  -5  -3  -9    0.03    0.27
  12  -4  -9    1.33    0.46
 -12   4   9    1.11    0.49
  11  -4  -9   -0.28    0.35
 -11   4   9    0.37    0.41
  10  -4  -9    2.50    0.48
 -10   4   9    2.28    0.49
   9  -4  -9   -0.24    0.28
   9  -4  -9    0.18    0.29
  -9   4   9    0.34    0.35
   8  -4  -9    4.90    0.55
  -8   4   9    4.88    0.53
   7  -4  -9    0.65    0.28
  -7   4   9    0.11    0.26
   6  -4  -9    0.83    0.27
   5  -4  -9    0.79    0.24
  -5   4   9    0.65    0.25
  -5   4   9    0.32    0.46
   4  -4  -9    0.74    0.25
  -4   4   9    1.05    0.48
   3  -4  -9   12.80    0.72
   3  -4  -9   11.65    0.83
  -3   4   9   13.72    1.03
   2  -4  -9    0.74    0.31
   2  -4  -9    1.34    0.19
   2  -4  -9    1.11    0.22
   2  -4  -9    0.96    0.23
  -2   4   9    0.91    0.22
  -2   4   9    0.37    0.41
   1  -4  -9    6.06    0.46
   1  -4  -9    7.04    0.48
   1  -4  -9    6.84    0.64
   1  -4  -9    6.16    0.43
  -1   4   9    6.39    0.44
  -1   4   9    6.74    0.76
   0  -4  -9   -0.11    0.23
   0  -4  -9    0.30    0.19
   0  -4  -9    0.20    0.20
   0  -4  -9    0.04    0.16
   0   4   9   -0.08    0.37
   0   4   9   -0.04    0.18
  -1  -4  -9    2.16    0.28
  -1  -4  -9    3.00    0.37
  -1  -4  -9    2.68    0.39
   1   4   9    2.80    0.56
  -2  -4  -9    0.29    0.24
  -2  -4  -9   -0.09    0.17
  -2  -4  -9   -0.29    0.20
   2   4   9   -0.12    0.40
  -3  -4  -9    7.82    0.50
  -3  -4  -9    8.66    0.63
  -3  -4  -9    8.04    0.63
   3   4   9    6.15    0.80
  -4  -4  -9    0.33    0.26
  -4  -4  -9    0.06    0.20
  -4  -4  -9    0.20    0.27
  -5  -4  -9    2.39    0.31
  -5  -4  -9    3.31    0.47
  12  -5  -9    0.12    0.41
 -12   5   9   -0.01    0.46
  11  -5  -9    3.29    0.57
 -11   5   9    3.28    0.57
  10  -5  -9    0.75    0.39
 -10   5   9    0.47    0.41
   9  -5  -9    2.73    0.47
  -9   5   9    2.49    0.46
   8  -5  -9    2.04    0.40
  -8   5   9    0.86    0.35
   7  -5  -9    2.58    0.41
  -7   5   9    2.55    0.40
   6  -5  -9    0.79    0.29
  -6   5   9    1.25    0.31
   5  -5  -9    5.88    0.52
   4  -5  -9    5.32    0.49
   3  -5  -9    2.16    0.33
   3  -5  -9    1.99    0.42
  -3   5   9    1.52    0.55
   2  -5  -9    2.07    0.31
   2  -5  -9    2.20    0.27
   2  -5  -9    1.72    0.39
  -2   5   9    2.10    0.57
  -2   5   9    2.09    0.30
   1  -5  -9   10.71    0.67
   1  -5  -9   13.30    0.70
   1  -5  -9   10.26    0.79
  -1   5   9   10.58    1.03
  -1   5   9   12.23    0.67
   0  -5  -9    0.31    0.22
   0  -5  -9    0.15    0.20
   0  -5  -9    0.53    0.28
   0   5   9    0.02    0.44
   0   5   9   -0.39    0.19
  -1  -5  -9    2.58    0.37
  -1  -5  -9    2.79    0.42
  -1  -5  -9    2.51    0.32
  -2  -5  -9    0.00    0.20
  -2  -5  -9   -0.11    0.23
  -2  -5  -9    0.01    0.23
  -3  -5  -9    0.20    0.22
  -3  -5  -9    0.89    0.30
  -3  -5  -9    0.31    0.27
  -4  -5  -9    0.69    0.25
  -4  -5  -9    0.79    0.32
  -5  -5  -9    0.22    0.24
  11  -6  -9   -0.03    0.38
 -11   6   9   -0.28    0.40
  10  -6  -9    0.44    0.37
 -10   6   9    0.36    0.42
   9  -6  -9   -0.36    0.29
  -9   6   9    0.33    0.36
   8  -6  -9    1.36    0.40
  -8   6   9    2.26    0.43
   7  -6  -9    1.15    0.33
   6  -6  -9   18.64    1.05
   5  -6  -9   -0.10    0.23
   4  -6  -9    0.22    0.24
   3  -6  -9    3.16    0.50
   3  -6  -9    3.67    0.40
   2  -6  -9    0.06    0.18
   2  -6  -9   -0.15    0.21
   2  -6  -9   -0.19    0.28
  -2   6   9    0.43    0.23
   1  -6  -9    5.80    0.46
   1  -6  -9    4.77    0.47
   1  -6  -9    4.39    0.56
  -1   6   9    5.53    0.47
   0  -6  -9    0.13    0.22
   0  -6  -9    0.34    0.28
   0  -6  -9    0.28    0.23
   0   6   9    0.05    0.23
  -1  -6  -9    1.78    0.33
  -1  -6  -9    2.03    0.32
  -1  -6  -9    2.32    0.42
  -2  -6  -9    0.24    0.27
  -2  -6  -9    0.00    0.23
  -2  -6  -9    0.15    0.27
  -3  -6  -9    0.57    0.30
  -3  -6  -9    1.26    0.34
  -3  -6  -9    0.35    0.26
  -4  -6  -9    0.28    0.32
  -4  -6  -9    0.26    0.25
  11  -7  -9    1.78    0.51
 -11   7   9    1.53    0.51
  10  -7  -9   -0.17    0.35
 -10   7   9    0.35    0.43
   9  -7  -9    0.09    0.36
   8  -7  -9    5.75    0.64
   7  -7  -9    4.53    0.56
   6  -7  -9    0.34    0.29
   5  -7  -9    2.76    0.41
   4  -7  -9    0.17    0.25
   3  -7  -9    0.40    0.26
   2  -7  -9    0.36    0.35
   2  -7  -9    0.98    0.30
  -2   7   9    1.45    0.32
   1  -7  -9    3.55    0.38
   1  -7  -9    2.74    0.49
   1  -7  -9    3.02    0.41
  -1   7   9    2.85    0.40
   0  -7  -9    0.11    0.30
   0  -7  -9   -0.20    0.24
   0  -7  -9    0.10    0.23
  -1  -7  -9    0.97    0.31
  -1  -7  -9    0.28    0.30
  -1  -7  -9    0.88    0.29
  -2  -7  -9    1.07    0.33
  -2  -7  -9    0.68    0.33
  -2  -7  -9    0.19    0.27
  -3  -7  -9    0.53    0.32
  -3  -7  -9    0.76    0.30
  10  -8  -9    0.30    0.40
   9  -8  -9    0.00    0.36
   8  -8  -9    9.46    0.82
   7  -8  -9    0.15    0.32
   6  -8  -9   -0.42    0.26
   5  -8  -9    0.47    0.31
   4  -8  -9    0.01    0.25
   3  -8  -9    3.04    0.43
  -3   8   9    2.73    0.42
   2  -8  -9    0.45    0.30
   2  -8  -9   -0.74    0.31
  -2   8   9   -0.04    0.29
   1  -8  -9    4.57    0.50
   1  -8  -9    3.45    0.55
   0  -8  -9   -0.54    0.25
   0  -8  -9    0.03    0.32
  -1  -8  -9    3.91    0.47
  -1  -8  -9    3.37    0.52
  -1  -8  -9    2.74    0.42
  -2  -8  -9    0.52    0.32
  -2  -8  -9   -0.17    0.28
   9  -9  -9    1.61    0.46
   8  -9  -9    0.40    0.37
   7  -9  -9    0.26    0.37
   6  -9  -9   -0.09    0.31
   5  -9  -9    1.42    0.39
   4  -9  -9    0.80    0.34
   3  -9  -9    0.05    0.30
   2  -9  -9   -0.06    0.29
   2  -9  -9    0.12    0.38
   1  -9  -9    0.40    0.33
   1  -9  -9    0.41    0.37
   0  -9  -9    0.91    0.40
   0  -9  -9    1.24    0.37
  -1  -9  -9    2.78    0.44
   8 -10  -9    0.28    0.40
   7 -10  -9    0.62    0.39
   6 -10  -9    0.39    0.37
   5 -10  -9    1.42    0.40
   4 -10  -9    0.01    0.33
   3 -10  -9    0.35    0.34
   2 -10  -9    0.98    0.37
   2 -10  -9    0.14    0.40
   1 -10  -9    3.91    0.62
   1 -10  -9    2.95    0.48
   3  13 -10   -0.27    0.38
   2  13 -10    2.56    0.51
   1  13 -10    0.51    0.37
   0  13 -10    4.95    0.53
   0  13 -10    3.78    0.53
  -1  13 -10    0.41    0.38
  -1  13 -10    0.77    0.35
  -2  13 -10    1.22    0.41
  -2  13 -10    2.63    0.46
  -3  13 -10    0.83    0.39
  -3  13 -10    1.11    0.40
   5  12 -10    0.65    0.44
   4  12 -10    5.73    0.66
   3  12 -10   -0.34    0.35
   2  12 -10    0.02    0.33
   1  12 -10    0.57    0.35
   0  12 -10    1.42    0.39
   0  12 -10    1.98    0.40
  -1  12 -10    0.27    0.31
  -1  12 -10   -0.13    0.32
  -2  12 -10    0.05    0.32
  -2  12 -10    0.25    0.32
  -3  12 -10    0.26    0.33
  -3  12 -10    0.34    0.33
  -4  12 -10   -0.03    0.33
  -4  12 -10    0.42    0.35
  -5  12 -10    1.06    0.38
  -5  12 -10    1.06    0.40
   6  11 -10    1.43    0.50
   5  11 -10   -0.38    0.35
   4  11 -10    1.50    0.44
   3  11 -10   -0.03    0.32
   2  11 -10    4.76    0.54
   1  11 -10   -0.07    0.29
   0  11 -10    1.88    0.37
   0  11 -10    1.75    0.37
  -1  11 -10    0.33    0.31
  -1  11 -10    0.38    0.30
  -2  11 -10    7.58    0.62
  -2  11 -10    8.54    0.67
  -3  11 -10    3.19    0.46
  -3  11 -10    2.48    0.40
  -4  11 -10    1.78    0.39
  -4  11 -10    1.62    0.37
  -5  11 -10    0.14    0.35
  -5  11 -10    1.59    0.35
  -6  11 -10    1.41    0.43
  -6  11 -10    0.91    0.34
   7  10 -10   -0.11    0.38
   6  10 -10    5.12    0.60
   5  10 -10    0.61    0.36
   4  10 -10    5.79    0.57
   4  10 -10    6.69    0.65
   3  10 -10   -0.11    0.30
   2  10 -10    3.76    0.47
   1  10 -10   -0.06    0.26
   0  10 -10    1.86    0.35
  -1  10 -10    4.45    0.45
  -1  10 -10    4.11    0.48
  -2  10 -10    2.82    0.38
  -2  10 -10    2.47    0.40
  -3  10 -10   -0.27    0.29
  -3  10 -10    0.10    0.27
  -4  10 -10    0.98    0.36
  -4  10 -10    1.39    0.31
  -5  10 -10    1.38    0.39
  -5  10 -10    1.04    0.30
  -6  10 -10    0.09    0.27
  -6  10 -10    0.09    0.35
   8   9 -10    0.03    0.39
   7   9 -10    0.99    0.41
   6   9 -10    1.81    0.43
   5   9 -10    0.56    0.33
   5   9 -10    0.13    0.28
   4   9 -10    9.28    0.64
   4   9 -10    8.34    0.66
   3   9 -10    0.55    0.29
   3   9 -10    0.22    0.25
   2   9 -10    0.30    0.27
   1   9 -10    0.01    0.24
   0   9 -10   13.96    0.79
  -1   9 -10    1.85    0.31
  -1   9 -10    2.06    0.37
  -2   9 -10   12.22    0.77
  -2   9 -10   10.64    0.66
  -3   9 -10    1.28    0.28
  -3   9 -10    0.54    0.31
  -4   9 -10   -0.04    0.29
  -4   9 -10    0.14    0.24
  -5   9 -10   -0.33    0.23
  -5   9 -10   -0.05    0.30
  -6   9 -10   -0.01    0.32
  -6   9 -10    0.18    0.25
   9   8 -10    0.01    0.37
  -9  -8  10    0.23    0.45
   8   8 -10    2.60    0.51
  -8  -8  10    3.69    0.59
   7   8 -10   -0.07    0.31
  -7  -8  10    0.54    0.40
   6   8 -10    6.31    0.61
   6   8 -10    5.76    0.58
   5   8 -10    0.05    0.28
   5   8 -10    0.69    0.28
   4   8 -10   35.97    1.62
   4   8 -10   32.41    1.57
   3   8 -10    0.05    0.23
   3   8 -10    0.14    0.20
   2   8 -10    4.87    0.41
   2   8 -10    6.12    0.51
   1   8 -10    0.16    0.22
   0   8 -10    0.14    0.21
  -1   8 -10    0.77    0.24
  -1   8 -10    1.13    0.29
  -2   8 -10    0.27    0.21
  -2   8 -10    0.19    0.26
  -3   8 -10    2.15    0.28
  -3   8 -10    2.26    0.38
  -4   8 -10    1.21    0.33
  -4   8 -10    1.20    0.24
  -5   8 -10    0.32    0.22
  -5   8 -10    0.24    0.32
  -6   8 -10   -0.05    0.22
  -6   8 -10    0.14    0.32
  10   7 -10    0.07    0.36
 -10  -7  10    0.27    0.48
   9   7 -10    2.01    0.45
  -9  -7  10    0.59    0.45
   8   7 -10    0.51    0.33
  -8  -7  10   -0.15    0.38
   7   7 -10    0.50    0.32
   7   7 -10    0.80    0.32
  -7  -7  10    0.29    0.37
   6   7 -10    0.14    0.29
   6   7 -10    0.23    0.26
  -6  -7  10    0.36    0.33
   5   7 -10    1.99    0.33
   5   7 -10    3.01    0.41
  -5  -7  10    1.60    0.37
   4   7 -10    2.70    0.33
   4   7 -10    2.67    0.37
   3   7 -10    0.12    0.18
   3   7 -10    0.07    0.21
   3   7 -10    0.05    0.23
   2   7 -10    1.35    0.23
   2   7 -10    2.23    0.33
   2   7 -10    1.98    0.30
   1   7 -10    0.12    0.20
   1   7 -10    0.33    0.24
   0   7 -10    2.51    0.37
   0   7 -10    2.22    0.29
  -1   7 -10    0.02    0.17
  -1   7 -10   -0.05    0.23
  -2   7 -10    8.51    0.50
  -2   7 -10    8.58    0.63
  -3   7 -10    2.05    0.25
  -3   7 -10    2.17    0.36
  -4   7 -10    1.36    0.34
  -4   7 -10    1.71    0.23
  -5   7 -10    0.10    0.28
  -5   7 -10    0.16    0.24
  -5   7 -10    0.20    0.19
  -6   7 -10    0.83    0.29
  -6   7 -10    0.50    0.32
  -7   7 -10    2.41    0.40
  10   6 -10    4.18    0.59
 -10  -6  10    2.12    0.56
   9   6 -10    0.23    0.34
  -9  -6  10    0.26    0.41
   8   6 -10    5.30    0.56
   8   6 -10    6.17    0.62
  -8  -6  10    6.76    0.68
   7   6 -10    0.19    0.26
   7   6 -10    0.32    0.30
  -7  -6  10    0.30    0.34
   6   6 -10   -0.02    0.26
   6   6 -10    0.38    0.26
  -6  -6  10    0.66    0.32
   5   6 -10    0.78    0.22
   5   6 -10    1.00    0.30
   5   6 -10    0.86    0.25
  -5  -6  10    0.95    0.32
   4   6 -10   22.12    1.11
   4   6 -10   23.44    1.11
   4   6 -10   20.63    1.04
   3   6 -10    0.14    0.16
   3   6 -10    0.48    0.22
   3   6 -10    0.23    0.19
   2   6 -10   10.11    0.53
   2   6 -10    9.40    0.60
   2   6 -10   11.28    0.67
   1   6 -10    1.05    0.22
   1   6 -10    1.59    0.29
   0   6 -10    1.68    0.31
   0   6 -10    1.18    0.22
  -1   6 -10    0.82    0.28
  -1   6 -10    0.80    0.26
  -1   6 -10    0.94    0.19
  -2   6 -10    3.88    0.44
  -2   6 -10    3.53    0.41
  -2   6 -10    2.94    0.26
  -3   6 -10    2.61    0.41
  -3   6 -10    2.72    0.24
  -3   6 -10    3.56    0.40
  -4   6 -10    1.82    0.32
  -4   6 -10    1.61    0.34
  -5   6 -10    1.12    0.30
  -5   6 -10    1.05    0.33
  -6   6 -10    0.04    0.27
  -7   6 -10    2.83    0.44
  11   5 -10    1.33    0.47
 -11  -5  10    0.75    0.50
  10   5 -10    0.08    0.36
 -10  -5  10    0.28    0.41
   9   5 -10    1.47    0.40
  -9  -5  10    1.32    0.43
   8   5 -10    1.32    0.34
   8   5 -10    2.53    0.43
  -8  -5  10    1.31    0.41
   7   5 -10    0.87    0.32
   7   5 -10    0.43    0.27
  -7  -5  10    0.31    0.32
   6   5 -10    5.75    0.55
   6   5 -10    5.40    0.47
  -6  -5  10    5.47    0.55
   5   5 -10    0.10    0.17
   5   5 -10    0.10    0.19
   5   5 -10   -0.10    0.22
  -5  -5  10    0.45    0.27
   4   5 -10   17.52    0.93
   4   5 -10   17.94    0.92
   4   5 -10   18.02    0.86
  -4  -5  10   16.98    0.93
  -4  -5  10   17.35    0.88
   3   5 -10    2.55    0.24
   3   5 -10    2.35    0.32
   3   5 -10    3.21    0.35
   2   5 -10    6.27    0.52
   2   5 -10    7.56    0.38
   2   5 -10    6.32    0.46
   1   5 -10    0.04    0.16
   1   5 -10   -0.02    0.19
   0   5 -10   12.69    0.76
   0   5 -10   11.98    0.61
  -1   5 -10   -0.03    0.20
  -1   5 -10    0.05    0.21
  -1   5 -10    0.08    0.13
  -2   5 -10   22.04    1.16
  -2   5 -10   22.75    1.20
  -3   5 -10    1.52    0.31
  -3   5 -10    1.68    0.35
  -3   5 -10    1.06    0.27
  -4   5 -10    8.86    0.68
  -4   5 -10    8.06    0.64
  -4   5 -10    8.35    0.61
  -5   5 -10    1.54    0.33
  -5   5 -10    1.24    0.33
  -6   5 -10    1.82    0.37
  -7   5 -10    0.50    0.32
  11   4 -10    0.30    0.39
 -11  -4  10   -0.09    0.43
  10   4 -10    2.44    0.46
 -10  -4  10    2.16    0.51
   9   4 -10    1.09    0.37
  -9  -4  10    1.54    0.42
   8   4 -10    0.24    0.26
   8   4 -10    0.38    0.30
  -8  -4  10    0.22    0.33
   7   4 -10    0.61    0.27
   7   4 -10    0.85    0.31
  -7  -4  10    0.92    0.35
   6   4 -10    7.84    0.58
   6   4 -10   10.56    0.59
   6   4 -10    8.57    0.63
  -6  -4  10    9.00    0.68
   5   4 -10    1.39    0.25
   5   4 -10    1.45    0.30
   5   4 -10    1.43    0.25
  -5  -4  10    2.14    0.29
  -5  -4  10    2.30    0.34
   4   4 -10    4.12    0.35
   4   4 -10    5.48    0.43
   4   4 -10    5.38    0.45
  -4  -4  10    4.80    0.39
  -4  -4  10    4.56    0.43
   3   4 -10    3.97    0.39
   3   4 -10    3.81    0.28
   3   4 -10    3.95    0.38
  -3  -4  10    3.81    0.29
   2   4 -10   43.89    1.96
   2   4 -10   39.83    1.77
   1   4 -10    1.54    0.28
   1   4 -10    1.10    0.19
   0   4 -10    7.95    0.56
   0   4 -10    8.48    0.45
   0   4 -10    9.62    0.63
  -1   4 -10   -0.17    0.19
  -1   4 -10    0.00    0.19
  -2   4 -10    0.16    0.20
  -2   4 -10   -0.21    0.21
  -2   4 -10   -0.04    0.20
  -3   4 -10   10.87    0.71
  -3   4 -10   11.98    0.74
  -3   4 -10   12.90    0.80
  -4   4 -10    3.74    0.43
  -4   4 -10    4.26    0.50
  -4   4 -10    3.75    0.44
  -5   4 -10    4.13    0.45
  -5   4 -10    3.83    0.46
  -5   4 -10    3.75    0.48
  -6   4 -10    0.37    0.29
  -7   4 -10    0.14    0.32
  11   3 -10    1.73    0.43
 -11  -3  10    1.76    0.49
  10   3 -10    0.00    0.31
 -10  -3  10    0.44    0.40
   9   3 -10    2.89    0.43
   9   3 -10    2.34    0.42
  -9  -3  10    2.89    0.49
   8   3 -10    0.33    0.28
   8   3 -10    0.45    0.27
  -8  -3  10    0.37    0.31
   7   3 -10    3.04    0.42
   7   3 -10    2.93    0.37
  -7  -3  10    2.71    0.41
  -7  -3  10    2.40    0.41
   6   3 -10    0.73    0.25
   6   3 -10    0.31    0.18
   6   3 -10    0.09    0.21
  -6  -3  10    0.36    0.27
   5   3 -10    0.55    0.19
   5   3 -10    0.42    0.23
   5   3 -10    0.56    0.19
  -5  -3  10    0.78    0.25
   4   3 -10    4.81    0.35
   4   3 -10    4.46    0.39
   4   3 -10    4.77    0.42
  -4  -3  10    4.74    0.43
   3   3 -10    0.18    0.17
   3   3 -10    0.29    0.11
   3   3 -10    0.37    0.19
  -3  -3  10    0.05    0.17
   2   3 -10    2.96    0.36
   2   3 -10    3.62    0.32
   1   3 -10    0.46    0.21
   1   3 -10    0.47    0.16
   0   3 -10    1.65    0.27
   0   3 -10    1.61    0.17
   0   3 -10    1.05    0.26
  -1   3 -10    0.36    0.21
  -1   3 -10    0.55    0.24
  -1   3 -10    0.48    0.20
  -2   3 -10    8.84    0.64
  -2   3 -10    7.88    0.58
  -2   3 -10    8.23    0.57
  -3   3 -10    0.74    0.26
  -3   3 -10    0.65    0.25
  -4   3 -10    8.62    0.62
  -4   3 -10    8.07    0.63
  -4   3 -10    9.00    0.68
  -5   3 -10   -0.28    0.27
  -5   3 -10    0.86    0.29
   5  -3  10    0.07    0.30
  -6   3 -10    1.02    0.34
  -6   3 -10    0.43    0.33
  -7   3 -10    0.09    0.31
  12   2 -10    0.25    0.37
 -12  -2  10    0.55    0.48
  11   2 -10   -0.54    0.32
 -11  -2  10    0.11    0.43
  10   2 -10    2.31    0.45
 -10  -2  10    2.44    0.47
   9   2 -10    0.17    0.29
   9   2 -10    0.04    0.27
  -9  -2  10    0.67    0.36
   8   2 -10   13.40    0.83
   8   2 -10   11.41    0.75
  -8  -2  10   12.94    0.87
  -8  -2  10   12.45    0.84
   7   2 -10    4.17    0.35
   7   2 -10    3.95    0.45
   7   2 -10    3.80    0.41
  -7  -2  10    4.51    0.48
  -7  -2  10    4.12    0.50
   6   2 -10    7.33    0.58
   6   2 -10    8.51    0.55
   6   2 -10    8.14    0.53
  -6  -2  10    8.75    0.70
  -6  -2  10    9.83    0.65
   5   2 -10    1.39    0.25
   5   2 -10    1.61    0.28
   5   2 -10    1.22    0.23
  -5  -2  10    1.60    0.29
  -5  -2  10    1.25    0.33
   4   2 -10    3.00    0.33
   4   2 -10    2.44    0.25
   4   2 -10    2.52    0.31
  -4  -2  10    2.53    0.32
  -4  -2  10    2.70    0.41
   3   2 -10    1.44    0.24
   3   2 -10    1.36    0.25
  -3  -2  10    1.43    0.24
   2   2 -10   19.55    0.93
   2   2 -10   20.65    1.06
   1   2 -10   -0.16    0.13
   1   2 -10   -0.13    0.17
   0   2 -10    9.51    0.60
   0   2 -10    9.66    0.65
  -1   2 -10    0.32    0.22
  -1   2 -10    0.13    0.19
  -1   2 -10   -0.01    0.17
  -2   2 -10    0.41    0.24
  -2   2 -10    0.74    0.24
  -2   2 -10    0.73    0.23
   2  -2  10    0.39    0.29
  -3   2 -10    0.21    0.26
  -3   2 -10    0.04    0.21
  -3   2 -10    0.37    0.23
   3  -2  10   -0.01    0.28
  -4   2 -10    1.04    0.30
  -4   2 -10    0.85    0.29
  -4   2 -10    1.57    0.34
   4  -2  10    1.82    0.40
  -5   2 -10    0.60    0.31
  -5   2 -10    0.94    0.33
   5  -2  10    1.17    0.37
  -6   2 -10    1.10    0.37
  -6   2 -10    0.54    0.35
  -7   2 -10    0.38    0.34
  -7   2 -10   -0.17    0.36
  12   1 -10    0.55    0.41
 -12  -1  10    0.92    0.45
  11   1 -10    0.48    0.38
 -11  -1  10    0.88    0.44
  10   1 -10    0.37    0.32
 -10  -1  10    0.38    0.37
   9   1 -10   13.01    0.84
   9   1 -10   14.20    0.89
  -9  -1  10   14.49    0.91
   8   1 -10    1.32    0.34
   8   1 -10    0.68    0.27
   8   1 -10    1.37    0.25
  -8  -1  10    1.11    0.36
  -8  -1  10    1.45    0.38
   7   1 -10    2.91    0.40
   7   1 -10    2.73    0.32
   7   1 -10    2.49    0.34
  -7  -1  10    2.40    0.39
  -7  -1  10    2.49    0.44
   6   1 -10    1.27    0.25
   6   1 -10    1.11    0.27
   6   1 -10    0.58    0.22
  -6  -1  10    0.87    0.33
  -6  -1  10    0.88    0.29
   5   1 -10    0.03    0.17
   5   1 -10    0.16    0.19
   5   1 -10    0.05    0.16
  -5  -1  10   -0.01    0.21
  -5  -1  10   -0.24    0.25
   4   1 -10    8.08    0.53
   4   1 -10    8.05    0.46
   4   1 -10    8.54    0.56
  -4  -1  10    8.41    0.55
  -4  -1  10    7.55    0.68
   3   1 -10    0.44    0.20
   3   1 -10    0.10    0.16
  -3  -1  10   -0.15    0.24
   2   1 -10    2.21    0.26
   2   1 -10    2.07    0.31
  -2  -1  10    1.94    0.37
   1   1 -10   -0.14    0.17
   1   1 -10    0.17    0.14
  -1  -1  10    0.09    0.24
   0   1 -10    0.86    0.22
   0   1 -10    0.47    0.19
   0   1 -10    0.65    0.23
   0  -1  10    0.41    0.27
  -1   1 -10    1.02    0.24
  -1   1 -10    1.16    0.26
  -1   1 -10    1.25    0.28
   1  -1  10    1.79    0.38
  -2   1 -10    4.38    0.46
   2  -1  10    3.71    0.51
  -3   1 -10    1.47    0.31
  -3   1 -10    1.46    0.35
  -3   1 -10    1.90    0.31
   3  -1  10    2.08    0.42
  -4   1 -10    6.26    0.58
  -4   1 -10    5.68    0.55
   4  -1  10    5.49    0.64
  -5   1 -10    4.89    0.55
  -5   1 -10    6.38    0.60
   5  -1  10    6.22    0.66
  -6   1 -10    0.22    0.32
  -6   1 -10    0.39    0.32
  -7   1 -10    0.05    0.35
  12   0 -10    0.78    0.43
 -12   0  10    0.76    0.47
  11   0 -10    0.60    0.36
 -11   0  10    0.27    0.41
  10   0 -10    0.40    0.32
 -10   0  10   -0.02    0.36
   9   0 -10   -0.10    0.28
   9   0 -10   -0.01    0.28
  -9   0  10    0.20    0.35
   8   0 -10    5.12    0.50
   8   0 -10    6.11    0.48
   8   0 -10    5.94    0.57
  -8   0  10    5.35    0.63
  -8   0  10    6.09    0.59
   7   0 -10    2.04    0.31
   7   0 -10    1.47    0.29
   7   0 -10    2.33    0.36
  -7   0  10    1.59    0.35
  -7   0  10    1.78    0.43
   6   0 -10    4.16    0.44
   6   0 -10    4.47    0.40
   6   0 -10    4.05    0.42
  -6   0  10    3.83    0.52
  -6   0  10    4.85    0.46
   5   0 -10    1.42    0.28
   5   0 -10    1.68    0.24
   5   0 -10    1.99    0.30
  -5   0  10    1.84    0.39
  -5   0  10    1.61    0.28
   4   0 -10    3.46    0.38
   4   0 -10    2.70    0.26
   4   0 -10    3.33    0.27
   4   0 -10    3.06    0.34
  -4   0  10    2.82    0.32
  -4   0  10    3.60    0.50
   3   0 -10    3.51    0.34
   3   0 -10    3.48    0.26
   3   0 -10    3.78    0.40
   3   0 -10    3.09    0.24
  -3   0  10    3.88    0.51
   2   0 -10   21.40    1.11
   2   0 -10   20.03    0.95
  -2   0  10   21.05    1.27
   1   0 -10    0.17    0.16
   1   0 -10    0.10    0.19
   1   0 -10   -0.05    0.13
  -1   0  10   -0.13    0.25
   0   0 -10    1.22    0.24
   0   0 -10    1.10    0.16
   0   0 -10    1.11    0.28
   0   0 -10    1.49    0.25
   0   0  10    1.41    0.38
  -1   0 -10    0.51    0.24
  -1   0 -10    0.85    0.23
  -1   0 -10    0.44    0.20
   1   0  10    0.34    0.30
  -2   0 -10    5.83    0.48
  -2   0 -10    4.29    0.49
  -2   0 -10    5.61    0.46
   2   0  10    4.25    0.57
  -3   0 -10    2.54    0.38
  -3   0 -10    2.34    0.38
  -3   0 -10    2.99    0.36
   3   0  10    2.72    0.47
  -4   0 -10    2.86    0.41
  -4   0 -10    2.71    0.42
   4   0  10    2.46    0.46
  -5   0 -10    1.64    0.37
  -5   0 -10    1.55    0.37
  -6   0 -10   -0.57    0.30
  -6   0 -10    0.37    0.33
  12  -1 -10    1.11    0.45
 -12   1  10   -0.09    0.44
  11  -1 -10    0.08    0.34
 -11   1  10    0.53    0.42
  10  -1 -10    2.20    0.44
 -10   1  10    1.77    0.45
   9  -1 -10   14.51    0.84
   9  -1 -10   15.46    0.93
   9  -1 -10   13.97    0.87
  -9   1  10   12.82    0.91
   8  -1 -10    2.86    0.38
   8  -1 -10    2.87    0.43
   8  -1 -10    2.41    0.38
  -8   1  10    2.38    0.53
  -8   1  10    3.49    0.45
   7  -1 -10    8.44    0.61
   7  -1 -10    9.25    0.66
   7  -1 -10    9.85    0.64
  -7   1  10    8.81    0.82
  -7   1  10    9.63    0.67
   6  -1 -10    2.88    0.34
   6  -1 -10    2.54    0.36
   6  -1 -10    3.47    0.40
  -6   1  10    3.36    0.39
  -6   1  10    2.92    0.51
   5  -1 -10    1.12    0.22
   5  -1 -10    0.88    0.20
   5  -1 -10    0.28    0.24
   5  -1 -10    0.97    0.24
  -5   1  10    1.08    0.39
  -5   1  10    1.17    0.26
   4  -1 -10    2.60    0.37
   4  -1 -10    3.46    0.28
   4  -1 -10    2.93    0.33
  -4   1  10    2.53    0.46
   3  -1 -10    0.14    0.21
   3  -1 -10    0.25    0.13
   3  -1 -10    0.15    0.18
  -3   1  10    0.25    0.32
   2  -1 -10    2.54    0.36
   2  -1 -10    3.08    0.30
  -2   1  10    2.63    0.46
   1  -1 -10    0.06    0.16
   1  -1 -10    0.30    0.17
   1  -1 -10    0.12    0.14
   1  -1 -10    0.34    0.22
  -1   1  10   -0.08    0.28
   0  -1 -10    0.05    0.17
   0  -1 -10    0.08    0.16
   0  -1 -10    0.34    0.14
   0  -1 -10    0.22    0.22
   0   1  10   -0.14    0.29
  -1  -1 -10    0.32    0.21
  -1  -1 -10    0.38    0.24
  -1  -1 -10    0.02    0.18
   1   1  10   -0.27    0.29
  -2  -1 -10    1.73    0.32
  -2  -1 -10    1.91    0.33
  -2  -1 -10    1.78    0.29
   2   1  10    2.18    0.45
  -3  -1 -10    0.34    0.26
  -3  -1 -10   -0.05    0.24
   3   1  10    0.05    0.32
  -4  -1 -10    9.19    0.69
  -4  -1 -10    7.33    0.64
   4   1  10    8.40    0.77
  -5  -1 -10    0.77    0.36
  -5  -1 -10    0.45    0.31
  -6  -1 -10    2.14    0.44
  -6  -1 -10    2.92    0.48
  12  -2 -10    0.86    0.43
 -12   2  10    0.65    0.47
  11  -2 -10    0.58    0.39
 -11   2  10    0.04    0.39
  10  -2 -10    4.18    0.54
 -10   2  10    3.23    0.52
   9  -2 -10    1.76    0.39
   9  -2 -10    2.31    0.44
  -9   2  10    2.59    0.45
   8  -2 -10    5.33    0.55
   8  -2 -10    4.79    0.50
   8  -2 -10    4.92    0.49
  -8   2  10    5.32    0.54
  -8   2  10    2.90    0.63
   7  -2 -10    0.81    0.29
   7  -2 -10    1.71    0.35
   7  -2 -10    0.87    0.27
  -7   2  10    0.80    0.46
  -7   2  10    1.35    0.33
   6  -2 -10   10.75    0.70
   6  -2 -10   10.78    0.72
  -6   2  10   11.35    0.96
  -6   2  10   11.08    0.70
   5  -2 -10    8.01    0.57
   5  -2 -10    7.93    0.62
  -5   2  10    8.69    0.84
   4  -2 -10    3.58    0.45
   4  -2 -10    4.40    0.41
   4  -2 -10    4.03    0.33
  -4   2  10    4.72    0.64
   3  -2 -10   -0.04    0.17
   3  -2 -10    0.02    0.14
   3  -2 -10    0.02    0.22
  -3   2  10    0.23    0.36
   2  -2 -10   18.10    1.07
   2  -2 -10   20.75    0.95
   2  -2 -10   19.37    0.92
  -2   2  10   18.59    1.26
   1  -2 -10    0.14    0.16
   1  -2 -10   -0.11    0.14
   1  -2 -10    0.05    0.21
   1  -2 -10    0.23    0.17
  -1   2  10   -0.10    0.32
   0  -2 -10    7.61    0.46
   0  -2 -10    8.04    0.62
   0  -2 -10    8.95    0.53
   0  -2 -10    8.49    0.57
   0   2  10    7.34    0.76
  -1  -2 -10    0.20    0.21
  -1  -2 -10   -0.16    0.18
  -1  -2 -10    0.18    0.14
  -1  -2 -10    0.21    0.24
   1   2  10    0.06    0.33
  -2  -2 -10    0.15    0.21
  -2  -2 -10    0.40    0.25
  -2  -2 -10    0.38    0.24
   2   2  10    0.52    0.38
  -3  -2 -10   -0.15    0.23
  -3  -2 -10    0.69    0.29
   3   2  10    0.28    0.37
  -4  -2 -10    0.56    0.30
  -4  -2 -10    1.10    0.32
   4   2  10    0.23    0.41
  -5  -2 -10    1.92    0.43
  -5  -2 -10    1.34    0.37
  12  -3 -10   -0.20    0.38
  11  -3 -10    0.26    0.36
 -11   3  10    0.17    0.40
  10  -3 -10    0.55    0.36
 -10   3  10    0.69    0.40
   9  -3 -10    1.31    0.36
   9  -3 -10    1.41    0.40
  -9   3  10    0.87    0.37
   8  -3 -10   -0.14    0.26
   8  -3 -10    0.04    0.26
  -8   3  10    0.02    0.30
   7  -3 -10    7.55    0.64
  -7   3  10    7.01    0.84
  -7   3  10    8.63    0.64
   6  -3 -10    0.57    0.29
   6  -3 -10   -0.10    0.23
  -6   3  10    0.18    0.46
   5  -3 -10    7.59    0.64
   5  -3 -10    8.19    0.59
  -5   3  10    8.55    0.86
   4  -3 -10    2.36    0.40
   4  -3 -10    1.80    0.31
  -4   3  10    3.02    0.57
   3  -3 -10    0.37    0.27
   3  -3 -10    0.18    0.20
  -3   3  10    0.60    0.42
   2  -3 -10    5.71    0.58
   2  -3 -10    6.20    0.43
   2  -3 -10    5.88    0.45
  -2   3  10    6.12    0.74
   1  -3 -10    0.63    0.22
   1  -3 -10    1.08    0.32
   1  -3 -10    1.05    0.21
   1  -3 -10    1.24    0.22
  -1   3  10    0.98    0.44
   0  -3 -10    3.33    0.32
   0  -3 -10    2.55    0.40
   0  -3 -10    3.13    0.36
   0  -3 -10    2.69    0.29
   0   3  10    2.54    0.55
  -1  -3 -10    0.49    0.21
  -1  -3 -10    0.29    0.18
  -1  -3 -10    0.25    0.23
  -1  -3 -10    0.42    0.25
   1   3  10    0.48    0.41
  -2  -3 -10    0.12    0.17
  -2  -3 -10    0.11    0.25
  -2  -3 -10    0.68    0.28
   2   3  10    0.40    0.40
  -3  -3 -10    0.39    0.28
  -3  -3 -10    0.49    0.19
  -3  -3 -10    0.53    0.28
   3   3  10    0.67    0.45
  -4  -3 -10    5.51    0.57
  -4  -3 -10    4.75    0.53
   4   3  10    3.57    0.67
  -5  -3 -10    1.47    0.37
  12  -4 -10   -0.10    0.38
 -12   4  10   -0.16    0.45
  11  -4 -10    5.34    0.68
 -11   4  10    5.17    0.67
  10  -4 -10    0.47    0.37
 -10   4  10    0.92    0.41
   9  -4 -10    2.55    0.46
  -9   4  10    2.20    0.46
   8  -4 -10    0.38    0.32
  -8   4  10    0.62    0.34
   7  -4 -10   -0.03    0.26
   6  -4 -10    5.75    0.53
  -6   4  10    4.07    0.73
   5  -4 -10    0.45    0.26
   5  -4 -10    0.83    0.34
  -5   4  10    0.82    0.51
   4  -4 -10   11.78    0.82
   4  -4 -10   11.50    0.71
  -4   4  10   10.96    1.02
   3  -4 -10    1.15    0.28
   3  -4 -10    1.93    0.38
  -3   4  10    1.40    0.49
   2  -4 -10    9.48    0.56
   2  -4 -10    8.45    0.70
   2  -4 -10    7.90    0.56
  -2   4  10    8.10    0.88
   1  -4 -10    0.09    0.25
   1  -4 -10   -0.02    0.18
   1  -4 -10    0.15    0.19
  -1   4  10   -0.04    0.42
   0  -4 -10    9.49    0.58
   0  -4 -10    9.02    0.71
   0  -4 -10   10.42    0.65
   0   4  10    9.40    0.94
  -1  -4 -10   -0.07    0.23
  -1  -4 -10    0.34    0.21
  -1  -4 -10    0.08    0.25
   1   4  10    0.12    0.44
  -2  -4 -10    0.76    0.32
  -2  -4 -10    1.67    0.36
  -2  -4 -10    0.84    0.23
   2   4  10    1.17    0.52
  -3  -4 -10    0.86    0.23
  -3  -4 -10    0.84    0.32
  -3  -4 -10    1.14    0.33
   3   4  10   -0.02    0.51
  -4  -4 -10    0.39    0.30
  -4  -4 -10    0.49    0.32
  11  -5 -10    0.18    0.41
 -11   5  10    0.25    0.45
  10  -5 -10    0.35    0.37
 -10   5  10    1.14    0.44
   9  -5 -10    1.28    0.40
   8  -5 -10    0.91    0.36
   7  -5 -10    5.89    0.60
   6  -5 -10   -0.05    0.26
   5  -5 -10    9.22    0.67
   4  -5 -10    0.72    0.28
   4  -5 -10    0.73    0.34
  -4   5  10   -0.53    0.49
   3  -5 -10    1.93    0.33
   3  -5 -10    1.22    0.38
  -3   5  10    1.53    0.57
   2  -5 -10    0.68    0.25
   2  -5 -10    0.87    0.23
   2  -5 -10    0.41    0.30
  -2   5  10    1.87    0.59
   1  -5 -10    0.16    0.22
   1  -5 -10    0.38    0.29
   1  -5 -10    0.46    0.22
  -1   5  10   -0.25    0.46
   0  -5 -10    3.42    0.48
   0  -5 -10    4.26    0.43
   0  -5 -10    2.56    0.35
   0   5  10    2.02    0.64
  -1  -5 -10    0.37    0.28
  -1  -5 -10    0.14    0.21
  -1  -5 -10    0.41    0.26
   1   5  10   -1.58    0.42
  -2  -5 -10    1.17    0.34
  -2  -5 -10    1.46    0.36
  -2  -5 -10    1.37    0.28
  -3  -5 -10    0.16    0.22
  -3  -5 -10    0.31    0.30
  -3  -5 -10    0.30    0.30
  -4  -5 -10    1.12    0.36
  -4  -5 -10    0.11    0.24
  11  -6 -10    1.34    0.48
  10  -6 -10    0.78    0.42
   9  -6 -10    1.04    0.40
   8  -6 -10    3.83    0.54
   7  -6 -10    0.87    0.36
   6  -6 -10    6.46    0.61
   5  -6 -10    0.04    0.24
   4  -6 -10    1.80    0.34
   4  -6 -10    1.64    0.44
   3  -6 -10   -0.01    0.23
   3  -6 -10   -0.32    0.30
   2  -6 -10    1.38    0.40
   2  -6 -10    1.47    0.31
   2  -6 -10    1.63    0.29
   1  -6 -10    0.33    0.23
   1  -6 -10    0.30    0.32
   1  -6 -10    0.37    0.25
   0  -6 -10    8.58    0.72
   0  -6 -10    8.05    0.59
   0  -6 -10    7.91    0.61
  -1  -6 -10    0.18    0.26
  -1  -6 -10    0.06    0.23
  -1  -6 -10    0.15    0.28
  -2  -6 -10    7.38    0.66
  -2  -6 -10    7.30    0.69
  -2  -6 -10    7.42    0.57
  -3  -6 -10    0.32    0.30
  -3  -6 -10    0.37    0.32
  -3  -6 -10    0.35    0.26
  10  -7 -10    0.20    0.40
   9  -7 -10    0.11    0.37
   8  -7 -10    0.55    0.37
   7  -7 -10    1.30    0.39
   6  -7 -10    0.96    0.35
   5  -7 -10    0.14    0.29
   4  -7 -10    0.66    0.31
   3  -7 -10    0.43    0.28
   3  -7 -10    0.15    0.34
   2  -7 -10    2.12    0.37
   2  -7 -10    1.41    0.43
   1  -7 -10    0.33    0.33
   1  -7 -10    0.46    0.26
   1  -7 -10    0.00    0.26
   0  -7 -10    0.14    0.24
   0  -7 -10    0.04    0.27
   0  -7 -10    0.16    0.31
  -1  -7 -10    0.24    0.31
  -1  -7 -10    0.44    0.29
  -1  -7 -10   -0.30    0.25
  -2  -7 -10    0.23    0.28
  -2  -7 -10    0.19    0.31
  -2  -7 -10    0.31    0.30
   9  -8 -10    0.19    0.39
   8  -8 -10   -0.45    0.33
   7  -8 -10    0.05    0.32
   6  -8 -10    0.74    0.36
   5  -8 -10    2.55    0.44
   4  -8 -10    1.29    0.36
   3  -8 -10   -0.10    0.38
   3  -8 -10    0.11    0.29
   2  -8 -10    0.62    0.33
   2  -8 -10    0.71    0.41
   1  -8 -10    1.52    0.37
   1  -8 -10    0.91    0.39
   0  -8 -10    3.72    0.55
   0  -8 -10    3.37    0.46
  -1  -8 -10   -0.02    0.29
  -1  -8 -10    0.34    0.34
   8  -9 -10    0.85    0.42
   7  -9 -10    1.97    0.47
   6  -9 -10   -0.05    0.32
   5  -9 -10    1.03    0.37
   4  -9 -10    0.38    0.33
   3  -9 -10   -0.13    0.39
   3  -9 -10    1.08    0.37
   2  -9 -10   -0.15    0.36
   2  -9 -10    0.01    0.31
   1  -9 -10    0.26    0.36
   1  -9 -10    0.02    0.32
   6 -10 -10   -0.15    0.36
   5 -10 -10    0.53    0.37
   4 -10 -10    2.12    0.44
   3  13 -11    4.65    0.62
   2  13 -11    0.26    0.39
   1  13 -11    1.68    0.44
   0  13 -11    0.38    0.34
   0  13 -11    0.22    0.37
  -1  13 -11    2.86    0.50
  -1  13 -11    4.19    0.53
  -2  13 -11    1.07    0.40
  -2  13 -11    1.19    0.42
   5  12 -11    0.15    0.42
   4  12 -11   -0.46    0.37
   3  12 -11    1.42    0.44
   2  12 -11    0.15    0.35
   1  12 -11    0.49    0.35
   0  12 -11    0.31    0.33
   0  12 -11    0.61    0.35
  -1  12 -11    0.64    0.35
  -1  12 -11    0.37    0.34
  -2  12 -11    0.98    0.39
  -2  12 -11   -0.07    0.32
  -3  12 -11   -0.04    0.34
  -3  12 -11    0.29    0.35
  -4  12 -11    0.72    0.39
  -4  12 -11    1.11    0.36
   6  11 -11    0.26    0.42
   5  11 -11    6.43    0.71
   4  11 -11   -0.30    0.34
   3  11 -11    6.79    0.66
   2  11 -11    0.18    0.32
   1  11 -11    0.10    0.30
   0  11 -11    0.19    0.31
   0  11 -11    0.69    0.32
  -1  11 -11   -0.10    0.28
  -1  11 -11   -0.01    0.30
  -2  11 -11    4.17    0.51
  -2  11 -11    3.74    0.45
  -3  11 -11    4.52    0.54
  -3  11 -11    3.34    0.44
  -4  11 -11    4.01    0.46
  -4  11 -11    4.59    0.55
  -5  11 -11    0.64    0.38
  -5  11 -11    0.37    0.31
   7  10 -11    2.97    0.55
   6  10 -11    0.03    0.37
   5  10 -11    0.14    0.33
   4  10 -11    0.47    0.35
   3  10 -11    2.91    0.47
   2  10 -11    0.69    0.32
   1  10 -11    0.90    0.32
   0  10 -11    0.28    0.28
   0  10 -11    0.12    0.27
  -1  10 -11    4.00    0.45
  -1  10 -11    4.54    0.51
  -2  10 -11    0.92    0.31
  -2  10 -11    0.56    0.31
  -3  10 -11    2.01    0.33
  -3  10 -11    1.25    0.38
  -4  10 -11    8.55    0.70
  -4  10 -11    7.39    0.57
  -5  10 -11    0.30    0.35
  -5  10 -11    0.70    0.29
   8   9 -11    0.66    0.43
   7   9 -11    2.09    0.47
   6   9 -11    0.01    0.34
   5   9 -11    2.19    0.43
   4   9 -11    0.07    0.28
   3   9 -11   25.54    1.29
   2   9 -11   -0.21    0.25
   1   9 -11    4.91    0.48
   0   9 -11    0.26    0.25
   0   9 -11    0.37    0.28
  -1   9 -11    6.84    0.59
  -1   9 -11    4.91    0.46
  -2   9 -11    0.63    0.26
  -2   9 -11    0.36    0.30
  -3   9 -11    5.67    0.46
  -3   9 -11    6.02    0.58
  -4   9 -11    2.49    0.43
  -4   9 -11    2.32    0.32
  -5   9 -11    2.62    0.33
  -5   9 -11    2.89    0.47
  -6   9 -11    0.33    0.36
   9   8 -11    2.37    0.51
   8   8 -11    1.46    0.43
   7   8 -11    1.92    0.43
   6   8 -11    0.22    0.31
   5   8 -11    4.42    0.52
   4   8 -11    1.29    0.34
   3   8 -11   -0.01    0.24
   2   8 -11    0.11    0.25
   1   8 -11    1.24    0.30
   0   8 -11   -0.04    0.26
   0   8 -11    0.69    0.24
  -1   8 -11    0.31    0.27
  -1   8 -11    0.08    0.21
  -2   8 -11   -0.02    0.25
  -2   8 -11   -0.30    0.19
  -3   8 -11    1.01    0.33
  -3   8 -11    1.01    0.24
  -4   8 -11    8.88    0.52
  -4   8 -11    9.24    0.71
  -5   8 -11    0.49    0.34
  -6   8 -11    0.01    0.34
   9   7 -11    0.80    0.40
   8   7 -11    2.48    0.47
   7   7 -11    1.11    0.38
   7   7 -11    1.33    0.35
   6   7 -11    0.05    0.29
   6   7 -11    0.37    0.28
   5   7 -11   14.84    0.90
   4   7 -11    0.85    0.29
   4   7 -11    0.80    0.25
   3   7 -11   23.03    1.19
   3   7 -11   25.53    1.25
   2   7 -11   -0.15    0.23
   2   7 -11    0.20    0.23
   1   7 -11    9.69    0.68
   1   7 -11    9.15    0.58
   0   7 -11    4.14    0.46
   0   7 -11    4.34    0.46
   0   7 -11    3.89    0.37
  -1   7 -11    4.84    0.50
  -1   7 -11    3.52    0.34
  -1   7 -11    5.11    0.53
  -2   7 -11    0.98    0.31
  -2   7 -11    1.99    0.25
  -3   7 -11    1.87    0.24
  -3   7 -11    2.02    0.37
  -4   7 -11    2.77    0.42
  -5   7 -11    0.63    0.32
  -6   7 -11   -0.01    0.28
  -6   7 -11   -0.30    0.30
  10   6 -11    1.80    0.48
 -10  -6  11    1.87    0.54
   9   6 -11    5.31    0.63
  -9  -6  11    5.63    0.70
   8   6 -11    2.53    0.43
   8   6 -11    2.93    0.49
   7   6 -11    3.00    0.42
   7   6 -11    5.12    0.55
   6   6 -11    0.30    0.30
   6   6 -11    0.06    0.24
   5   6 -11    8.86    0.58
   5   6 -11    7.66    0.65
   4   6 -11    0.96    0.25
   4   6 -11    0.60    0.27
   3   6 -11    0.09    0.22
   3   6 -11    0.65    0.23
   2   6 -11    0.09    0.20
   2   6 -11    0.10    0.22
   1   6 -11    0.18    0.24
   1   6 -11    0.17    0.18
   0   6 -11    1.06    0.29
   0   6 -11    1.16    0.22
   0   6 -11    1.18    0.28
  -1   6 -11    0.86    0.29
  -1   6 -11    0.82    0.19
  -1   6 -11    1.04    0.29
  -2   6 -11    0.91    0.18
  -2   6 -11    0.96    0.29
  -2   6 -11    0.68    0.30
  -3   6 -11    5.45    0.58
  -3   6 -11    7.91    0.60
  -4   6 -11    2.54    0.39
  -4   6 -11    2.85    0.38
  -5   6 -11   -0.35    0.25
  -5   6 -11   -0.30    0.27
  -6   6 -11    0.37    0.29
  -7   6 -11    0.17    0.32
  10   5 -11    0.49    0.38
 -10  -5  11    1.21    0.47
   9   5 -11    0.63    0.35
  -9  -5  11    1.39    0.44
   8   5 -11    4.86    0.56
   8   5 -11    4.06    0.48
  -8  -5  11    4.90    0.59
   7   5 -11    0.42    0.29
   7   5 -11    0.57    0.28
   6   5 -11    0.14    0.22
   6   5 -11    0.46    0.27
   5   5 -11    1.91    0.28
   5   5 -11    1.20    0.31
   5   5 -11    0.85    0.25
   4   5 -11    2.89    0.35
   4   5 -11    2.91    0.38
   3   5 -11   15.13    0.84
   3   5 -11   16.92    0.92
   2   5 -11   -0.07    0.19
   2   5 -11    0.16    0.23
   1   5 -11   25.71    1.31
   1   5 -11   25.19    1.13
   0   5 -11   -0.12    0.15
   0   5 -11    0.03    0.22
   0   5 -11   -0.02    0.21
  -1   5 -11    1.56    0.32
  -1   5 -11    1.30    0.18
  -1   5 -11    1.54    0.31
  -2   5 -11    0.74    0.28
  -2   5 -11    0.59    0.28
  -3   5 -11    0.82    0.26
  -3   5 -11    0.50    0.30
  -3   5 -11    0.61    0.29
  -4   5 -11   -0.07    0.25
  -4   5 -11    0.11    0.25
  -4   5 -11    0.10    0.30
  -5   5 -11    1.09    0.40
  -5   5 -11    0.59    0.32
  -5   5 -11    1.14    0.33
  -6   5 -11    0.37    0.32
  -7   5 -11    0.92    0.37
  11   4 -11    2.42    0.51
 -11  -4  11    2.81    0.59
  10   4 -11    0.70    0.38
 -10  -4  11    0.32    0.42
   9   4 -11    2.21    0.43
  -9  -4  11    1.69    0.45
   8   4 -11    0.36    0.30
   8   4 -11    0.15    0.26
  -8  -4  11   -0.03    0.34
   7   4 -11    0.66    0.30
   7   4 -11    0.48    0.25
  -7  -4  11    0.48    0.32
   6   4 -11   -0.17    0.23
   6   4 -11    0.08    0.18
   6   4 -11    0.16    0.21
   5   4 -11    7.20    0.49
   5   4 -11    7.18    0.56
   5   4 -11    7.95    0.52
   4   4 -11    0.52    0.23
   4   4 -11    0.61    0.23
   3   4 -11    0.17    0.21
   3   4 -11    0.08    0.20
   2   4 -11    0.30    0.22
   2   4 -11    0.41    0.20
   1   4 -11    0.92    0.20
   1   4 -11    1.18    0.29
   0   4 -11    0.83    0.25
   0   4 -11    0.93    0.28
   0   4 -11    0.95    0.17
  -1   4 -11   -0.22    0.22
  -1   4 -11    0.14    0.22
  -2   4 -11    4.26    0.48
  -2   4 -11    3.96    0.43
  -2   4 -11    4.29    0.42
  -3   4 -11   -0.13    0.22
  -3   4 -11    0.07    0.26
  -3   4 -11    0.13    0.23
  -4   4 -11    0.96    0.32
  -4   4 -11    1.51    0.37
  -4   4 -11    1.12    0.31
  -5   4 -11    0.46    0.33
  -5   4 -11    0.67    0.31
  -5   4 -11    0.39    0.29
  -6   4 -11    1.65    0.38
  -7   4 -11    0.10    0.33
  11   3 -11   -0.39    0.33
 -11  -3  11    0.00    0.43
  10   3 -11    0.27    0.33
 -10  -3  11   -0.17    0.38
   9   3 -11    0.24    0.31
   9   3 -11    0.05    0.28
  -9  -3  11    0.48    0.36
   8   3 -11    1.21    0.34
  -8  -3  11    1.02    0.38
   7   3 -11    8.14    0.59
   7   3 -11    8.45    0.64
   7   3 -11    7.85    0.53
  -7  -3  11    9.30    0.72
  -7  -3  11    7.35    0.66
   6   3 -11    6.11    0.49
   6   3 -11    6.29    0.56
   6   3 -11    6.99    0.48
  -6  -3  11    7.83    0.66
   5   3 -11    0.15    0.18
   5   3 -11    0.09    0.18
   5   3 -11    0.28    0.23
   4   3 -11    0.80    0.24
   4   3 -11    0.35    0.21
   3   3 -11    7.16    0.49
   3   3 -11    6.29    0.51
   2   3 -11    0.60    0.20
   2   3 -11    0.84    0.26
   1   3 -11   11.05    0.73
   1   3 -11   11.00    0.57
   0   3 -11   -0.12    0.19
   0   3 -11    0.32    0.24
  -1   3 -11   10.37    0.68
  -1   3 -11   11.46    0.76
  -2   3 -11    0.21    0.26
  -2   3 -11    0.25    0.23
  -2   3 -11    0.24    0.22
  -3   3 -11    6.31    0.55
  -3   3 -11    5.07    0.50
  -3   3 -11    6.71    0.61
  -4   3 -11    2.62    0.40
  -4   3 -11    2.33    0.42
  -4   3 -11    1.86    0.36
   4  -3  11    2.37    0.47
  -5   3 -11    4.03    0.49
  -5   3 -11    4.83    0.55
   5  -3  11    3.15    0.55
  -6   3 -11    1.40    0.38
  -6   3 -11    1.42    0.41
  11   2 -11    3.20    0.53
 -11  -2  11    1.52    0.52
  10   2 -11    0.78    0.36
 -10  -2  11    1.09    0.41
   9   2 -11    3.39    0.49
   9   2 -11    2.37    0.41
  -9  -2  11    2.90    0.48
   8   2 -11    9.51    0.68
   8   2 -11   10.50    0.74
  -8  -2  11   10.43    0.77
  -8  -2  11   10.34    0.80
   7   2 -11   11.34    0.75
   7   2 -11   14.81    0.85
   7   2 -11   14.44    0.76
  -7  -2  11   14.27    0.95
  -7  -2  11   12.90    0.85
   6   2 -11    0.53    0.25
   6   2 -11    0.30    0.19
   6   2 -11    0.74    0.23
  -6  -2  11    0.16    0.29
   5   2 -11    8.55    0.59
   5   2 -11    8.38    0.52
   5   2 -11    9.67    0.60
  -5  -2  11    9.22    0.74
   4   2 -11    1.96    0.30
   4   2 -11    1.93    0.30
  -4  -2  11    1.49    0.37
   3   2 -11    0.04    0.20
   3   2 -11    0.08    0.19
  -3  -2  11    0.12    0.26
   2   2 -11   -0.02    0.16
   2   2 -11   -0.25    0.18
  -2  -2  11   -0.25    0.23
   1   2 -11    1.86    0.33
   1   2 -11    1.81    0.23
  -1  -2  11    1.84    0.40
   0   2 -11    0.13    0.22
   0   2 -11   -0.22    0.18
   0  -2  11   -0.01    0.25
  -1   2 -11    1.56    0.28
  -1   2 -11    1.30    0.27
  -1   2 -11    1.05    0.30
   1  -2  11    1.30    0.37
  -2   2 -11    0.28    0.23
  -2   2 -11    0.11    0.25
  -2   2 -11    0.07    0.22
   2  -2  11    0.15    0.31
  -3   2 -11    0.85    0.28
  -3   2 -11    0.65    0.32
  -3   2 -11    1.03    0.29
   3  -2  11    1.39    0.39
  -4   2 -11    1.67    0.33
  -4   2 -11    1.57    0.37
  -4   2 -11    1.19    0.32
   4  -2  11    1.42    0.42
  -5   2 -11    3.56    0.48
  -5   2 -11    2.60    0.46
   5  -2  11    3.46    0.54
  -6   2 -11    3.67    0.52
  -6   2 -11    2.91    0.49
  12   1 -11    7.64    0.76
 -12  -1  11    5.45    0.72
  11   1 -11    0.28    0.37
 -11  -1  11    0.69    0.45
  10   1 -11    0.42    0.33
 -10  -1  11   -0.09    0.36
   9   1 -11    2.63    0.40
   9   1 -11    2.51    0.42
  -9  -1  11    2.26    0.45
   8   1 -11    1.47    0.35
   8   1 -11    1.20    0.31
   8   1 -11    1.99    0.30
  -8  -1  11    1.78    0.42
  -8  -1  11    1.64    0.40
   7   1 -11    6.19    0.48
   7   1 -11    5.46    0.46
   7   1 -11    6.37    0.57
  -7  -1  11    5.56    0.63
  -7  -1  11    5.23    0.54
   6   1 -11    7.21    0.51
   6   1 -11    8.31    0.55
   6   1 -11    8.06    0.59
  -6  -1  11    7.45    0.70
   5   1 -11    2.93    0.30
   5   1 -11    3.51    0.39
   5   1 -11    2.96    0.37
  -5  -1  11    3.05    0.48
   4   1 -11   -0.10    0.17
   4   1 -11   -0.12    0.18
  -4  -1  11   -0.05    0.27
   3   1 -11    2.14    0.33
   3   1 -11    1.86    0.27
  -3  -1  11    2.03    0.43
   2   1 -11    0.20    0.20
   2   1 -11   -0.14    0.16
  -2  -1  11   -0.02    0.27
   1   1 -11   21.59    1.13
   1   1 -11   19.62    0.92
   1   1 -11   20.90    1.04
  -1  -1  11   19.98    1.29
   0   1 -11    0.08    0.19
   0   1 -11   -0.10    0.20
   0   1 -11   -0.06    0.16
   0  -1  11   -0.01    0.28
  -1   1 -11   45.01    2.04
  -1   1 -11   44.99    2.02
  -1   1 -11   45.25    2.15
   1  -1  11   41.88    2.39
  -2   1 -11    1.01    0.27
  -2   1 -11    0.86    0.31
  -2   1 -11    0.76    0.25
   2  -1  11    0.88    0.36
  -3   1 -11   -0.26    0.21
  -3   1 -11   -0.16    0.27
  -3   1 -11    0.30    0.25
   3  -1  11   -0.04    0.30
  -4   1 -11    0.63    0.32
  -4   1 -11    0.79    0.30
   4  -1  11    1.12    0.40
  -5   1 -11    4.15    0.51
  -5   1 -11    3.99    0.52
  -6   1 -11    0.60    0.35
  -6   1 -11    0.22    0.35
  12   0 -11    0.45    0.41
 -12   0  11    0.48    0.48
  11   0 -11    0.40    0.37
 -11   0  11    0.04    0.42
  10   0 -11    0.82    0.36
 -10   0  11    0.36    0.40
   9   0 -11    0.64    0.34
   9   0 -11    0.00    0.27
  -9   0  11    0.98    0.38
   8   0 -11    6.17    0.60
   8   0 -11    7.01    0.52
   8   0 -11    5.96    0.54
  -8   0  11    6.20    0.60
  -8   0  11    6.18    0.69
   7   0 -11    2.49    0.34
   7   0 -11    2.46    0.34
   7   0 -11    3.13    0.43
  -7   0  11    2.23    0.47
   6   0 -11    3.13    0.40
   6   0 -11    3.04    0.33
   6   0 -11    3.05    0.39
  -6   0  11    3.25    0.51
   5   0 -11   10.12    0.59
   5   0 -11   10.47    0.68
   5   0 -11   10.63    0.66
  -5   0  11   10.40    0.84
   4   0 -11    0.61    0.25
   4   0 -11    0.72    0.24
  -4   0  11    0.87    0.37
   3   0 -11    0.63    0.21
   3   0 -11    0.10    0.20
  -3   0  11    0.42    0.32
   2   0 -11    0.94    0.27
  -2   0  11    0.49    0.34
   1   0 -11   -0.09    0.15
   1   0 -11    0.51    0.20
   1   0 -11    0.38    0.24
  -1   0  11    0.30    0.32
   0   0 -11    0.68    0.28
   0   0 -11    0.63    0.21
   0   0 -11    0.86    0.24
   0   0  11    0.97    0.37
  -1   0 -11   25.51    1.26
  -1   0 -11   26.81    1.37
  -1   0 -11   25.96    1.28
   1   0  11   24.10    1.54
  -2   0 -11    0.05    0.21
  -2   0 -11    0.20    0.23
  -2   0 -11    0.24    0.26
   2   0  11    0.15    0.32
  -3   0 -11    0.26    0.24
  -3   0 -11   -0.29    0.22
  -3   0 -11    0.00    0.26
   3   0  11    0.30    0.34
  -4   0 -11    0.53    0.29
  -4   0 -11    0.81    0.34
   4   0  11    0.86    0.38
  -5   0 -11    1.59    0.42
  -5   0 -11    2.05    0.42
  -6   0 -11    0.62    0.39
  12  -1 -11    2.34    0.52
 -12   1  11    2.00    0.56
  11  -1 -11    0.23    0.36
 -11   1  11    0.16    0.42
  10  -1 -11    0.57    0.35
 -10   1  11    0.27    0.39
   9  -1 -11    0.50    0.30
   9  -1 -11    0.04    0.24
   9  -1 -11    0.77    0.35
   8  -1 -11    0.06    0.25
   8  -1 -11    0.42    0.29
   8  -1 -11    0.84    0.29
  -8   1  11    0.27    0.45
   7  -1 -11    0.51    0.26
   7  -1 -11    0.23    0.27
   7  -1 -11    0.01    0.23
  -7   1  11    0.13    0.41
   6  -1 -11    8.66    0.61
   6  -1 -11    7.54    0.53
   6  -1 -11    6.82    0.60
  -6   1  11    8.22    0.80
   5  -1 -11    6.24    0.55
   5  -1 -11    7.57    0.48
   5  -1 -11    6.58    0.55
  -5   1  11    7.42    0.76
   4  -1 -11    5.74    0.47
   4  -1 -11    4.65    0.50
  -4   1  11    5.38    0.66
   3  -1 -11    2.40    0.30
   3  -1 -11    1.85    0.35
  -3   1  11    2.37    0.48
   2  -1 -11    0.51    0.19
   2  -1 -11    0.32    0.25
  -2   1  11    0.49    0.36
   1  -1 -11   13.02    0.73
   1  -1 -11   12.06    0.64
   1  -1 -11   13.60    0.72
   1  -1 -11   12.52    0.81
  -1   1  11   11.10    0.95
   0  -1 -11   -0.07    0.19
   0  -1 -11   -0.21    0.13
   0  -1 -11   -0.19    0.23
   0  -1 -11    0.09    0.19
   0   1  11   -0.09    0.32
  -1  -1 -11    1.01    0.32
  -1  -1 -11    0.75    0.24
  -1  -1 -11    1.04    0.28
   1   1  11    1.01    0.39
  -2  -1 -11    0.17    0.21
  -2  -1 -11   -0.02    0.24
  -2  -1 -11    0.20    0.24
   2   1  11    0.19    0.32
  -3  -1 -11    0.07    0.26
  -3  -1 -11   -0.14    0.25
   3   1  11    0.45    0.37
  -4  -1 -11    1.35    0.36
  -4  -1 -11    1.89    0.41
   4   1  11    1.79    0.48
  -5  -1 -11    1.19    0.41
  -5  -1 -11    1.45    0.39
  12  -2 -11    0.25    0.41
 -12   2  11    0.06    0.46
  11  -2 -11    1.33    0.45
 -11   2  11    1.48    0.48
  10  -2 -11   -0.10    0.32
   9  -2 -11    4.99    0.58
   9  -2 -11    3.80    0.50
   9  -2 -11    6.76    0.57
  -9   2  11    2.56    0.70
   8  -2 -11    4.05    0.53
   8  -2 -11    4.85    0.50
   8  -2 -11    5.10    0.52
  -8   2  11    4.89    0.71
   7  -2 -11    5.41    0.55
   7  -2 -11    4.24    0.46
   7  -2 -11    5.49    0.53
  -7   2  11    5.90    0.73
   6  -2 -11   13.80    0.88
   6  -2 -11   15.06    0.85
  -6   2  11   13.39    1.10
   5  -2 -11    8.88    0.63
   5  -2 -11    9.88    0.70
  -5   2  11    9.04    0.88
   4  -2 -11    4.02    0.41
   4  -2 -11    3.32    0.45
  -4   2  11    4.99    0.67
   3  -2 -11    4.76    0.52
   3  -2 -11    4.92    0.43
  -3   2  11    4.31    0.62
   2  -2 -11    0.42    0.19
   2  -2 -11    0.27    0.18
   2  -2 -11    0.03    0.23
  -2   2  11   -0.21    0.33
   1  -2 -11    0.72    0.22
   1  -2 -11    1.00    0.23
   1  -2 -11    0.82    0.30
   1  -2 -11    0.79    0.20
  -1   2  11    0.45    0.39
   0  -2 -11   -0.03    0.18
   0  -2 -11   -0.19    0.19
   0  -2 -11    0.02    0.22
   0  -2 -11   -0.11    0.15
   0   2  11   -0.11    0.34
  -1  -2 -11    0.03    0.15
  -1  -2 -11    0.26    0.22
  -1  -2 -11   -0.02    0.24
  -1  -2 -11    0.05    0.20
   1   2  11    0.22    0.35
  -2  -2 -11    0.33    0.27
  -2  -2 -11    0.22    0.23
  -2  -2 -11    0.32    0.26
   2   2  11    0.56    0.39
  -3  -2 -11    0.47    0.31
  -3  -2 -11    0.44    0.29
   3   2  11    0.68    0.43
  -4  -2 -11    0.54    0.31
  -4  -2 -11   -0.17    0.29
   4   2  11    0.48    0.46
  -5  -2 -11    2.10    0.46
  11  -3 -11   -0.41    0.35
  10  -3 -11    2.81    0.53
   9  -3 -11   -0.19    0.29
   9  -3 -11    0.19    0.32
   9  -3 -11   -0.13    0.31
   8  -3 -11    3.86    0.50
   8  -3 -11    3.35    0.45
   8  -3 -11    3.75    0.50
  -8   3  11    2.94    0.70
   7  -3 -11    0.25    0.27
   7  -3 -11    0.18    0.28
  -7   3  11   -0.57    0.46
   6  -3 -11    3.62    0.48
   6  -3 -11    4.01    0.47
  -6   3  11    3.75    0.66
   5  -3 -11    3.69    0.49
   5  -3 -11    3.34    0.41
  -5   3  11    2.15    0.59
   4  -3 -11    0.09    0.22
   4  -3 -11    0.71    0.31
  -4   3  11    0.56    0.45
   3  -3 -11    0.29    0.21
   3  -3 -11    0.78    0.29
  -3   3  11   -0.21    0.39
   2  -3 -11   -0.02    0.19
   2  -3 -11   -0.11    0.16
   2  -3 -11   -0.21    0.23
  -2   3  11    0.22    0.42
   1  -3 -11    9.09    0.70
   1  -3 -11    8.42    0.55
   1  -3 -11   10.64    0.59
   1  -3 -11    8.92    0.60
  -1   3  11    7.20    0.85
   0  -3 -11    0.43    0.27
   0  -3 -11   -0.07    0.18
   0  -3 -11   -0.01    0.20
   0  -3 -11   -0.01    0.21
   0   3  11    0.95    0.46
  -1  -3 -11    6.72    0.64
  -1  -3 -11    7.35    0.55
  -1  -3 -11    8.08    0.58
  -1  -3 -11    6.28    0.45
   1   3  11    7.30    0.83
  -2  -3 -11   -0.06    0.25
  -2  -3 -11    0.02    0.27
  -2  -3 -11    0.02    0.17
   2   3  11    0.07    0.44
  -3  -3 -11    1.85    0.39
  -3  -3 -11    1.67    0.38
   3   3  11    0.71    0.51
  -4  -3 -11   -0.13    0.28
  -4  -3 -11   -0.27    0.29
  11  -4 -11    0.01    0.39
  10  -4 -11    1.84    0.47
   9  -4 -11    2.06    0.46
   8  -4 -11    2.29    0.44
   7  -4 -11    1.58    0.37
   7  -4 -11    1.18    0.38
   6  -4 -11    0.63    0.34
   6  -4 -11    0.68    0.29
  -6   4  11    0.54    0.54
   5  -4 -11    1.94    0.41
   5  -4 -11    1.82    0.35
  -5   4  11    1.45    0.57
   4  -4 -11    0.18    0.24
   4  -4 -11    0.27    0.29
  -4   4  11    0.02    0.45
   3  -4 -11    0.94    0.28
   3  -4 -11    0.60    0.31
  -3   4  11    0.53    0.48
   2  -4 -11   -0.16    0.21
   2  -4 -11    0.02    0.26
  -2   4  11   -0.23    0.44
   1  -4 -11    0.67    0.24
   1  -4 -11    0.67    0.24
   1  -4 -11    0.72    0.32
  -1   4  11    0.84    0.49
   0  -4 -11   -0.15    0.21
   0  -4 -11   -0.03    0.19
   0  -4 -11   -0.17    0.26
   0   4  11    0.03    0.46
  -1  -4 -11    0.81    0.32
  -1  -4 -11    0.17    0.20
  -1  -4 -11   -0.13    0.22
   1   4  11    0.21    0.49
  -2  -4 -11    0.80    0.30
  -2  -4 -11    0.33    0.22
  -2  -4 -11    0.67    0.32
   2   4  11    0.19    0.51
  -3  -4 -11    2.36    0.43
  -3  -4 -11    1.79    0.40
   3   4  11   -0.08    0.56
  -4  -4 -11    0.41    0.35
  11  -5 -11    0.01    0.39
  10  -5 -11    1.89    0.49
   9  -5 -11    0.04    0.35
   8  -5 -11    0.31    0.34
   7  -5 -11    1.36    0.37
   6  -5 -11    2.03    0.40
   6  -5 -11    2.40    0.47
   5  -5 -11    2.86    0.42
   5  -5 -11    3.69    0.53
   4  -5 -11    2.41    0.46
   4  -5 -11    2.80    0.41
  -4   5  11    2.47    0.68
   3  -5 -11    1.00    0.37
   3  -5 -11    2.20    0.35
  -3   5  11    1.54    0.61
   2  -5 -11    0.36    0.31
   2  -5 -11    0.05    0.20
   2  -5 -11   -0.04    0.23
  -2   5  11    0.44    0.52
   1  -5 -11    0.33    0.30
   1  -5 -11    0.37    0.24
   1  -5 -11    0.82    0.27
  -1   5  11   -0.17    0.50
   0  -5 -11    0.81    0.26
   0  -5 -11    0.64    0.26
   0  -5 -11    0.46    0.30
   0   5  11   -0.32    0.54
  -1  -5 -11    5.47    0.48
  -1  -5 -11    6.69    0.59
  -1  -5 -11    7.15    0.67
   1   5  11    5.02    0.89
  -2  -5 -11    0.31    0.30
  -2  -5 -11    0.38    0.32
  -2  -5 -11    0.30    0.24
  -3  -5 -11    4.07    0.53
  -3  -5 -11    2.87    0.47
  10  -6 -11    0.46    0.42
   9  -6 -11    1.36    0.45
   8  -6 -11   -0.10    0.31
   7  -6 -11    3.18    0.51
   6  -6 -11    2.00    0.40
   5  -6 -11    3.17    0.47
   5  -6 -11    4.11    0.58
   4  -6 -11    0.65    0.31
   4  -6 -11    0.58    0.38
   3  -6 -11    7.56    0.79
   3  -6 -11    8.73    0.64
   2  -6 -11    0.10    0.21
   2  -6 -11    0.45    0.34
   2  -6 -11    0.24    0.26
   1  -6 -11    0.42    0.32
   1  -6 -11    0.01    0.23
   1  -6 -11   -0.05    0.25
   0  -6 -11    0.08    0.25
   0  -6 -11   -0.03    0.24
   0  -6 -11   -0.17    0.28
  -1  -6 -11    0.28    0.30
  -1  -6 -11   -0.08    0.26
  -1  -6 -11   -0.11    0.29
  -2  -6 -11   -0.17    0.25
  -2  -6 -11    0.15    0.29
  -2  -6 -11   -0.03    0.30
   9  -7 -11    0.56    0.42
   8  -7 -11    0.77    0.39
   7  -7 -11    0.18    0.33
   6  -7 -11   -0.23    0.31
   5  -7 -11    0.55    0.39
   5  -7 -11    0.13    0.30
   4  -7 -11    2.84    0.44
   4  -7 -11    2.09    0.51
   3  -7 -11    0.73    0.39
   3  -7 -11   -0.02    0.28
   2  -7 -11    0.29    0.28
   2  -7 -11    0.44    0.36
   1  -7 -11    1.93    0.37
   1  -7 -11    1.88    0.43
   0  -7 -11   -0.05    0.27
   0  -7 -11    0.37    0.32
   0  -7 -11   -0.10    0.25
  -1  -7 -11    6.10    0.69
  -1  -7 -11    5.94    0.56
  -1  -7 -11    8.08    0.67
   9  -8 -11   -0.07    0.41
   8  -8 -11    0.99    0.44
   7  -8 -11    1.79    0.44
   6  -8 -11   -0.06    0.33
   5  -8 -11    1.55    0.42
   5  -8 -11    1.41    0.51
   4  -8 -11    0.81    0.44
   4  -8 -11    0.62    0.36
   3  -8 -11    1.67    0.40
   3  -8 -11    2.02    0.51
   2  -8 -11    0.04    0.36
   2  -8 -11   -0.39    0.27
   1  -8 -11    0.32    0.32
   1  -8 -11   -0.17    0.33
   7  -9 -11    0.13    0.38
   6  -9 -11    0.52    0.38
   5  -9 -11    0.28    0.34
   4  -9 -11    2.63    0.48
   4  -9 -11    1.69    0.53
   3  -9 -11    0.35    0.34
   3  -9 -11   -0.11    0.39
   1  13 -12    0.26    0.39
   1  13 -12    0.02    0.35
   0  13 -12    0.83    0.41
   0  13 -12    0.98    0.43
   4  12 -12    2.99    0.55
   3  12 -12   -0.11    0.36
   2  12 -12    3.99    0.55
   1  12 -12    0.72    0.39
   0  12 -12    0.84    0.35
   0  12 -12    0.87    0.38
  -1  12 -12   -0.31    0.33
  -1  12 -12   -0.25    0.33
  -2  12 -12    0.32    0.37
  -2  12 -12    0.04    0.33
  -3  12 -12    0.06    0.32
  -3  12 -12   -0.44    0.34
   6  11 -12    3.29    0.60
   5  11 -12    0.55    0.42
   4  11 -12    1.58    0.46
   3  11 -12    0.17    0.35
   2  11 -12    6.41    0.63
   1  11 -12    0.41    0.34
   0  11 -12    3.44    0.47
   0  11 -12    4.32    0.53
  -1  11 -12    0.33    0.31
  -1  11 -12    0.97    0.37
  -2  11 -12    0.01    0.33
  -2  11 -12   -0.12    0.30
  -3  11 -12    1.87    0.44
  -3  11 -12    1.36    0.35
  -4  11 -12    0.52    0.31
  -4  11 -12    0.46    0.36
   7  10 -12    1.70    0.50
   6  10 -12    0.28    0.37
   5  10 -12   -0.13    0.33
   4  10 -12    0.68    0.38
   3  10 -12    0.07    0.32
   2  10 -12    3.81    0.49
   1  10 -12    0.59    0.32
   0  10 -12    1.85    0.36
   0  10 -12    2.66    0.44
  -1  10 -12    1.12    0.32
  -1  10 -12    0.87    0.37
  -2  10 -12    2.09    0.42
  -2  10 -12    1.40    0.32
  -3  10 -12    2.14    0.34
  -3  10 -12    2.24    0.44
  -4  10 -12    2.60    0.36
  -4  10 -12    2.98    0.49
   8   9 -12    4.20    0.64
   7   9 -12   -0.05    0.36
   6   9 -12    8.42    0.77
   5   9 -12    0.18    0.33
   4   9 -12   -0.20    0.29
   3   9 -12    0.38    0.31
   2   9 -12    4.06    0.47
   1   9 -12    0.20    0.26
   0   9 -12   10.28    0.75
   0   9 -12   10.13    0.66
  -1   9 -12    0.01    0.30
  -1   9 -12   -0.07    0.24
  -2   9 -12    0.39    0.32
  -2   9 -12    0.28    0.25
  -3   9 -12    1.24    0.28
  -3   9 -12    1.26    0.38
  -4   9 -12    0.03    0.23
  -4   9 -12    0.20    0.33
  -5   9 -12    5.10    0.60
   9   8 -12    1.69    0.49
   8   8 -12    0.01    0.37
   7   8 -12    1.47    0.43
   6   8 -12   -0.07    0.31
   5   8 -12    0.25    0.31
   4   8 -12   -0.10    0.28
   3   8 -12    0.70    0.30
   2   8 -12   20.82    1.07
   1   8 -12    0.64    0.27
   0   8 -12    6.47    0.59
   0   8 -12    6.57    0.49
  -1   8 -12    3.77    0.37
  -1   8 -12    3.71    0.48
  -2   8 -12    0.98    0.34
  -2   8 -12    0.89    0.25
  -3   8 -12    0.37    0.32
  -3   8 -12    0.57    0.22
  -4   8 -12    1.53    0.39
  -5   8 -12    0.44    0.36
   9   7 -12    0.27    0.39
   8   7 -12    2.44    0.47
   7   7 -12    0.08    0.31
   6   7 -12   11.13    0.79
   5   7 -12    0.31    0.30
   4   7 -12   -0.01    0.24
   4   7 -12    0.67    0.29
   3   7 -12   -0.24    0.23
   3   7 -12    0.01    0.23
   2   7 -12    2.10    0.34
   2   7 -12    1.12    0.29
   1   7 -12    0.28    0.27
   1   7 -12    0.38    0.23
   0   7 -12   17.68    1.03
   0   7 -12   16.13    0.85
   0   7 -12   18.75    1.01
  -1   7 -12    2.70    0.42
  -1   7 -12    2.97    0.30
  -1   7 -12    3.09    0.45
  -2   7 -12    3.91    0.52
  -2   7 -12    4.60    0.50
  -2   7 -12    4.66    0.36
  -3   7 -12   -0.38    0.26
  -4   7 -12    0.16    0.30
  -5   7 -12    2.65    0.45
  -6   7 -12    0.19    0.31
  10   6 -12    1.05    0.45
   9   6 -12    3.24    0.55
   7   6 -12    4.82    0.57
   6   6 -12    0.29    0.30
   5   6 -12    2.76    0.35
   5   6 -12    1.55    0.37
   4   6 -12    0.01    0.24
   4   6 -12   -0.14    0.20
   3   6 -12   -0.24    0.21
   3   6 -12   -0.34    0.22
   2   6 -12    7.93    0.55
   2   6 -12    8.42    0.63
   1   6 -12    0.19    0.19
   1   6 -12   -0.19    0.23
   0   6 -12    4.53    0.35
   0   6 -12    3.49    0.45
   0   6 -12    3.37    0.43
  -1   6 -12    0.60    0.30
  -1   6 -12    0.51    0.28
  -1   6 -12    0.23    0.17
  -2   6 -12    1.03    0.31
  -2   6 -12    0.94    0.34
  -3   6 -12    0.24    0.27
  -3   6 -12    0.18    0.31
  -4   6 -12    9.92    0.79
  -4   6 -12    8.54    0.71
  -5   6 -12    0.38    0.31
  -5   6 -12    1.04    0.36
  -6   6 -12    1.59    0.38
  10   5 -12    3.21    0.55
   9   5 -12   -0.03    0.33
   8   5 -12    7.56    0.71
   7   5 -12   -0.50    0.26
   6   5 -12   10.59    0.69
   6   5 -12   10.79    0.75
   5   5 -12    0.20    0.26
   5   5 -12    0.08    0.21
   4   5 -12    4.19    0.46
   4   5 -12    4.74    0.48
   3   5 -12    0.32    0.24
   3   5 -12   -0.21    0.20
   2   5 -12    9.31    0.65
   2   5 -12    7.79    0.54
   1   5 -12    0.18    0.19
   1   5 -12    0.00    0.24
   0   5 -12    2.85    0.38
   0   5 -12    2.86    0.27
   0   5 -12    2.94    0.41
  -1   5 -12   -0.16    0.25
  -1   5 -12    0.04    0.24
  -2   5 -12    1.36    0.32
  -2   5 -12    1.50    0.38
  -3   5 -12    0.99    0.36
  -3   5 -12   -0.02    0.26
  -4   5 -12    0.16    0.32
  -4   5 -12   -0.07    0.28
  -4   5 -12    0.13    0.27
  -5   5 -12    1.96    0.40
  -5   5 -12    2.28    0.41
  -5   5 -12    1.86    0.45
  -6   5 -12    0.11    0.32
  11   4 -12    4.38    0.61
  10   4 -12    0.52    0.37
   9   4 -12    0.75    0.35
   8   4 -12    0.28    0.30
   7   4 -12    0.40    0.28
  -7  -4  12    1.01    0.35
   6   4 -12    0.51    0.28
   6   4 -12    0.03    0.20
   5   4 -12    4.63    0.47
   5   4 -12    3.70    0.40
   4   4 -12    0.19    0.23
   4   4 -12    0.11    0.23
   3   4 -12   -0.21    0.21
   3   4 -12   -0.19    0.20
   2   4 -12    3.90    0.36
   2   4 -12    2.83    0.41
   1   4 -12   -0.24    0.21
   1   4 -12    0.22    0.18
   0   4 -12    3.19    0.45
   0   4 -12    3.31    0.41
   0   4 -12    3.84    0.29
  -1   4 -12    0.40    0.25
  -1   4 -12    0.42    0.27
  -2   4 -12    2.90    0.44
  -2   4 -12    4.02    0.44
  -3   4 -12    0.34    0.26
  -3   4 -12    0.77    0.29
  -3   4 -12    0.59    0.33
  -4   4 -12    0.14    0.31
  -4   4 -12   -0.15    0.27
  -4   4 -12    0.12    0.27
  -5   4 -12    0.13    0.35
  -5   4 -12    0.40    0.31
  -5   4 -12    0.18    0.31
   5  -4  12    0.21    0.37
  -6   4 -12    1.61    0.41
  -6   4 -12    2.24    0.50
  11   3 -12    1.65    0.46
  10   3 -12    0.53    0.36
   9   3 -12    0.96    0.35
   8   3 -12    1.61    0.37
  -8  -3  12    1.94    0.43
   7   3 -12    2.34    0.39
  -7  -3  12    2.70    0.46
   6   3 -12   17.48    1.01
   6   3 -12   19.70    1.02
  -6  -3  12   20.00    1.23
   5   3 -12    1.92    0.30
   5   3 -12    1.86    0.33
  -5  -3  12    1.83    0.41
   4   3 -12   22.88    1.20
   4   3 -12   23.49    1.14
   3   3 -12    0.74    0.24
   3   3 -12    1.11    0.28
   2   3 -12    1.41    0.33
   2   3 -12    1.81    0.27
   1   3 -12   -0.10    0.22
   1   3 -12    0.12    0.17
   0   3 -12    3.82    0.43
   0   3 -12    4.05    0.49
  -1   3 -12   -0.04    0.22
  -1   3 -12    0.12    0.26
  -2   3 -12    4.89    0.48
  -2   3 -12    4.79    0.47
  -2   3 -12    4.46    0.54
   2  -3  12    4.22    0.60
  -3   3 -12   -0.30    0.23
  -3   3 -12   -0.07    0.28
  -3   3 -12   -0.20    0.23
   3  -3  12    0.11    0.33
  -4   3 -12    1.09    0.34
  -4   3 -12    0.48    0.30
  -4   3 -12    1.01    0.37
   4  -3  12    1.48    0.44
  -5   3 -12    1.46    0.39
  -5   3 -12    1.33    0.42
   5  -3  12    1.76    0.46
  -6   3 -12    0.07    0.36
  11   2 -12    4.47    0.61
  10   2 -12    0.59    0.37
   9   2 -12    0.06    0.29
   8   2 -12    1.02    0.33
  -8  -2  12    1.25    0.39
   7   2 -12    3.40    0.45
   7   2 -12    3.89    0.40
  -7  -2  12    4.25    0.54
   6   2 -12   -0.03    0.24
   6   2 -12    0.06    0.20
  -6  -2  12    0.22    0.31
   5   2 -12   17.48    0.98
   5   2 -12   18.13    0.95
  -5  -2  12   18.21    1.18
   4   2 -12   12.29    0.74
   4   2 -12   14.38    0.82
  -4  -2  12   12.85    0.96
   3   2 -12    1.17    0.29
   3   2 -12    1.41    0.27
  -3  -2  12    1.77    0.42
   2   2 -12    0.15    0.18
   2   2 -12   -0.12    0.21
  -2  -2  12    0.35    0.31
   1   2 -12    0.18    0.17
   1   2 -12    0.66    0.27
   1   2 -12    0.33    0.22
  -1  -2  12    0.24    0.30
   0   2 -12    2.82    0.37
   0   2 -12    3.14    0.44
   0  -2  12    3.06    0.51
  -1   2 -12    0.40    0.29
  -1   2 -12    0.39    0.23
  -1   2 -12    0.30    0.23
   1  -2  12    0.13    0.32
  -2   2 -12    0.25    0.30
  -2   2 -12    0.36    0.26
  -2   2 -12    0.53    0.25
   2  -2  12    0.90    0.37
  -3   2 -12    0.67    0.33
  -3   2 -12    0.85    0.29
  -3   2 -12    0.30    0.28
   3  -2  12    0.63    0.37
  -4   2 -12    0.83    0.32
  -4   2 -12    0.36    0.30
  -4   2 -12    1.28    0.39
   4  -2  12    1.25    0.42
  -5   2 -12    0.08    0.34
  -5   2 -12    0.71    0.34
  11   1 -12    2.05    0.49
  10   1 -12    0.85    0.39
   9   1 -12    0.57    0.33
   8   1 -12    2.10    0.40
   8   1 -12    2.35    0.33
  -8  -1  12    3.00    0.51
   7   1 -12    4.13    0.48
   7   1 -12    4.26    0.44
  -7  -1  12    3.90    0.55
   6   1 -12    4.08    0.43
   6   1 -12    4.34    0.47
  -6  -1  12    4.43    0.59
   5   1 -12    6.51    0.53
   5   1 -12    6.73    0.53
  -5  -1  12    6.69    0.71
   4   1 -12   17.04    0.93
   4   1 -12   18.10    1.01
  -4  -1  12   19.77    1.23
   3   1 -12    0.05    0.22
   3   1 -12   -0.36    0.18
  -3  -1  12   -0.01    0.29
   2   1 -12    1.99    0.28
   2   1 -12    3.34    0.43
  -2  -1  12    2.43    0.46
   1   1 -12    0.30    0.24
   1   1 -12    0.02    0.16
   1   1 -12   -0.05    0.19
  -1  -1  12    0.16    0.30
   0   1 -12    0.44    0.27
   0   1 -12    0.45    0.23
   0  -1  12    0.22    0.33
  -1   1 -12    0.78    0.26
  -1   1 -12    0.88    0.33
  -1   1 -12    1.59    0.30
   1  -1  12    0.73    0.37
  -2   1 -12    9.69    0.70
  -2   1 -12   10.00    0.68
  -2   1 -12   10.68    0.77
   2  -1  12   10.71    0.90
  -3   1 -12    0.42    0.28
  -3   1 -12    0.27    0.33
  -3   1 -12   -0.11    0.25
   3  -1  12    0.39    0.36
  -4   1 -12    0.04    0.28
  -4   1 -12   -0.10    0.30
   4  -1  12    0.38    0.37
  -5   1 -12    0.00    0.31
  -5   1 -12    0.36    0.36
  11   0 -12    3.16    0.53
  10   0 -12    1.43    0.42
   9   0 -12   -0.24    0.29
   8   0 -12    2.93    0.38
   8   0 -12    2.47    0.42
  -8   0  12    2.44    0.52
   7   0 -12    0.18    0.22
   7   0 -12    0.72    0.31
  -7   0  12    0.82    0.40
   6   0 -12   -0.10    0.23
   6   0 -12    0.24    0.23
  -6   0  12    0.60    0.39
   5   0 -12    0.38    0.24
   5   0 -12    0.47    0.25
  -5   0  12    0.61    0.38
   4   0 -12    0.87    0.28
   4   0 -12    1.10    0.28
  -4   0  12    1.15    0.41
   3   0 -12   -0.16    0.18
   3   0 -12   -0.08    0.21
  -3   0  12    0.50    0.33
   2   0 -12    0.24    0.18
   2   0 -12    0.27    0.25
  -2   0  12    0.28    0.31
   1   0 -12   -0.10    0.22
   1   0 -12   -0.07    0.16
   1   0 -12    0.08    0.20
  -1   0  12   -0.02    0.32
   0   0 -12   23.23    1.27
   0   0 -12   21.58    1.15
   0   0 -12   23.09    1.15
   0   0  12   22.28    1.44
  -1   0 -12    0.90    0.27
  -1   0 -12    1.46    0.31
  -1   0 -12    1.81    0.39
   1   0  12    0.69    0.39
  -2   0 -12    1.06    0.33
  -2   0 -12    0.42    0.27
  -2   0 -12    0.95    0.28
   2   0  12    1.03    0.41
  -3   0 -12    1.46    0.40
  -3   0 -12    1.03    0.31
  -3   0 -12    1.45    0.32
   3   0  12    1.30    0.45
  -4   0 -12   -0.12    0.29
  -4   0 -12    0.15    0.34
   4   0  12    0.43    0.39
  -5   0 -12    0.33    0.36
  11  -1 -12    1.47    0.47
  10  -1 -12    0.86    0.39
   9  -1 -12    0.19    0.26
   9  -1 -12    0.06    0.31
  -9   1  12    0.04    0.50
   8  -1 -12    3.25    0.42
   8  -1 -12    3.30    0.47
  -8   1  12    3.27    0.62
   7  -1 -12    2.86    0.44
   7  -1 -12    3.06    0.41
  -7   1  12    3.26    0.60
   6  -1 -12    4.26    0.48
   6  -1 -12    3.76    0.46
  -6   1  12    4.55    0.65
   5  -1 -12    0.87    0.27
   5  -1 -12    0.79    0.28
  -5   1  12    0.65    0.41
   4  -1 -12   12.14    0.72
   4  -1 -12   11.65    0.80
  -4   1  12   13.35    1.00
   3  -1 -12    0.41    0.22
   3  -1 -12    0.41    0.27
  -3   1  12    0.76    0.40
   2  -1 -12    3.86    0.47
   2  -1 -12    4.15    0.39
   2  -1 -12    3.80    0.36
  -2   1  12    3.99    0.60
   1  -1 -12    0.12    0.18
   1  -1 -12    0.03    0.24
   1  -1 -12    0.08    0.19
  -1   1  12    0.17    0.34
   0  -1 -12   25.68    1.25
   0  -1 -12   23.91    1.21
   0  -1 -12   26.64    1.37
   0   1  12   21.53    1.49
  -1  -1 -12    0.35    0.29
  -1  -1 -12    0.53    0.26
  -1  -1 -12    0.16    0.22
   1   1  12   -0.12    0.35
  -2  -1 -12    6.53    0.59
  -2  -1 -12    5.60    0.61
  -2  -1 -12    7.28    0.57
   2   1  12    6.51    0.76
  -3  -1 -12    0.32    0.27
  -3  -1 -12    0.03    0.29
   3   1  12   -0.03    0.36
  -4  -1 -12    1.12    0.36
  -4  -1 -12    0.95    0.39
   4   1  12    1.72    0.48
  11  -2 -12    2.83    0.56
  10  -2 -12    0.15    0.35
  10  -2 -12    0.57    0.32
   9  -2 -12    2.83    0.43
   9  -2 -12    2.98    0.50
  -9   2  12    0.52    0.60
   8  -2 -12    0.26    0.30
   8  -2 -12    0.19    0.28
  -8   2  12   -0.47    0.47
   7  -2 -12    0.84    0.28
   7  -2 -12    0.76    0.30
  -7   2  12    0.61    0.50
   6  -2 -12   -0.03    0.24
   6  -2 -12   -0.01    0.24
  -6   2  12    0.13    0.42
   5  -2 -12    6.05    0.59
   5  -2 -12    5.07    0.51
  -5   2  12    5.92    0.74
   4  -2 -12    0.61    0.30
   4  -2 -12    0.71    0.26
  -4   2  12    0.35    0.41
   3  -2 -12    1.30    0.34
   3  -2 -12    1.80    0.29
  -3   2  12    1.80    0.49
   2  -2 -12    0.02    0.24
   2  -2 -12   -0.13    0.18
   2  -2 -12   -0.03    0.18
  -2   2  12    0.45    0.40
   1  -2 -12    0.50    0.28
   1  -2 -12    0.48    0.23
   1  -2 -12    0.16    0.19
   1  -2 -12    0.34    0.21
  -1   2  12    0.38    0.39
   0  -2 -12    1.66    0.32
   0  -2 -12    1.56    0.38
   0  -2 -12    1.56    0.28
   0  -2 -12    1.38    0.23
   0   2  12    1.81    0.49
  -1  -2 -12    0.02    0.23
  -1  -2 -12    0.00    0.28
  -1  -2 -12   -0.10    0.21
   1   2  12   -0.02    0.38
  -2  -2 -12    3.80    0.47
  -2  -2 -12    3.36    0.49
   2   2  12    3.73    0.62
  -3  -2 -12    0.31    0.30
  -3  -2 -12    0.84    0.34
   3   2  12    0.75    0.47
  -4  -2 -12    0.12    0.34
  11  -3 -12    1.49    0.47
  10  -3 -12    1.17    0.38
  10  -3 -12    1.36    0.44
   9  -3 -12    5.00    0.61
   9  -3 -12    4.63    0.55
   8  -3 -12    1.40    0.39
   8  -3 -12    1.89    0.41
  -8   3  12    0.44    0.60
   7  -3 -12    0.10    0.29
   7  -3 -12    0.18    0.27
  -7   3  12   -0.51    0.48
   6  -3 -12    2.50    0.44
   6  -3 -12    2.35    0.39
  -6   3  12    2.01    0.60
   5  -3 -12    0.43    0.27
   5  -3 -12    0.24    0.29
  -5   3  12    0.51    0.48
   4  -3 -12    6.71    0.65
   4  -3 -12    6.46    0.55
  -4   3  12    5.97    0.80
   3  -3 -12    1.31    0.24
   3  -3 -12    0.70    0.26
   3  -3 -12    0.86    0.31
  -3   3  12    0.67    0.46
   2  -3 -12    6.54    0.50
   2  -3 -12    5.44    0.61
  -2   3  12    7.98    0.89
   1  -3 -12   -0.31    0.24
   1  -3 -12    0.01    0.21
   1  -3 -12   -0.24    0.18
  -1   3  12   -0.10    0.41
   0  -3 -12    3.27    0.33
   0  -3 -12    3.36    0.42
   0  -3 -12    3.32    0.48
   0   3  12    3.05    0.62
  -1  -3 -12   -0.37    0.17
  -1  -3 -12    0.03    0.25
  -1  -3 -12    0.06    0.28
   1   3  12   -0.46    0.41
  -2  -3 -12    2.87    0.44
  -2  -3 -12    3.08    0.47
   2   3  12    2.40    0.62
  -3  -3 -12    0.46    0.33
  -3  -3 -12    0.00    0.30
   3   3  12    0.13    0.51
  11  -4 -12    1.14    0.50
  11  -4 -12    0.88    0.44
  10  -4 -12   -0.05    0.36
  10  -4 -12   -0.07    0.35
   9  -4 -12    2.59    0.49
   9  -4 -12    2.08    0.46
   8  -4 -12    1.93    0.43
   8  -4 -12    1.22    0.39
   7  -4 -12    0.15    0.30
   7  -4 -12   -0.13    0.29
  -7   4  12   -1.24    0.53
   6  -4 -12    0.76    0.35
   6  -4 -12    0.83    0.32
  -6   4  12    0.39    0.55
   5  -4 -12   -0.29    0.25
   5  -4 -12    0.32    0.32
  -5   4  12   -0.19    0.51
   4  -4 -12   -0.15    0.24
   4  -4 -12   -0.02    0.28
  -4   4  12    0.15    0.50
   3  -4 -12    0.41    0.26
   3  -4 -12    0.23    0.29
  -3   4  12    0.11    0.47
   2  -4 -12    0.41    0.31
  -2   4  12   -0.17    0.47
   1  -4 -12    0.12    0.29
   1  -4 -12   -0.01    0.22
   1  -4 -12    0.08    0.22
  -1   4  12    0.07    0.49
   0  -4 -12    0.27    0.22
   0  -4 -12    0.23    0.29
   0  -4 -12    0.14    0.25
   0   4  12   -0.48    0.47
  -1  -4 -12    0.27    0.30
  -1  -4 -12    0.14    0.27
  -1  -4 -12   -0.11    0.20
   1   4  12   -0.58    0.46
  -2  -4 -12    3.76    0.54
  -2  -4 -12    4.38    0.52
   2   4  12    3.12    0.74
  -3  -4 -12    0.77    0.36
   3   4  12   -0.14    0.63
  10  -5 -12    0.24    0.39
   9  -5 -12    7.54    0.76
   8  -5 -12    0.21    0.35
   8  -5 -12   -0.23    0.36
   7  -5 -12    0.32    0.36
   7  -5 -12    0.98    0.37
   6  -5 -12    3.15    0.52
   6  -5 -12    2.49    0.43
   5  -5 -12    1.03    0.39
   5  -5 -12    0.47    0.31
  -5   5  12    0.64    0.63
   4  -5 -12    4.47    0.50
   4  -5 -12    5.20    0.62
  -4   5  12    2.77    0.76
   3  -5 -12    0.21    0.26
   3  -5 -12   -0.15    0.29
  -3   5  12   -0.73    0.52
   2  -5 -12    2.75    0.48
   2  -5 -12    3.07    0.40
  -2   5  12    1.74    0.67
   1  -5 -12   -0.02    0.22
   1  -5 -12    0.15    0.31
   1  -5 -12    0.08    0.25
  -1   5  12   -1.09    0.51
   0  -5 -12   -0.18    0.29
   0  -5 -12   -0.06    0.25
   0  -5 -12    0.36    0.26
   0   5  12   -0.55    0.57
  -1  -5 -12   -0.08    0.23
  -1  -5 -12    0.18    0.28
  -1  -5 -12    0.22    0.31
   1   5  12   -1.26    0.55
  -2  -5 -12    1.56    0.40
  -2  -5 -12    0.92    0.39
  10  -6 -12    0.53    0.45
   9  -6 -12    2.04    0.51
   8  -6 -12   -0.30    0.34
   7  -6 -12    4.00    0.64
   7  -6 -12    3.80    0.55
   6  -6 -12    1.55    0.47
   6  -6 -12    1.20    0.39
   5  -6 -12    0.25    0.31
   5  -6 -12   -0.32    0.32
   4  -6 -12   -0.30    0.33
   4  -6 -12    0.36    0.32
   3  -6 -12    1.58    0.45
   3  -6 -12    2.21    0.41
   2  -6 -12    1.87    0.44
   2  -6 -12    1.88    0.37
   1  -6 -12    0.25    0.26
   1  -6 -12    0.29    0.28
   1  -6 -12    0.42    0.34
   0  -6 -12   -0.09    0.27
   0  -6 -12    0.41    0.34
   0  -6 -12   -0.05    0.25
  -1  -6 -12    0.93    0.37
  -1  -6 -12    0.48    0.29
  -1  -6 -12    1.12    0.35
   9  -7 -12   -0.54    0.37
   8  -7 -12    0.34    0.38
   7  -7 -12    5.13    0.72
   7  -7 -12    4.95    0.63
   6  -7 -12   -0.12    0.39
   6  -7 -12    0.18    0.35
   5  -7 -12    1.39    0.48
   5  -7 -12    1.36    0.41
   4  -7 -12    1.78    0.41
   4  -7 -12    2.02    0.51
   3  -7 -12   -0.06    0.35
   3  -7 -12   -0.08    0.29
   2  -7 -12    3.27    0.55
   2  -7 -12    2.97    0.45
   1  -7 -12    0.26    0.35
   1  -7 -12    0.49    0.31
   7  -8 -12    0.57    0.40
   6  -8 -12   -0.08    0.42
   6  -8 -12   -0.10    0.34
   5  -8 -12   -0.27    0.38
   5  -8 -12   -0.21    0.36
   4  -8 -12    0.33    0.34
   4  -8 -12   -0.13    0.41
   3  -8 -12    1.24    0.39
   3  -8 -12    0.75    0.43
   3  12 -13    4.45    0.60
   2  12 -13    0.21    0.38
   1  12 -13   10.91    0.82
   1  12 -13   12.24    0.87
   0  12 -13   -0.05    0.35
   0  12 -13    0.04    0.35
  -1  12 -13    2.38    0.48
  -1  12 -13    2.04    0.44
   5  11 -13    4.86    0.67
   4  11 -13    0.03    0.36
   3  11 -13   -0.52    0.34
   2  11 -13    0.44    0.37
   1  11 -13    0.17    0.33
   0  11 -13    3.58    0.52
   0  11 -13    1.90    0.41
  -1  11 -13   -0.26    0.29
  -1  11 -13   -0.55    0.31
  -2  11 -13    2.33    0.40
  -2  11 -13    2.10    0.46
  -3  11 -13    0.19    0.30
   6  10 -13    1.23    0.45
   5  10 -13    5.27    0.64
   4  10 -13    0.31    0.36
   3  10 -13    0.27    0.35
   2  10 -13    0.17    0.31
   1  10 -13    2.44    0.41
   0  10 -13    3.16    0.48
   0  10 -13    4.06    0.45
  -1  10 -13   13.39    0.83
  -1  10 -13   16.41    0.99
  -2  10 -13    1.15    0.32
  -2  10 -13    0.56    0.37
  -3  10 -13    0.31    0.35
  -3  10 -13    0.55    0.29
   7   9 -13    1.82    0.48
   6   9 -13    3.20    0.52
   5   9 -13    7.35    0.70
   4   9 -13    0.24    0.33
   3   9 -13    0.38    0.32
   2   9 -13   -0.26    0.29
   1   9 -13    2.98    0.41
   0   9 -13    0.04    0.26
   0   9 -13   -0.19    0.28
  -1   9 -13    0.04    0.25
  -1   9 -13    0.06    0.31
  -2   9 -13    1.98    0.43
  -2   9 -13    2.42    0.33
  -3   9 -13    0.82    0.38
  -3   9 -13    0.68    0.26
  -4   9 -13    0.06    0.34
   8   8 -13   -0.50    0.36
   7   8 -13    1.83    0.46
   6   8 -13   -0.34    0.31
   5   8 -13    0.34    0.32
   4   8 -13    0.30    0.28
   4   8 -13    0.50    0.33
   3   8 -13    0.56    0.30
   3   8 -13    0.46    0.30
   2   8 -13    0.19    0.28
   2   8 -13    0.10    0.27
   1   8 -13    6.65    0.54
   1   8 -13    7.88    0.67
   0   8 -13    0.54    0.25
   0   8 -13   -0.14    0.30
   0   8 -13    0.36    0.30
  -1   8 -13    5.70    0.60
  -1   8 -13    6.52    0.48
  -2   8 -13    0.40    0.22
  -2   8 -13   -0.02    0.29
  -3   8 -13    3.94    0.53
  -4   8 -13    0.26    0.34
   9   7 -13    1.44    0.48
   8   7 -13   -0.09    0.36
   7   7 -13    1.38    0.41
   6   7 -13    1.15    0.38
   5   7 -13    2.71    0.44
   4   7 -13   -0.30    0.26
   4   7 -13   -0.25    0.24
   3   7 -13    2.09    0.37
   3   7 -13    1.83    0.35
   2   7 -13    0.21    0.25
   2   7 -13    0.47    0.28
   1   7 -13    0.50    0.25
   1   7 -13    0.01    0.27
   0   7 -13    0.81    0.24
   0   7 -13    0.50    0.29
   0   7 -13    0.75    0.34
  -1   7 -13    2.43    0.41
  -1   7 -13    2.63    0.29
  -1   7 -13    2.59    0.46
  -2   7 -13    0.56    0.36
  -2   7 -13    0.96    0.33
  -3   7 -13    0.51    0.32
  -4   7 -13    0.07    0.31
  -5   7 -13    0.76    0.38
   9   6 -13    0.74    0.40
   8   6 -13    0.02    0.35
   7   6 -13    3.11    0.49
   6   6 -13    0.80    0.35
   5   6 -13    8.75    0.66
   5   6 -13    8.38    0.68
   4   6 -13    1.31    0.34
   4   6 -13    1.50    0.33
   3   6 -13   -0.13    0.24
   3   6 -13   -0.04    0.25
   2   6 -13    0.76    0.30
   2   6 -13   -0.16    0.22
   1   6 -13    5.56    0.44
   1   6 -13    5.35    0.55
   0   6 -13    0.63    0.30
   0   6 -13    0.27    0.20
   0   6 -13    0.79    0.30
  -1   6 -13    7.34    0.61
  -1   6 -13    6.45    0.42
  -1   6 -13    7.19    0.67
  -2   6 -13    0.26    0.32
  -2   6 -13    0.86    0.33
  -3   6 -13    0.60    0.32
  -3   6 -13    0.72    0.37
  -4   6 -13    0.29    0.38
  -4   6 -13    0.90    0.36
  -5   6 -13   -0.01    0.31
  -5   6 -13    0.44    0.35
  10   5 -13    0.12    0.40
   9   5 -13    2.05    0.48
   8   5 -13   -0.14    0.31
   7   5 -13    1.22    0.38
   6   5 -13    7.66    0.60
   6   5 -13    7.45    0.67
   5   5 -13    4.18    0.49
   5   5 -13    4.49    0.48
   4   5 -13    2.56    0.39
   4   5 -13    1.82    0.35
   3   5 -13    9.34    0.69
   3   5 -13    7.71    0.59
   2   5 -13    0.05    0.22
   2   5 -13    0.06    0.27
   1   5 -13    5.70    0.43
   1   5 -13    5.58    0.57
   0   5 -13    0.61    0.29
   0   5 -13    0.95    0.20
   0   5 -13    0.33    0.29
  -1   5 -13   -0.20    0.23
  -1   5 -13    0.20    0.28
  -2   5 -13    1.92    0.37
  -2   5 -13    2.40    0.43
  -3   5 -13    0.63    0.32
  -3   5 -13    0.58    0.36
  -4   5 -13    1.11    0.36
  -4   5 -13    1.33    0.37
  -4   5 -13    1.63    0.45
  -5   5 -13    0.06    0.32
  -5   5 -13    0.13    0.36
  -5   5 -13   -0.03    0.30
  10   4 -13    7.25    0.75
   9   4 -13   -0.08    0.31
   8   4 -13   -0.07    0.30
   7   4 -13    0.71    0.31
  -7  -4  13    0.07    0.32
   6   4 -13    1.48    0.35
   6   4 -13    0.84    0.26
  -6  -4  13    1.66    0.42
   5   4 -13   12.07    0.77
   5   4 -13   12.43    0.77
   4   4 -13   -0.27    0.23
   4   4 -13    0.02    0.24
   3   4 -13   12.98    0.86
   3   4 -13   13.05    0.75
   2   4 -13    0.06    0.21
   2   4 -13    0.06    0.27
   1   4 -13    0.30    0.19
   1   4 -13    0.48    0.26
   1   4 -13    0.66    0.31
   0   4 -13    0.13    0.25
   0   4 -13    0.08    0.28
  -1   4 -13    3.89    0.44
  -1   4 -13    2.47    0.44
  -2   4 -13   -0.13    0.27
  -2   4 -13    0.05    0.25
  -3   4 -13    4.95    0.54
  -3   4 -13    5.68    0.56
  -3   4 -13    5.49    0.61
  -4   4 -13    1.06    0.35
  -4   4 -13    0.69    0.39
  -4   4 -13    0.57    0.33
   4  -4  13    1.97    0.52
  -5   4 -13    1.06    0.36
  -5   4 -13    0.57    0.34
  -5   4 -13    0.37    0.38
   5  -4  13    1.15    0.45
  11   3 -13    1.19    0.44
  10   3 -13    0.52    0.38
   9   3 -13    5.68    0.62
   8   3 -13    0.41    0.31
  -8  -3  13    0.10    0.33
   7   3 -13   11.89    0.70
   7   3 -13    9.14    0.73
  -7  -3  13   10.69    0.87
   6   3 -13    0.40    0.27
   6   3 -13   -0.05    0.21
  -6  -3  13    0.28    0.33
   5   3 -13    1.23    0.31
   5   3 -13    1.14    0.29
  -5  -3  13    1.20    0.39
   4   3 -13    1.29    0.30
   4   3 -13    1.24    0.30
  -4  -3  13    1.53    0.41
   3   3 -13   11.09    0.72
   3   3 -13    8.07    0.59
  -3  -3  13    9.57    0.83
   2   3 -13    0.22    0.21
   2   3 -13    0.00    0.25
  -2  -3  13    0.27    0.31
   1   3 -13    1.40    0.22
   1   3 -13    1.07    0.29
   1   3 -13    0.76    0.31
  -1  -3  13    1.27    0.40
   0   3 -13    0.24    0.27
   0   3 -13    0.05    0.23
   0  -3  13   -0.28    0.28
  -1   3 -13   -0.14    0.24
  -1   3 -13   -0.22    0.26
   1  -3  13   -0.05    0.30
  -2   3 -13    1.59    0.34
  -2   3 -13    1.43    0.39
  -2   3 -13    2.00    0.35
   2  -3  13    1.67    0.47
  -3   3 -13    0.38    0.36
  -3   3 -13    0.71    0.31
  -3   3 -13    0.36    0.30
   3  -3  13    0.91    0.43
  -4   3 -13    0.36    0.35
  -4   3 -13   -0.14    0.28
  -4   3 -13    0.13    0.29
   4  -3  13    0.66    0.40
  -5   3 -13   -0.47    0.34
  11   2 -13   -0.09    0.38
  10   2 -13    2.60    0.47
   9   2 -13    1.21    0.38
   8   2 -13    7.84    0.71
  -8  -2  13    8.47    0.79
   7   2 -13    0.96    0.32
   7   2 -13    1.09    0.28
  -7  -2  13    1.63    0.44
   6   2 -13    0.12    0.21
   6   2 -13    0.11    0.25
  -6  -2  13   -0.12    0.31
   5   2 -13    9.82    0.67
   5   2 -13   10.61    0.69
  -5  -2  13    9.46    0.83
   4   2 -13    1.25    0.30
   4   2 -13    1.02    0.28
  -4  -2  13    1.32    0.40
   3   2 -13    9.05    0.66
   3   2 -13    8.08    0.57
  -3  -2  13    8.54    0.78
   2   2 -13    0.34    0.21
   2   2 -13    0.45    0.28
  -2  -2  13    0.40    0.34
   1   2 -13    2.24    0.25
   1   2 -13    2.15    0.40
  -1  -2  13    2.21    0.48
   0   2 -13   -0.05    0.22
   0   2 -13    0.18    0.27
   0  -2  13    0.05    0.32
  -1   2 -13    1.50    0.32
  -1   2 -13    1.76    0.40
   1  -2  13    1.58    0.44
  -2   2 -13    0.45    0.32
  -2   2 -13    0.02    0.24
  -2   2 -13    0.23    0.27
   2  -2  13    0.10    0.35
  -3   2 -13    8.53    0.69
  -3   2 -13    9.32    0.71
  -3   2 -13    9.89    0.79
   3  -2  13    9.53    0.89
  -4   2 -13    1.01    0.40
  -4   2 -13    0.63    0.33
  -4   2 -13    0.52    0.34
   4  -2  13    1.84    0.50
  -5   2 -13    0.61    0.40
  11   1 -13    2.02    0.50
  10   1 -13   -0.05    0.33
   9   1 -13    1.77    0.42
   8   1 -13    0.18    0.22
   8   1 -13   -0.07    0.28
  -8  -1  13    0.47    0.39
   7   1 -13    2.36    0.36
   7   1 -13    2.16    0.38
  -7  -1  13    1.95    0.48
   6   1 -13    0.27    0.24
   6   1 -13    1.19    0.32
  -6  -1  13    0.68    0.38
   5   1 -13    2.03    0.35
   5   1 -13    2.19    0.35
  -5  -1  13    1.22    0.43
   4   1 -13    2.24    0.37
   4   1 -13    2.71    0.36
  -4  -1  13    2.09    0.46
   3   1 -13    7.26    0.53
   3   1 -13    9.18    0.66
  -3  -1  13    6.80    0.76
   2   1 -13    0.31    0.20
   2   1 -13    0.18    0.26
  -2  -1  13   -0.05    0.32
   1   1 -13    2.21    0.40
   1   1 -13    1.60    0.25
   1   1 -13    1.79    0.32
  -1  -1  13    1.92    0.47
   0   1 -13    0.11    0.28
   0   1 -13   -0.36    0.21
   0  -1  13    0.34    0.35
  -1   1 -13    0.48    0.31
  -1   1 -13    0.06    0.24
  -1   1 -13    0.60    0.26
   1  -1  13    1.02    0.42
  -2   1 -13    0.81    0.29
  -2   1 -13    0.81    0.36
  -2   1 -13    0.77    0.29
   2  -1  13    1.34    0.46
  -3   1 -13    1.33    0.35
  -3   1 -13    1.45    0.42
  -3   1 -13    0.70    0.31
   3  -1  13    1.45    0.47
  -4   1 -13    1.93    0.42
  -4   1 -13    1.59    0.44
   4  -1  13    2.29    0.53
  11   0 -13   -0.03    0.37
  10   0 -13    4.16    0.57
   9   0 -13   -0.22    0.30
   9   0 -13    0.20    0.24
   8   0 -13    3.20    0.40
   8   0 -13    2.80    0.45
  -8   0  13    2.26    0.54
   7   0 -13    0.16    0.27
   7   0 -13    0.01    0.23
  -7   0  13    0.35    0.38
   6   0 -13    0.12    0.26
   6   0 -13    0.33    0.25
  -6   0  13    0.84    0.39
   5   0 -13    0.05    0.23
   5   0 -13   -0.17    0.22
  -5   0  13    0.34    0.36
   4   0 -13    0.33    0.25
   4   0 -13   -0.13    0.21
  -4   0  13    0.39    0.37
   3   0 -13    8.29    0.66
   3   0 -13    8.33    0.56
  -3   0  13    8.67    0.82
   2   0 -13   -0.04    0.24
   2   0 -13   -0.22    0.19
   2   0 -13    0.06    0.19
  -2   0  13    0.06    0.33
   1   0 -13    5.42    0.59
   1   0 -13    5.46    0.49
   1   0 -13    5.26    0.41
  -1   0  13    4.96    0.66
   0   0 -13    0.29    0.30
   0   0 -13    0.80    0.27
   0   0 -13    0.16    0.23
   0   0  13    0.79    0.38
  -1   0 -13    4.06    0.44
  -1   0 -13    3.95    0.55
  -1   0 -13    3.12    0.43
   1   0  13    4.61    0.65
  -2   0 -13    0.37    0.27
  -2   0 -13    0.12    0.29
  -2   0 -13    0.00    0.24
   2   0  13    0.07    0.38
  -3   0 -13    6.11    0.58
  -3   0 -13    8.26    0.77
  -3   0 -13    7.30    0.66
   3   0  13    5.43    0.73
  -4   0 -13    0.60    0.40
   4   0  13    1.03    0.46
  11  -1 -13    0.41    0.38
  10  -1 -13   -0.01    0.34
   9  -1 -13    2.76    0.40
   9  -1 -13    2.76    0.50
  -9   1  13    1.12    0.57
   8  -1 -13    3.10    0.43
   8  -1 -13    2.46    0.43
  -8   1  13    2.04    0.60
   7  -1 -13    5.27    0.54
   7  -1 -13    6.30    0.59
  -7   1  13    5.58    0.75
   6  -1 -13    0.17    0.27
   6  -1 -13    0.04    0.26
  -6   1  13   -0.24    0.38
   5  -1 -13    0.77    0.28
   5  -1 -13    0.65    0.29
  -5   1  13    0.82    0.43
   4  -1 -13    2.31    0.40
   4  -1 -13    1.92    0.34
  -4   1  13    3.05    0.56
   3  -1 -13    6.09    0.61
   3  -1 -13    5.87    0.49
  -3   1  13    6.24    0.76
   2  -1 -13    0.05    0.21
   2  -1 -13    0.09    0.25
  -2   1  13   -0.05    0.33
   1  -1 -13    2.64    0.45
   1  -1 -13    2.04    0.32
   1  -1 -13    1.80    0.27
  -1   1  13    1.92    0.50
   0  -1 -13   -0.08    0.22
   0  -1 -13    0.02    0.22
   0  -1 -13   -0.03    0.28
   0   1  13    0.19    0.38
  -1  -1 -13    0.32    0.25
  -1  -1 -13    0.40    0.28
  -1  -1 -13    0.16    0.30
   1   1  13    0.52    0.40
  -2  -1 -13    0.60    0.35
  -2  -1 -13    0.61    0.31
  -2  -1 -13    0.31    0.27
   2   1  13    0.42    0.42
  -3  -1 -13   -0.02    0.31
  -3  -1 -13    0.48    0.31
   3   1  13    0.76    0.45
  11  -2 -13    0.32    0.41
  10  -2 -13    3.15    0.46
  10  -2 -13    2.08    0.50
   9  -2 -13    0.46    0.35
   9  -2 -13    0.20    0.29
  -9   2  13   -0.52    0.58
   8  -2 -13    0.78    0.35
   8  -2 -13    0.35    0.30
  -8   2  13    0.07    0.53
   7  -2 -13    0.23    0.29
   7  -2 -13    0.06    0.29
  -7   2  13    0.12    0.51
   6  -2 -13   -0.02    0.26
   6  -2 -13   -0.23    0.24
  -6   2  13    0.33    0.47
   5  -2 -13    3.17    0.46
   5  -2 -13    2.34    0.39
  -5   2  13    2.97    0.62
   4  -2 -13    0.51    0.26
   4  -2 -13   -0.07    0.25
  -4   2  13    0.10    0.41
   3  -2 -13    2.55    0.36
   3  -2 -13    3.14    0.36
   3  -2 -13    2.82    0.45
  -3   2  13    3.19    0.61
   2  -2 -13    0.18    0.28
   2  -2 -13   -0.16    0.20
   2  -2 -13    0.15    0.21
  -2   2  13    0.39    0.40
   1  -2 -13    0.86    0.34
   1  -2 -13    1.40    0.29
   1  -2 -13    1.28    0.25
  -1   2  13    1.65    0.51
   0  -2 -13    0.33    0.25
   0  -2 -13   -0.06    0.18
   0  -2 -13    0.19    0.24
   0  -2 -13    0.39    0.33
   0   2  13    0.43    0.42
  -1  -2 -13    0.77    0.37
  -1  -2 -13    1.03    0.33
   1   2  13    1.37    0.50
  -2  -2 -13    0.25    0.29
  -2  -2 -13    0.10    0.30
   2   2  13    0.63    0.47
  -3  -2 -13    6.21    0.66
   3   2  13    5.13    0.82
  10  -3 -13    0.95    0.37
  10  -3 -13    0.59    0.40
   9  -3 -13    0.80    0.40
   9  -3 -13    0.24    0.34
   8  -3 -13    0.88    0.37
   8  -3 -13    0.31    0.33
  -8   3  13   -0.27    0.60
   7  -3 -13    1.46    0.38
   7  -3 -13    0.96    0.36
  -7   3  13    0.51    0.59
   6  -3 -13   -0.13    0.29
   6  -3 -13    0.27    0.29
  -6   3  13   -0.03    0.51
   5  -3 -13    2.11    0.39
   5  -3 -13    3.16    0.48
  -5   3  13    2.59    0.65
   4  -3 -13    0.47    0.27
   4  -3 -13   -0.27    0.26
  -4   3  13    0.96    0.52
   3  -3 -13    2.52    0.45
   3  -3 -13    2.08    0.34
  -3   3  13    3.06    0.66
   2  -3 -13    0.30    0.31
   2  -3 -13   -0.29    0.20
  -2   3  13    0.21    0.49
   1  -3 -13    2.69    0.34
   1  -3 -13    3.05    0.39
   1  -3 -13    2.70    0.47
  -1   3  13    2.80    0.65
   0  -3 -13    0.15    0.21
   0  -3 -13    0.24    0.32
   0  -3 -13    0.27    0.26
   0   3  13    0.10    0.47
  -1  -3 -13    0.21    0.34
  -1  -3 -13    0.51    0.31
   1   3  13    0.81    0.53
  -2  -3 -13    0.48    0.32
  -2  -3 -13    0.53    0.36
   2   3  13   -0.61    0.51
  10  -4 -13    1.04    0.45
  10  -4 -13    0.83    0.40
   9  -4 -13    0.61    0.39
   9  -4 -13    0.62    0.37
   8  -4 -13    4.84    0.59
   8  -4 -13    4.24    0.57
   7  -4 -13    0.23    0.33
   7  -4 -13   -0.34    0.30
  -7   4  13   -0.51    0.62
   6  -4 -13    1.69    0.41
   6  -4 -13    2.14    0.45
  -6   4  13    1.88    0.71
   5  -4 -13    0.05    0.31
   5  -4 -13   -0.03    0.28
  -5   4  13   -0.16    0.56
   4  -4 -13    0.03    0.29
   4  -4 -13    0.00    0.27
  -4   4  13   -0.19    0.52
   3  -4 -13    2.78    0.49
   3  -4 -13    3.38    0.42
  -3   4  13    2.94    0.68
   2  -4 -13    0.41    0.34
   2  -4 -13    0.69    0.28
  -2   4  13    1.69    0.63
   1  -4 -13    0.98    0.39
   1  -4 -13    2.38    0.37
   1  -4 -13    1.37    0.31
  -1   4  13    1.63    0.63
   0  -4 -13   -0.19    0.29
   0  -4 -13   -0.03    0.22
   0  -4 -13   -0.09    0.26
   0   4  13   -0.48    0.51
  -1  -4 -13    0.07    0.30
  -1  -4 -13    0.65    0.37
   1   4  13   -0.41    0.55
   9  -5 -13    0.86    0.43
   9  -5 -13    0.83    0.43
   8  -5 -13    1.28    0.45
   8  -5 -13    1.32    0.43
   7  -5 -13    2.06    0.44
   7  -5 -13    1.78    0.46
   6  -5 -13    0.18    0.36
   6  -5 -13    0.24    0.32
   5  -5 -13    2.34    0.42
   5  -5 -13    2.51    0.50
  -5   5  13    1.31    0.75
   4  -5 -13    0.44    0.31
   4  -5 -13    1.14    0.39
  -4   5  13   -0.50    0.60
   3  -5 -13    1.95    0.44
   3  -5 -13    1.84    0.38
  -3   5  13    0.21    0.66
   2  -5 -13    0.19    0.28
   2  -5 -13    0.75    0.37
  -2   5  13   -0.01    0.62
   1  -5 -13    3.98    0.45
   1  -5 -13    4.03    0.60
   1  -5 -13    4.75    0.50
  -1   5  13    2.56    0.79
   0  -5 -13    0.21    0.29
   0  -5 -13    0.47    0.28
   0  -5 -13    0.58    0.35
   0   5  13   -1.27    0.56
   9  -6 -13    0.20    0.40
   8  -6 -13    0.09    0.38
   8  -6 -13    0.22    0.41
   7  -6 -13    0.38    0.38
   7  -6 -13   -0.05    0.37
   6  -6 -13    5.30    0.63
   6  -6 -13    5.86    0.71
   5  -6 -13    0.29    0.40
   5  -6 -13    0.52    0.36
   4  -6 -13    0.60    0.34
   4  -6 -13    0.91    0.42
   3  -6 -13    1.68    0.40
   3  -6 -13    1.52    0.45
   2  -6 -13    0.13    0.33
   2  -6 -13    0.39    0.31
   1  -6 -13    1.17    0.42
   1  -6 -13    1.49    0.35
   1  -6 -13    1.10    0.34
   7  -7 -13    1.75    0.52
   7  -7 -13    2.02    0.49
   6  -7 -13    0.38    0.42
   6  -7 -13    0.52    0.39
   5  -7 -13    0.80    0.38
   5  -7 -13    0.17    0.42
   4  -7 -13    0.31    0.40
   4  -7 -13    0.61    0.37
   3  -7 -13    0.54    0.40
   3  -7 -13    0.19    0.34
   4  11 -14   -0.03    0.41
   3  11 -14    0.04    0.38
   2  11 -14    0.03    0.36
   1  11 -14    0.81    0.37
   1  11 -14   -0.04    0.34
   0  11 -14    0.70    0.35
   0  11 -14    0.54    0.37
  -1  11 -14    0.99    0.40
  -1  11 -14    0.43    0.32
   5  10 -14    0.95    0.42
   4  10 -14    5.79    0.66
   3  10 -14   -0.04    0.35
   2  10 -14    4.68    0.54
   1  10 -14   -0.18    0.30
   1  10 -14   -0.03    0.32
   0  10 -14    1.64    0.42
   0  10 -14    1.92    0.38
  -1  10 -14    2.17    0.46
  -1  10 -14    2.25    0.38
  -2  10 -14    1.57    0.45
  -2  10 -14    1.01    0.32
   7   9 -14    0.39    0.43
   6   9 -14   -0.41    0.34
   5   9 -14    0.34    0.38
   4   9 -14    2.48    0.46
   3   9 -14    0.05    0.33
   2   9 -14    0.94    0.34
   1   9 -14   -0.04    0.28
   1   9 -14    0.59    0.35
   0   9 -14    1.76    0.42
   0   9 -14    1.24    0.31
  -1   9 -14    1.37    0.31
  -1   9 -14    1.84    0.43
  -2   9 -14    2.60    0.48
  -2   9 -14    2.35    0.33
  -3   9 -14    0.55    0.38
   8   8 -14    2.10    0.51
   7   8 -14    0.17    0.38
   6   8 -14    2.35    0.49
   5   8 -14    0.12    0.34
   4   8 -14   34.26    1.63
   4   8 -14   29.12    1.54
   3   8 -14    0.33    0.32
   3   8 -14   -0.03    0.29
   2   8 -14    6.21    0.56
   2   8 -14    6.72    0.64
   1   8 -14    0.32    0.32
   1   8 -14    0.57    0.28
   1   8 -14    0.37    0.31
   0   8 -14    1.72    0.40
   0   8 -14    1.45    0.40
   0   8 -14    1.45    0.30
  -1   8 -14    0.05    0.23
  -1   8 -14    0.29    0.38
  -1   8 -14    0.52    0.33
  -2   8 -14    1.67    0.41
  -3   8 -14    0.90    0.39
   8   7 -14    2.49    0.52
   7   7 -14   -0.52    0.33
   6   7 -14    0.42    0.36
   5   7 -14    0.70    0.35
   5   7 -14    0.12    0.27
   4   7 -14   -0.24    0.28
   4   7 -14    0.20    0.27
   3   7 -14    0.27    0.28
   3   7 -14   -0.05    0.27
   2   7 -14    1.74    0.38
   2   7 -14    1.12    0.30
   1   7 -14    0.01    0.28
   1   7 -14   -0.07    0.27
   1   7 -14    0.07    0.25
   0   7 -14    0.40    0.23
   0   7 -14    0.40    0.32
   0   7 -14    0.25    0.30
  -1   7 -14   -0.04    0.28
  -1   7 -14   -0.32    0.29
  -1   7 -14    0.13    0.20
  -2   7 -14    3.24    0.53
  -2   7 -14    3.15    0.48
  -3   7 -14    0.79    0.41
  -3   7 -14    0.46    0.34
  -4   7 -14    1.40    0.41
   9   6 -14    0.54    0.43
   8   6 -14    9.34    0.84
   7   6 -14    0.82    0.37
   6   6 -14    0.20    0.33
   5   6 -14   -0.08    0.25
   4   6 -14   12.67    0.81
   4   6 -14   10.96    0.76
   3   6 -14    0.01    0.28
   3   6 -14    0.29    0.27
   2   6 -14    5.01    0.47
   2   6 -14    6.62    0.63
   1   6 -14   -0.14    0.27
   1   6 -14    0.32    0.24
   1   6 -14    0.21    0.30
   0   6 -14    0.76    0.33
   0   6 -14    0.98    0.36
   0   6 -14    1.00    0.23
  -1   6 -14   -0.18    0.30
  -1   6 -14    0.21    0.30
  -2   6 -14    0.68    0.32
  -2   6 -14    0.54    0.35
  -3   6 -14    0.72    0.36
  -3   6 -14    0.40    0.38
  -4   6 -14    0.21    0.41
  -4   6 -14    0.03    0.33
   9   5 -14    3.90    0.59
   8   5 -14    1.09    0.39
   7   5 -14    0.63    0.37
  -7  -5  14    0.96    0.40
   6   5 -14    1.18    0.33
   6   5 -14    1.04    0.38
   5   5 -14    0.37    0.28
   5   5 -14    0.75    0.33
   4   5 -14    4.65    0.53
   4   5 -14    4.72    0.50
   3   5 -14    0.76    0.27
   3   5 -14   -0.21    0.25
   2   5 -14    1.11    0.26
   2   5 -14    0.93    0.34
   1   5 -14   -0.10    0.25
   1   5 -14   -0.02    0.19
   1   5 -14    0.18    0.28
   0   5 -14   -0.24    0.29
   0   5 -14    0.00    0.26
  -1   5 -14   -0.10    0.30
  -1   5 -14   -0.08    0.26
  -2   5 -14    3.96    0.50
  -2   5 -14    3.20    0.52
  -3   5 -14    0.99    0.40
  -3   5 -14    1.31    0.36
  -4   5 -14    0.67    0.41
  -4   5 -14    0.85    0.37
   4  -5  14    1.15    0.47
  10   4 -14    0.08    0.39
   9   4 -14   -0.01    0.33
   8   4 -14   -0.01    0.29
   7   4 -14    0.48    0.32
  -7  -4  14    0.56    0.37
   6   4 -14    4.90    0.50
   6   4 -14    4.90    0.53
  -6  -4  14    4.23    0.61
   5   4 -14   -0.35    0.26
   5   4 -14    0.19    0.25
  -5  -4  14    0.20    0.35
   4   4 -14    2.49    0.40
   4   4 -14    1.49    0.34
   3   4 -14    0.09    0.28
   3   4 -14   -0.15    0.23
   2   4 -14   20.99    1.16
   2   4 -14   17.28    0.92
   1   4 -14   -0.29    0.26
   1   4 -14    0.03    0.25
   1   4 -14    0.30    0.19
   0   4 -14    6.65    0.60
   0   4 -14    6.57    0.68
  -1   4 -14   -0.38    0.28
  -1   4 -14    0.11    0.26
  -2   4 -14    0.93    0.32
  -2   4 -14    1.46    0.42
   2  -4  14    1.10    0.44
  -3   4 -14    1.84    0.38
  -3   4 -14    2.24    0.49
   3  -4  14    1.99    0.53
  -4   4 -14    3.05    0.47
  -4   4 -14    2.85    0.54
   4  -4  14    4.29    0.68
  10   3 -14    1.09    0.43
   9   3 -14    0.87    0.38
   8   3 -14    0.70    0.34
  -8  -3  14    0.63    0.40
   7   3 -14    6.53    0.64
   7   3 -14    7.25    0.57
  -7  -3  14    8.28    0.78
   6   3 -14    4.43    0.52
   6   3 -14    5.50    0.52
  -6  -3  14    3.89    0.59
   5   3 -14    0.28    0.25
   5   3 -14    0.28    0.27
  -5  -3  14    0.65    0.38
   4   3 -14    0.13    0.25
   4   3 -14   -0.04    0.24
  -4  -3  14    0.25    0.33
   3   3 -14    0.79    0.31
   3   3 -14    0.82    0.26
  -3  -3  14    0.88    0.40
   2   3 -14   -0.16    0.20
   2   3 -14    0.56    0.29
  -2  -3  14    0.09    0.34
   1   3 -14    0.36    0.25
   1   3 -14   -0.11    0.17
   1   3 -14    0.22    0.28
  -1  -3  14    0.16    0.35
   0   3 -14   -0.09    0.22
   0   3 -14   -0.05    0.28
   0  -3  14   -0.15    0.34
  -1   3 -14    0.29    0.32
  -1   3 -14    0.26    0.26
   1  -3  14    0.05    0.35
  -2   3 -14    2.63    0.42
  -2   3 -14    2.96    0.52
   2  -3  14    3.48    0.62
  -3   3 -14    0.40    0.36
  -3   3 -14    0.09    0.30
  -3   3 -14    0.40    0.31
   3  -3  14    0.24    0.43
  -4   3 -14    1.23    0.44
  -4   3 -14    2.28    0.42
   4  -3  14    1.55    0.50
  10   2 -14    1.82    0.45
   9   2 -14   -0.09    0.32
   8   2 -14    3.72    0.52
  -8  -2  14    5.07    0.66
   7   2 -14    1.17    0.35
   7   2 -14    1.17    0.31
  -7  -2  14    1.71    0.46
   6   2 -14    4.02    0.47
   6   2 -14    3.54    0.46
  -6  -2  14    3.29    0.56
   5   2 -14    1.67    0.34
   5   2 -14    2.19    0.37
  -5  -2  14    2.36    0.50
   4   2 -14    2.31    0.37
   4   2 -14    2.96    0.43
  -4  -2  14    3.21    0.53
   3   2 -14    1.31    0.36
   3   2 -14    1.65    0.30
  -3  -2  14    1.93    0.46
   2   2 -14    7.39    0.51
   2   2 -14    8.88    0.69
  -2  -2  14    6.54    0.77
   1   2 -14    0.15    0.28
   1   2 -14    0.03    0.23
  -1  -2  14   -0.13    0.33
   0   2 -14    7.33    0.57
   0   2 -14    5.80    0.64
   0  -2  14    5.17    0.72
  -1   2 -14    0.13    0.25
  -1   2 -14    0.00    0.31
   1  -2  14    0.16    0.36
  -2   2 -14    0.11    0.27
  -2   2 -14    0.24    0.28
  -2   2 -14    0.38    0.37
   2  -2  14    0.21    0.40
  -3   2 -14    0.41    0.38
  -3   2 -14    0.71    0.33
  -3   2 -14    0.92    0.35
   3  -2  14    0.80    0.45
  10   1 -14    0.64    0.40
   9   1 -14    4.30    0.56
   8   1 -14    3.29    0.43
   8   1 -14    3.27    0.48
  -8  -1  14    3.19    0.59
   7   1 -14    0.57    0.33
   7   1 -14    0.73    0.28
  -7  -1  14    0.68    0.42
   6   1 -14    1.85    0.37
   6   1 -14    2.56    0.39
  -6  -1  14    2.38    0.51
   5   1 -14    0.26    0.25
   5   1 -14    0.26    0.27
  -5  -1  14    0.65    0.39
   4   1 -14    1.04    0.29
   4   1 -14    1.03    0.32
  -4  -1  14    1.12    0.44
   3   1 -14    0.39    0.30
   3   1 -14    0.27    0.23
  -3  -1  14    0.43    0.38
   2   1 -14    0.44    0.22
   2   1 -14   -0.09    0.26
   2   1 -14    0.19    0.24
  -2  -1  14    0.24    0.37
   1   1 -14    0.03    0.24
   1   1 -14    0.21    0.29
  -1  -1  14    0.12    0.35
   0   1 -14    0.35    0.26
   0   1 -14    0.19    0.32
   0  -1  14   -0.12    0.37
  -1   1 -14    0.68    0.29
  -1   1 -14    0.09    0.31
  -1   1 -14    0.46    0.28
   1  -1  14    1.15    0.47
  -2   1 -14    0.16    0.29
  -2   1 -14    0.21    0.35
  -2   1 -14    0.19    0.28
   2  -1  14    0.40    0.42
  -3   1 -14    0.06    0.38
  -3   1 -14    0.58    0.32
  -3   1 -14    1.01    0.33
   3  -1  14    0.82    0.46
  10   0 -14    0.08    0.35
   9   0 -14    0.39    0.35
   9   0 -14    0.56    0.28
   8   0 -14    3.26    0.48
   8   0 -14    2.39    0.39
  -8   0  14    2.79    0.60
   7   0 -14    1.93    0.36
   7   0 -14    1.65    0.38
  -7   0  14    2.98    0.57
   6   0 -14    2.16    0.39
   6   0 -14    1.05    0.32
  -6   0  14    2.21    0.52
   5   0 -14    2.64    0.39
   5   0 -14    2.27    0.40
  -5   0  14    2.62    0.54
   4   0 -14    1.76    0.32
   4   0 -14    1.93    0.39
  -4   0  14    1.63    0.49
   3   0 -14    0.31    0.30
   3   0 -14    0.55    0.25
  -3   0  14    0.15    0.39
   2   0 -14    6.56    0.53
   2   0 -14    5.86    0.46
   2   0 -14    5.48    0.61
  -2   0  14    4.78    0.70
   1   0 -14   -0.03    0.30
   1   0 -14   -0.04    0.22
   1   0 -14    0.13    0.20
  -1   0  14    0.42    0.42
   0   0 -14    2.51    0.46
   0   0 -14    2.43    0.37
   0   0  14    1.58    0.51
  -1   0 -14   -0.15    0.31
  -1   0 -14   -0.01    0.25
  -1   0 -14   -0.02    0.25
   1   0  14    0.05    0.38
  -2   0 -14    0.71    0.32
  -2   0 -14   -0.03    0.28
  -2   0 -14    0.44    0.34
   2   0  14    0.51    0.42
  -3   0 -14    0.81    0.41
   3   0  14    1.02    0.47
  10  -1 -14    0.86    0.42
   9  -1 -14    6.12    0.59
   9  -1 -14    5.40    0.62
  -9   1  14    5.00    0.81
   8  -1 -14    3.18    0.44
   8  -1 -14    2.12    0.44
  -8   1  14    1.51    0.59
   7  -1 -14    4.89    0.54
   7  -1 -14    5.76    0.59
  -7   1  14    4.52    0.73
   6  -1 -14    2.49    0.42
   6  -1 -14    2.15    0.39
  -6   1  14    1.79    0.56
   5  -1 -14    0.20    0.27
   5  -1 -14    0.07    0.27
  -5   1  14   -0.08    0.40
   4  -1 -14    0.19    0.28
   4  -1 -14   -0.23    0.23
  -4   1  14   -0.18    0.38
   3  -1 -14    0.01    0.23
   3  -1 -14    0.07    0.23
   3  -1 -14    0.05    0.26
  -3   1  14   -0.03    0.37
   2  -1 -14    0.09    0.30
   2  -1 -14   -0.03    0.21
   2  -1 -14    0.18    0.24
  -2   1  14    0.10    0.40
   1  -1 -14    0.27    0.21
   1  -1 -14   -0.09    0.29
   1  -1 -14    0.15    0.24
  -1   1  14    0.15    0.39
   0  -1 -14    0.47    0.34
   0  -1 -14   -0.05    0.24
   0  -1 -14    0.27    0.26
   0   1  14    0.68    0.44
  -1  -1 -14    0.01    0.28
  -1  -1 -14    0.53    0.29
  -1  -1 -14    0.53    0.36
   1   1  14    0.01    0.39
  -2  -1 -14   -0.20    0.27
  -2  -1 -14   -0.26    0.32
  -2  -1 -14   -0.39    0.26
   2   1  14    0.14    0.43
  10  -2 -14    0.71    0.34
  10  -2 -14    1.17    0.45
   9  -2 -14    1.57    0.44
   9  -2 -14    2.08    0.40
  -9   2  14    0.60    0.64
   8  -2 -14    0.96    0.35
   8  -2 -14    0.73    0.36
  -8   2  14    0.95    0.63
   7  -2 -14    1.32    0.36
   7  -2 -14    1.69    0.40
  -7   2  14    1.41    0.61
   6  -2 -14    3.83    0.51
   6  -2 -14    2.57    0.43
  -6   2  14    2.99    0.69
   5  -2 -14    1.12    0.35
   5  -2 -14    0.85    0.32
  -5   2  14    1.34    0.57
   4  -2 -14    1.67    0.33
   4  -2 -14    0.94    0.35
  -4   2  14    1.20    0.53
   3  -2 -14    0.14    0.29
   3  -2 -14   -0.08    0.23
  -3   2  14   -0.14    0.43
   2  -2 -14    5.31    0.45
   2  -2 -14    5.04    0.59
  -2   2  14    4.58    0.73
   1  -2 -14    0.32    0.33
   1  -2 -14   -0.02    0.21
  -1   2  14    0.34    0.44
   0  -2 -14    4.12    0.49
   0  -2 -14    5.09    0.63
   0   2  14    3.70    0.69
  -1  -2 -14   -0.08    0.33
  -1  -2 -14   -0.07    0.27
   1   2  14    0.68    0.49
  -2  -2 -14    0.02    0.34
   2   2  14   -0.06    0.50
  10  -3 -14    0.11    0.39
  10  -3 -14    0.35    0.36
   9  -3 -14    1.23    0.39
   9  -3 -14    1.63    0.45
  -9   3  14   -2.02    0.65
   8  -3 -14    0.07    0.35
   8  -3 -14    0.43    0.35
  -8   3  14    0.38    0.68
   7  -3 -14    1.79    0.42
   7  -3 -14    1.90    0.42
  -7   3  14    1.09    0.66
   6  -3 -14    0.40    0.32
   6  -3 -14    1.04    0.36
  -6   3  14    0.04    0.57
   5  -3 -14    0.12    0.29
   5  -3 -14   -0.14    0.29
  -5   3  14    0.07    0.54
   4  -3 -14    0.59    0.34
   4  -3 -14    0.38    0.29
  -4   3  14    0.51    0.55
   3  -3 -14   -0.08    0.25
   3  -3 -14    0.03    0.31
  -3   3  14   -0.58    0.47
   2  -3 -14    1.77    0.42
   2  -3 -14    1.16    0.30
  -2   3  14    1.07    0.58
   1  -3 -14    0.24    0.24
   1  -3 -14    0.49    0.34
  -1   3  14    0.33    0.53
   0  -3 -14    1.00    0.40
   0  -3 -14    0.40    0.29
   0   3  14    0.09    0.53
  -1  -3 -14    0.47    0.37
  -1  -3 -14   -0.14    0.28
   1   3  14    0.13    0.55
   9  -4 -14    1.15    0.44
   9  -4 -14    1.01    0.40
   8  -4 -14    0.07    0.35
   8  -4 -14    0.45    0.36
   7  -4 -14    0.46    0.36
   7  -4 -14    0.67    0.37
  -7   4  14   -0.34    0.67
   6  -4 -14    2.84    0.51
   6  -4 -14    1.12    0.40
  -6   4  14    1.30    0.72
   5  -4 -14    2.10    0.42
   5  -4 -14    2.34    0.47
  -5   4  14    0.65    0.66
   4  -4 -14    1.44    0.36
   4  -4 -14    1.09    0.38
  -4   4  14    0.26    0.61
   3  -4 -14    0.60    0.36
   3  -4 -14    0.49    0.30
  -3   4  14   -0.17    0.56
   2  -4 -14    2.09    0.36
   2  -4 -14    1.85    0.46
  -2   4  14    1.07    0.64
   1  -4 -14    0.68    0.38
   1  -4 -14   -0.19    0.24
  -1   4  14   -0.73    0.52
   0  -4 -14    5.00    0.54
   0  -4 -14    3.36    0.55
   0   4  14    2.20    0.74
   8  -5 -14    0.39    0.40
   8  -5 -14    0.28    0.39
   7  -5 -14    3.42    0.57
   7  -5 -14    2.70    0.51
   6  -5 -14    0.74    0.42
   6  -5 -14    0.25    0.36
   5  -5 -14    2.38    0.50
   5  -5 -14    2.28    0.43
  -5   5  14    0.07    0.75
   4  -5 -14    2.60    0.51
   4  -5 -14    1.95    0.42
  -4   5  14    0.36    0.70
   3  -5 -14    0.23    0.37
   3  -5 -14    0.14    0.30
  -3   5  14   -1.47    0.58
   2  -5 -14    0.52    0.38
   2  -5 -14    0.30    0.30
  -2   5  14   -0.23    0.63
   1  -5 -14    0.10    0.28
   7  -6 -14    0.37    0.40
   6  -6 -14    1.97    0.52
   6  -6 -14    1.63    0.46
   5  -6 -14    2.33    0.52
   5  -6 -14    1.66    0.43
   4  -6 -14    0.50    0.35
   4  -6 -14    0.16    0.38
   4  10 -15    0.61    0.42
   3  10 -15    1.58    0.44
   2  10 -15    0.04    0.35
   1  10 -15    1.29    0.43
   1  10 -15    1.32    0.38
   0  10 -15   -0.29    0.29
   0  10 -15    0.15    0.36
   6   9 -15    0.67    0.40
   5   9 -15    1.08    0.44
   4   9 -15    0.20    0.36
   3   9 -15    9.31    0.75
   2   9 -15    0.11    0.33
   1   9 -15    4.81    0.59
   1   9 -15    3.83    0.47
   0   9 -15    0.08    0.34
   0   9 -15    0.07    0.27
  -1   9 -15    0.90    0.29
  -1   9 -15    1.58    0.43
   7   8 -15    3.93    0.59
   6   8 -15    0.32    0.37
   5   8 -15    0.65    0.38
   4   8 -15   -0.16    0.33
   4   8 -15    0.36    0.32
   3   8 -15    0.15    0.30
   3   8 -15    0.06    0.31
   2   8 -15   -0.59    0.28
   2   8 -15   -0.11    0.29
   1   8 -15    2.91    0.51
   1   8 -15    1.86    0.35
   1   8 -15    2.14    0.44
   0   8 -15    0.14    0.24
   0   8 -15    0.00    0.32
   0   8 -15   -0.39    0.33
  -1   8 -15    1.32    0.46
  -1   8 -15    1.76    0.42
  -2   8 -15    0.38    0.34
   8   7 -15    1.03    0.45
   7   7 -15    0.39    0.38
   6   7 -15    1.61    0.44
   5   7 -15    2.69    0.47
   5   7 -15    1.96    0.39
   4   7 -15   -0.07    0.30
   4   7 -15   -0.32    0.28
   3   7 -15    5.36    0.59
   3   7 -15    6.01    0.56
   2   7 -15   -0.13    0.25
   2   7 -15   -0.30    0.28
   1   7 -15    3.88    0.53
   1   7 -15    4.39    0.42
   1   7 -15    3.82    0.52
   0   7 -15    1.19    0.41
   0   7 -15    1.35    0.27
   0   7 -15    1.27    0.39
  -1   7 -15    0.57    0.37
  -1   7 -15    0.95    0.37
  -2   7 -15   -0.28    0.35
  -2   7 -15    0.53    0.36
   8   6 -15    2.13    0.50
   7   6 -15    2.84    0.50
   6   6 -15   -0.03    0.34
   5   6 -15    8.60    0.74
   5   6 -15   10.09    0.75
   4   6 -15    2.13    0.41
   4   6 -15    1.61    0.37
   3   6 -15    1.56    0.34
   3   6 -15    1.64    0.40
   2   6 -15    0.53    0.27
   2   6 -15    0.44    0.33
   1   6 -15    1.44    0.40
   1   6 -15    0.98    0.26
   1   6 -15    1.25    0.36
   0   6 -15    0.08    0.33
   0   6 -15    0.13    0.30
  -1   6 -15    1.32    0.42
  -1   6 -15    2.13    0.42
  -2   6 -15   -0.20    0.33
  -2   6 -15    0.39    0.32
  -3   6 -15    1.05    0.44
  -3   6 -15    0.37    0.34
   9   5 -15    0.23    0.39
   8   5 -15    1.58    0.45
   7   5 -15   -0.02    0.33
  -7  -5  15    0.02    0.37
   6   5 -15    0.03    0.32
   6   5 -15    0.23    0.29
  -6  -5  15    0.69    0.41
   5   5 -15   -0.18    0.28
   5   5 -15   -0.35    0.30
   4   5 -15    0.77    0.33
   4   5 -15    1.67    0.39
   3   5 -15    5.98    0.63
   3   5 -15    5.20    0.50
   2   5 -15    0.38    0.24
   2   5 -15    0.13    0.31
   1   5 -15   10.98    0.77
   1   5 -15   11.69    0.62
   1   5 -15   11.08    0.86
   0   5 -15    0.00    0.29
   0   5 -15    0.11    0.32
  -1   5 -15    0.38    0.31
  -1   5 -15    0.98    0.40
  -2   5 -15   -0.20    0.29
  -2   5 -15   -0.09    0.34
  -3   5 -15    0.81    0.43
  -3   5 -15    1.32    0.38
   3  -5  15    1.00    0.48
   9   4 -15    2.55    0.50
   8   4 -15    0.29    0.33
  -8  -4  15    1.17    0.44
   7   4 -15    1.01    0.37
  -7  -4  15    1.91    0.50
   6   4 -15   -0.26    0.25
   6   4 -15    0.13    0.31
  -6  -4  15    0.67    0.41
   5   4 -15    9.48    0.74
   5   4 -15    6.84    0.62
  -5  -4  15    6.04    0.77
   4   4 -15   -0.03    0.26
   4   4 -15    0.15    0.29
  -4  -4  15    0.48    0.41
   3   4 -15    0.12    0.27
   3   4 -15    0.47    0.33
  -3  -4  15    0.15    0.38
   2   4 -15   -0.08    0.29
   2   4 -15   -0.03    0.22
  -2  -4  15   -0.04    0.35
   1   4 -15    0.83    0.37
   1   4 -15    0.11    0.20
   1   4 -15    0.54    0.30
  -1  -4  15    0.55    0.41
   0   4 -15    0.57    0.35
   0   4 -15    0.56    0.29
   0  -4  15    0.99    0.45
  -1   4 -15    0.73    0.31
  -1   4 -15    0.52    0.38
   1  -4  15    0.56    0.41
  -2   4 -15    0.24    0.36
  -2   4 -15    0.32    0.31
   2  -4  15    1.19    0.49
  -3   4 -15   -0.11    0.37
  -3   4 -15    0.41    0.34
   3  -4  15    0.13    0.41
   9   3 -15    0.01    0.33
   8   3 -15   -0.13    0.30
  -8  -3  15    0.44    0.43
   7   3 -15    3.34    0.44
   7   3 -15    4.21    0.52
  -7  -3  15    3.80    0.62
   6   3 -15    3.67    0.49
   6   3 -15    2.96    0.43
  -6  -3  15    2.92    0.55
   5   3 -15    0.36    0.28
   5   3 -15    0.10    0.27
  -5  -3  15    0.35    0.39
   4   3 -15    0.15    0.28
   4   3 -15    0.14    0.26
  -4  -3  15    0.75    0.42
   3   3 -15    0.14    0.30
   3   3 -15    0.38    0.26
  -3  -3  15    0.26    0.37
   2   3 -15    0.44    0.32
   2   3 -15    0.16    0.26
   2   3 -15   -0.19    0.22
  -2  -3  15    0.28    0.38
   1   3 -15    2.84    0.48
   1   3 -15    2.26    0.40
  -1  -3  15    1.97    0.52
   0   3 -15   -0.21    0.30
   0   3 -15    0.06    0.26
   0  -3  15   -0.36    0.35
  -1   3 -15    1.55    0.45
  -1   3 -15    1.90    0.38
   1  -3  15    1.55    0.52
  -2   3 -15   -0.20    0.28
  -2   3 -15   -0.07    0.36
   2  -3  15    0.65    0.44
  10   2 -15    0.44    0.38
   9   2 -15    0.73    0.37
   8   2 -15    2.58    0.47
   8   2 -15    2.76    0.41
  -8  -2  15    3.32    0.59
   7   2 -15    6.21    0.58
   7   2 -15    5.04    0.58
  -7  -2  15    5.64    0.74
   6   2 -15   -0.15    0.25
   6   2 -15    0.01    0.28
  -6  -2  15   -0.23    0.38
   5   2 -15    2.54    0.43
   5   2 -15    2.89    0.41
  -5  -2  15    3.36    0.59
   4   2 -15    0.40    0.28
   4   2 -15    0.56    0.31
  -4  -2  15    1.27    0.46
   3   2 -15    0.78    0.34
   3   2 -15    0.46    0.25
  -3  -2  15    1.01    0.44
   2   2 -15   -0.20    0.21
   2   2 -15   -0.07    0.29
   2   2 -15   -0.29    0.23
  -2  -2  15    0.13    0.37
   1   2 -15    0.69    0.30
   1   2 -15    1.10    0.38
  -1  -2  15    1.30    0.48
   0   2 -15    0.12    0.28
   0   2 -15   -0.50    0.28
   0  -2  15    0.01    0.37
  -1   2 -15   -0.11    0.33
  -1   2 -15    0.28    0.29
   1  -2  15   -0.06    0.40
  -2   2 -15    0.03    0.38
  -2   2 -15   -0.16    0.28
   2  -2  15    0.28    0.43
  10   1 -15    0.35    0.39
   9   1 -15    0.42    0.36
   8   1 -15    0.64    0.35
   8   1 -15    0.56    0.29
  -8  -1  15    1.01    0.48
   7   1 -15    0.14    0.30
   7   1 -15    0.17    0.27
  -7  -1  15    0.76    0.44
   6   1 -15    3.84    0.49
   6   1 -15    3.28    0.45
  -6  -1  15    3.51    0.63
   5   1 -15    0.20    0.27
   5   1 -15    0.23    0.28
  -5  -1  15    0.32    0.41
   4   1 -15    0.37    0.26
   4   1 -15    0.03    0.28
  -4  -1  15    0.75    0.43
   3   1 -15    0.57    0.26
   3   1 -15    0.84    0.35
  -3  -1  15    0.67    0.43
   2   1 -15    0.10    0.23
   2   1 -15    0.26    0.26
   2   1 -15    0.42    0.33
  -2  -1  15    0.35    0.39
   1   1 -15    5.96    0.55
   1   1 -15    6.58    0.69
  -1  -1  15    4.73    0.74
   0   1 -15   -0.08    0.25
   0   1 -15    0.09    0.32
   0  -1  15    0.10    0.39
  -1   1 -15   15.69    1.07
  -1   1 -15   15.76    0.95
   1  -1  15   15.10    1.22
  -2   1 -15    2.45    0.53
  -2   1 -15    2.10    0.41
   2  -1  15    2.35    0.59
  10   0 -15    0.43    0.38
   9   0 -15    0.60    0.39
   9   0 -15    0.71    0.31
  -9   0  15    1.03    0.56
   8   0 -15    1.59    0.41
   8   0 -15    1.15    0.35
  -8   0  15    2.50    0.60
   7   0 -15    2.18    0.45
   7   0 -15    3.03    0.45
  -7   0  15    2.59    0.61
   6   0 -15    0.21    0.26
   6   0 -15    0.21    0.30
  -6   0  15    0.85    0.47
   5   0 -15    4.91    0.55
   5   0 -15    4.31    0.48
  -5   0  15    4.78    0.72
   4   0 -15    0.58    0.27
   4   0 -15    0.50    0.33
  -4   0  15    0.54    0.43
   3   0 -15    0.37    0.26
   3   0 -15    0.11    0.29
   3   0 -15    0.13    0.24
  -3   0  15    0.72    0.45
   2   0 -15   -0.24    0.28
   2   0 -15    0.21    0.26
   2   0 -15    0.13    0.24
  -2   0  15   -0.13    0.39
   1   0 -15    0.18    0.33
   1   0 -15    0.04    0.26
  -1   0  15    0.73    0.45
   0   0 -15    0.40    0.38
   0   0 -15    0.40    0.28
   0   0  15    0.82    0.48
  -1   0 -15   19.10    1.09
  -1   0 -15   18.78    1.06
  -1   0 -15   19.33    1.22
   1   0  15   16.18    1.31
   9  -1 -15    0.17    0.30
   9  -1 -15   -0.31    0.32
  -9   1  15    0.39    0.58
   8  -1 -15    1.33    0.35
   8  -1 -15    0.67    0.38
  -8   1  15    0.44    0.56
   7  -1 -15    0.16    0.28
   7  -1 -15   -0.06    0.32
  -7   1  15   -0.06    0.49
   6  -1 -15    3.83    0.52
   6  -1 -15    2.56    0.44
  -6   1  15    3.22    0.67
   5  -1 -15   -0.09    0.28
   5  -1 -15    0.47    0.31
  -5   1  15    0.30    0.48
   4  -1 -15    1.80    0.41
   4  -1 -15    1.50    0.33
  -4   1  15    1.32    0.54
   3  -1 -15    0.00    0.24
   3  -1 -15    0.17    0.30
   3  -1 -15    0.10    0.23
  -3   1  15    0.37    0.46
   2  -1 -15    0.42    0.24
   2  -1 -15    0.36    0.26
   2  -1 -15    0.06    0.32
  -2   1  15    0.47    0.45
   1  -1 -15    2.30    0.47
   1  -1 -15    1.84    0.35
  -1   1  15    1.71    0.52
   0  -1 -15   -0.10    0.36
   0   1  15    0.58    0.45
  -1  -1 -15    0.10    0.37
   1   1  15    0.92    0.50
   9  -2 -15    1.91    0.47
   9  -2 -15    2.02    0.42
  -9   2  15    0.88    0.70
   8  -2 -15    0.48    0.33
   8  -2 -15    0.21    0.36
  -8   2  15    0.44    0.62
   7  -2 -15    1.71    0.40
   7  -2 -15    1.37    0.42
  -7   2  15    1.20    0.66
   6  -2 -15    3.31    0.50
   6  -2 -15    3.52    0.49
  -6   2  15    3.66    0.73
   5  -2 -15    7.40    0.63
   5  -2 -15    6.32    0.67
  -5   2  15    5.41    0.85
   4  -2 -15   -0.34    0.28
   4  -2 -15    0.24    0.28
  -4   2  15    0.62    0.51
   3  -2 -15    3.17    0.40
   3  -2 -15    2.53    0.47
  -3   2  15    1.58    0.59
   2  -2 -15   -0.05    0.24
   2  -2 -15    0.40    0.34
  -2   2  15    0.45    0.49
   1  -2 -15    1.87    0.47
  -1   2  15    1.70    0.59
   0  -2 -15   -0.06    0.34
   0   2  15   -0.28    0.45
   8  -3 -15    1.10    0.43
   8  -3 -15    1.46    0.41
  -8   3  15    0.56    0.72
   7  -3 -15    0.60    0.37
   7  -3 -15    0.79    0.35
  -7   3  15    0.22    0.64
   6  -3 -15   -0.14    0.32
   6  -3 -15    0.31    0.32
  -6   3  15    0.13    0.60
   5  -3 -15    0.39    0.35
   5  -3 -15    0.63    0.33
  -5   3  15    0.70    0.62
   4  -3 -15    0.52    0.31
   4  -3 -15    0.46    0.35
  -4   3  15    0.38    0.59
   3  -3 -15    0.12    0.27
   3  -3 -15    0.14    0.33
  -3   3  15    0.05    0.56
   2  -3 -15   -0.08    0.25
   2  -3 -15    0.24    0.35
  -2   3  15   -0.36    0.50
   1  -3 -15    1.69    0.47
  -1   3  15    1.12    0.60
   8  -4 -15    1.74    0.47
  -8   4  15    0.65    0.85
   7  -4 -15    0.77    0.40
   7  -4 -15    0.47    0.38
  -7   4  15   -1.75    0.64
   6  -4 -15    0.55    0.37
   6  -4 -15    0.65    0.38
  -6   4  15    0.11    0.69
   5  -4 -15    1.89    0.45
   5  -4 -15    1.83    0.41
  -5   4  15    0.44    0.69
   4  -4 -15    0.32    0.32
   4  -4 -15   -0.08    0.32
  -4   4  15   -0.11    0.62
   3  -4 -15    1.33    0.43
   3  -4 -15    0.62    0.32
  -3   4  15    0.63    0.64
   2  -4 -15    0.48    0.30
   2  -4 -15    0.50    0.38
  -2   4  15   -0.31    0.58
   4   9 -16   -0.65    0.33
   3   9 -16   -0.33    0.35
   3   9 -16   -0.26    0.35
   2   9 -16    3.49    0.47
   1   9 -16    0.02    0.29
   1   9 -16    0.18    0.36
   6   8 -16    0.78    0.42
   5   8 -16    0.13    0.36
   4   8 -16    0.26    0.36
   4   8 -16   -0.03    0.32
   3   8 -16   -0.16    0.30
   3   8 -16   -0.12    0.33
   2   8 -16    4.48    0.59
   2   8 -16    4.42    0.50
   1   8 -16    0.41    0.30
   1   8 -16    0.25    0.38
   1   8 -16    0.76    0.37
   0   8 -16    1.28    0.45
   0   8 -16    1.86    0.45
   7   7 -16    0.14    0.38
   6   7 -16    8.25    0.76
   5   7 -16    0.36    0.36
   5   7 -16   -0.39    0.29
   4   7 -16    0.85    0.37
   4   7 -16    0.95    0.37
   3   7 -16   -0.27    0.29
   3   7 -16    0.08    0.31
   2   7 -16    0.30    0.31
   2   7 -16    0.62    0.38
   1   7 -16    0.17    0.36
   1   7 -16    0.49    0.26
   1   7 -16    0.21    0.31
   0   7 -16    7.44    0.72
   0   7 -16    8.38    0.81
  -1   7 -16    0.08    0.37
  -1   7 -16    0.04    0.33
   7   6 -16    0.56    0.41
  -7  -6  16    1.37    0.50
   6   6 -16    0.05    0.37
   5   6 -16    0.51    0.33
   5   6 -16   -0.12    0.32
   4   6 -16    0.02    0.32
   4   6 -16   -0.09    0.30
   3   6 -16    0.46    0.30
   3   6 -16    0.05    0.33
   2   6 -16    0.62    0.28
   2   6 -16    0.66    0.36
   1   6 -16   -0.15    0.28
   1   6 -16    0.16    0.33
   1   6 -16   -0.16    0.23
   0   6 -16    0.12    0.30
   0   6 -16    0.14    0.36
  -1   6 -16    0.73    0.35
  -1   6 -16    0.59    0.40
   8   5 -16    0.76    0.43
   7   5 -16    0.06    0.36
  -7  -5  16    0.26    0.41
   6   5 -16    2.14    0.43
   6   5 -16    2.51    0.46
  -6  -5  16    1.30    0.49
   5   5 -16    0.14    0.31
   5   5 -16    0.00    0.34
  -5  -5  16   -0.03    0.41
   4   5 -16    2.16    0.44
   4   5 -16    2.24    0.41
  -4  -5  16    2.56    0.56
   3   5 -16   -0.44    0.26
   3   5 -16   -0.44    0.29
   2   5 -16    4.33    0.54
   2   5 -16    6.01    0.67
   2   5 -16    5.13    0.45
   1   5 -16   -0.14    0.27
   1   5 -16   -0.15    0.32
   0   5 -16    2.04    0.41
   0   5 -16    1.62    0.44
   0  -5  16    1.59    0.50
  -1   5 -16   -0.05    0.35
  -1   5 -16   -0.02    0.30
   1  -5  16    0.01    0.40
   8   4 -16    0.53    0.39
  -8  -4  16    0.68    0.44
   7   4 -16    0.30    0.35
  -7  -4  16    0.73    0.42
   6   4 -16    0.29    0.32
   6   4 -16    0.56    0.35
  -6  -4  16    0.62    0.44
   5   4 -16    1.25    0.39
   5   4 -16    2.40    0.43
  -5  -4  16    1.32    0.48
   4   4 -16    0.91    0.33
   4   4 -16    0.30    0.34
  -4  -4  16    0.74    0.46
   3   4 -16   -0.22    0.26
   3   4 -16   -0.03    0.33
  -3  -4  16   -0.09    0.39
   2   4 -16    0.26    0.29
   2   4 -16    0.14    0.33
   2   4 -16    0.37    0.25
  -2  -4  16    0.10    0.41
   1   4 -16   -0.16    0.32
   1   4 -16   -0.23    0.27
  -1  -4  16    0.18    0.40
   0   4 -16    1.99    0.47
   0   4 -16    1.67    0.40
   0  -4  16    1.89    0.54
  -1   4 -16    0.84    0.43
  -1   4 -16    0.37    0.33
   1  -4  16    0.87    0.46
   8   3 -16    0.80    0.38
  -8  -3  16    0.52    0.46
   7   3 -16    0.17    0.29
   7   3 -16    0.20    0.34
  -7  -3  16    0.39    0.42
   6   3 -16    6.69    0.63
   6   3 -16    7.76    0.64
  -6  -3  16    6.26    0.80
   5   3 -16    0.62    0.33
   5   3 -16    1.04    0.34
  -5  -3  16    1.05    0.46
   4   3 -16    5.98    0.65
   4   3 -16    6.00    0.55
  -4  -3  16    6.39    0.78
   3   3 -16    0.36    0.27
   3   3 -16   -0.02    0.31
  -3  -3  16    0.57    0.44
   2   3 -16    0.41    0.36
   2   3 -16    0.36    0.25
   2   3 -16    0.37    0.30
  -2  -3  16    1.17    0.49
   1   3 -16    0.22    0.34
   1   3 -16    0.05    0.27
  -1  -3  16    0.15    0.41
   0   3 -16    1.48    0.45
   0   3 -16    1.50    0.37
   0  -3  16    0.99    0.48
  -1   3 -16   -0.01    0.29
  -1   3 -16   -0.16    0.37
   1  -3  16    0.30    0.44
   9   2 -16    0.29    0.36
   8   2 -16    0.83    0.32
   8   2 -16    1.40    0.42
  -8  -2  16    1.29    0.53
   7   2 -16    0.91    0.33
   7   2 -16    0.76    0.37
  -7  -2  16    1.09    0.48
   6   2 -16    0.13    0.31
   6   2 -16    0.33    0.30
  -6  -2  16    0.50    0.46
   5   2 -16    2.78    0.47
   5   2 -16    2.97    0.43
  -5  -2  16    2.79    0.59
   4   2 -16    9.22    0.73
   4   2 -16    7.39    0.61
  -4  -2  16    7.29    0.85
   3   2 -16    0.08    0.26
   3   2 -16   -0.29    0.30
  -3  -2  16    0.16    0.42
   2   2 -16    1.05    0.33
   2   2 -16    0.94    0.27
   2   2 -16    0.68    0.37
  -2  -2  16    0.68    0.46
   1   2 -16    0.36    0.28
   1   2 -16   -0.06    0.33
  -1  -2  16    0.61    0.46
   0   2 -16    1.55    0.46
   0   2 -16    0.86    0.35
   0  -2  16    1.19    0.49
  -1   2 -16    0.11    0.31
  -1   2 -16    0.05    0.38
   1  -2  16    0.80    0.50
   9   1 -16    1.67    0.44
   8   1 -16   -0.16    0.32
   8   1 -16    0.14    0.29
  -8  -1  16    0.85    0.49
   7   1 -16    0.81    0.33
   7   1 -16    0.84    0.37
  -7  -1  16    0.52    0.48
   6   1 -16    1.30    0.36
   6   1 -16    1.58    0.38
  -6  -1  16    1.44    0.55
   5   1 -16   -0.03    0.28
   5   1 -16   -0.01    0.30
  -5  -1  16    0.28    0.45
   4   1 -16    3.08    0.42
   4   1 -16    3.84    0.54
  -4  -1  16    2.44    0.60
   3   1 -16    0.96    0.32
   3   1 -16    0.63    0.28
   3   1 -16    0.80    0.37
  -3  -1  16    0.71    0.46
   2   1 -16    0.95    0.33
   2   1 -16    1.21    0.40
   2   1 -16    1.03    0.27
  -2  -1  16    1.42    0.51
   1   1 -16   -0.23    0.32
   1   1 -16    0.07    0.27
  -1  -1  16   -0.09    0.40
   0   1 -16    0.28    0.35
   0   1 -16    0.56    0.31
   0  -1  16    0.41    0.45
   8   0 -16    2.41    0.48
  -8   0  16    2.09    0.62
   7   0 -16    0.34    0.29
   7   0 -16   -0.05    0.32
  -7   0  16   -0.09    0.46
   6   0 -16    1.17    0.37
   6   0 -16    0.69    0.33
  -6   0  16    0.32    0.48
   5   0 -16    0.34    0.34
   5   0 -16    0.91    0.33
  -5   0  16    1.59    0.55
   4   0 -16    0.14    0.32
   4   0 -16    0.45    0.29
  -4   0  16    0.15    0.46
   3   0 -16    0.41    0.28
   3   0 -16    0.46    0.28
   3   0 -16    0.12    0.34
  -3   0  16    0.85    0.49
   2   0 -16    0.12    0.27
   2   0 -16    0.51    0.38
  -2   0  16    0.94    0.49
   1   0 -16    0.17    0.28
   1   0 -16    0.11    0.36
  -1   0  16    0.55    0.45
   0   0 -16    3.34    0.47
   0   0 -16    3.54    0.61
   0   0  16    3.14    0.66
   8  -1 -16    0.68    0.34
   8  -1 -16    0.07    0.36
  -8   1  16    1.44    0.63
   7  -1 -16   -0.07    0.29
   7  -1 -16   -0.08    0.33
  -7   1  16    0.11    0.54
   6  -1 -16    0.15    0.31
   6  -1 -16    1.00    0.36
  -6   1  16    0.74    0.54
   5  -1 -16    0.97    0.34
   5  -1 -16    0.59    0.34
  -5   1  16    0.68    0.54
   4  -1 -16    6.30    0.57
   4  -1 -16    6.81    0.73
  -4   1  16    6.93    0.91
   3  -1 -16    0.18    0.36
   3  -1 -16    0.54    0.28
  -3   1  16    0.47    0.48
   2  -1 -16    1.46    0.46
  -2   1  16    1.91    0.58
   1  -1 -16    0.19    0.38
  -1   1  16    0.02    0.45
   8  -2 -16    0.42    0.39
   7  -2 -16    0.11    0.35
   7  -2 -16   -0.07    0.30
  -7   2  16    0.78    0.64
   6  -2 -16    0.04    0.32
   6  -2 -16    0.07    0.32
  -6   2  16    0.03    0.56
   5  -2 -16    2.68    0.50
   5  -2 -16    3.22    0.47
  -5   2  16    3.25    0.74
   4  -2 -16    1.76    0.45
   4  -2 -16    1.09    0.35
  -4   2  16    0.74    0.60
   3  -2 -16    0.96    0.41
   3  -2 -16    0.67    0.32
  -3   2  16    0.34    0.51
   2  -2 -16    1.03    0.44
  -2   2  16    1.58    0.59
   6  -3 -16    1.12    0.41
   6  -3 -16    0.31    0.36
  -6   3  16    0.35    0.62
   5  -3 -16    1.11    0.38
   5  -3 -16    1.63    0.46
  -5   3  16    0.68    0.66
   4  -3 -16    2.05    0.49
   4  -3 -16    2.36    0.42
  -4   3  16    2.73    0.75
   5   7 -17    0.69    0.39
   4   7 -17    0.33    0.35
   4   7 -17    0.03    0.35
   3   7 -17    1.35    0.38
   3   7 -17    1.63    0.44
   2   7 -17   -0.02    0.29
   2   7 -17   -0.10    0.34
   2   7 -17   -0.11    0.32
   6   6 -17   -0.47    0.37
  -6  -6  17    0.29    0.45
   5   6 -17    1.38    0.42
   5   6 -17    1.74    0.45
  -5  -6  17    1.51    0.53
   4   6 -17    0.42    0.33
   4   6 -17    0.11    0.35
   3   6 -17    0.06    0.34
   3   6 -17    0.11    0.31
   2   6 -17    0.33    0.33
   2   6 -17    0.16    0.27
   2   6 -17   -0.17    0.35
   1   6 -17    1.04    0.39
   1   6 -17    1.36    0.45
   6   5 -17    1.62    0.45
   6   5 -17    1.15    0.41
  -6  -5  17    2.05    0.56
   5   5 -17    3.44    0.50
   5   5 -17    3.84    0.56
  -5  -5  17    3.63    0.66
   4   5 -17    0.04    0.31
   4   5 -17   -0.30    0.32
  -4  -5  17    0.50    0.44
   3   5 -17    3.32    0.43
   3   5 -17    3.51    0.55
  -3  -5  17    2.85    0.63
   2   5 -17   -0.14    0.29
   2   5 -17   -0.19    0.34
   2   5 -17    0.12    0.26
  -2  -5  17    0.29    0.45
   1   5 -17    2.33    0.50
   1   5 -17    2.73    0.48
  -1  -5  17    2.93    0.63
   7   4 -17   -0.31    0.34
  -7  -4  17    0.94    0.50
   6   4 -17    0.05    0.35
   6   4 -17    0.19    0.33
  -6  -4  17    0.26    0.43
   5   4 -17    2.08    0.46
  -5  -4  17    2.27    0.58
   4   4 -17    0.28    0.37
   4   4 -17    0.40    0.32
  -4  -4  17    0.63    0.47
   3   4 -17    1.74    0.45
   3   4 -17    1.99    0.37
  -3  -4  17    1.67    0.56
   2   4 -17    0.07    0.29
   2   4 -17    0.17    0.36
  -2  -4  17    0.36    0.43
   1   4 -17    0.49    0.34
   1   4 -17    0.28    0.38
  -1  -4  17    1.08    0.51
   7   3 -17    3.32    0.51
   7   3 -17    4.09    0.52
  -7  -3  17    2.62    0.61
   6   3 -17    0.21    0.33
   6   3 -17    0.67    0.35
  -6  -3  17    0.10    0.46
   5   3 -17    2.39    0.47
   5   3 -17    1.40    0.38
  -5  -3  17    2.18    0.57
   4   3 -17    1.36    0.41
   4   3 -17    0.65    0.33
  -4  -3  17    1.24    0.51
   3   3 -17    5.24    0.50
   3   3 -17    6.31    0.62
   3   3 -17    5.48    0.67
   2   3 -17    0.40    0.36
   2   3 -17    0.14    0.30
  -2  -3  17    0.38    0.42
   1   3 -17    1.41    0.38
   1   3 -17    1.56    0.47
  -1  -3  17    1.80    0.56
   7   2 -17    0.68    0.34
   7   2 -17    0.55    0.34
  -7  -2  17    0.32    0.47
   6   2 -17    0.35    0.33
   6   2 -17    0.09    0.29
  -6  -2  17    0.44    0.47
   5   2 -17    2.20    0.44
   5   2 -17    2.25    0.41
  -5  -2  17    2.01    0.57
   4   2 -17    0.81    0.31
   4   2 -17    0.55    0.35
  -4  -2  17    0.44    0.47
   3   2 -17    1.19    0.36
   3   2 -17    1.09    0.42
   3   2 -17    1.24    0.32
  -3  -2  17    1.00    0.52
   2   2 -17    0.27    0.37
   2   2 -17    0.33    0.32
  -2  -2  17    0.92    0.49
   1   2 -17    0.02    0.37
   1   2 -17   -0.31    0.27
  -1  -2  17    0.03    0.44
   7   1 -17    1.82    0.42
   7   1 -17    0.85    0.38
  -7  -1  17    1.09    0.54
   6   1 -17    0.21    0.32
   6   1 -17   -0.25    0.29
  -6  -1  17   -0.23    0.45
   5   1 -17    1.14    0.36
   5   1 -17    1.37    0.40
  -5  -1  17    1.16    0.54
   4   1 -17    1.35    0.34
   4   1 -17    0.41    0.36
  -4  -1  17    1.36    0.54
   3   1 -17    4.96    0.66
   3   1 -17    4.60    0.47
   3   1 -17    5.95    0.58
  -3  -1  17    4.38    0.75
   2   1 -17    0.10    0.30
   2   1 -17    0.16    0.36
  -2  -1  17    0.51    0.48
   7   0 -17    0.00    0.34
   6   0 -17    0.17    0.33
   6   0 -17    0.66    0.35
  -6   0  17    0.74    0.53
   5   0 -17    0.03    0.29
   5   0 -17    0.27    0.34
  -5   0  17    0.41    0.50
   4   0 -17   -0.33    0.26
   4   0 -17    0.37    0.35
   4   0 -17    0.28    0.30
  -4   0  17    0.48    0.48
   3   0 -17    1.61    0.34
   3   0 -17    2.27    0.51
   3   0 -17    2.30    0.41
  -3   0  17    2.14    0.61
   5  -1 -17    0.15    0.30
   5  -1 -17   -0.12    0.32
  -5   1  17    0.28    0.54
   0   0   0    0.00    0.00
;
_shelx_hkl_checksum              71247
_shelx_shelxl_version_number     2014/7
_olex2_submission_special_instructions 'No special instructions were received'
loop_
_space_group_symop_operation_xyz
'x, y, z'
'-x, -y, -z'
loop_
_atom_site_label
_atom_site_type_symbol
_atom_site_fract_x
_atom_site_fract_y
_atom_site_fract_z
_atom_site_U_iso_or_equiv
_atom_site_adp_type
_atom_site_occupancy
_atom_site_site_symmetry_order
_atom_site_calc_flag
_atom_site_refinement_flags_posn
S00 S 0.67190(12) 0.19846(10) 0.11612(8) 0.0252(3) Uani 1 1 d .
Br1 Br 1.03290(5) 0.73993(4) 0.11160(3) 0.03522(17) Uani 1 1 d .
Br2 Br 0.49809(5) 0.25476(4) 0.39167(4) 0.03830(18) Uani 1 1 d .
N00E N 0.8813(4) 0.6508(3) 0.3708(2) 0.0228(9) Uani 1 1 d .
N01E N 0.6645(4) 0.3331(3) 0.1311(2) 0.0220(9) Uani 1 1 d .
O10E O 1.1946(3) 1.0598(3) 0.8621(2) 0.0386(9) Uani 1 1 d .
O11E O 0.6226(4) 0.0047(3) -0.3532(2) 0.0377(9) Uani 1 1 d .
O1AA O 0.5674(3) 0.1444(3) 0.1427(2) 0.0308(8) Uani 1 1 d .
O0AA O 0.9801(3) 0.8308(3) 0.3464(2) 0.0299(8) Uani 1 1 d .
C12E C 0.6580(5) 0.5785(4) 0.3876(3) 0.0259(11) Uani 1 1 d .
H12E H 0.6308 0.6481 0.3899 0.031 Uiso 1 1 calc R
O13E O 0.2117(3) 0.3566(3) 0.1395(2) 0.0341(8) Uani 1 1 d .
C0WU C 1.1997(5) 0.5757(4) 0.3569(3) 0.0238(11) Uani 1 1 d .
N1MB N 0.5330(4) 0.0243(3) -0.3227(3) 0.0324(10) Uani 1 1 d .
C2BP C 0.8459(5) 0.8678(4) 0.5572(3) 0.0291(12) Uani 1 1 d .
H2BP H 0.7516 0.8472 0.5187 0.035 Uiso 1 1 calc R
C2GS C 0.8915(5) 0.9153(4) 0.6589(3) 0.0305(12) Uani 1 1 d .
H2GS H 0.8296 0.9267 0.6917 0.037 Uiso 1 1 calc R
C3AH C 0.7144(5) 0.5163(4) 0.1241(3) 0.0227(11) Uani 1 1 d .
C4EN C 0.7387(4) 0.3732(4) 0.3818(3) 0.0241(11) Uani 1 1 d .
H4EN H 0.7643 0.3030 0.3788 0.029 Uiso 1 1 calc R
C6JK C 0.5501(5) 0.3786(4) 0.1312(3) 0.0233(11) Uani 1 1 d .
C8VK C 1.1656(5) 0.4627(4) 0.3596(3) 0.0256(11) Uani 1 1 d .
H8VK H 1.2270 0.4160 0.3560 0.031 Uiso 1 1 calc R
C8NN C 0.9638(5) 0.5090(4) 0.1098(3) 0.0267(11) Uani 1 1 d .
H8NN H 1.0491 0.5080 0.1040 0.032 Uiso 1 1 calc R
C00 C 0.5669(4) 0.0651(4) -0.2136(3) 0.0224(11) Uani 1 1 d .
C01 C 0.9372(4) 0.8504(4) 0.5117(3) 0.0232(11) Uani 1 1 d .
C02 C 1.0762(4) 0.8809(4) 0.5667(3) 0.0234(11) Uani 1 1 d .
H02 H 1.1383 0.8680 0.5344 0.028 Uiso 1 1 calc R
C03 C 0.4783(5) 0.1146(4) -0.1797(3) 0.0248(11) Uani 1 1 d .
H03 H 0.3972 0.1221 -0.2251 0.030 Uiso 1 1 calc R
C04 C 1.0294(5) 0.9460(4) 0.7123(3) 0.0235(11) Uani 1 1 d .
C05 C 0.1740(5) 0.2403(4) 0.1391(4) 0.0398(14) Uani 1 1 d .
H05A H 0.1731 0.1890 0.0777 0.060 Uiso 1 1 calc GR
H05B H 0.0837 0.2242 0.1424 0.060 Uiso 1 1 calc GR
H05C H 0.2396 0.2282 0.1968 0.060 Uiso 1 1 calc GR
C06 C 1.1227(5) 0.9304(4) 0.6691(3) 0.0258(11) Uani 1 1 d .
H06 H 1.2168 0.9529 0.7081 0.031 Uiso 1 1 calc R
N07 N 1.0777(4) 1.0021(3) 0.8209(3) 0.0305(10) Uani 1 1 d .
C08 C 0.6852(4) 0.0511(4) -0.1509(3) 0.0252(11) Uani 1 1 d .
H08 H 0.7432 0.0151 -0.1771 0.030 Uiso 1 1 calc R
C0UA C 0.7794(5) 0.5695(4) 0.3790(3) 0.0221(11) Uani 1 1 d .
C0LV C 0.3365(5) 0.3940(4) 0.1355(3) 0.0265(11) Uani 1 1 d .
C1SE C 0.8865(4) 0.4122(4) 0.1147(3) 0.0241(11) Uani 1 1 d .
H1SE H 0.9173 0.3443 0.1126 0.029 Uiso 1 1 calc R
C1CK C 0.4283(5) 0.3269(4) 0.1346(3) 0.0268(11) Uani 1 1 d .
H1CK H 0.4087 0.2501 0.1363 0.032 Uiso 1 1 calc R
C2GK C 0.5757(5) 0.4843(4) 0.3930(3) 0.0271(12) Uani 1 1 d .
H2GK H 0.4912 0.4887 0.3992 0.033 Uiso 1 1 calc R
C2UT C 0.3661(5) 0.5079(4) 0.1343(3) 0.0266(11) Uani 1 1 d .
H2UT H 0.3014 0.5518 0.1359 0.032 Uiso 1 1 calc R
C4TO C 0.6172(5) 0.3834(4) 0.3894(3) 0.0271(11) Uani 1 1 d .
C4UO C 0.7175(4) 0.0905(4) -0.0497(3) 0.0262(11) Uani 1 1 d .
H4UO H 0.7985 0.0822 -0.0047 0.031 Uiso 1 1 calc R
C4QQ C 0.5098(4) 0.1530(4) -0.0784(3) 0.0258(11) Uani 1 1 d .
H4QQ H 0.4498 0.1865 -0.0527 0.031 Uiso 1 1 calc R
C5QF C 0.9180(5) 0.6079(4) 0.1133(3) 0.0253(11) Uani 1 1 d .
C7TK C 1.0464(4) 0.4187(4) 0.3672(3) 0.0245(11) Uani 1 1 d .
H7TK H 1.0248 0.3424 0.3696 0.029 Uiso 1 1 calc R
C8ON C 1.3578(5) 0.7213(4) 0.3400(4) 0.0417(14) Uani 1 1 d .
H8OA H 1.2877 0.7298 0.2826 0.063 Uiso 1 1 calc GR
H8OB H 1.4448 0.7333 0.3310 0.063 Uiso 1 1 calc GR
H8OC H 1.3652 0.7780 0.4008 0.063 Uiso 1 1 calc GR
C8IQ C 0.6305(4) 0.1421(4) -0.0142(3) 0.0223(11) Uani 1 1 d .
O30E O 0.9996(3) 0.9873(3) 0.8639(2) 0.0347(9) Uani 1 1 d .
C31E C 0.5814(4) 0.4912(4) 0.1287(3) 0.0211(11) Uani 1 1 d .
C32E C 0.9562(4) 0.4881(4) 0.3716(3) 0.0199(10) Uani 1 1 d .
C33E C 0.8236(4) 0.4679(4) 0.3786(3) 0.0231(11) Uani 1 1 d .
C34E C 0.7630(4) 0.4170(4) 0.1229(3) 0.0209(10) Uani 1 1 d .
C35E C 0.9916(4) 0.6000(4) 0.3686(3) 0.0223(11) Uani 1 1 d .
O36E O 0.4154(4) 0.0119(3) -0.3772(2) 0.0461(10) Uani 1 1 d .
C37E C 0.7950(4) 0.6140(4) 0.1206(3) 0.0253(11) Uani 1 1 d .
H37E H 0.7656 0.6826 0.1233 0.030 Uiso 1 1 calc R
C38E C 1.1125(5) 0.6471(4) 0.3613(3) 0.0256(11) Uani 1 1 d .
H38E H 1.1345 0.7236 0.3594 0.031 Uiso 1 1 calc R
C39E C 0.4865(4) 0.5558(4) 0.1309(3) 0.0247(11) Uani 1 1 d .
H39E H 0.5060 0.6329 0.1300 0.030 Uiso 1 1 calc R
S1 S 0.88089(12) 0.78585(10) 0.38183(8) 0.0246(3) Uani 1 1 d .
O2 O 0.7436(3) 0.7898(3) 0.3388(2) 0.0305(8) Uani 1 1 d .
O2AA O 1.3221(3) 0.6091(3) 0.3482(2) 0.0351(8) Uani 1 1 d .
O1 O 0.8090(3) 0.1983(3) 0.1649(2) 0.0312(8) Uani 1 1 d .
loop_
_atom_site_aniso_label
_atom_site_aniso_U_11
_atom_site_aniso_U_22
_atom_site_aniso_U_33
_atom_site_aniso_U_23
_atom_site_aniso_U_13
_atom_site_aniso_U_12
S00 0.0344(7) 0.0207(7) 0.0237(6) 0.0100(5) 0.0111(5) 0.0097(6)
Br1 0.0390(3) 0.0327(3) 0.0352(3) 0.0138(2) 0.0163(2) 0.0013(2)
Br2 0.0403(3) 0.0338(3) 0.0397(3) 0.0130(2) 0.0152(2) 0.0019(3)
N00E 0.028(2) 0.020(2) 0.024(2) 0.0066(17) 0.0118(17) 0.0109(18)
N01E 0.026(2) 0.020(2) 0.023(2) 0.0082(17) 0.0118(17) 0.0077(18)
O10E 0.036(2) 0.035(2) 0.0340(19) 0.0015(16) 0.0073(16) 0.0046(18)
O11E 0.045(2) 0.040(2) 0.035(2) 0.0099(16) 0.0236(17) 0.0120(18)
O1AA 0.041(2) 0.0248(19) 0.0371(19) 0.0177(15) 0.0225(16) 0.0076(16)
O0AA 0.041(2) 0.031(2) 0.0290(17) 0.0183(15) 0.0179(15) 0.0156(16)
C12E 0.030(3) 0.024(3) 0.025(3) 0.009(2) 0.007(2) 0.015(2)
O13E 0.0274(19) 0.032(2) 0.048(2) 0.0164(17) 0.0169(16) 0.0075(16)
C0WU 0.026(3) 0.029(3) 0.021(2) 0.011(2) 0.011(2) 0.011(2)
N1MB 0.040(3) 0.024(2) 0.029(2) 0.0068(19) 0.009(2) 0.007(2)
C2BP 0.026(3) 0.031(3) 0.029(3) 0.010(2) 0.007(2) 0.007(2)
C2GS 0.034(3) 0.030(3) 0.034(3) 0.007(2) 0.021(2) 0.011(2)
C3AH 0.030(3) 0.023(3) 0.015(2) 0.006(2) 0.0077(19) 0.008(2)
C4EN 0.032(3) 0.020(3) 0.022(2) 0.007(2) 0.009(2) 0.010(2)
C6JK 0.029(3) 0.030(3) 0.015(2) 0.008(2) 0.0097(19) 0.011(2)
C8VK 0.027(3) 0.029(3) 0.024(2) 0.010(2) 0.008(2) 0.018(2)
C8NN 0.022(3) 0.036(3) 0.025(2) 0.010(2) 0.011(2) 0.009(2)
C00 0.030(3) 0.016(3) 0.022(2) 0.0060(19) 0.011(2) 0.001(2)
C01 0.031(3) 0.018(3) 0.024(2) 0.010(2) 0.010(2) 0.009(2)
C02 0.027(3) 0.019(3) 0.028(3) 0.008(2) 0.013(2) 0.009(2)
C03 0.025(3) 0.017(3) 0.031(3) 0.011(2) 0.006(2) 0.006(2)
C04 0.030(3) 0.020(3) 0.022(2) 0.006(2) 0.009(2) 0.010(2)
C05 0.034(3) 0.038(3) 0.056(3) 0.026(3) 0.021(3) 0.005(3)
C06 0.026(3) 0.020(3) 0.031(3) 0.008(2) 0.009(2) 0.008(2)
N07 0.040(3) 0.021(2) 0.028(2) 0.0047(19) 0.011(2) 0.010(2)
C08 0.025(3) 0.023(3) 0.028(3) 0.007(2) 0.012(2) 0.005(2)
C0UA 0.028(3) 0.017(3) 0.023(2) 0.008(2) 0.009(2) 0.006(2)
C0LV 0.024(3) 0.031(3) 0.026(3) 0.010(2) 0.011(2) 0.006(2)
C1SE 0.032(3) 0.022(3) 0.017(2) 0.005(2) 0.009(2) 0.005(2)
C1CK 0.032(3) 0.024(3) 0.027(3) 0.013(2) 0.011(2) 0.010(2)
C2GK 0.026(3) 0.034(3) 0.023(2) 0.011(2) 0.005(2) 0.013(2)
C2UT 0.027(3) 0.028(3) 0.028(3) 0.008(2) 0.010(2) 0.012(2)
C4TO 0.031(3) 0.027(3) 0.022(2) 0.007(2) 0.009(2) 0.006(2)
C4UO 0.024(3) 0.026(3) 0.030(3) 0.011(2) 0.010(2) 0.007(2)
C4QQ 0.026(3) 0.018(3) 0.032(3) 0.006(2) 0.011(2) 0.005(2)
C5QF 0.030(3) 0.029(3) 0.020(2) 0.010(2) 0.013(2) 0.004(2)
C7TK 0.030(3) 0.019(3) 0.025(2) 0.012(2) 0.006(2) 0.009(2)
C8ON 0.035(3) 0.050(4) 0.053(3) 0.031(3) 0.018(3) 0.016(3)
C8IQ 0.025(3) 0.015(3) 0.027(3) 0.008(2) 0.011(2) 0.003(2)
O30E 0.047(2) 0.033(2) 0.0287(19) 0.0070(16) 0.0226(17) 0.0072(18)
C31E 0.025(3) 0.023(3) 0.018(2) 0.007(2) 0.0100(19) 0.007(2)
C32E 0.024(3) 0.021(3) 0.018(2) 0.0070(19) 0.0089(19) 0.011(2)
C33E 0.028(3) 0.026(3) 0.013(2) 0.005(2) 0.0033(19) 0.011(2)
C34E 0.023(3) 0.024(3) 0.016(2) 0.007(2) 0.0067(19) 0.005(2)
C35E 0.026(3) 0.023(3) 0.018(2) 0.007(2) 0.0056(19) 0.010(2)
O36E 0.045(2) 0.057(3) 0.027(2) 0.0049(17) 0.0017(18) 0.023(2)
C37E 0.032(3) 0.026(3) 0.019(2) 0.009(2) 0.007(2) 0.011(2)
C38E 0.033(3) 0.026(3) 0.021(2) 0.009(2) 0.010(2) 0.009(2)
C39E 0.027(3) 0.022(3) 0.025(2) 0.010(2) 0.005(2) 0.009(2)
S1 0.0320(7) 0.0222(7) 0.0234(6) 0.0115(5) 0.0092(5) 0.0122(6)
O2 0.033(2) 0.0251(19) 0.0319(18) 0.0093(15) 0.0062(15) 0.0154(16)
O2AA 0.033(2) 0.039(2) 0.042(2) 0.0192(17) 0.0178(16) 0.0161(17)
O1 0.032(2) 0.029(2) 0.0300(18) 0.0104(15) 0.0056(15) 0.0124(16)
loop_
_atom_type_symbol
_atom_type_description
_atom_type_scat_dispersion_real
_atom_type_scat_dispersion_imag
_atom_type_scat_source
C C 0.0033 0.0016 'International Tables Vol C Tables 4.2.6.8 and 6.1.1.4'
H H 0.0000 0.0000 'International Tables Vol C Tables 4.2.6.8 and 6.1.1.4'
Br Br -0.2901 2.4595 'International Tables Vol C Tables 4.2.6.8 and 6.1.1.4'
N N 0.0061 0.0033 'International Tables Vol C Tables 4.2.6.8 and 6.1.1.4'
O O 0.0106 0.0060 'International Tables Vol C Tables 4.2.6.8 and 6.1.1.4'
S S 0.1246 0.1234 'International Tables Vol C Tables 4.2.6.8 and 6.1.1.4'
loop_
_geom_angle_atom_site_label_1
_geom_angle_atom_site_label_2
_geom_angle_atom_site_label_3
_geom_angle
N01E S00 C8IQ 103.77(18)
O1AA S00 N01E 106.86(19)
O1AA S00 C8IQ 109.11(19)
O1 S00 N01E 107.55(18)
O1 S00 O1AA 120.60(19)
O1 S00 C8IQ 107.7(2)
C0UA N00E C35E 108.1(3)
C0UA N00E S1 124.6(3)
C35E N00E S1 126.5(3)
C6JK N01E S00 127.1(3)
C34E N01E S00 123.1(3)
C34E N01E C6JK 108.4(4)
C0UA C12E H12E 120.6
C0UA C12E C2GK 118.7(4)
C2GK C12E H12E 120.6
C0LV O13E C05 117.3(4)
C38E C0WU C8VK 121.4(4)
O2AA C0WU C8VK 115.5(4)
O2AA C0WU C38E 123.1(4)
O11E N1MB C00 118.6(4)
O11E N1MB O36E 123.8(4)
O36E N1MB C00 117.6(4)
C2GS C2BP H2BP 120.1
C01 C2BP H2BP 120.1
C01 C2BP C2GS 119.8(4)
C2BP C2GS H2GS 120.8
C2BP C2GS C04 118.5(4)
C04 C2GS H2GS 120.8
C34E C3AH C31E 107.6(4)
C37E C3AH C31E 132.9(4)
C37E C3AH C34E 119.5(4)
C4TO C4EN H4EN 120.8
C4TO C4EN C33E 118.5(4)
C33E C4EN H4EN 120.8
C1CK C6JK N01E 129.2(4)
C1CK C6JK C31E 123.1(4)
C31E C6JK N01E 107.6(4)
C0WU C8VK H8VK 119.3
C7TK C8VK C0WU 121.3(4)
C7TK C8VK H8VK 119.3
C1SE C8NN H8NN 119.7
C1SE C8NN C5QF 120.6(4)
C5QF C8NN H8NN 119.7
C03 C00 N1MB 118.3(4)
C03 C00 C08 123.0(4)
C08 C00 N1MB 118.7(4)
C2BP C01 C02 121.1(4)
C2BP C01 S1 120.6(3)
C02 C01 S1 118.3(3)
C01 C02 H02 120.4
C06 C02 C01 119.3(4)
C06 C02 H02 120.4
C00 C03 H03 120.8
C00 C03 C4QQ 118.4(4)
C4QQ C03 H03 120.8
C2GS C04 N07 118.1(4)
C06 C04 C2GS 123.1(4)
C06 C04 N07 118.8(4)
O13E C05 H05A 109.5
O13E C05 H05B 109.5
O13E C05 H05C 109.5
H05A C05 H05B 109.5
H05A C05 H05C 109.5
H05B C05 H05C 109.5
C02 C06 H06 120.9
C04 C06 C02 118.2(4)
C04 C06 H06 120.9
O10E N07 C04 117.5(4)
O30E N07 O10E 124.1(4)
O30E N07 C04 118.4(4)
C00 C08 H08 120.7
C4UO C08 C00 118.7(4)
C4UO C08 H08 120.7
C12E C0UA N00E 130.5(4)
C12E C0UA C33E 121.5(4)
C33E C0UA N00E 108.0(4)
O13E C0LV C1CK 123.6(4)
O13E C0LV C2UT 114.4(4)
C1CK C0LV C2UT 122.0(4)
C8NN C1SE H1SE 121.0
C8NN C1SE C34E 117.9(4)
C34E C1SE H1SE 121.0
C6JK C1CK C0LV 116.0(4)
C6JK C1CK H1CK 122.0
C0LV C1CK H1CK 122.0
C12E C2GK H2GK 120.1
C12E C2GK C4TO 119.7(4)
C4TO C2GK H2GK 120.1
C0LV C2UT H2UT 119.8
C39E C2UT C0LV 120.4(5)
C39E C2UT H2UT 119.8
C4EN C4TO Br2 119.3(4)
C4EN C4TO C2GK 122.4(4)
C2GK C4TO Br2 118.3(4)
C08 C4UO H4UO 120.5
C08 C4UO C8IQ 119.1(4)
C8IQ C4UO H4UO 120.5
C03 C4QQ H4QQ 120.4
C03 C4QQ C8IQ 119.2(4)
C8IQ C4QQ H4QQ 120.4
C8NN C5QF Br1 118.3(4)
C37E C5QF Br1 119.4(4)
C37E C5QF C8NN 122.3(4)
C8VK C7TK H7TK 120.6
C8VK C7TK C32E 118.8(4)
C32E C7TK H7TK 120.6
H8OA C8ON H8OB 109.5
H8OA C8ON H8OC 109.5
H8OB C8ON H8OC 109.5
O2AA C8ON H8OA 109.5
O2AA C8ON H8OB 109.5
O2AA C8ON H8OC 109.5
C4UO C8IQ S00 120.3(3)
C4UO C8IQ C4QQ 121.6(4)
C4QQ C8IQ S00 118.1(4)
C6JK C31E C3AH 108.4(4)
C6JK C31E C39E 118.8(4)
C39E C31E C3AH 132.8(4)
C7TK C32E C33E 132.5(4)
C35E C32E C7TK 119.1(4)
C35E C32E C33E 108.4(4)
C4EN C33E C0UA 119.1(4)
C4EN C33E C32E 133.4(4)
C0UA C33E C32E 107.4(4)
C3AH C34E N01E 107.8(4)
C1SE C34E N01E 130.4(4)
C1SE C34E C3AH 121.7(4)
C32E C35E N00E 108.0(4)
C38E C35E N00E 128.5(4)
C38E C35E C32E 123.4(4)
C3AH C37E H37E 121.0
C5QF C37E C3AH 118.0(4)
C5QF C37E H37E 121.0
C0WU C38E H38E 122.0
C35E C38E C0WU 116.0(4)
C35E C38E H38E 122.0
C2UT C39E C31E 119.7(4)
C2UT C39E H39E 120.2
C31E C39E H39E 120.2
N00E S1 C01 103.97(19)
O0AA S1 N00E 107.01(19)
O0AA S1 C01 108.7(2)
O2 S1 N00E 107.10(18)
O2 S1 O0AA 120.73(18)
O2 S1 C01 108.1(2)
C0WU O2AA C8ON 117.4(4)
loop_
_geom_bond_atom_site_label_1
_geom_bond_atom_site_label_2
_geom_bond_distance
S00 N01E 1.651(4)
S00 O1AA 1.425(3)
S00 C8IQ 1.777(4)
S00 O1 1.421(3)
Br1 C5QF 1.901(5)
Br2 C4TO 1.896(5)
N00E C0UA 1.423(5)
N00E C35E 1.434(5)
N00E S1 1.646(4)
N01E C6JK 1.432(5)
N01E C34E 1.418(5)
O10E N07 1.223(5)
O11E N1MB 1.222(5)
O0AA S1 1.424(3)
C12E H12E 0.9500
C12E C0UA 1.371(6)
C12E C2GK 1.384(6)
O13E C05 1.433(5)
O13E C0LV 1.374(5)
C0WU C8VK 1.405(6)
C0WU C38E 1.394(6)
C0WU O2AA 1.372(5)
N1MB C00 1.482(5)
N1MB O36E 1.228(5)
C2BP H2BP 0.9500
C2BP C2GS 1.376(6)
C2BP C01 1.375(6)
C2GS H2GS 0.9500
C2GS C04 1.381(6)
C3AH C31E 1.443(6)
C3AH C34E 1.410(6)
C3AH C37E 1.395(6)
C4EN H4EN 0.9500
C4EN C4TO 1.369(6)
C4EN C33E 1.390(6)
C6JK C1CK 1.387(6)
C6JK C31E 1.396(6)
C8VK H8VK 0.9500
C8VK C7TK 1.362(6)
C8NN H8NN 0.9500
C8NN C1SE 1.380(6)
C8NN C5QF 1.387(6)
C00 C03 1.373(6)
C00 C08 1.379(6)
C01 C02 1.395(6)
C01 S1 1.765(4)
C02 H02 0.9500
C02 C06 1.388(5)
C03 H03 0.9500
C03 C4QQ 1.377(6)
C04 C06 1.367(6)
C04 N07 1.479(5)
C05 H05A 0.9800
C05 H05B 0.9800
C05 H05C 0.9800
C06 H06 0.9500
N07 O30E 1.221(5)
C08 H08 0.9500
C08 C4UO 1.376(6)
C0UA C33E 1.414(6)
C0LV C1CK 1.389(6)
C0LV C2UT 1.404(6)
C1SE H1SE 0.9500
C1SE C34E 1.380(6)
C1CK H1CK 0.9500
C2GK H2GK 0.9500
C2GK C4TO 1.389(6)
C2UT H2UT 0.9500
C2UT C39E 1.358(6)
C4UO H4UO 0.9500
C4UO C8IQ 1.383(6)
C4QQ H4QQ 0.9500
C4QQ C8IQ 1.391(6)
C5QF C37E 1.374(6)
C7TK H7TK 0.9500
C7TK C32E 1.401(6)
C8ON H8OA 0.9800
C8ON H8OB 0.9800
C8ON H8OC 0.9800
C8ON O2AA 1.428(6)
C31E C39E 1.397(6)
C32E C33E 1.449(6)
C32E C35E 1.394(6)
C35E C38E 1.387(6)
C37E H37E 0.9500
C38E H38E 0.9500
C39E H39E 0.9500
S1 O2 1.423(3)
loop_
_geom_torsion_atom_site_label_1
_geom_torsion_atom_site_label_2
_geom_torsion_atom_site_label_3
_geom_torsion_atom_site_label_4
_geom_torsion
S00 N01E C6JK C1CK 11.1(6)
S00 N01E C6JK C31E -169.8(3)
S00 N01E C34E C3AH 170.8(3)
S00 N01E C34E C1SE -9.1(6)
Br1 C5QF C37E C3AH -178.5(3)
N00E C0UA C33E C4EN -177.4(3)
N00E C0UA C33E C32E 0.8(4)
N00E C35E C38E C0WU -177.5(4)
N01E S00 C8IQ C4UO 124.6(4)
N01E S00 C8IQ C4QQ -54.6(4)
N01E C6JK C1CK C0LV 178.9(4)
N01E C6JK C31E C3AH 1.6(4)
N01E C6JK C31E C39E -178.4(3)
O11E N1MB C00 C03 163.5(4)
O11E N1MB C00 C08 -16.9(6)
O1AA S00 N01E C6JK -22.7(4)
O1AA S00 N01E C34E 172.5(3)
O1AA S00 C8IQ C4UO -121.7(4)
O1AA S00 C8IQ C4QQ 59.0(4)
C12E C0UA C33E C4EN 3.5(6)
C12E C0UA C33E C32E -178.3(4)
C12E C2GK C4TO Br2 -177.5(3)
C12E C2GK C4TO C4EN 0.8(6)
O13E C0LV C1CK C6JK -179.5(4)
O13E C0LV C2UT C39E 179.7(4)
C0WU C8VK C7TK C32E 0.6(6)
N1MB C00 C03 C4QQ -179.7(4)
N1MB C00 C08 C4UO 179.1(4)
C2BP C2GS C04 C06 -0.6(7)
C2BP C2GS C04 N07 177.1(4)
C2BP C01 C02 C06 -0.4(7)
C2BP C01 S1 N00E -97.4(4)
C2BP C01 S1 O0AA 148.9(4)
C2BP C01 S1 O2 16.2(4)
C2GS C2BP C01 C02 -0.5(7)
C2GS C2BP C01 S1 178.2(3)
C2GS C04 C06 C02 -0.3(7)
C2GS C04 N07 O10E -157.8(4)
C2GS C04 N07 O30E 22.9(6)
C3AH C31E C39E C2UT 179.3(4)
C6JK N01E C34E C3AH 3.5(4)
C6JK N01E C34E C1SE -176.4(4)
C6JK C31E C39E C2UT -0.7(6)
C8VK C0WU C38E C35E 0.1(6)
C8VK C0WU O2AA C8ON 176.9(4)
C8VK C7TK C32E C33E 179.3(4)
C8VK C7TK C32E C35E -0.5(6)
C8NN C1SE C34E N01E -178.7(4)
C8NN C1SE C34E C3AH 1.3(6)
C8NN C5QF C37E C3AH -0.4(6)
C00 C03 C4QQ C8IQ 1.0(6)
C00 C08 C4UO C8IQ 0.2(6)
C01 C2BP C2GS C04 1.1(7)
C01 C02 C06 C04 0.9(6)
C02 C01 S1 N00E 81.3(4)
C02 C01 S1 O0AA -32.4(4)
C02 C01 S1 O2 -165.1(3)
C03 C00 C08 C4UO -1.3(7)
C03 C4QQ C8IQ S00 177.2(3)
C03 C4QQ C8IQ C4UO -2.1(6)
C05 O13E C0LV C1CK -2.4(6)
C05 O13E C0LV C2UT 178.9(4)
C06 C04 N07 O10E 20.0(6)
C06 C04 N07 O30E -159.3(4)
N07 C04 C06 C02 -178.0(4)
C08 C00 C03 C4QQ 0.7(7)
C08 C4UO C8IQ S00 -177.8(3)
C08 C4UO C8IQ C4QQ 1.5(7)
C0UA N00E C35E C32E 2.2(4)
C0UA N00E C35E C38E 180.0(4)
C0UA N00E S1 O0AA -166.7(3)
C0UA N00E S1 C01 78.3(4)
C0UA N00E S1 O2 -36.0(4)
C0UA C12E C2GK C4TO -0.1(6)
C0LV C2UT C39E C31E -0.1(6)
C1SE C8NN C5QF Br1 177.5(3)
C1SE C8NN C5QF C37E -0.6(6)
C1CK C6JK C31E C3AH -179.3(4)
C1CK C6JK C31E C39E 0.7(6)
C1CK C0LV C2UT C39E 0.9(7)
C2GK C12E C0UA N00E 179.1(4)
C2GK C12E C0UA C33E -2.0(6)
C2UT C0LV C1CK C6JK -0.9(6)
C4TO C4EN C33E C0UA -2.7(6)
C4TO C4EN C33E C32E 179.6(4)
C5QF C8NN C1SE C34E 0.2(6)
C7TK C32E C33E C4EN -1.3(8)
C7TK C32E C33E C0UA -179.2(4)
C7TK C32E C35E N00E 178.1(3)
C7TK C32E C35E C38E 0.2(6)
C8IQ S00 N01E C6JK 92.5(4)
C8IQ S00 N01E C34E -72.3(3)
C31E C3AH C34E N01E -2.5(4)
C31E C3AH C34E C1SE 177.5(4)
C31E C3AH C37E C5QF -177.9(4)
C31E C6JK C1CK C0LV 0.1(6)
C32E C35E C38E C0WU 0.0(6)
C33E C4EN C4TO Br2 179.0(3)
C33E C4EN C4TO C2GK 0.6(6)
C33E C32E C35E N00E -1.6(4)
C33E C32E C35E C38E -179.6(4)
C34E N01E C6JK C1CK 177.8(4)
C34E N01E C6JK C31E -3.2(4)
C34E C3AH C31E C6JK 0.5(5)
C34E C3AH C31E C39E -179.5(4)
C34E C3AH C37E C5QF 1.8(6)
C35E N00E C0UA C12E 177.1(4)
C35E N00E C0UA C33E -1.9(4)
C35E N00E S1 O0AA 24.6(4)
C35E N00E S1 C01 -90.3(4)
C35E N00E S1 O2 155.4(3)
C35E C32E C33E C4EN 178.4(4)
C35E C32E C33E C0UA 0.5(5)
O36E N1MB C00 C03 -16.7(6)
O36E N1MB C00 C08 162.9(4)
C37E C3AH C31E C6JK -179.7(4)
C37E C3AH C31E C39E 0.3(8)
C37E C3AH C34E N01E 177.7(3)
C37E C3AH C34E C1SE -2.4(6)
C38E C0WU C8VK C7TK -0.4(6)
C38E C0WU O2AA C8ON -2.3(6)
S1 N00E C0UA C12E 6.7(6)
S1 N00E C0UA C33E -172.3(3)
S1 N00E C35E C32E 172.4(3)
S1 N00E C35E C38E -9.8(6)
S1 C01 C02 C06 -179.2(3)
O2AA C0WU C8VK C7TK -179.5(4)
O2AA C0WU C38E C35E 179.1(4)
O1 S00 N01E C6JK -153.5(3)
O1 S00 N01E C34E 41.7(3)
O1 S00 C8IQ C4UO 10.8(4)
O1 S00 C8IQ C4QQ -168.5(3)
