#------------------------------------------------------------------------------
#$Date: 2017-03-04 14:57:29 +0200 (Sat, 04 Mar 2017) $
#$Revision: 193373 $
#$URL: file:///home/coder/svn-repositories/cod/cif/1/54/54/1545454.cif $
#------------------------------------------------------------------------------
#
# This file is available in the Crystallography Open Database (COD),
# http://www.crystallography.net/
#
# All data on this site have been placed in the public domain by the
# contributors.
#
data_1545454
loop_
_publ_author_name
'Prasad, Ch Durga'
'Sattar, Moh'
'Kumar, Sangit'
_publ_section_title
;
 Transition-Metal-Free Selective Oxidative C(sp(3))-S/Se Coupling of
 Oxindoles, Tetralone, and Arylacetamides: Synthesis of Unsymmetrical
 Organochalcogenides.
;
_journal_issue                   4
_journal_name_full               'Organic letters'
_journal_page_first              774
_journal_page_last               777
_journal_paper_doi               10.1021/acs.orglett.6b03735
_journal_volume                  19
_journal_year                    2017
_chemical_formula_moiety         'C21.87 H14 Br N O S, 0.18 (H)'
_chemical_formula_sum            'C21.87 H14.18 Br N O S'
_chemical_formula_weight         418.92
_space_group_crystal_system      orthorhombic
_space_group_IT_number           61
_space_group_name_Hall           '-P 2ac 2ab'
_space_group_name_H-M_alt        'P b c a'
_symmetry_space_group_name_Hall  '-P 2ac 2ab'
_symmetry_space_group_name_H-M   'P b c a'
_atom_sites_solution_hydrogens   geom
_atom_sites_solution_primary     iterative
_audit_creation_date             2016-03-17
_audit_creation_method
;
Olex2 1.2
(compiled 2015.01.26 svn.r3150 for OlexSys, GUI svn.r4998)
;
_cell_angle_alpha                90
_cell_angle_beta                 90
_cell_angle_gamma                90
_cell_formula_units_Z            8
_cell_length_a                   8.5547(8)
_cell_length_b                   20.782(2)
_cell_length_c                   21.537(2)
_cell_measurement_reflns_used    9890
_cell_measurement_temperature    293(2)
_cell_measurement_theta_max      25.35
_cell_measurement_theta_min      2.72
_cell_volume                     3828.9(6)
_computing_cell_refinement       'SAINT v8.34A (Bruker, 2013)'
_computing_data_reduction        'SAINT v8.34A (Bruker, 2013)'
_computing_molecular_graphics    'Olex2 (Dolomanov et al., 2009)'
_computing_publication_material  'Olex2 (Dolomanov et al., 2009)'
_computing_structure_refinement  'ShelXL (Sheldrick, 2008)'
_computing_structure_solution
;
Superflip (Palatinus & Chapuis, 2007;Palatinus & van der Lee, 2008;
Palatinus et al., 2012)
;
_diffrn_ambient_temperature      293(2)
_diffrn_measured_fraction_theta_full 0.999
_diffrn_measured_fraction_theta_max 0.999
_diffrn_measurement_device_type  'Bruker APEX-II CCD'
_diffrn_measurement_method       '\f and \w scans'
_diffrn_radiation_type           MoK\a
_diffrn_radiation_wavelength     0.71073
_diffrn_reflns_av_R_equivalents  0.0000
_diffrn_reflns_av_unetI/netI     0.0323
_diffrn_reflns_Laue_measured_fraction_full 0.999
_diffrn_reflns_Laue_measured_fraction_max 0.999
_diffrn_reflns_limit_h_max       11
_diffrn_reflns_limit_h_min       0
_diffrn_reflns_limit_k_max       28
_diffrn_reflns_limit_k_min       0
_diffrn_reflns_limit_l_max       29
_diffrn_reflns_limit_l_min       0
_diffrn_reflns_number            5552
_diffrn_reflns_point_group_measured_fraction_full 0.999
_diffrn_reflns_point_group_measured_fraction_max 0.999
_diffrn_reflns_theta_full        26.000
_diffrn_reflns_theta_max         28.700
_diffrn_reflns_theta_min         2.724
_diffrn_standards_number         0
_exptl_absorpt_coefficient_mu    2.266
_exptl_absorpt_correction_T_max  0.7458
_exptl_absorpt_correction_T_min  0.6126
_exptl_absorpt_correction_type   multi-scan
_exptl_absorpt_process_details
;
SADABS-2014/4 (Bruker,2014/4) was used for absorption correction.
wR2(int) was 0.1103 before and 0.0646 after correction.
The Ratio of minimum to maximum transmission is 0.8214.
The \l/2 correction factor is 0.00150.
;
_exptl_crystal_colour            yellow
_exptl_crystal_density_diffrn    1.454
_exptl_crystal_density_method    'not measured'
_exptl_crystal_description       needle
_exptl_crystal_F_000             1691.2
_exptl_crystal_size_max          0.3
_exptl_crystal_size_mid          0.25
_exptl_crystal_size_min          0.2
_refine_diff_density_max         0.557
_refine_diff_density_min         -1.143
_refine_diff_density_rms         0.095
_refine_ls_extinction_method     none
_refine_ls_goodness_of_fit_ref   1.043
_refine_ls_hydrogen_treatment    mixed
_refine_ls_matrix_type           full
_refine_ls_number_parameters     239
_refine_ls_number_reflns         4955
_refine_ls_number_restraints     134
_refine_ls_restrained_S_all      1.039
_refine_ls_R_factor_all          0.0936
_refine_ls_R_factor_gt           0.0572
_refine_ls_shift/su_max          0.001
_refine_ls_shift/su_mean         0.000
_refine_ls_structure_factor_coef Fsqd
_refine_ls_weighting_details
'w=1/[\s^2^(Fo^2^)+(0.0831P)^2^+6.8047P] where P=(Fo^2^+2Fc^2^)/3'
_refine_ls_weighting_scheme      calc
_refine_ls_wR_factor_gt          0.1512
_refine_ls_wR_factor_ref         0.1724
_reflns_Friedel_coverage         0.000
_reflns_number_gt                3450
_reflns_number_total             4957
_reflns_threshold_expression     'I > 2\s(I)'
_cod_data_source_file            ol6b03735_si_003.cif
_cod_data_source_block           DP_831
_cod_original_cell_volume        3828.9(7)
_cod_database_code               1545454
_shelx_space_group_comment
;
The symmetry employed for this shelxl refinement is uniquely defined
by the following loop, which should always be used as a source of
symmetry information in preference to the above space-group names.
They are only intended as comments.
;
_olex2_refinement_description
;
1. Fixed Uiso
 At 1.2 times of:
  All C(H) groups, All C(H,H) groups, All N(H) groups
2. Rigid bond restraints
 C19, C20, C21, C18, C17
 with sigma for 1-2 distances of 0.01 and sigma for 1-3 distances of 0.01
 C11, C15, C14, C13, C12
 with sigma for 1-2 distances of 0.01 and sigma for 1-3 distances of 0.01
 C19, C18, C20, C21, C17
 with sigma for 1-2 distances of 0.01 and sigma for 1-3 distances of 0.01
3. Uiso/Uaniso restraints and constraints
C17 \\sim C18 \\sim C19 \\sim C20 \\sim C21: within 1.7A with sigma of 0.04 and
sigma for terminal atoms of 0.08
C11 \\sim C12 \\sim C13 \\sim C14 \\sim C15: within 1.7A with sigma of 0.04 and
sigma for terminal atoms of 0.08
C19 \\sim C20 \\sim C18 \\sim C17 \\sim C21: within 1.7A with sigma of 0.04 and
sigma for terminal atoms of 0.08
Uanis(C21) \\sim Ueq, Uanis(C20) \\sim Ueq, Uanis(C19) \\sim Ueq, Uanis(C18)
\\sim Ueq, Uanis(C17) \\sim Ueq: with sigma of 0.1 and sigma for terminal atoms
of 0.2
Uanis(C11) \\sim Ueq, Uanis(C15) \\sim Ueq, Uanis(C14) \\sim Ueq, Uanis(C13)
\\sim Ueq, Uanis(C12) \\sim Ueq: with sigma of 0.1 and sigma for terminal atoms
of 0.2
Uanis(C21) \\sim Ueq, Uanis(C20) \\sim Ueq, Uanis(C19) \\sim Ueq, Uanis(C18)
\\sim Ueq, Uanis(C17) \\sim Ueq: with sigma of 0.1 and sigma for terminal atoms
of 0.2
Uanis(C9A) \\sim Ueq, Uanis(C9B) \\sim Ueq: with sigma of 0.1 and sigma for
terminal atoms of 0.2
4.a Secondary CH2 refined with riding coordinates:
 C9A(H9AA,H9AB)
4.b Aromatic/amide H refined with riding coordinates:
 N1(H1), C5(H5), C20(H20), C3(H3), C17(H17), C2(H2), C21(H21), C19(H19),
 C18(H18), C15(H15), C14(H14), C11(H11), C13(H13), C12(H12)
;
_shelx_res_file
;
    trya1.res created by SHELXL-2014/7

TITL
CELL 0.71073 8.5547 20.7823 21.5365 90 90 90
ZERR 8 0.0008 0.0022 0.0023 0 0 0
LATT 1
SYMM 0.5-X,-Y,0.5+Z
SYMM 0.5+X,0.5-Y,-Z
SYMM -X,0.5+Y,0.5-Z
SFAC C H Br N O S
UNIT 175.02 113.45 8 8 8 8
DELU C19 C20 C21 C18 C17
DELU C11 C15 C14 C13 C12
DELU C19 C18 C20 C21 C17
SIMU 0.04 0.08 1.7 C17 C18 C19 C20 C21
SIMU 0.04 0.08 1.7 C11 C12 C13 C14 C15
SIMU 0.04 0.08 1.7 C19 C20 C18 C17 C21
ISOR C21 C20 C19 C18 C17
ISOR C11 C15 C14 C13 C12
ISOR C21 C20 C19 C18 C17
ISOR C9A C9B

L.S. 21 0 0
PLAN  5
MORE -1
BOND $H
CONF
fmap 2 53
acta 52
REM <olex2.extras>
REM <HklSrc "%.\\TRYA1.hkl">
REM </olex2.extras>

WGHT    0.083100    6.804700
FVAR       0.22851
BR1   3    0.904668    0.523452    0.243017    11.00000    0.04212    0.04426 =
         0.05118   -0.01343    0.00677   -0.00279
S1    6    0.490604    0.717680    0.374943    11.00000    0.04829    0.10392 =
         0.08064    0.01011   -0.00634    0.01307
O1    5    0.655387    0.750374    0.505718    11.00000    0.02922    0.07265 =
         0.04814   -0.01955    0.00382    0.00801
N1    4    0.867018    0.713364    0.452484    11.00000    0.01830    0.04771 =
         0.03493   -0.00818   -0.00030   -0.00043
AFIX  43
H1    2    0.938104    0.734422    0.472088    11.00000   -1.20000
AFIX   0
C4    1    0.901489    0.585217    0.308142    11.00000    0.03100    0.03317 =
         0.03483   -0.00081    0.00356   -0.00111
C6    1    0.758504    0.645034    0.382370    11.00000    0.01729    0.04305 =
         0.03253   -0.00090   -0.00089    0.00037
C16   1    0.611286    0.774957    0.341507    11.00000    0.03088    0.05275 =
         0.05865    0.00847   -0.00888    0.01130
C5    1    0.758461    0.600953    0.334409    11.00000    0.02395    0.04383 =
         0.03585   -0.00234   -0.00163   -0.00405
AFIX  43
H5    2    0.666046    0.582510    0.320250    11.00000   -1.20000
AFIX   0
C20   1    0.729189    0.879176    0.340743    11.00000    0.20755    0.08754 =
         0.14421    0.04061   -0.09560   -0.05298
AFIX  43
H20   2    0.747707    0.918624    0.359757    11.00000   -1.20000
AFIX   0
C1    1    0.897683    0.671066    0.403603    11.00000    0.02055    0.03536 =
         0.03163   -0.00054   -0.00232   -0.00008
C3    1    1.039885    0.612355    0.327942    11.00000    0.02313    0.04558 =
         0.04419   -0.00261    0.00696    0.00302
AFIX  43
H3    2    1.133199    0.601427    0.308457    11.00000   -1.20000
AFIX   0
C10   1    0.621274    0.584620    0.505779    11.00000    0.03636    0.05906 =
         0.05785    0.01299    0.00600   -0.01131
C17   1    0.678975    0.764001    0.284759    11.00000    0.08690    0.06772 =
         0.10552    0.02444    0.05276    0.03260
AFIX  43
H17   2    0.663256    0.724715    0.265048    11.00000   -1.20000
AFIX   0
C2    1    1.040607    0.656172    0.377116    11.00000    0.01950    0.04697 =
         0.05086   -0.00802    0.00043   -0.00107
AFIX  43
H2    2    1.132986    0.674521    0.391424    11.00000   -1.20000
AFIX   0
C21   1    0.630839    0.832892    0.369705    11.00000    0.16906    0.05113 =
         0.07298    0.01218   -0.04685   -0.00872
AFIX  43
H21   2    0.581073    0.842058    0.407065    11.00000   -1.20000
AFIX   0
C7    1    0.627063    0.673530    0.419523    11.00000    0.01650    0.05946 =
         0.04076   -0.00695    0.00122    0.00214
C8    1    0.713476    0.717374    0.465376    11.00000    0.02042    0.05172 =
         0.03759   -0.00388    0.00007    0.00358
C19   1    0.795250    0.865444    0.285609    11.00000    0.07165    0.11837 =
         0.22048    0.09646   -0.02656   -0.02546
AFIX  43
H19   2    0.860886    0.895634    0.267271    11.00000   -1.20000
AFIX   0
C18   1    0.769465    0.810001    0.256579    11.00000    0.09019    0.10224 =
         0.18174    0.07725    0.07736    0.04756
AFIX  43
H18   2    0.812338    0.802479    0.217566    11.00000   -1.20000
AFIX   0
PART 2
C9B   1    0.512390    0.622720    0.462323     0.94422    0.03556    0.06346 =
         0.02036   -0.00145   -0.00599   -0.02275
PART 0
C15   1    0.708908    0.531826    0.490429    11.00000    0.06080    0.08171 =
         0.09920    0.04048    0.03405    0.00325
AFIX  43
H15   2    0.705663    0.515017    0.450429    11.00000   -1.20000
AFIX   0
C14   1    0.804273    0.503333    0.536331    11.00000    0.07018    0.10827 =
         0.17511    0.09246    0.03346    0.01330
AFIX  43
H14   2    0.867609    0.468332    0.526789    11.00000   -1.20000
AFIX   0
C11   1    0.622871    0.606490    0.566398    11.00000    0.15074    0.07386 =
         0.05429    0.01668   -0.01292   -0.01336
AFIX  43
H11   2    0.561428    0.641814    0.576747    11.00000   -1.20000
AFIX   0
C13   1    0.801605    0.528667    0.596135    11.00000    0.10671    0.14650 =
         0.15410    0.09749   -0.04346   -0.02989
AFIX  43
H13   2    0.864997    0.510476    0.626509    11.00000   -1.20000
AFIX   0
C12   1    0.709877    0.578665    0.611051    11.00000    0.21264    0.10298 =
         0.09163    0.04549   -0.06555   -0.03675
AFIX  43
H12   2    0.706412    0.593893    0.651633    11.00000   -1.20000
AFIX   0
PART 1
C9A   1    0.494532    0.620839    0.448352     0.93301    0.01955    0.06768 =
         0.01551    0.00225   -0.00364   -0.00943
AFIX  23
H9AA  2    0.459427    0.590124    0.417438     0.17007   -1.20000
H9AB  2    0.405290    0.642265    0.466913     0.01156   -1.20000
AFIX   0
HKLF 4

REM
REM R1 =  0.0572 for    3450 Fo > 4sig(Fo)  and  0.0936 for all    4955 data
REM    239 parameters refined using    134 restraints

END

WGHT      0.0831      6.8047

REM Highest difference peak  0.557,  deepest hole -1.143,  1-sigma level  0.095
Q1    1   0.9672  0.5049  0.2544  11.00000  0.05    0.56
Q2    1   0.8498  0.5062  0.2560  11.00000  0.05    0.50
Q3    1   0.8039  0.4793  0.5006  11.00000  0.05    0.44
Q4    1   0.8319  0.6445  0.3971  11.00000  0.05    0.40
Q5    1   0.6092  0.7438  0.4986  11.00000  0.05    0.39
;
_shelx_res_checksum              64412
_shelx_hkl_file
;
   1   0   0    1.00    0.21
   2   0   0  127.87    2.25
   3   0   0    0.13    0.27
   4   0   0  552.52    8.09
   5   0   0   -1.16    0.56
   6   0   0  235.04    4.11
   7   0   0    0.85    1.05
   8   0   0  334.80    6.30
   9   0   0    0.76    1.67
  10   0   0  153.74    4.93
  11   0   0   14.73   12.76
   1   1   0    0.32    0.10
   2   1   0  865.76    8.53
   3   1   0   -1.64    0.26
   4   1   0  132.07    1.71
   5   1   0    0.30    0.39
   6   1   0   -0.17    0.54
   7   1   0   -0.63    0.69
   8   1   0   41.88    1.37
   9   1   0    2.11    1.13
  10   1   0    1.39    1.89
  11   1   0    1.58    5.19
   1   2   0    0.26    0.14
   2   2   0    6.42    0.30
   3   2   0    0.22    0.24
   4   2   0  449.16    4.98
   5   2   0    0.09    0.50
   6   2   0 1033.86   11.21
   7   2   0    0.61    0.65
   8   2   0   67.63    1.89
   9   2   0    1.22    1.32
  10   2   0   58.81    2.68
  11   2   0    8.24    4.70
   0   3   0   -0.31    0.25
   1   3   0    0.58    0.15
   2   3   0  588.95    7.47
   3   3   0    0.36    0.33
   4   3   0   17.74    0.62
   5   3   0    1.20    0.62
   6   3   0   48.46    1.38
   7   3   0   -0.46    0.69
   8   3   0  191.64    3.15
   9   3   0   -1.38    1.34
  10   3   0   16.50    2.14
  11   3   0    0.98    4.65
   0   4   0  772.92   17.54
   1   4   0    0.59    0.21
   2   4   0    3.44    0.28
   3   4   0    0.61    0.39
   4   4   0 1375.63   16.69
   5   4   0    0.98    0.51
   6   4   0   50.00    1.53
   7   4   0    0.69    1.04
   8   4   0    3.42    0.92
   9   4   0   -1.93    1.38
  10   4   0   90.20    3.44
  11   4   0    2.69    5.40
   0   5   0   -0.09    0.30
   1   5   0    0.18    0.23
   2   5   0  401.85    5.19
   3   5   0    0.34    0.42
   4   5   0 1365.53   16.60
   5   5   0    0.36    0.62
   6   5   0   54.84    1.74
   7   5   0   -1.68    1.11
   8   5   0   25.75    1.66
   9   5   0    0.64    1.19
  10   5   0    1.72    1.97
  11   5   0    4.66    5.85
   0   6   0  235.15    4.56
   1   6   0   -0.01    0.28
   2   6   0   64.79    1.02
   3   6   0    0.63    0.38
   4   6   0  120.71    2.04
   5   6   0   -0.36    0.67
   6   6   0  368.81    5.36
   7   6   0   -1.23    1.16
   8   6   0    7.07    1.52
   9   6   0   -0.01    1.82
  10   6   0   17.33    3.13
  11   6   0   -1.68    7.17
   0   7   0    0.02    0.39
   1   7   0    1.19    0.39
   2   7   0 2873.15   34.46
   3   7   0   -0.37    0.44
   4   7   0  268.40    3.49
   5   7   0    1.35    0.74
   6   7   0   88.70    2.00
   7   7   0   -0.19    1.36
   8   7   0  101.89    3.00
   9   7   0    0.75    1.92
  10   7   0    6.40    3.20
  11   7   0   -1.71    7.57
   0   8   0 2019.58   40.71
   1   8   0    0.31    0.44
   2   8   0   26.87    0.79
   3   8   0   -0.16    0.51
   4   8   0   28.99    0.87
   5   8   0    0.65    0.64
   6   8   0    2.03    0.76
   7   8   0    0.57    1.03
   8   8   0    0.58    1.58
   9   8   0   -0.93    2.04
  10   8   0   -5.51    3.36
  11   8   0    6.62    7.91
   0   9   0    0.92    0.80
   1   9   0    0.43    0.50
   2   9   0  650.58    8.37
   3   9   0   -1.83    0.60
   4   9   0  250.50    3.50
   5   9   0   -0.19    0.70
   6   9   0   88.27    1.86
   7   9   0    0.05    0.82
   8   9   0  232.05    4.48
   9   9   0    0.61    2.09
  10   9   0   -8.81    3.49
   0  10   0  322.43    7.07
   1  10   0   -0.01    0.55
   2  10   0   14.24    0.78
   3  10   0    1.27    0.67
   4  10   0    3.66    0.74
   5  10   0    0.33    0.78
   6  10   0    7.40    0.94
   7  10   0    0.11    0.96
   8  10   0   10.59    1.13
   9  10   0    1.85    2.17
  10  10   0    3.82    3.82
   0  11   0    1.84    1.03
   1  11   0   -1.32    0.61
   2  11   0 1561.27   20.50
   3  11   0   -0.37    0.60
   4  11   0  196.80    3.01
   5  11   0   -0.01    0.85
   6  11   0  147.48    2.66
   7  11   0   -0.08    1.08
   8  11   0   27.76    1.44
   9  11   0   -0.53    1.64
  10  11   0    1.48    4.63
   0  12   0    8.43    1.24
   1  12   0   -0.09    0.66
   2  12   0   46.35    1.43
   3  12   0   -0.13    0.63
   4  12   0  294.68    4.49
   5  12   0   -0.14    0.83
   6  12   0    4.63    1.09
   7  12   0    1.24    1.18
   8  12   0   13.71    1.43
   9  12   0   -0.59    1.99
  10  12   0   12.23    6.33
   0  13   0    1.23    1.18
   1  13   0   -0.56    0.73
   2  13   0  186.81    3.53
   3  13   0   -0.12    0.79
   4  13   0  290.00    4.33
   5  13   0    0.43    0.97
   6  13   0   24.32    1.33
   7  13   0   -1.12    1.28
   8  13   0  300.32    4.71
   9  13   0   -2.57    2.34
  10  13   0   23.35    6.72
   0  14   0  139.55    3.82
   1  14   0   -0.67    0.84
   2  14   0    3.93    0.92
   3  14   0   -0.60    0.88
   4  14   0  206.64    3.42
   5  14   0    0.26    1.15
   6  14   0   61.84    1.92
   7  14   0    1.33    1.39
   8  14   0    4.45    1.75
   9  14   0   -8.69    3.74
  10  14   0    2.00    7.06
   0  15   0    2.97    1.53
   1  15   0   -0.74    0.83
   2  15   0  567.97    8.32
   3  15   0    2.17    0.98
   4  15   0  145.57    3.00
   5  15   0   -0.54    1.18
   6  15   0   40.46    1.71
   7  15   0   -2.81    1.52
   8  15   0    4.89    1.99
   9  15   0   -0.48    4.38
   0  16   0  810.72   15.84
   1  16   0    0.45    1.14
   2  16   0   36.37    1.47
   3  16   0   -0.38    1.07
   4  16   0   85.17    2.47
   5  16   0    1.30    1.43
   6  16   0  111.45    2.91
   7  16   0   -2.19    1.89
   8  16   0   13.66    2.28
   9  16   0   -4.44    6.84
   0  17   0    0.69    1.66
   1  17   0    1.73    1.29
   2  17   0  163.84    3.17
   3  17   0   -0.64    1.19
   4  17   0   65.33    2.14
   5  17   0    2.44    1.55
   6  17   0    0.58    1.48
   7  17   0    0.56    2.14
   8  17   0   34.95    3.15
   9  17   0   -0.41    7.54
   0  18   0   84.59    3.60
   1  18   0   -0.83    1.39
   2  18   0    3.08    1.28
   3  18   0   -2.80    1.25
   4  18   0  134.38    3.34
   5  18   0   -0.53    1.65
   6  18   0  100.46    3.27
   7  18   0    4.60    2.39
   8  18   0   -1.75    3.47
   0  19   0   -2.99    2.09
   1  19   0    0.34    1.49
   2  19   0    9.34    1.42
   3  19   0   -2.58    1.36
   4  19   0    8.40    1.74
   5  19   0   -0.60    1.92
   6  19   0    9.32    2.17
   7  19   0   -1.64    2.60
   8  19   0    3.50    5.60
   0  20   0  420.76    9.44
   1  20   0    1.08    1.62
   2  20   0   76.35    2.62
   3  20   0    0.33    1.52
   4  20   0  110.15    3.18
   5  20   0    0.28    2.25
   6  20   0   34.95    2.80
   7  20   0   -1.24    3.38
   8  20   0   14.50    8.32
   0  21   0    2.78    2.60
   1  21   0   -1.24    1.78
   2  21   0    0.00    1.79
   3  21   0   -1.39    1.65
   4  21   0    5.37    2.32
   5  21   0    1.24    2.63
   6  21   0    8.20    3.19
   7  21   0   -2.50    5.40
   0  22   0  154.53    5.66
   1  22   0    1.27    1.91
   2  22   0   34.07    2.31
   3  22   0   -1.36    2.31
   4  22   0   38.42    2.91
   5  22   0   -3.90    2.90
   6  22   0   21.42    4.10
   7  22   0   -6.15    7.00
   0  23   0    1.23    3.29
   1  23   0    0.16    2.28
   2  23   0   -3.51    2.44
   3  23   0   -1.17    2.43
   4  23   0    5.92    3.18
   5  23   0    0.81    3.41
   6  23   0    5.00    6.25
   0  24   0   31.99    4.20
   1  24   0   -2.72    2.67
   2  24   0   -3.83    2.81
   3  24   0   -6.69    3.08
   4  24   0    4.45    3.59
   5  24   0  -10.09    5.15
   6  24   0   21.79    8.11
   0  25   0   -7.85    4.03
   1  25   0   -1.62    3.17
   2  25   0   -6.53    3.18
   3  25   0   -7.19    4.01
   4  25   0    1.02    4.36
   5  25   0  -11.07   10.09
   0  26   0   48.27    5.88
   1  26   0   -3.61    3.55
   2  26   0   -3.06    3.76
   3  26   0   -4.71    5.90
   4  26   0   15.78    9.09
   0  27   0   -1.20    8.10
   1  27   0   -4.84    4.68
   2  27   0   28.75    6.77
   3  27   0    7.13    8.47
   0  28   0   10.47    9.26
   1   0   1   -0.08    0.07
   2   0   1   -0.31    0.15
   3   0   1   -1.31    0.23
   4   0   1    0.66    0.31
   5   0   1   -0.23    0.40
   6   0   1    0.15    0.57
   7   0   1   -0.90    0.70
   8   0   1    0.73    0.99
   9   0   1    1.51    1.19
  10   0   1   -1.79    1.38
  11   0   1    4.27    6.33
   1   1   1   96.79    0.87
   2   1   1 2654.89   18.80
   3   1   1   51.59    0.61
   4   1   1  920.99    6.91
   5   1   1    8.08    0.33
   6   1   1  316.11    2.65
   7   1   1   28.47    0.68
   8   1   1  403.42    3.67
   9   1   1   17.39    0.85
  10   1   1    6.43    1.41
  11   1   1    9.15    3.92
   1   2   1 1317.78   11.40
   2   2   1 1588.10   12.23
   3   2   1    2.50    0.21
   4   2   1    1.65    0.30
   5   2   1   25.80    0.54
   6   2   1   84.01    1.02
   7   2   1  133.98    1.46
   8   2   1   44.55    1.02
   9   2   1    2.50    0.97
  10   2   1   -0.21    1.51
  11   2   1    1.06    3.27
   0   3   1   -0.46    0.17
   1   3   1   19.74    0.31
   2   3   1 1259.05   10.36
   3   3   1   59.62    0.71
   4   3   1  652.03    5.18
   5   3   1  211.61    1.99
   6   3   1   31.66    0.81
   7   3   1   25.50    0.73
   8   3   1  147.09    1.94
   9   3   1   10.55    0.99
  10   3   1    5.41    1.47
  11   3   1    4.60    3.51
   0   4   1  850.74   11.09
   1   4   1  111.51    1.10
   2   4   1    5.17    0.22
   3   4   1    6.31    0.32
   4   4   1  387.50    3.34
   5   4   1   24.91    0.58
   6   4   1  356.17    3.73
   7   4   1   35.75    1.02
   8   4   1    2.96    0.68
   9   4   1    0.40    0.94
  10   4   1   18.86    1.50
  11   4   1    4.38    3.74
   0   5   1   -0.24    0.25
   1   5   1  351.71    3.21
   2   5   1 1128.31    9.65
   3   5   1  217.90    1.97
   4   5   1  667.01    5.77
   5   5   1   59.79    0.95
   6   5   1   49.09    1.16
   7   5   1   18.70    0.91
   8   5   1   42.96    1.24
   9   5   1    1.67    0.94
  10   5   1   -1.04    1.41
  11   5   1    5.89    4.39
   0   6   1 1214.73   16.56
   1   6   1  316.46    2.93
   2   6   1  368.59    3.06
   3   6   1   35.23    0.63
   4   6   1  535.39    4.69
   5   6   1   12.35    0.56
   6   6   1   92.96    1.40
   7   6   1    6.77    0.87
   8   6   1    4.84    1.06
   9   6   1    2.02    1.37
  10   6   1  105.96    2.76
  11   6   1    9.28    5.10
   0   7   1    1.02    0.41
   1   7   1   59.37    0.70
   2   7   1   18.29    0.45
   3   7   1    2.92    0.33
   4   7   1   96.95    1.13
   5   7   1  104.57    1.30
   6   7   1   43.25    0.99
   7   7   1   11.24    0.87
   8   7   1   85.54    1.87
   9   7   1   -0.49    1.48
  10   7   1   14.38    2.21
  11   7   1   -8.72    5.31
   0   8   1 1064.80   14.63
   1   8   1   52.93    0.77
   2   8   1   28.75    0.57
   3   8   1   68.91    0.97
   4   8   1  852.43    7.08
   5   8   1    6.15    0.49
   6   8   1  507.24    4.49
   7   8   1    3.14    0.64
   8   8   1    0.44    1.12
   9   8   1   -0.30    1.40
  10   8   1   30.92    2.43
  11   8   1   -3.14    5.52
   0   9   1   -1.34    0.52
   1   9   1  197.95    2.03
   2   9   1  199.79    1.99
   3   9   1  257.68    2.53
   4   9   1    9.81    0.50
   5   9   1   75.49    1.16
   6   9   1    5.69    0.59
   7   9   1    0.66    0.60
   8   9   1    4.65    1.05
   9   9   1   15.11    1.59
  10   9   1    3.20    2.32
   0  10   1 1281.44   16.85
   1  10   1    1.38    0.40
   2  10   1  463.89    4.42
   3  10   1  123.48    1.53
   4  10   1   59.79    1.09
   5  10   1    3.02    0.57
   6  10   1  135.62    1.71
   7  10   1   11.56    0.75
   8  10   1    6.61    0.79
   9  10   1   -0.56    1.34
  10  10   1   33.99    2.81
   0  11   1   -0.23    0.70
   1  11   1   23.58    0.65
   2  11   1    1.10    0.46
   3  11   1   79.06    1.15
   4  11   1   -0.03    0.55
   5  11   1   88.89    1.42
   6  11   1    4.21    0.70
   7  11   1    1.33    0.77
   8  11   1    1.59    0.87
   9  11   1    6.90    1.19
  10  11   1   -0.89    3.34
   0  12   1 1189.34   16.49
   1  12   1    9.91    0.56
   2  12   1  100.26    1.42
   3  12   1   17.85    0.60
   4  12   1  517.34    4.97
   5  12   1    0.27    0.59
   6  12   1  300.32    3.05
   7  12   1    0.22    0.84
   8  12   1    0.11    0.97
   9  12   1   -1.24    1.42
  10  12   1   37.37    4.54
   0  13   1   -0.72    0.85
   1  13   1   44.82    0.99
   2  13   1   -0.46    0.63
   3  13   1   -0.59    0.52
   4  13   1   16.20    0.77
   5  13   1    0.76    0.69
   6  13   1    7.46    0.85
   7  13   1   -0.82    0.92
   8  13   1    3.64    1.10
   9  13   1   -2.07    1.83
  10  13   1   -4.20    4.64
   0  14   1  868.41   12.36
   1  14   1   34.78    0.99
   2  14   1   46.37    1.08
   3  14   1    1.04    0.62
   4  14   1  103.53    1.72
   5  14   1    0.65    0.81
   6  14   1  243.45    2.80
   7  14   1    4.46    1.01
   8  14   1    4.99    1.22
   9  14   1   -1.30    2.58
  10  14   1   21.04    5.44
   0  15   1   -0.54    1.03
   1  15   1    7.04    0.72
   2  15   1  304.25    3.31
   3  15   1   13.15    0.78
   4  15   1   23.78    1.00
   5  15   1    0.61    0.85
   6  15   1   37.43    1.18
   7  15   1    0.40    1.08
   8  15   1   68.30    1.85
   9  15   1   -4.16    3.07
   0  16   1  315.68    4.99
   1  16   1   10.65    0.79
   2  16   1   23.08    0.92
   3  16   1    5.06    0.80
   4  16   1  130.63    2.22
   5  16   1    2.00    0.99
   6  16   1   62.92    1.55
   7  16   1    0.04    1.34
   8  16   1   -0.05    1.55
   9  16   1   -8.51    4.74
   0  17   1    4.87    1.23
   1  17   1   -1.02    0.92
   2  17   1  221.00    2.73
   3  17   1    7.06    0.87
   4  17   1  108.04    2.09
   5  17   1   -0.68    1.06
   6  17   1   16.14    1.09
   7  17   1    8.80    1.57
   8  17   1   34.62    2.21
   9  17   1    3.61    5.23
   0  18   1    3.91    1.39
   1  18   1   13.00    1.07
   2  18   1   37.66    1.25
   3  18   1   11.80    0.97
   4  18   1   57.33    1.55
   5  18   1   -0.81    1.16
   6  18   1   16.07    1.42
   7  18   1    4.63    1.67
   8  18   1   -1.00    2.45
   0  19   1   -0.05    1.46
   1  19   1    8.77    1.12
   2  19   1  221.59    3.10
   3  19   1    2.49    0.99
   4  19   1  102.42    2.21
   5  19   1    1.62    1.40
   6  19   1   14.71    1.56
   7  19   1   -0.30    1.85
   8  19   1   40.60    4.47
   0  20   1   41.84    2.06
   1  20   1    0.71    1.13
   2  20   1    9.18    1.13
   3  20   1   -0.74    1.05
   4  20   1   -1.18    1.28
   5  20   1    3.97    1.60
   6  20   1   -3.02    1.77
   7  20   1    1.45    2.34
   8  20   1   12.43    6.05
   0  21   1   -0.35    1.76
   1  21   1    1.44    1.25
   2  21   1  148.81    2.71
   3  21   1    4.62    1.22
   4  21   1   51.11    2.08
   5  21   1   15.24    1.91
   6  21   1   20.45    2.36
   7  21   1   -0.34    3.91
   0  22   1    3.56    1.99
   1  22   1   -0.79    1.35
   2  22   1    8.90    1.51
   3  22   1    3.36    1.54
   4  22   1    7.19    1.88
   5  22   1    1.21    2.03
   6  22   1    3.53    2.64
   7  22   1   -4.32    5.03
   0  23   1   -2.29    2.38
   1  23   1    0.10    1.68
   2  23   1   51.51    2.23
   3  23   1    1.70    1.81
   4  23   1    6.44    2.36
   5  23   1   12.65    2.46
   6  23   1    0.79    4.45
   0  24   1    5.05    2.73
   1  24   1    6.99    1.94
   2  24   1    1.98    2.13
   3  24   1   -0.17    2.26
   4  24   1    5.14    2.47
   5  24   1   -2.07    3.76
   0  25   1   -0.53    2.93
   1  25   1    1.81    2.23
   2  25   1   30.27    2.62
   3  25   1    1.18    2.86
   4  25   1   22.01    3.26
   5  25   1   -4.60    7.15
   0  26   1   22.13    3.90
   1  26   1    0.07    2.56
   2  26   1   -3.03    2.73
   3  26   1    7.01    4.31
   4  26   1  -10.14    6.62
   0  27   1    2.73    5.69
   1  27   1   -2.71    3.32
   2  27   1   23.37    4.99
   3  27   1   -4.56    5.97
   0  28   1   10.70    6.40
   1   0   2 1447.80   15.73
   2   0   2  192.05    2.01
   3   0   2   76.83    0.99
   4   0   2  305.96    3.29
   5   0   2   51.32    0.98
   6   0   2 1239.05   13.02
   7   0   2  344.55    4.20
   8   0   2   15.09    1.04
   9   0   2    0.46    1.19
  10   0   2   47.05    1.91
  11   0   2   14.49    6.56
   0   1   2   -5.60    0.13
   1   1   2  254.49    1.98
   2   1   2  407.42    3.12
   3   1   2  104.47    0.88
   4   1   2   57.91    0.65
   5   1   2  127.77    1.19
   6   1   2    1.69    0.41
   7   1   2   93.54    1.23
   8   1   2   19.72    0.76
   9   1   2   36.94    1.02
  10   1   2   -0.75    1.41
  11   1   2   16.67    3.99
   0   2   2 2168.90   26.05
   1   2   2 1623.09   13.28
   2   2   2 1151.98    8.90
   3   2   2   47.56    0.51
   4   2   2 1534.93   11.57
   5   2   2   85.05    0.94
   6   2   2  435.75    3.48
   7   2   2   70.23    1.04
   8   2   2   16.19    0.73
   9   2   2   10.12    1.02
  10   2   2   41.80    1.75
  11   2   2    6.94    3.48
   0   3   2    0.30    0.20
   1   3   2  918.40    7.56
   2   3   2 1752.97   14.37
   3   3   2   26.97    0.45
   4   3   2  233.51    2.00
   5   3   2   25.22    0.55
   6   3   2  117.27    1.33
   7   3   2   -0.16    0.56
   8   3   2  117.97    1.76
   9   3   2   15.97    1.07
  10   3   2    2.04    1.46
  11   3   2    6.25    3.86
   0   4   2  347.36    4.67
   1   4   2  508.12    4.47
   2   4   2 2311.31   19.60
   3   4   2  296.03    2.43
   4   4   2  442.87    3.83
   5   4   2   13.95    0.47
   6   4   2  342.25    3.32
   7   4   2   41.58    1.00
   8   4   2   32.32    0.96
   9   4   2    0.69    0.96
  10   4   2   96.67    2.26
  11   4   2    8.75    4.05
   0   5   2    0.32    0.29
   1   5   2  406.30    3.69
   2   5   2 1101.71    9.42
   3   5   2   24.36    0.46
   4   5   2  228.40    2.06
   5   5   2   31.40    0.68
   6   5   2   54.38    1.09
   7   5   2   15.05    0.71
   8   5   2  103.29    1.88
   9   5   2    7.30    0.99
  10   5   2    3.45    1.50
  11   5   2    5.63    4.65
   0   6   2  736.33    9.70
   1   6   2   24.53    0.48
   2   6   2  122.82    1.23
   3   6   2    0.79    0.28
   4   6   2  308.83    2.75
   5   6   2   17.65    0.57
   6   6   2   77.87    1.28
   7   6   2    4.73    0.67
   8   6   2    1.01    0.87
   9   6   2   -0.23    1.15
  10   6   2   10.88    1.82
  11   6   2    1.01    4.89
   0   7   2    0.32    0.37
   1   7   2   31.47    0.58
   2   7   2  764.43    6.39
   3   7   2  187.21    1.81
   4   7   2  322.09    2.71
   5   7   2   12.80    0.50
   6   7   2   16.95    0.64
   7   7   2    6.44    0.64
   8   7   2  148.57    2.24
   9   7   2    0.83    1.17
  10   7   2   -0.03    2.05
  11   7   2   13.38    6.08
   0   8   2   56.32    1.17
   1   8   2    4.31    0.30
   2   8   2    4.31    0.33
   3   8   2  309.10    2.88
   4   8   2  183.21    1.76
   5   8   2   34.36    0.74
   6   8   2  154.47    1.76
   7   8   2    0.71    0.62
   8   8   2    0.84    0.97
   9   8   2    0.82    1.31
  10   8   2    0.81    2.29
  11   8   2    8.38    6.88
   0   9   2    0.49    0.58
   1   9   2   43.79    0.76
   2   9   2 1098.27    9.15
   3   9   2   75.59    1.06
   4   9   2  183.08    1.90
   5   9   2   24.01    0.67
   6   9   2   65.14    1.16
   7   9   2    1.21    0.64
   8   9   2   97.15    1.94
   9   9   2    4.47    1.29
  10   9   2    3.80    2.47
   0  10   2   41.08    1.27
   1  10   2    4.18    0.43
   2  10   2   -0.57    0.37
   3  10   2    0.54    0.45
   4  10   2    2.10    0.53
   5  10   2   -0.15    0.55
   6  10   2   14.48    0.74
   7  10   2    0.64    0.71
   8  10   2    0.58    0.78
   9  10   2    1.06    1.41
  10  10   2    5.24    2.64
   0  11   2   -0.93    0.69
   1  11   2   99.68    1.33
   2  11   2  562.37    5.12
   3  11   2   39.65    0.81
   4  11   2  300.76    3.06
   5  11   2   33.00    0.79
   6  11   2    8.75    0.74
   7  11   2   -0.54    0.78
   8  11   2  233.55    2.67
   9  11   2   10.87    1.31
  10  11   2    1.72    3.50
   0  12   2   35.41    1.24
   1  12   2    2.33    0.53
   2  12   2    7.04    0.54
   3  12   2  103.74    1.31
   4  12   2   73.42    1.37
   5  12   2    0.76    0.61
   6  12   2   16.20    0.85
   7  12   2    5.59    0.89
   8  12   2    1.08    0.98
   9  12   2    0.40    1.60
  10  12   2    5.02    4.44
   0  13   2    2.16    0.69
   1  13   2   51.12    1.09
   2  13   2 1148.73   11.07
   3  13   2   83.70    1.27
   4  13   2  204.13    2.47
   5  13   2   21.50    0.86
   6  13   2  129.22    1.89
   7  13   2    2.57    0.93
   8  13   2   63.55    1.58
   9  13   2    5.66    1.98
  10  13   2    1.30    4.95
   0  14   2  160.55    3.32
   1  14   2    3.32    0.68
   2  14   2    0.34    0.64
   3  14   2    0.31    0.58
   4  14   2   19.96    0.92
   5  14   2    0.11    0.80
   6  14   2   53.65    1.26
   7  14   2    6.46    1.04
   8  14   2    1.45    1.23
   9  14   2   -2.09    2.55
   0  15   2   -0.18    1.07
   1  15   2   10.93    0.76
   2  15   2  279.03    3.11
   3  15   2   11.95    0.77
   4  15   2  156.90    2.30
   5  15   2    3.61    0.90
   6  15   2    6.58    1.00
   7  15   2   -0.83    1.10
   8  15   2   92.43    2.10
   9  15   2   -9.29    2.98
   0  16   2  221.25    3.97
   1  16   2    7.51    0.80
   2  16   2   96.65    1.67
   3  16   2    3.99    0.79
   4  16   2   80.51    1.84
   5  16   2    0.62    0.98
   6  16   2   31.57    1.21
   7  16   2   15.09    1.38
   8  16   2    4.12    1.71
   9  16   2   -8.05    4.44
   0  17   2    0.89    1.24
   1  17   2    0.75    0.82
   2  17   2  210.76    2.69
   3  17   2   -1.09    0.82
   4  17   2   42.94    1.39
   5  17   2    5.77    1.07
   6  17   2   23.23    1.09
   7  17   2    0.46    1.48
   8  17   2   11.83    2.08
   9  17   2   -4.80    5.36
   0  18   2  324.38    5.31
   1  18   2   15.42    1.09
   2  18   2   28.59    1.17
   3  18   2    3.85    0.93
   4  18   2   87.13    2.02
   5  18   2   13.40    1.25
   6  18   2   93.10    2.04
   7  18   2    8.71    1.67
   8  18   2    3.96    2.49
   0  19   2   -1.17    1.46
   1  19   2   17.02    1.21
   2  19   2   -0.19    1.12
   3  19   2   -1.05    0.98
   4  19   2    7.85    1.27
   5  19   2    9.58    1.50
   6  19   2    2.60    1.55
   7  19   2    3.83    2.02
   8  19   2    2.90    3.83
   0  20   2  165.26    3.73
   1  20   2    1.06    1.14
   2  20   2   19.99    1.18
   3  20   2   14.76    1.19
   4  20   2  112.77    2.46
   5  20   2    4.38    1.62
   6  20   2   57.37    2.19
   7  20   2   -0.44    2.41
   8  20   2    6.46    5.96
   0  21   2    0.23    1.79
   1  21   2    9.97    1.30
   2  21   2   -2.49    1.11
   3  21   2    3.15    1.22
   4  21   2   -0.67    1.68
   5  21   2   -0.28    1.95
   6  21   2   -0.06    2.24
   7  21   2    0.55    3.80
   0  22   2   95.12    3.20
   1  22   2    7.54    1.42
   2  22   2   20.76    1.59
   3  22   2    6.75    1.56
   4  22   2   35.03    2.25
   5  22   2    5.40    2.08
   6  22   2   45.83    2.97
   7  22   2   -7.06    5.02
   0  23   2   -0.44    2.46
   1  23   2    0.87    1.66
   2  23   2    2.77    1.78
   3  23   2   -2.68    1.63
   4  23   2   -2.68    2.24
   5  23   2    2.78    2.36
   6  23   2  -11.36    4.06
   0  24   2  133.90    4.90
   1  24   2   -1.50    1.88
   2  24   2    4.96    2.10
   3  24   2   11.00    2.28
   4  24   2   24.48    2.80
   5  24   2    2.86    4.01
   0  25   2    0.43    3.07
   1  25   2   -4.41    2.25
   2  25   2    7.62    2.47
   3  25   2    7.89    2.70
   4  25   2   -1.86    3.42
   5  25   2    5.43    7.18
   0  26   2   12.52    3.89
   1  26   2    0.72    2.54
   2  26   2    5.09    2.82
   3  26   2   -0.25    3.92
   4  26   2   -4.92    6.67
   0  27   2   -8.97    5.58
   1  27   2   -2.57    3.65
   2  27   2   10.73    5.05
   3  27   2   -6.87    5.90
   0  28   2   -7.45    6.46
   0   0   3    0.29    0.28
   1   0   3   -0.18    0.17
   2   0   3   -0.85    0.19
   3   0   3   -0.23    0.28
   4   0   3    0.11    0.37
   5   0   3    0.25    0.49
   6   0   3    0.29    0.59
   7   0   3    1.08    0.74
   8   0   3   -1.10    0.95
   9   0   3    2.68    1.23
  10   0   3   -0.77    1.57
  11   0   3    3.94    6.86
   0   1   3   -2.23    0.14
   1   1   3  744.08    5.85
   2   1   3 2029.81   14.57
   3   1   3    7.57    0.22
   4   1   3  606.35    4.50
   5   1   3    6.36    0.37
   6   1   3   75.96    0.97
   7   1   3    0.15    0.52
   8   1   3  220.37    2.28
   9   1   3    2.04    0.84
  10   1   3    9.19    1.45
  11   1   3    0.61    5.09
   0   2   3  416.37    4.92
   1   2   3  404.43    3.18
   2   2   3    8.08    0.21
   3   2   3  304.12    2.37
   4   2   3  522.09    3.90
   5   2   3    3.16    0.34
   6   2   3   89.11    1.06
   7   2   3   57.96    0.95
   8   2   3   49.12    1.00
   9   2   3    3.33    1.01
  10   2   3    6.28    1.52
  11   2   3   26.23    4.18
   0   3   3   -5.92    0.21
   1   3   3  552.19    4.60
   2   3   3 4165.23   32.94
   3   3   3    3.02    0.24
   4   3   3  235.91    1.88
   5   3   3   25.60    0.54
   6   3   3   73.46    0.98
   7   3   3   10.69    0.59
   8   3   3  288.50    3.02
   9   3   3    0.75    1.05
  10   3   3    5.88    1.47
  11   3   3    5.46    4.33
   0   4   3 9399.69  116.72
   1   4   3  222.44    1.98
   2   4   3    2.23    0.18
   3   4   3    1.42    0.24
   4   4   3  222.75    1.88
   5   4   3    1.02    0.33
   6   4   3  148.14    1.71
   7   4   3    3.09    0.61
   8   4   3   53.51    1.21
   9   4   3    3.40    1.00
  10   4   3   44.36    1.70
  11   4   3    2.54    4.54
   0   5   3    0.51    0.35
   1   5   3 1127.56    9.82
   2   5   3 1503.08   12.37
   3   5   3  162.84    1.53
   4   5   3   32.64    0.56
   5   5   3    1.43    0.31
   6   5   3   16.33    0.58
   7   5   3   48.69    1.12
   8   5   3  151.58    2.12
   9   5   3   15.22    1.07
  10   5   3   10.57    1.72
  11   5   3    9.44    4.80
   0   6   3  624.24    8.29
   1   6   3  272.71    2.68
   2   6   3  108.30    1.14
   3   6   3    2.59    0.30
   4   6   3  143.20    1.39
   5   6   3    2.15    0.40
   6   6   3  312.77    2.87
   7   6   3   55.89    1.22
   8   6   3    1.61    0.94
   9   6   3    0.64    1.00
  10   6   3   24.52    1.81
  11   6   3    1.37    4.63
   0   7   3   -0.16    0.40
   1   7   3   87.63    1.04
   2   7   3  686.34    5.98
   3   7   3  435.19    4.05
   4   7   3  200.24    1.84
   5   7   3   99.73    1.20
   6   7   3   33.26    0.77
   7   7   3   65.93    1.24
   8   7   3    1.49    0.97
   9   7   3    4.53    1.28
  10   7   3    0.72    2.15
  11   7   3    5.10    6.66
   0   8   3 1535.99   20.07
   1   8   3    2.74    0.35
   2   8   3  299.01    2.77
   3   8   3   15.71    0.51
   4   8   3  149.90    1.52
   5   8   3    7.85    0.52
   6   8   3   89.06    1.29
   7   8   3    2.33    0.60
   8   8   3   10.97    1.19
   9   8   3   14.43    1.48
  10   8   3   82.71    3.02
  11   8   3    7.45    7.07
   0   9   3   -1.45    0.59
   1   9   3    0.18    0.36
   2   9   3   24.48    0.56
   3   9   3    2.24    0.45
   4   9   3    0.78    0.44
   5   9   3    1.58    0.53
   6   9   3    4.47    0.61
   7   9   3   14.43    0.74
   8   9   3   66.17    1.52
   9   9   3    1.31    1.35
  10   9   3   14.82    2.77
   0  10   3  609.14    8.64
   1  10   3  339.75    3.40
   2  10   3   75.51    1.04
   3  10   3   25.25    0.62
   4  10   3 1045.80    9.13
   5  10   3    9.90    0.59
   6  10   3  585.44    5.15
   7  10   3    4.06    0.75
   8  10   3    4.31    0.85
   9  10   3    3.54    1.51
  10  10   3   24.30    2.92
   0  11   3   -0.44    0.53
   1  11   3   49.88    0.96
   2  11   3   -0.99    0.44
   3  11   3    5.36    0.46
   4  11   3    0.66    0.59
   5  11   3   31.62    0.77
   6  11   3    1.73    0.73
   7  11   3   11.48    0.87
   8  11   3    8.70    0.93
   9  11   3    3.00    1.38
  10  11   3    1.37    3.97
   0  12   3 1809.26   24.82
   1  12   3    0.98    0.50
   2  12   3   99.76    1.25
   3  12   3    7.14    0.55
   4  12   3  165.31    2.07
   5  12   3    1.29    0.59
   6  12   3  158.14    2.04
   7  12   3    2.09    0.88
   8  12   3    3.16    0.99
   9  12   3    2.49    1.70
  10  12   3   28.02    4.95
   0  13   3   -1.40    0.82
   1  13   3    0.22    0.56
   2  13   3   42.02    0.93
   3  13   3   40.35    0.88
   4  13   3   14.74    0.83
   5  13   3  100.20    1.66
   6  13   3   22.41    0.97
   7  13   3    5.30    0.95
   8  13   3   12.97    1.17
   9  13   3    3.70    2.19
  10  13   3   -5.94    4.95
   0  14   3  675.07   10.73
   1  14   3    1.44    0.64
   2  14   3   51.39    1.06
   3  14   3   29.74    0.79
   4  14   3  142.77    2.06
   5  14   3    8.37    0.86
   6  14   3  119.42    1.97
   7  14   3    1.29    1.01
   8  14   3    1.13    1.19
   9  14   3    2.68    2.61
   0  15   3    0.07    0.87
   1  15   3   13.41    0.80
   2  15   3  136.81    1.95
   3  15   3   23.83    0.86
   4  15   3   28.52    1.12
   5  15   3    1.25    0.86
   6  15   3    3.39    0.95
   7  15   3    4.40    1.15
   8  15   3   12.23    1.59
   9  15   3   -4.01    2.97
   0  16   3  296.92    4.93
   1  16   3    4.91    0.79
   2  16   3   67.45    1.45
   3  16   3    2.07    0.78
   4  16   3  140.44    2.38
   5  16   3    2.97    0.99
   6  16   3   51.10    1.26
   7  16   3    1.47    1.33
   8  16   3    0.19    1.77
   9  16   3   -2.88    4.38
   0  17   3   -0.82    1.27
   1  17   3   24.88    1.02
   2  17   3  197.26    2.61
   3  17   3    5.86    0.87
   4  17   3  106.34    2.14
   5  17   3    0.20    1.05
   6  17   3   18.14    1.09
   7  17   3    5.77    1.48
   8  17   3   73.55    2.52
   9  17   3   -7.38    5.75
   0  18   3   75.51    2.57
   1  18   3    4.74    0.92
   2  18   3    5.42    0.97
   3  18   3   10.59    0.99
   4  18   3    5.47    1.20
   5  18   3    0.48    1.17
   6  18   3   24.07    1.35
   7  18   3    6.52    1.72
   8  18   3    1.92    2.45
   0  19   3    3.15    1.49
   1  19   3    0.08    1.08
   2  19   3  257.38    3.32
   3  19   3   -1.92    1.01
   4  19   3   66.09    1.77
   5  19   3   -0.05    1.44
   6  19   3   43.06    1.74
   7  19   3    4.85    2.09
   8  19   3   34.18    4.73
   0  20   3    1.97    1.66
   1  20   3    6.03    1.18
   2  20   3    3.88    1.11
   3  20   3    0.95    1.11
   4  20   3   -1.58    1.33
   5  20   3    3.94    1.65
   6  20   3    8.39    1.86
   7  20   3    5.62    2.45
   8  20   3   -4.85    6.87
   0  21   3    4.51    1.83
   1  21   3   -0.14    1.22
   2  21   3   92.43    2.09
   3  21   3   -2.05    1.21
   4  21   3   33.53    2.04
   5  21   3    3.63    1.88
   6  21   3   10.34    2.30
   7  21   3   -1.26    4.04
   0  22   3    4.33    2.03
   1  22   3   17.00    1.50
   2  22   3    6.92    1.28
   3  22   3    2.06    1.56
   4  22   3    1.05    1.99
   5  22   3   -1.79    2.20
   6  22   3   10.32    2.74
   7  22   3    0.31    5.16
   0  23   3    0.84    2.39
   1  23   3   -4.42    1.64
   2  23   3  100.83    2.77
   3  23   3    2.21    1.75
   4  23   3   38.43    2.62
   5  23   3   16.67    2.51
   6  23   3   -0.89    4.52
   0  24   3   26.85    2.81
   1  24   3    0.17    1.96
   2  24   3   -1.05    2.12
   3  24   3    3.48    2.23
   4  24   3   11.23    2.78
   5  24   3   -3.22    4.11
   0  25   3   -0.44    2.82
   1  25   3    7.71    2.32
   2  25   3   23.13    2.62
   3  25   3    0.93    2.69
   4  25   3   16.49    3.72
   5  25   3   -5.60    7.22
   0  26   3    2.56    3.84
   1  26   3   -1.35    2.50
   2  26   3    0.28    2.84
   3  26   3    6.65    4.04
   4  26   3    5.43    6.24
   0  27   3   -3.23    5.89
   1  27   3    2.22    4.14
   2  27   3    4.92    6.24
   0   0   4 1238.11   21.14
   1   0   4  686.79    7.55
   2   0   4  119.89    1.42
   3   0   4  439.58    4.58
   4   0   4 1890.85   20.69
   5   0   4    1.71    0.49
   6   0   4  324.64    3.89
   7   0   4    6.32    0.80
   8   0   4   23.82    1.15
   9   0   4    6.57    1.23
  10   0   4   64.95    2.37
  11   0   4   12.38    7.97
   0   1   4   -0.06    0.21
   1   1   4    0.79    0.15
   2   1   4   51.22    0.55
   3   1   4  275.33    2.18
   4   1   4  150.87    1.31
   5   1   4  185.03    1.60
   6   1   4   12.26    0.53
   7   1   4    7.29    0.58
   8   1   4   11.43    0.73
   9   1   4    2.29    0.87
  10   1   4    4.33    1.45
  11   1   4   -2.07    6.21
   0   2   4 3799.90   42.52
   1   2   4  283.60    2.39
   2   2   4 2378.33   17.30
   3   2   4   29.07    0.44
   4   2   4  304.77    2.39
   5   2   4    3.72    0.36
   6   2   4  448.36    3.81
   7   2   4    0.94    0.53
   8   2   4   48.02    1.00
   9   2   4    5.55    1.07
  10   2   4  171.95    3.10
  11   2   4   -0.13    5.20
   0   3   4   -1.53    0.24
   1   3   4  799.92    6.62
   2   3   4  669.44    5.32
   3   3   4    0.86    0.23
   4   3   4   23.61    0.45
   5   3   4   16.67    0.42
   6   3   4    0.82    0.45
   7   3   4   19.36    0.64
   8   3   4    1.79    0.79
   9   3   4    3.78    1.07
  10   3   4    4.12    1.48
  11   3   4   12.27    5.83
   0   4   4 6305.34   72.85
   1   4   4  223.74    2.00
   2   4   4  440.16    3.68
   3   4   4   20.90    0.44
   4   4   4  647.88    5.16
   5   4   4    0.64    0.33
   6   4   4  541.99    4.55
   7   4   4   53.83    1.09
   8   4   4   11.23    0.87
   9   4   4    3.66    1.07
  10   4   4    0.98    1.53
  11   4   4    4.84    4.42
   0   5   4    0.50    0.37
   1   5   4  335.93    3.05
   2   5   4    8.31    0.27
   3   5   4    3.77    0.33
   4   5   4  675.83    5.39
   5   5   4    0.20    0.34
   6   5   4  163.41    1.68
   7   5   4   27.85    0.84
   8   5   4  249.83    2.84
   9   5   4    3.09    1.08
  10   5   4    8.28    1.80
  11   5   4    5.34    4.29
   0   6   4   76.55    1.41
   1   6   4  413.28    3.81
   2   6   4   27.88    0.56
   3   6   4  154.56    1.55
   4   6   4   15.92    0.45
   5   6   4    9.55    0.45
   6   6   4  156.29    1.65
   7   6   4   99.20    1.55
   8   6   4    2.32    0.84
   9   6   4   -1.20    1.06
  10   6   4   58.34    2.29
  11   6   4    4.79    4.78
   0   7   4   -0.03    0.46
   1   7   4  164.37    1.66
   2   7   4 1663.29   14.48
   3   7   4  265.77    2.61
   4   7   4  239.07    2.23
   5   7   4    2.16    0.42
   6   7   4  143.75    1.60
   7   7   4    1.52    0.69
   8   7   4   54.26    1.34
   9   7   4   13.81    1.19
  10   7   4    1.75    2.23
  11   7   4    6.40    6.20
   0   8   4  917.20   11.66
   1   8   4  257.93    2.58
   2   8   4   84.89    1.06
   3   8   4    7.45    0.45
   4   8   4  219.63    2.09
   5   8   4   23.26    0.60
   6   8   4    2.42    0.56
   7   8   4    5.42    0.68
   8   8   4    0.41    0.95
   9   8   4    0.13    1.24
  10   8   4   15.48    2.34
   0   9   4    0.29    0.52
   1   9   4   13.12    0.52
   2   9   4  648.55    5.73
   3   9   4   13.29    0.50
   4   9   4  953.02    8.18
   5   9   4   94.42    1.23
   6   9   4   55.09    1.06
   7   9   4   13.31    0.79
   8   9   4  135.66    2.08
   9   9   4    0.85    1.23
  10   9   4    0.87    2.49
   0  10   4   31.17    0.98
   1  10   4   13.40    0.56
   2  10   4   -0.36    0.43
   3  10   4    2.28    0.41
   4  10   4   -0.36    0.58
   5  10   4    2.72    0.49
   6  10   4   88.91    1.44
   7  10   4   28.96    0.98
   8  10   4    0.89    0.89
   9  10   4    7.06    1.36
  10  10   4    3.11    2.94
   0  11   4    1.60    0.68
   1  11   4    0.75    0.46
   2  11   4  975.50    8.23
   3  11   4   42.93    0.86
   4  11   4  195.47    2.12
   5  11   4  171.65    1.91
   6  11   4  256.81    2.68
   7  11   4    2.50    0.89
   8  11   4  126.96    2.08
   9  11   4    4.65    1.48
  10  11   4   11.43    3.51
   0  12   4   42.81    1.31
   1  12   4   52.33    1.02
   2  12   4   -0.42    0.50
   3  12   4   14.13    0.59
   4  12   4    9.60    0.72
   5  12   4   -0.84    0.61
   6  12   4   59.71    1.28
   7  12   4    1.63    0.84
   8  12   4    1.07    1.12
   9  12   4    0.89    1.79
  10  12   4    1.43    4.63
   0  13   4   -0.13    0.88
   1  13   4    2.77    0.56
   2  13   4  325.41    3.23
   3  13   4    6.08    0.55
   4  13   4  263.60    3.00
   5  13   4    0.42    0.67
   6  13   4    2.30    0.84
   7  13   4    4.32    0.92
   8  13   4   66.31    1.66
   9  13   4    2.98    2.41
  10  13   4    4.87    5.17
   0  14   4  248.32    4.15
   1  14   4   -0.06    0.59
   2  14   4   58.31    1.14
   3  14   4   76.18    1.26
   4  14   4    0.11    0.79
   5  14   4    1.88    0.83
   6  14   4    2.48    0.91
   7  14   4    0.56    0.98
   8  14   4    9.69    1.42
   9  14   4    4.32    2.87
   0  15   4   -0.98    1.05
   1  15   4   27.42    0.89
   2  15   4  351.64    3.63
   3  15   4   13.42    0.72
   4  15   4  122.13    1.97
   5  15   4    0.25    0.91
   6  15   4   52.41    1.21
   7  15   4   14.10    1.15
   8  15   4   25.54    1.76
   9  15   4   -1.20    3.29
   0  16   4   17.08    1.36
   1  16   4   18.45    0.89
   2  16   4   -1.04    0.69
   3  16   4   -0.19    0.75
   4  16   4  194.41    2.89
   5  16   4    1.96    1.00
   6  16   4  126.81    2.00
   7  16   4   -0.89    1.25
   8  16   4    7.38    1.98
   9  16   4    3.10    4.84
   0  17   4    0.39    1.00
   1  17   4    5.80    0.86
   2  17   4   40.67    1.27
   3  17   4    1.58    0.86
   4  17   4   37.10    1.30
   5  17   4    2.49    1.13
   6  17   4    1.18    1.02
   7  17   4    0.78    1.37
   8  17   4   40.61    2.34
   9  17   4    1.19    6.04
   0  18   4  667.16   11.05
   1  18   4   -0.66    0.90
   2  18   4   85.56    1.78
   3  18   4    2.46    0.97
   4  18   4  135.77    2.47
   5  18   4   -1.13    1.18
   6  18   4   36.08    1.43
   7  18   4    3.59    1.91
   8  18   4    6.91    2.55
   0  19   4   -3.07    1.64
   1  19   4   -0.64    0.95
   2  19   4   60.05    1.56
   3  19   4    4.46    1.08
   4  19   4    1.09    1.40
   5  19   4   13.56    1.63
   6  19   4    5.55    1.43
   7  19   4   -0.34    2.12
   8  19   4    0.91    5.04
   0  20   4  150.17    3.60
   1  20   4    7.72    1.07
   2  20   4   12.54    1.20
   3  20   4    3.88    1.16
   4  20   4   21.55    1.66
   5  20   4    0.24    1.65
   6  20   4   73.95    2.37
   7  20   4    0.58    2.45
   0  21   4   -2.15    1.68
   1  21   4    1.62    1.29
   2  21   4   -1.07    1.28
   3  21   4    0.25    1.26
   4  21   4    3.50    1.85
   5  21   4    0.78    1.93
   6  21   4    4.09    2.29
   7  21   4   -2.45    4.15
   0  22   4  123.19    3.50
   1  22   4    8.40    1.49
   2  22   4   11.45    1.42
   3  22   4   10.38    1.67
   4  22   4   51.71    2.47
   5  22   4    2.79    2.16
   6  22   4   27.77    3.06
   7  22   4   -2.92    5.31
   0  23   4   -2.43    2.37
   1  23   4   -0.02    1.66
   2  23   4   -1.06    1.78
   3  23   4    2.87    1.81
   4  23   4    0.66    2.48
   5  23   4    1.80    2.48
   6  23   4   -6.02    4.52
   0  24   4   41.91    3.01
   1  24   4   -0.45    1.90
   2  24   4   12.58    2.12
   3  24   4    1.44    2.22
   4  24   4   33.03    2.98
   5  24   4    4.08    4.27
   0  25   4   -7.12    2.94
   1  25   4    5.37    2.24
   2  25   4   14.55    2.46
   3  25   4   -1.97    2.68
   4  25   4    9.77    4.02
   5  25   4    4.54    7.53
   0  26   4   27.89    4.18
   1  26   4   -2.90    2.47
   2  26   4    2.94    2.89
   3  26   4   -1.10    4.13
   4  26   4    7.20    6.19
   0  27   4   -0.46    5.92
   1  27   4    8.04    4.30
   2  27   4    7.34    5.41
   0   0   5    2.42    0.45
   1   0   5   -0.06    0.24
   2   0   5    2.91    0.32
   3   0   5    0.52    0.28
   4   0   5    0.33    0.47
   5   0   5   -0.14    0.52
   6   0   5    0.52    0.66
   7   0   5    0.78    0.81
   8   0   5   -0.47    0.99
   9   0   5   -1.17    1.35
  10   0   5   -1.43    1.73
  11   0   5   -4.64    7.83
   0   1   5    0.14    0.28
   1   1   5  134.46    1.22
   2   1   5 1289.04    9.70
   3   1   5  143.62    1.22
   4   1   5 1316.56    9.83
   5   1   5    6.64    0.41
   6   1   5  164.66    1.65
   7   1   5   13.55    0.63
   8   1   5  133.78    1.70
   9   1   5    8.59    0.94
  10   1   5    7.39    1.34
  11   1   5    2.19    5.67
   0   2   5  166.13    2.05
   1   2   5  295.76    2.63
   2   2   5   75.05    0.74
   3   2   5   48.74    0.60
   4   2   5  260.92    2.10
   5   2   5   -0.05    0.32
   6   2   5    2.83    0.47
   7   2   5   13.55    0.64
   8   2   5    7.69    0.75
   9   2   5    1.19    0.92
  10   2   5   53.78    1.84
  11   2   5    7.33    7.05
   0   3   5   -0.10    0.28
   1   3   5   43.02    0.57
   2   3   5 1426.98   10.89
   3   3   5    0.77    0.23
   4   3   5  326.62    2.60
   5   3   5    6.81    0.36
   6   3   5   87.75    1.12
   7   3   5   17.15    0.65
   8   3   5  264.96    2.67
   9   3   5    4.86    1.13
  10   3   5   -0.20    1.55
  11   3   5    8.05    4.62
   0   4   5  323.08    3.95
   1   4   5   46.83    0.59
   2   4   5  248.46    2.10
   3   4   5    3.79    0.26
   4   4   5   45.00    0.72
   5   4   5   22.32    0.51
   6   4   5   45.19    0.80
   7   4   5   54.84    1.04
   8   4   5    0.40    0.84
   9   4   5    1.79    1.16
  10   4   5   20.90    1.83
  11   4   5    0.31    4.48
   0   5   5    1.41    0.35
   1   5   5   31.80    0.56
   2   5   5  350.26    2.94
   3   5   5   54.20    0.74
   4   5   5  308.16    2.70
   5   5   5   75.94    0.99
   6   5   5  147.85    1.52
   7   5   5   69.56    1.27
   8   5   5   97.70    1.76
   9   5   5   -0.68    1.16
  10   5   5   14.47    1.89
  11   5   5    1.48    4.59
   0   6   5 1941.58   24.29
   1   6   5    6.75    0.35
   2   6   5   30.27    0.58
   3   6   5  126.88    1.30
   4   6   5 1247.21   10.24
   5   6   5   31.85    0.67
   6   6   5  681.40    5.47
   7   6   5   27.09    0.91
   8   6   5    0.97    0.87
   9   6   5   11.20    1.21
  10   6   5    6.82    2.01
  11   6   5   -2.47    4.86
   0   7   5    1.25    0.53
   1   7   5  488.50    4.42
   2   7   5  190.43    1.78
   3   7   5   19.26    0.51
   4   7   5  378.01    3.34
   5   7   5   14.44    0.55
   6   7   5    2.28    0.53
   7   7   5    0.98    0.63
   8   7   5   47.48    1.29
   9   7   5   10.61    1.34
  10   7   5    1.02    2.15
  11   7   5    8.42    5.58
   0   8   5 1446.82   18.24
   1   8   5  283.20    2.70
   2   8   5  394.41    3.47
   3   8   5   75.28    1.01
   4   8   5  202.82    2.10
   5   8   5    0.71    0.49
   6   8   5  208.93    2.22
   7   8   5  107.34    1.58
   8   8   5   12.86    1.02
   9   8   5   -1.46    1.26
  10   8   5   58.48    2.85
   0   9   5   -1.08    0.54
   1   9   5  384.03    3.59
   2   9   5  148.29    1.58
   3   9   5   12.68    0.50
   4   9   5   36.48    0.84
   5   9   5   12.14    0.60
   6   9   5   64.37    1.23
   7   9   5    0.40    0.77
   8   9   5    1.71    0.92
   9   9   5    1.01    1.35
  10   9   5    2.66    2.60
   0  10   5 1832.20   23.04
   1  10   5   80.14    1.16
   2  10   5   75.83    1.12
   3  10   5   58.86    0.97
   4  10   5  340.80    3.22
   5  10   5    1.73    0.54
   6  10   5  299.37    3.07
   7  10   5   12.67    0.89
   8  10   5    3.30    0.96
   9  10   5    4.68    1.45
  10  10   5   66.39    3.69
   0  11   5   -1.54    0.64
   1  11   5    2.92    0.51
   2  11   5   16.50    0.62
   3  11   5   26.22    0.74
   4  11   5    4.51    0.65
   5  11   5    1.15    0.59
   6  11   5    2.16    0.79
   7  11   5   20.38    1.02
   8  11   5    0.51    1.05
   9  11   5    2.93    1.63
  10  11   5    1.72    3.63
   0  12   5  646.95    8.51
   1  12   5    0.34    0.53
   2  12   5  218.33    2.53
   3  12   5  158.77    1.77
   4  12   5  151.72    1.91
   5  12   5    0.27    0.60
   6  12   5   74.78    1.58
   7  12   5   -0.07    0.97
   8  12   5    1.70    1.16
   9  12   5    3.90    1.93
  10  12   5   38.65    4.69
   0  13   5   -1.92    0.74
   1  13   5    9.91    0.68
   2  13   5  106.07    1.46
   3  13   5    8.69    0.64
   4  13   5   18.26    0.83
   5  13   5    0.66    0.68
   6  13   5   10.76    0.96
   7  13   5   -1.25    1.08
   8  13   5   33.59    1.50
   9  13   5   10.73    2.45
  10  13   5    5.65    5.75
   0  14   5  321.49    4.84
   1  14   5    1.69    0.64
   2  14   5   18.16    0.74
   3  14   5    0.58    0.58
   4  14   5  306.61    3.30
   5  14   5    8.32    0.80
   6  14   5  230.30    2.66
   7  14   5    2.09    1.17
   8  14   5    3.63    1.57
   9  14   5    4.16    2.92
   0  15   5   -0.16    1.03
   1  15   5   16.79    0.85
   2  15   5  109.84    1.64
   3  15   5    2.70    0.68
   4  15   5   49.69    1.32
   5  15   5   24.81    1.07
   6  15   5    1.05    0.82
   7  15   5    7.45    1.33
   8  15   5   15.37    1.76
   9  15   5    6.32    3.66
   0  16   5  177.32    3.19
   1  16   5    0.87    0.75
   2  16   5   30.75    0.99
   3  16   5   45.13    1.07
   4  16   5   66.19    1.56
   5  16   5    5.47    1.02
   6  16   5   49.26    1.33
   7  16   5    1.33    1.53
   8  16   5    2.59    1.99
   9  16   5   -2.37    4.55
   0  17   5    1.85    1.23
   1  17   5   16.82    0.88
   2  17   5  204.71    2.66
   3  17   5    9.31    0.88
   4  17   5   53.88    1.42
   5  17   5   -1.58    1.09
   6  17   5   45.72    1.40
   7  17   5   -0.86    1.67
   8  17   5   35.17    2.37
   0  18   5  189.11    3.43
   1  18   5   26.62    1.15
   2  18   5   37.23    1.29
   3  18   5    2.70    0.98
   4  18   5   -0.64    1.19
   5  18   5    0.01    1.20
   6  18   5   20.93    1.34
   7  18   5    0.19    1.84
   8  18   5    4.96    2.88
   0  19   5    1.00    1.50
   1  19   5   12.09    1.04
   2  19   5  118.24    2.16
   3  19   5   -0.56    1.05
   4  19   5   33.31    1.62
   5  19   5    3.06    1.48
   6  19   5    8.35    1.47
   7  19   5    1.19    2.19
   8  19   5   29.91    5.15
   0  20   5   32.27    2.02
   1  20   5    0.03    1.06
   2  20   5    4.78    1.17
   3  20   5    2.36    1.17
   4  20   5   14.96    1.65
   5  20   5    0.48    1.87
   6  20   5    6.73    1.97
   7  20   5    6.32    2.77
   0  21   5   -2.21    1.71
   1  21   5    6.77    1.28
   2  21   5  102.95    2.17
   3  21   5    9.33    1.39
   4  21   5   53.23    2.30
   5  21   5    5.26    2.04
   6  21   5   13.61    2.49
   7  21   5   -3.68    4.08
   0  22   5   51.86    2.44
   1  22   5    1.40    1.46
   2  22   5    9.89    1.41
   3  22   5    3.50    1.61
   4  22   5    0.61    2.04
   5  22   5   -1.40    2.28
   6  22   5   -4.38    3.64
   0  23   5   -3.00    2.30
   1  23   5    0.62    1.67
   2  23   5   97.78    2.50
   3  23   5   -1.06    1.79
   4  23   5   36.61    2.91
   5  23   5    3.82    2.63
   6  23   5   -4.27    4.80
   0  24   5    2.02    2.70
   1  24   5   -1.38    1.99
   2  24   5    0.18    2.05
   3  24   5   -1.35    2.13
   4  24   5   -2.36    2.69
   5  24   5   -8.59    4.21
   0  25   5   -2.12    3.15
   1  25   5    0.28    2.28
   2  25   5   24.58    2.46
   3  25   5   -3.73    2.93
   4  25   5   12.38    4.68
   0  26   5    7.44    3.81
   1  26   5    3.99    2.60
   2  26   5   -1.01    3.12
   3  26   5    5.97    4.82
   0  27   5   -4.03    6.22
   1  27   5   -9.88    4.27
   2  27   5   12.79    5.70
   0   0   6 1061.64   17.01
   1   0   6   58.82    0.90
   2   0   6  539.73    6.27
   3   0   6   64.25    1.02
   4   0   6  780.88    8.26
   5   0   6    9.31    0.65
   6   0   6  420.03    4.91
   7   0   6  174.78    2.78
   8   0   6    5.16    1.10
   9   0   6   16.68    1.44
  10   0   6   91.14    2.83
  11   0   6   32.53    8.59
   0   1   6   -2.18    0.31
   1   1   6  182.38    1.60
   2   1   6  638.65    4.89
   3   1   6    6.67    0.30
   4   1   6    1.41    0.27
   5   1   6    8.16    0.46
   6   1   6    1.39    0.50
   7   1   6   67.17    1.24
   8   1   6    1.90    0.76
   9   1   6    2.80    0.91
  10   1   6    0.43    1.38
  11   1   6    0.18    4.80
   0   2   6 1600.56   18.03
   1   2   6  300.40    2.48
   2   2   6  335.44    2.70
   3   2   6   79.56    0.82
   4   2   6  711.51    5.42
   5   2   6    0.22    0.35
   6   2   6  201.99    1.92
   7   2   6    0.74    0.64
   8   2   6    2.16    0.76
   9   2   6    3.95    1.00
  10   2   6   47.91    1.83
  11   2   6   25.25    5.15
   0   3   6    0.01    0.27
   1   3   6  495.80    4.13
   2   3   6   79.11    0.84
   3   3   6  391.07    3.05
   4   3   6  123.15    1.20
   5   3   6   26.57    0.55
   6   3   6   -0.30    0.47
   7   3   6  109.28    1.52
   8   3   6   15.78    0.86
   9   3   6   17.81    1.07
  10   3   6   -1.98    1.72
  11   3   6    1.04    4.66
   0   4   6 1147.05   13.90
   1   4   6   62.36    0.76
   2   4   6  157.57    1.46
   3   4   6  117.74    1.18
   4   4   6   91.75    1.06
   5   4   6    0.06    0.41
   6   4   6  408.32    3.38
   7   4   6    1.25    0.67
   8   4   6    0.75    0.75
   9   4   6   19.36    1.28
  10   4   6   15.74    1.92
  11   4   6   11.35    4.65
   0   5   6    0.87    0.37
   1   5   6  182.01    1.64
   2   5   6 1678.68   13.41
   3   5   6  453.38    3.80
   4   5   6   44.31    0.80
   5   5   6   35.54    0.73
   6   5   6  101.77    1.22
   7   5   6   62.49    1.22
   8   5   6   59.25    1.27
   9   5   6    2.50    1.21
  10   5   6   -2.88    1.83
  11   5   6   -5.17    4.76
   0   6   6 4560.04   52.73
   1   6   6  348.30    3.17
   2   6   6   28.34    0.55
   3   6   6    7.29    0.36
   4   6   6  648.07    5.39
   5   6   6    0.58    0.48
   6   6   6  247.51    2.25
   7   6   6   41.96    0.90
   8   6   6   35.96    1.13
   9   6   6    3.36    1.25
  10   6   6   17.34    2.23
  11   6   6   -5.55    4.95
   0   7   6   -0.30    0.49
   1   7   6  133.05    1.42
   2   7   6  585.15    5.09
   3   7   6   27.37    0.57
   4   7   6  152.29    1.68
   5   7   6  148.80    1.60
   6   7   6   13.65    0.62
   7   7   6   10.79    0.72
   8   7   6  309.60    3.43
   9   7   6    2.23    1.38
  10   7   6   14.29    2.37
   0   8   6   15.95    0.77
   1   8   6   50.77    0.86
   2   8   6  147.99    1.63
   3   8   6    0.42    0.37
   4   8   6   52.97    1.02
   5   8   6    1.48    0.54
   6   8   6   29.29    0.81
   7   8   6    1.14    0.74
   8   8   6    1.09    1.03
   9   8   6    1.44    1.37
  10   8   6   17.91    2.61
   0   9   6    0.90    0.67
   1   9   6  423.11    3.94
   2   9   6 1360.89   11.74
   3   9   6    4.37    0.40
   4   9   6  134.04    1.69
   5   9   6   26.81    0.76
   6   9   6   30.57    0.87
   7   9   6    2.70    0.81
   8   9   6  121.82    2.04
   9   9   6   23.27    1.56
  10   9   6    5.05    2.79
   0  10   6    2.34    0.68
   1  10   6   13.56    0.56
   2  10   6    0.75    0.47
   3  10   6    2.18    0.45
   4  10   6   38.53    0.91
   5  10   6    2.33    0.61
   6  10   6    6.71    0.75
   7  10   6   15.80    0.98
   8  10   6    1.31    0.98
   9  10   6    4.13    1.55
  10  10   6    3.24    3.47
   0  11   6    0.06    0.70
   1  11   6    0.32    0.49
   2  11   6  666.42    5.86
   3  11   6    9.02    0.58
   4  11   6  282.89    2.99
   5  11   6   16.94    0.77
   6  11   6    8.88    0.82
   7  11   6   11.44    1.00
   8  11   6   93.03    1.88
   9  11   6    2.21    1.82
  10  11   6    3.10    4.06
   0  12   6   12.62    0.98
   1  12   6   21.35    0.73
   2  12   6   -0.74    0.54
   3  12   6   18.37    0.68
   4  12   6   30.76    0.88
   5  12   6    2.46    0.68
   6  12   6    1.88    0.75
   7  12   6    5.04    1.05
   8  12   6    0.94    1.24
   9  12   6    5.52    2.16
  10  12   6    0.26    4.65
   0  13   6   -1.08    0.88
   1  13   6   66.86    1.23
   2  13   6  561.28    5.07
   3  13   6    0.02    0.58
   4  13   6  150.40    1.96
   5  13   6    8.37    0.84
   6  13   6   23.12    0.95
   7  13   6    8.57    1.14
   8  13   6   63.96    1.79
   9  13   6    5.41    2.68
   0  14   6   62.30    1.84
   1  14   6   46.37    1.04
   2  14   6   45.64    1.05
   3  14   6   94.86    1.46
   4  14   6  161.10    2.07
   5  14   6    0.62    0.85
   6  14   6   41.12    1.18
   7  14   6    0.23    1.19
   8  14   6    7.43    1.66
   9  14   6    9.09    3.02
   0  15   6    0.11    0.90
   1  15   6   26.27    0.89
   2  15   6  255.24    2.66
   3  15   6   44.49    1.00
   4  15   6   57.79    1.28
   5  15   6   -0.08    0.75
   6  15   6   42.88    1.24
   7  15   6   60.50    1.78
   8  15   6   59.66    2.14
   9  15   6   10.94    3.90
   0  16   6  122.16    2.79
   1  16   6    0.48    0.73
   2  16   6   31.31    0.96
   3  16   6    8.90    0.75
   4  16   6   75.22    1.62
   5  16   6    0.35    0.93
   6  16   6   17.24    1.10
   7  16   6   28.70    1.77
   8  16   6    3.21    2.05
   9  16   6    1.71    4.39
   0  17   6   -2.63    1.23
   1  17   6   34.46    1.10
   2  17   6   95.26    1.63
   3  17   6    2.16    0.84
   4  17   6   13.11    0.96
   5  17   6   -0.49    1.01
   6  17   6    5.47    1.31
   7  17   6   21.80    1.84
   8  17   6   11.95    2.40
   0  18   6  150.72    3.31
   1  18   6    3.66    0.95
   2  18   6   10.76    0.97
   3  18   6    2.46    0.91
   4  18   6    7.37    0.93
   5  18   6    5.44    1.19
   6  18   6   61.69    1.88
   7  18   6    2.44    1.94
   8  18   6   -1.79    3.30
   0  19   6   -1.90    1.08
   1  19   6   -0.59    0.97
   2  19   6   37.11    1.31
   3  19   6    1.89    1.05
   4  19   6   30.14    1.28
   5  19   6   -2.20    1.37
   6  19   6   -0.87    1.62
   7  19   6    5.10    2.19
   8  19   6    9.01    5.75
   0  20   6  196.60    3.78
   1  20   6    1.54    1.11
   2  20   6   17.91    1.27
   3  20   6   45.46    1.43
   4  20   6   60.65    1.78
   5  20   6    0.04    1.70
   6  20   6   41.67    2.39
   7  20   6    6.84    2.85
   0  21   6   -2.02    1.90
   1  21   6   -1.04    1.22
   2  21   6   -3.21    1.22
   3  21   6    1.72    1.38
   4  21   6   -2.10    1.43
   5  21   6    1.17    2.05
   6  21   6    2.25    2.63
   7  21   6    5.00    4.43
   0  22   6  106.10    3.27
   1  22   6    0.19    1.50
   2  22   6   14.87    1.53
   3  22   6    1.83    1.62
   4  22   6   54.19    2.58
   5  22   6    1.82    2.40
   6  22   6   43.93    4.29
   0  23   6   -0.23    2.45
   1  23   6    3.53    1.76
   2  23   6    3.72    1.71
   3  23   6    0.82    1.89
   4  23   6    2.72    2.53
   5  23   6    2.63    3.31
   6  23   6   -9.54    5.02
   0  24   6   76.25    3.48
   1  24   6    4.56    2.05
   2  24   6    4.91    2.06
   3  24   6    7.11    2.32
   4  24   6   23.75    3.06
   5  24   6   -0.19    4.56
   0  25   6    1.13    3.41
   1  25   6    6.25    2.31
   2  25   6    6.35    2.39
   3  25   6    5.15    3.00
   4  25   6    3.81    4.73
   0  26   6   33.38    4.34
   1  26   6    0.56    2.97
   2  26   6    5.18    3.28
   3  26   6    9.51    4.96
   0  27   6    2.26    6.28
   1  27   6    6.38    4.57
   2  27   6   27.50    6.91
   0   0   7   -0.22    0.49
   1   0   7    0.58    0.33
   2   0   7    0.36    0.35
   3   0   7    0.21    0.43
   4   0   7    0.77    0.44
   5   0   7    0.67    0.67
   6   0   7    1.25    0.71
   7   0   7    1.51    0.84
   8   0   7    1.65    1.08
   9   0   7   -0.48    1.45
  10   0   7   -1.47    2.07
  11   0   7    8.64    6.05
   0   1   7    1.47    0.37
   1   1   7  231.95    2.02
   2   1   7 1541.32   11.61
   3   1   7   -0.10    0.30
   4   1   7  365.68    2.96
   5   1   7   25.98    0.61
   6   1   7   15.07    0.59
   7   1   7    2.48    0.63
   8   1   7  152.62    1.90
   9   1   7    2.92    1.03
  10   1   7    3.10    1.42
  11   1   7    5.40    5.06
   0   2   7   52.78    0.93
   1   2   7    2.66    0.26
   2   2   7    4.78    0.30
   3   2   7  281.60    2.34
   4   2   7  157.28    1.40
   5   2   7    8.20    0.44
   6   2   7   80.86    1.15
   7   2   7   10.29    0.68
   8   2   7    0.12    0.77
   9   2   7    3.70    1.04
  10   2   7    0.67    1.67
  11   2   7    6.61    5.16
   0   3   7    0.96    0.34
   1   3   7    8.60    0.33
   2   3   7 1443.83   11.38
   3   3   7   68.46    0.81
   4   3   7  228.48    1.96
   5   3   7   84.54    1.03
   6   3   7  119.28    1.38
   7   3   7    0.87    0.62
   8   3   7   93.91    1.62
   9   3   7    8.75    1.07
  10   3   7    8.07    1.96
  11   3   7   21.20    5.39
   0   4   7    7.53    0.41
   1   4   7  302.50    2.63
   2   4   7    2.59    0.31
   3   4   7  310.51    2.57
   4   4   7  271.58    2.44
   5   4   7    6.49    0.48
   6   4   7   94.76    1.24
   7   4   7   38.48    0.95
   8   4   7    6.19    0.88
   9   4   7   10.05    1.31
  10   4   7    6.44    2.11
  11   4   7   14.73    4.89
   0   5   7    3.52    0.47
   1   5   7    8.70    0.36
   2   5   7  652.92    5.45
   3   5   7  111.54    1.15
   4   5   7  165.99    1.70
   5   5   7  307.87    2.75
   6   5   7   11.33    0.58
   7   5   7   13.11    0.76
   8   5   7  191.62    2.33
   9   5   7   -1.30    1.33
  10   5   7    3.49    2.08
  11   5   7  -11.68    4.85
   0   6   7  964.72   11.41
   1   6   7    3.11    0.30
   2   6   7 1717.68   13.75
   3   6   7   57.03    0.81
   4   6   7   85.84    1.17
   5   6   7    0.95    0.51
   6   6   7   36.88    0.82
   7   6   7    3.32    0.68
   8   6   7   23.59    1.11
   9   6   7   25.21    1.48
  10   6   7   68.92    3.01
   0   7   7    1.18    0.49
   1   7   7  469.19    4.15
   2   7   7  815.53    6.88
   3   7   7    0.84    0.36
   4   7   7   92.40    1.28
   5   7   7   10.93    0.60
   6   7   7  141.09    1.62
   7   7   7   15.73    0.75
   8   7   7   97.08    1.91
   9   7   7   16.58    1.48
  10   7   7    2.88    2.52
   0   8   7 2299.99   27.76
   1   8   7   45.31    0.83
   2   8   7    9.90    0.49
   3   8   7   61.11    0.94
   4   8   7  305.22    2.88
   5   8   7    0.73    0.56
   6   8   7  536.83    4.40
   7   8   7   19.28    0.80
   8   8   7    3.04    1.11
   9   8   7    4.40    1.44
  10   8   7   11.53    2.79
   0   9   7   -0.39    0.60
   1   9   7   28.14    0.69
   2   9   7   13.65    0.55
   3   9   7    0.81    0.45
   4   9   7   19.04    0.71
   5   9   7   14.11    0.71
   6   9   7  112.71    1.62
   7   9   7   18.71    0.93
   8   9   7    1.97    1.02
   9   9   7    0.69    1.50
  10   9   7    5.54    3.36
   0  10   7  707.23    9.25
   1  10   7   46.78    0.94
   2  10   7   50.25    0.97
   3  10   7   43.03    0.88
   4  10   7  240.72    2.57
   5  10   7    1.52    0.66
   6  10   7  261.04    2.83
   7  10   7   29.58    1.08
   8  10   7    1.38    1.02
   9  10   7    8.45    1.71
  10  10   7   39.11    4.27
   0  11   7    0.19    0.76
   1  11   7    3.02    0.54
   2  11   7    4.63    0.61
   3  11   7    2.17    0.52
   4  11   7   -0.31    0.66
   5  11   7   58.94    1.20
   6  11   7    2.83    0.74
   7  11   7    7.95    1.01
   8  11   7    5.60    1.16
   9  11   7    4.50    2.03
  10  11   7    6.01    4.27
   0  12   7  206.31    3.24
   1  12   7    1.02    0.62
   2  12   7   54.63    1.09
   3  12   7   46.51    1.00
   4  12   7  553.06    5.24
   5  12   7    3.80    0.78
   6  12   7  151.17    1.96
   7  12   7   17.85    1.16
   8  12   7    2.61    1.32
   9  12   7   -0.95    2.32
  10  12   7   60.04    5.33
   0  13   7   -0.25    0.91
   1  13   7   81.07    1.40
   2  13   7   82.80    1.36
   3  13   7    1.52    0.63
   4  13   7  104.25    1.67
   5  13   7    7.72    0.83
   6  13   7    6.46    0.94
   7  13   7    1.61    1.18
   8  13   7   -2.14    1.44
   9  13   7   11.36    2.64
   0  14   7  665.18    8.87
   1  14   7    4.04    0.68
   2  14   7  231.94    2.49
   3  14   7    1.42    0.67
   4  14   7   67.03    1.40
   5  14   7    0.43    0.83
   6  14   7   50.62    1.33
   7  14   7    3.62    1.28
   8  14   7    7.85    1.74
   9  14   7    0.33    3.37
   0  15   7   -0.32    0.99
   1  15   7   42.08    1.03
   2  15   7   99.90    1.62
   3  15   7    2.04    0.76
   4  15   7   57.77    1.26
   5  15   7   43.84    1.24
   6  15   7   23.26    1.17
   7  15   7    0.97    1.50
   8  15   7   23.81    1.98
   9  15   7    3.21    4.17
   0  16   7  137.45    2.76
   1  16   7   12.93    0.83
   2  16   7   33.74    0.96
   3  16   7   30.40    1.01
   4  16   7    1.77    0.79
   5  16   7    1.94    1.03
   6  16   7   46.38    1.42
   7  16   7   10.57    1.69
   8  16   7    2.29    2.22
   9  16   7   11.06    5.06
   0  17   7    1.71    1.17
   1  17   7    0.53    0.82
   2  17   7   61.52    1.38
   3  17   7    0.42    0.78
   4  17   7   17.89    0.97
   5  17   7   11.16    1.07
   6  17   7    9.66    1.37
   7  17   7    7.99    1.80
   8  17   7   27.05    2.79
   0  18   7   79.26    2.53
   1  18   7    2.09    0.96
   2  18   7    2.32    0.93
   3  18   7    7.26    1.01
   4  18   7   72.04    1.62
   5  18   7    1.75    1.21
   6  18   7   42.60    1.73
   7  18   7    4.91    1.97
   8  18   7   -0.50    3.59
   0  19   7   -1.33    1.46
   1  19   7    6.98    1.07
   2  19   7  103.38    1.90
   3  19   7    3.35    1.02
   4  19   7   36.52    1.32
   5  19   7    4.60    1.43
   6  19   7   26.97    1.88
   7  19   7   -2.73    2.34
   8  19   7   21.37    6.41
   0  20   7    6.37    1.50
   1  20   7   30.16    1.24
   2  20   7    6.23    1.13
   3  20   7    6.62    1.12
   4  20   7    0.52    1.38
   5  20   7    2.09    1.77
   6  20   7    2.82    2.25
   7  20   7    6.74    3.30
   0  21   7    0.78    1.31
   1  21   7    8.73    1.29
   2  21   7  139.97    2.60
   3  21   7    5.38    1.59
   4  21   7   49.10    1.85
   5  21   7   12.90    2.15
   6  21   7    3.70    2.66
   7  21   7   -2.36    4.57
   0  22   7   -0.95    2.23
   1  22   7   -0.85    1.37
   2  22   7   -2.54    1.49
   3  22   7    2.28    1.62
   4  22   7   -0.14    2.41
   5  22   7   -1.50    2.46
   6  22   7    5.80    3.94
   0  23   7   -2.62    2.47
   1  23   7   15.75    1.89
   2  23   7   70.55    2.39
   3  23   7    1.42    1.97
   4  23   7   28.59    2.78
   5  23   7    2.03    4.08
   6  23   7    7.32    5.35
   0  24   7   -1.72    2.76
   1  24   7    4.18    2.00
   2  24   7    1.86    2.15
   3  24   7   12.23    2.57
   4  24   7    3.77    3.30
   5  24   7    2.60    5.91
   0  25   7    2.40    3.40
   1  25   7   -2.35    2.29
   2  25   7   30.70    2.78
   3  25   7    5.73    3.87
   4  25   7   -0.48    4.80
   0  26   7   20.87    5.95
   1  26   7    2.32    2.99
   2  26   7    0.99    3.75
   3  26   7    1.98    5.08
   0  27   7    2.59    6.33
   1  27   7    1.93    4.63
   0   0   8 3759.09   59.60
   1   0   8  296.51    3.72
   2   0   8   85.67    1.32
   3   0   8    1.45    0.48
   4   0   8  102.82    1.60
   5   0   8   20.12    0.78
   6   0   8  197.13    2.99
   7   0   8   56.31    1.60
   8   0   8    3.92    1.17
   9   0   8    1.51    1.60
  10   0   8   26.53    2.47
  11   0   8    1.31    6.27
   0   1   8   -0.09    0.41
   1   1   8   13.41    0.39
   2   1   8   93.98    1.02
   3   1   8   19.47    0.48
   4   1   8   50.11    0.77
   5   1   8   21.71    0.60
   6   1   8   22.48    0.74
   7   1   8   17.02    0.78
   8   1   8    9.81    0.91
   9   1   8   22.06    1.27
  10   1   8    5.57    1.72
  11   1   8    8.86    4.56
   0   2   8  349.43    4.18
   1   2   8  144.96    1.38
   2   2   8    3.58    0.30
   3   2   8   35.98    0.62
   4   2   8  798.49    6.08
   5   2   8    2.19    0.45
   6   2   8  610.56    5.29
   7   2   8   16.65    0.76
   8   2   8    3.50    0.87
   9   2   8    5.94    1.16
  10   2   8   38.51    2.08
  11   2   8    2.05    5.41
   0   3   8   -0.81    0.38
   1   3   8    1.68    0.29
   2   3   8  264.46    2.31
   3   3   8    0.58    0.32
   4   3   8   31.47    0.59
   5   3   8   52.60    0.86
   6   3   8   59.19    1.02
   7   3   8   45.87    1.01
   8   3   8    0.26    0.98
   9   3   8    9.58    1.19
  10   3   8    8.05    1.96
  11   3   8    6.69    5.42
   0   4   8 3039.47   34.13
   1   4   8  100.77    1.09
   2   4   8  624.59    5.23
   3   4   8  305.92    2.64
   4   4   8  100.85    1.14
   5   4   8    0.76    0.46
   6   4   8   41.50    0.82
   7   4   8   47.53    1.09
   8   4   8   17.00    1.07
   9   4   8    5.60    1.13
  10   4   8   70.51    2.56
   0   5   8    0.64    0.45
   1   5   8  350.10    3.10
   2   5   8   62.38    0.87
   3   5   8   31.52    0.64
   4   5   8  381.73    3.27
   5   5   8    5.62    0.53
   6   5   8    0.77    0.56
   7   5   8    0.80    0.61
   8   5   8   42.35    1.25
   9   5   8    5.68    1.41
  10   5   8    4.88    2.21
   0   6   8 1013.49   11.99
   1   6   8   67.39    0.91
   2   6   8   76.10    1.02
   3   6   8   29.19    0.60
   4   6   8   32.62    0.71
   5   6   8   15.09    0.63
   6   6   8  403.39    3.47
   7   6   8    8.61    0.73
   8   6   8    2.91    0.95
   9   6   8    2.98    1.54
  10   6   8    8.20    2.47
   0   7   8    5.68    0.59
   1   7   8   69.10    0.95
   2   7   8  823.21    7.10
   3   7   8    0.42    0.40
   4   7   8  116.01    1.40
   5   7   8   55.25    1.06
   6   7   8  142.79    1.74
   7   7   8    1.09    0.68
   8   7   8  108.94    1.96
   9   7   8   22.68    1.66
  10   7   8    0.58    2.80
   0   8   8   16.30    0.72
   1   8   8    1.98    0.40
   2   8   8    2.92    0.40
   3   8   8   44.88    0.83
   4   8   8  221.76    2.29
   5   8   8    1.36    0.61
   6   8   8   47.16    1.01
   7   8   8   33.44    0.94
   8   8   8   -1.64    0.95
   9   8   8    1.76    1.54
  10   8   8    3.15    3.17
   0   9   8   -0.22    0.65
   1   9   8   43.75    0.85
   2   9   8  647.02    5.79
   3   9   8   35.39    0.78
   4   9   8  331.93    3.19
   5   9   8   66.99    1.24
   6   9   8  124.35    1.76
   7   9   8   10.56    0.88
   8   9   8  221.00    2.73
   9   9   8    3.61    1.62
  10   9   8    5.57    3.92
   0  10   8  224.77    3.27
   1  10   8   67.96    1.14
   2  10   8   36.09    0.82
   3  10   8   27.24    0.69
   4  10   8    1.60    0.57
   5  10   8    0.62    0.68
   6  10   8    0.56    0.78
   7  10   8    3.23    0.89
   8  10   8    0.53    1.11
   9  10   8    5.50    1.87
  10  10   8   11.92    4.18
   0  11   8    1.22    0.80
   1  11   8   44.60    1.00
   2  11   8  934.91    8.25
   3  11   8    6.38    0.55
   4  11   8  384.15    3.66
   5  11   8  129.45    1.81
   6  11   8   16.15    0.91
   7  11   8    9.44    0.97
   8  11   8   20.95    1.33
   9  11   8    4.46    2.15
  10  11   8    1.86    4.58
   0  12   8   10.08    0.89
   1  12   8  202.04    2.26
   2  12   8    2.80    0.63
   3  12   8   46.90    1.02
   4  12   8    3.97    0.68
   5  12   8   17.58    0.92
   6  12   8   14.70    0.95
   7  12   8   19.15    1.21
   8  12   8    0.86    1.35
   9  12   8    0.71    2.41
   0  13   8    1.61    0.91
   1  13   8   63.87    1.27
   2  13   8  236.75    2.60
   3  13   8    4.52    0.68
   4  13   8  160.43    2.06
   5  13   8   -0.54    0.84
   6  13   8   61.40    1.34
   7  13   8    0.82    1.22
   8  13   8   65.38    1.97
   9  13   8    8.99    2.94
   0  14   8   17.77    1.17
   1  14   8    1.36    0.73
   2  14   8   11.73    0.79
   3  14   8    2.81    0.72
   4  14   8  196.54    2.31
   5  14   8   11.26    0.98
   6  14   8   25.70    1.10
   7  14   8    5.06    1.33
   8  14   8    6.00    1.71
   9  14   8    6.46    3.73
   0  15   8    1.85    1.07
   1  15   8   13.89    0.83
   2  15   8   76.84    1.46
   3  15   8    0.68    0.80
   4  15   8   31.22    0.98
   5  15   8   10.11    1.04
   6  15   8    4.68    1.08
   7  15   8    0.21    1.66
   8  15   8   24.72    2.17
   9  15   8   19.53    4.89
   0  16   8  277.31    4.56
   1  16   8   92.50    1.71
   2  16   8  102.07    1.78
   3  16   8   18.77    0.93
   4  16   8    2.26    0.83
   5  16   8    0.48    1.01
   6  16   8   13.01    1.28
   7  16   8   10.18    1.68
   8  16   8    6.19    2.35
   0  17   8    0.45    1.18
   1  17   8    0.95    0.82
   2  17   8   45.93    1.11
   3  17   8    7.32    0.92
   4  17   8   43.04    1.19
   5  17   8    7.54    1.18
   6  17   8    5.23    1.41
   7  17   8    1.80    1.89
   8  17   8   26.38    2.93
   0  18   8  274.98    4.48
   1  18   8    2.48    0.92
   2  18   8    3.58    0.96
   3  18   8   37.60    1.17
   4  18   8   69.09    1.59
   5  18   8   -0.40    1.40
   6  18   8   58.50    1.89
   7  18   8    6.22    2.19
   8  18   8    3.56    4.21
   0  19   8   -0.82    1.61
   1  19   8    7.85    1.07
   2  19   8   49.42    1.34
   3  19   8    3.44    1.10
   4  19   8   26.95    1.28
   5  19   8    2.33    1.56
   6  19   8    0.13    1.81
   7  19   8    2.61    2.52
   0  20   8   93.09    2.83
   1  20   8   13.05    1.14
   2  20   8   23.82    1.27
   3  20   8    9.79    1.29
   4  20   8   46.77    1.70
   5  20   8   -0.43    1.80
   6  20   8   30.43    2.58
   7  20   8   -0.22    3.91
   0  21   8    0.49    1.65
   1  21   8   -3.65    1.25
   2  21   8    2.92    1.21
   3  21   8    1.39    1.32
   4  21   8    3.57    1.72
   5  21   8    5.00    2.14
   6  21   8    0.14    3.01
   0  22   8  100.50    2.91
   1  22   8   11.82    1.56
   2  22   8   11.51    1.65
   3  22   8    1.23    1.67
   4  22   8   51.71    2.71
   5  22   8    2.08    2.73
   6  22   8   32.45    4.59
   0  23   8   -0.05    2.56
   1  23   8    2.71    1.79
   2  23   8   -2.69    1.91
   3  23   8    4.03    2.24
   4  23   8    3.90    2.73
   5  23   8   11.61    4.39
   0  24   8   57.77    3.61
   1  24   8    3.99    2.10
   2  24   8    7.57    2.17
   3  24   8    6.48    2.78
   4  24   8    8.96    3.64
   5  24   8    2.80    6.11
   0  25   8    2.45    3.24
   1  25   8    6.87    2.33
   2  25   8   15.97    2.82
   3  25   8    3.52    4.03
   4  25   8    1.96    5.08
   0  26   8   28.51    5.23
   1  26   8    2.93    3.73
   2  26   8    6.95    4.66
   3  26   8    4.05    7.19
   0  27   8   -7.28    5.79
   0   0   9    1.92    0.65
   1   0   9    0.33    0.46
   2   0   9   -0.86    0.48
   3   0   9    0.79    0.52
   4   0   9    0.70    0.58
   5   0   9   -0.11    0.63
   6   0   9    0.54    0.91
   7   0   9    0.14    1.07
   8   0   9   -2.43    1.29
   9   0   9   -0.11    1.69
  10   0   9   -0.97    2.50
   0   1   9    2.07    0.49
   1   1   9  129.66    1.32
   2   1   9  992.44    7.80
   3   1   9  119.03    1.27
   4   1   9  235.19    2.09
   5   1   9   98.30    1.17
   6   1   9   97.45    1.41
   7   1   9   11.90    0.81
   8   1   9   88.43    1.66
   9   1   9    8.14    1.22
  10   1   9    2.14    2.02
   0   2   9   92.33    1.44
   1   2   9    4.50    0.35
   2   2   9   73.97    0.87
   3   2   9   39.73    0.69
   4   2   9  140.15    1.42
   5   2   9    3.36    0.50
   6   2   9    0.94    0.55
   7   2   9    0.10    0.73
   8   2   9   -0.57    0.87
   9   2   9   -0.77    1.29
  10   2   9    2.44    2.09
   0   3   9    3.32    0.48
   1   3   9  249.21    2.18
   2   3   9  501.04    4.12
   3   3   9   10.34    0.42
   4   3   9  461.39    3.75
   5   3   9   73.96    1.12
   6   3   9   16.06    0.67
   7   3   9   12.01    0.80
   8   3   9  153.72    2.27
   9   3   9   14.42    1.40
  10   3   9   11.62    2.13
   0   4   9  229.19    2.93
   1   4   9   12.96    0.44
   2   4   9    2.99    0.38
   3   4   9   24.95    0.55
   4   4   9  351.62    3.05
   5   4   9    3.42    0.52
   6   4   9  156.46    1.75
   7   4   9   89.59    1.49
   8   4   9    0.64    0.88
   9   4   9   11.81    1.35
  10   4   9    9.06    2.09
   0   5   9    1.17    0.48
   1   5   9  215.07    2.02
   2   5   9  794.80    6.62
   3   5   9   11.41    0.50
   4   5   9  458.95    4.03
   5   5   9    2.39    0.54
   6   5   9  139.64    1.67
   7   5   9   35.51    0.95
   8   5   9   27.75    1.16
   9   5   9   29.17    1.28
  10   5   9    3.27    2.36
   0   6   9 1031.94   12.23
   1   6   9   63.12    0.92
   2   6   9   50.57    0.86
   3   6   9  120.14    1.35
   4   6   9  117.20    1.42
   5   6   9   -0.57    0.59
   6   6   9   56.10    1.09
   7   6   9    2.20    0.67
   8   6   9   -1.29    1.08
   9   6   9    4.06    1.54
  10   6   9   35.38    2.68
   0   7   9    0.22    0.55
   1   7   9  270.39    2.57
   2   7   9  164.18    1.76
   3   7   9   40.96    0.82
   4   7   9   38.29    0.82
   5   7   9    5.23    0.63
   6   7   9    5.90    0.70
   7   7   9   52.68    1.11
   8   7   9   98.28    1.94
   9   7   9   17.38    1.75
  10   7   9   -1.95    2.85
   0   8   9  566.17    6.95
   1   8   9    2.20    0.47
   2   8   9   45.25    0.90
   3   8   9  357.60    3.17
   4   8   9  310.00    2.95
   5   8   9    6.11    0.66
   6   8   9  278.93    2.79
   7   8   9    9.34    0.80
   8   8   9    9.86    0.97
   9   8   9   22.80    1.77
  10   8   9    2.43    3.24
   0   9   9   -0.01    0.68
   1   9   9  167.43    1.80
   2   9   9   39.65    0.86
   3   9   9    2.49    0.49
   4   9   9   82.44    1.28
   5   9   9   14.88    0.78
   6   9   9    5.42    0.79
   7   9   9    5.57    0.83
   8   9   9    1.95    1.04
   9   9   9    4.51    1.80
  10   9   9   -8.19    3.96
   0  10   9 2675.50   32.34
   1  10   9   81.27    1.23
   2  10   9   98.27    1.47
   3  10   9  114.94    1.45
   4  10   9  181.90    2.03
   5  10   9   15.69    0.82
   6  10   9  128.39    1.91
   7  10   9   25.53    1.00
   8  10   9   27.72    1.31
   9  10   9    3.92    2.02
  10  10   9   85.68    5.09
   0  11   9   -0.07    0.83
   1  11   9   32.64    0.85
   2  11   9    2.53    0.61
   3  11   9    0.50    0.52
   4  11   9    9.96    0.71
   5  11   9   32.98    1.05
   6  11   9    1.12    0.85
   7  11   9    5.56    0.94
   8  11   9    3.88    1.33
   9  11   9    6.43    2.29
  10  11   9   -1.74    4.99
   0  12   9  238.73    3.56
   1  12   9   69.34    1.25
   2  12   9   50.48    1.10
   3  12   9    8.49    0.64
   4  12   9  262.95    2.78
   5  12   9    1.14    0.84
   6  12   9  131.37    2.03
   7  12   9   88.40    1.63
   8  12   9    8.77    1.46
   9  12   9    0.88    2.77
   0  13   9    0.38    0.89
   1  13   9    2.59    0.69
   2  13   9   40.34    1.01
   3  13   9    4.31    0.73
   4  13   9    9.64    0.84
   5  13   9    9.07    0.96
   6  13   9   -0.62    0.98
   7  13   9   30.33    1.23
   8  13   9   11.91    1.66
   9  13   9    3.84    3.16
   0  14   9  198.92    3.21
   1  14   9   40.16    1.10
   2  14   9   14.16    0.83
   3  14   9    6.54    0.82
   4  14   9   16.98    0.92
   5  14   9    7.47    1.01
   6  14   9   74.44    1.59
   7  14   9    0.31    1.25
   8  14   9    4.53    1.80
   9  14   9    8.01    4.28
   0  15   9   -1.49    1.03
   1  15   9   22.08    0.92
   2  15   9   81.39    1.60
   3  15   9    4.83    0.82
   4  15   9   11.43    0.92
   5  15   9    8.14    1.06
   6  15   9   20.27    1.19
   7  15   9   -0.34    1.40
   8  15   9   16.15    2.23
   9  15   9   18.81    6.00
   0  16   9  295.15    4.90
   1  16   9   -1.41    0.80
   2  16   9   16.04    0.94
   3  16   9   40.76    1.14
   4  16   9   71.19    1.48
   5  16   9   -1.53    1.07
   6  16   9   35.09    1.51
   7  16   9   -1.61    1.78
   8  16   9    1.11    2.44
   0  17   9   -0.20    1.21
   1  17   9   73.70    1.56
   2  17   9   79.46    1.59
   3  17   9   13.82    1.00
   4  17   9   39.85    1.20
   5  17   9   24.25    1.35
   6  17   9    7.52    1.48
   7  17   9   -0.25    2.07
   8  17   9   14.83    3.35
   0  18   9   25.67    1.52
   1  18   9   -0.35    0.91
   2  18   9    6.82    0.87
   3  18   9    7.95    1.04
   4  18   9    9.01    1.03
   5  18   9    2.16    1.44
   6  18   9   16.51    1.69
   7  18   9   -0.74    2.30
   8  18   9    5.05    5.34
   0  19   9    1.18    1.25
   1  19   9   16.71    1.12
   2  19   9   89.58    1.90
   3  19   9    7.89    1.16
   4  19   9   29.55    1.36
   5  19   9   32.29    1.79
   6  19   9    5.50    1.96
   7  19   9    6.54    2.94
   0  20   9   54.35    2.21
   1  20   9    5.28    1.21
   2  20   9    2.32    1.19
   3  20   9    0.71    1.33
   4  20   9    0.50    0.68
   5  20   9    4.36    1.87
   6  20   9   -3.64    2.42
   7  20   9   -0.24    4.01
   0  21   9    1.35    1.76
   1  21   9   14.92    1.34
   2  21   9   96.34    2.22
   3  21   9    5.36    1.51
   4  21   9   28.12    2.05
   5  21   9    0.94    2.32
   6  21   9    6.04    3.85
   0  22   9   -0.17    1.88
   1  22   9   -2.47    1.42
   2  22   9   -3.14    1.50
   3  22   9    3.83    1.96
   4  22   9    8.91    2.55
   5  22   9    6.50    3.00
   6  22   9    9.20    4.67
   0  23   9    3.50    2.26
   1  23   9    1.98    1.91
   2  23   9   50.61    2.39
   3  23   9   -5.24    2.38
   4  23   9   23.16    2.90
   5  23   9    5.09    4.44
   0  24   9    4.73    2.95
   1  24   9    2.15    2.06
   2  24   9    0.34    2.25
   3  24   9   12.44    2.93
   4  24   9    5.42    4.56
   0  25   9    2.42    3.26
   1  25   9    7.01    2.50
   2  25   9   38.40    3.36
   3  25   9   -1.97    4.71
   0  26   9   20.04    5.19
   1  26   9    5.85    3.80
   2  26   9    8.77    6.24
   0   0  10 1070.38   17.35
   1   0  10   48.92    1.11
   2   0  10  421.82    5.09
   3   0  10  382.45    4.55
   4   0  10   55.46    1.32
   5   0  10    0.47    0.64
   6   0  10  144.07    2.64
   7   0  10   77.48    2.07
   8   0  10   11.31    1.47
   9   0  10    4.60    1.93
  10   0  10   35.92    3.41
   0   1  10   -1.39    0.51
   1   1  10  184.71    1.81
   2   1  10   55.55    0.84
   3   1  10  109.04    1.24
   4   1  10   18.60    0.58
   5   1  10   53.28    0.94
   6   1  10   24.84    0.78
   7   1  10    2.25    0.80
   8   1  10   16.67    1.04
   9   1  10   16.09    1.42
  10   1  10    0.34    2.29
   0   2  10  670.83    7.82
   1   2  10  208.45    1.93
   2   2  10  230.22    2.06
   3   2  10    9.76    0.45
   4   2  10  299.63    2.67
   5   2  10    0.60    0.47
   6   2  10  134.80    1.66
   7   2  10   78.20    1.51
   8   2  10    4.54    0.96
   9   2  10   33.05    1.99
  10   2  10   15.21    2.27
   0   3  10    0.78    0.50
   1   3  10   46.60    0.75
   2   3  10   13.91    0.45
   3   3  10   36.39    0.67
   4   3  10   91.71    1.18
   5   3  10  181.56    1.84
   6   3  10    1.28    0.57
   7   3  10   14.96    0.85
   8   3  10   58.25    1.43
   9   3  10   -0.60    1.54
  10   3  10   -2.55    2.32
   0   4  10  542.10    6.41
   1   4  10   30.84    0.66
   2   4  10   69.24    0.95
   3   4  10  176.26    1.69
   4   4  10  621.93    5.14
   5   4  10    1.94    0.63
   6   4  10  438.65    4.07
   7   4  10   11.34    0.81
   8   4  10    1.69    1.07
   9   4  10    0.46    1.53
  10   4  10   33.88    2.60
   0   5  10    2.78    0.54
   1   5  10  174.85    1.71
   2   5  10  747.41    6.17
   3   5  10   -0.29    0.40
   4   5  10   21.05    0.63
   5   5  10    2.16    0.63
   6   5  10   37.98    0.97
   7   5  10    5.27    0.84
   8   5  10   33.96    1.28
   9   5  10   20.22    1.68
  10   5  10    8.95    2.51
   0   6  10  532.87    6.57
   1   6  10    6.71    0.46
   2   6  10   19.83    0.59
   3   6  10  173.62    1.82
   4   6  10  212.89    2.14
   5   6  10   -1.14    0.63
   6   6  10   27.28    0.85
   7   6  10    1.00    0.74
   8   6  10    2.39    1.00
   9   6  10    1.38    1.32
  10   6  10    8.76    3.00
   0   7  10    1.26    0.59
   1   7  10    1.11    0.44
   2   7  10  346.86    3.19
   3   7  10   44.90    0.89
   4   7  10  234.38    2.34
   5   7  10  118.24    1.62
   6   7  10    5.05    0.75
   7   7  10    8.30    0.83
   8   7  10   85.33    1.62
   9   7  10    7.13    1.70
  10   7  10   -0.82    3.33
   0   8  10  410.75    5.21
   1   8  10    3.27    0.50
   2   8  10  133.87    1.64
   3   8  10    9.40    0.59
   4   8  10   19.41    0.69
   5   8  10    3.14    0.74
   6   8  10   44.52    1.08
   7   8  10    3.64    0.86
   8   8  10    4.35    1.09
   9   8  10    9.72    1.84
  10   8  10   31.53    3.81
   0   9  10    4.40    0.75
   1   9  10   62.52    1.06
   2   9  10  597.44    5.73
   3   9  10   26.37    0.76
   4   9  10  158.14    1.80
   5   9  10   75.32    1.41
   6   9  10   25.21    0.96
   7   9  10    0.17    0.85
   8   9  10   70.00    1.68
   9   9  10    5.68    2.02
  10   9  10    6.42    4.07
   0  10  10  440.92    6.12
   1  10  10   14.04    0.63
   2  10  10   31.26    0.84
   3  10  10   65.33    1.21
   4  10  10   -0.23    0.56
   5  10  10    0.71    0.75
   6  10  10   -0.59    0.85
   7  10  10   10.51    0.99
   8  10  10    2.60    1.15
   9  10  10    3.05    2.40
  10  10  10    2.89    4.34
   0  11  10    2.49    0.90
   1  11  10  355.61    3.52
   2  11  10  333.32    3.49
   3  11  10    4.34    0.60
   4  11  10  223.65    2.52
   5  11  10    0.50    0.86
   6  11  10   49.56    1.30
   7  11  10    1.85    0.99
   8  11  10  117.78    2.37
   9  11  10   11.91    2.71
   0  12  10  387.06    5.31
   1  12  10    7.71    0.69
   2  12  10   32.44    0.87
   3  12  10    3.76    0.61
   4  12  10   64.39    1.29
   5  12  10   -1.59    0.90
   6  12  10    0.63    0.99
   7  12  10    0.32    1.11
   8  12  10   28.91    1.77
   9  12  10    3.64    2.95
   0  13  10    1.58    0.95
   1  13  10    4.62    0.71
   2  13  10  249.21    2.71
   3  13  10   34.44    0.98
   4  13  10   40.32    1.02
   5  13  10   93.61    1.86
   6  13  10    5.90    1.07
   7  13  10   20.49    1.23
   8  13  10   44.69    1.99
   9  13  10    6.36    3.64
   0  14  10    8.37    1.09
   1  14  10   38.33    1.02
   2  14  10   14.10    0.88
   3  14  10    0.00    0.76
   4  14  10    1.40    0.76
   5  14  10    1.62    1.01
   6  14  10   33.48    1.30
   7  14  10   70.79    1.74
   8  14  10    0.18    2.03
   9  14  10    7.35    4.82
   0  15  10   -0.77    1.08
   1  15  10   12.05    0.89
   2  15  10  164.38    2.18
   3  15  10    0.49    0.83
   4  15  10   70.53    1.35
   5  15  10    2.35    1.08
   6  15  10   11.15    1.27
   7  15  10    0.82    1.53
   8  15  10   22.65    2.46
   0  16  10   84.38    2.29
   1  16  10   10.13    0.92
   2  16  10    0.56    0.93
   3  16  10   96.82    1.79
   4  16  10   95.93    1.79
   5  16  10    7.26    1.22
   6  16  10   24.26    1.46
   7  16  10    6.05    1.90
   8  16  10    0.62    2.67
   0  17  10    1.85    1.29
   1  17  10    3.00    0.89
   2  17  10  130.14    2.09
   3  17  10   -2.06    0.97
   4  17  10   22.17    0.95
   5  17  10   22.51    1.50
   6  17  10    3.95    1.47
   7  17  10    2.96    2.07
   8  17  10    8.82    3.84
   0  18  10   13.53    1.48
   1  18  10   11.65    1.00
   2  18  10   28.73    1.16
   3  18  10   60.99    1.47
   4  18  10   22.40    1.07
   5  18  10    3.37    1.41
   6  18  10   37.47    1.94
   7  18  10    1.66    2.42
   0  19  10   -1.44    1.40
   1  19  10    6.06    1.02
   2  19  10    2.87    0.94
   3  19  10    1.92    1.15
   4  19  10    9.37    1.14
   5  19  10   10.99    1.70
   6  19  10    4.50    2.11
   7  19  10   -4.69    3.75
   0  20  10   94.99    2.65
   1  20  10    9.08    1.18
   2  20  10   26.91    1.46
   3  20  10   35.82    1.60
   4  20  10   27.16    1.53
   5  20  10    2.77    1.99
   6  20  10   13.02    2.62
   7  20  10   18.56    4.49
   0  21  10   -2.26    1.97
   1  21  10    5.59    1.44
   2  21  10    8.40    1.52
   3  21  10   -4.37    1.56
   4  21  10    1.92    1.88
   5  21  10    2.21    2.50
   6  21  10   -2.48    4.12
   0  22  10   91.44    3.15
   1  22  10    0.95    1.57
   2  22  10   16.56    1.74
   3  22  10    0.23    1.96
   4  22  10   22.67    2.82
   5  22  10   -9.38    3.84
   0  23  10    2.34    2.62
   1  23  10   10.45    1.90
   2  23  10    0.29    2.10
   3  23  10    4.48    2.52
   4  23  10    0.45    3.29
   5  23  10    1.60    5.11
   0  24  10   67.79    3.83
   1  24  10   -1.31    2.09
   2  24  10    6.27    2.47
   3  24  10    2.86    3.71
   4  24  10   39.10    5.15
   0  25  10    8.42    3.89
   1  25  10    3.86    2.85
   2  25  10    3.96    3.51
   3  25  10    2.92    5.03
   0  26  10   31.22    5.46
   1  26  10    4.75    4.53
   0   0  11    1.98    0.84
   1   0  11   -0.76    0.55
   2   0  11   -0.42    0.60
   3   0  11   -0.03    0.68
   4   0  11   -1.29    0.70
   5   0  11    0.05    0.74
   6   0  11    0.30    0.78
   7   0  11    1.50    1.24
   8   0  11    1.21    1.43
   9   0  11    0.67    1.91
  10   0  11    7.02    4.15
   0   1  11    5.03    0.62
   1   1  11  390.45    3.37
   2   1  11  661.21    5.41
   3   1  11   27.94    0.66
   4   1  11  157.59    1.67
   5   1  11   39.14    0.82
   6   1  11    8.83    0.72
   7   1  11    2.15    0.88
   8   1  11  101.23    1.93
   9   1  11   28.44    1.55
  10   1  11    5.91    2.40
   0   2  11    2.56    0.58
   1   2  11  185.01    1.80
   2   2  11   -0.46    0.42
   3   2  11  119.38    1.35
   4   2  11   41.77    0.82
   5   2  11    3.48    0.54
   6   2  11    7.59    0.69
   7   2  11   35.01    1.10
   8   2  11    0.32    1.01
   9   2  11    0.23    1.71
  10   2  11    0.00    2.39
   0   3  11    4.51    0.59
   1   3  11   20.06    0.54
   2   3  11  696.08    5.68
   3   3  11  147.62    1.51
   4   3  11  192.01    1.92
   5   3  11  295.33    2.76
   6   3  11   35.82    0.92
   7   3  11    0.70    0.97
   8   3  11   96.49    1.98
   9   3  11    0.89    1.64
  10   3  11    0.59    2.62
   0   4  11  904.19   10.81
   1   4  11  121.46    1.37
   2   4  11   24.45    0.62
   3   4  11    4.24    0.47
   4   4  11   12.54    0.58
   5   4  11    0.83    0.60
   6   4  11   74.63    1.42
   7   4  11   60.00    1.33
   8   4  11    7.43    1.19
   9   4  11    2.31    1.74
  10   4  11   -0.43    2.88
   0   5  11   -0.01    0.57
   1   5  11    1.69    0.45
   2   5  11  404.04    3.46
   3   5  11    2.01    0.46
   4   5  11  122.99    1.47
   5   5  11   14.47    0.62
   6   5  11   20.42    0.95
   7   5  11   13.36    1.04
   8   5  11   88.60    2.01
   9   5  11   13.47    1.94
  10   5  11    1.73    2.88
   0   6  11  219.61    3.08
   1   6  11   30.92    0.69
   2   6  11    7.17    0.52
   3   6  11  112.72    1.48
   4   6  11  257.91    2.48
   5   6  11   19.84    0.79
   6   6  11  144.51    1.95
   7   6  11    9.02    0.95
   8   6  11    3.12    1.32
   9   6  11    0.84    1.97
  10   6  11    4.19    3.26
   0   7  11    0.80    0.72
   1   7  11   10.69    0.56
   2   7  11  190.73    1.97
   3   7  11   26.59    0.74
   4   7  11   88.22    1.30
   5   7  11   67.67    1.32
   6   7  11   -1.08    0.76
   7   7  11    5.42    0.90
   8   7  11    2.02    1.13
   9   7  11   -1.14    1.92
  10   7  11    0.22    3.78
   0   8  11  538.46    6.70
   1   8  11  244.87    2.42
   2   8  11  252.44    2.71
   3   8  11  144.99    1.73
   4   8  11  260.09    2.58
   5   8  11    1.19    0.81
   6   8  11   79.19    1.57
   7   8  11   19.99    0.98
   8   8  11    4.87    1.12
   9   8  11    6.47    2.13
  10   8  11   84.75    4.72
   0   9  11   -0.42    0.76
   1   9  11   99.42    1.41
   2   9  11  143.09    1.76
   3   9  11   95.24    1.43
   4   9  11    1.03    0.62
   5   9  11   83.01    1.56
   6   9  11   30.52    1.14
   7   9  11    5.59    0.97
   8   9  11   56.10    1.47
   9   9  11    0.59    2.37
  10   9  11   -1.40    4.56
   0  10  11  161.48    2.72
   1  10  11   14.56    0.65
   2  10  11   71.77    1.34
   3  10  11   10.03    0.73
   4  10  11  197.04    2.20
   5  10  11    1.51    0.88
   6  10  11  179.25    2.38
   7  10  11    4.38    1.08
   8  10  11    9.97    1.33
   9  10  11    8.41    2.55
   0  11  11    4.31    0.90
   1  11  11   37.98    0.95
   2  11  11   27.44    0.89
   3  11  11   10.23    0.76
   4  11  11   -0.10    0.71
   5  11  11    8.85    1.01
   6  11  11   12.26    1.06
   7  11  11    7.61    1.21
   8  11  11    2.67    1.47
   9  11  11    4.62    2.83
   0  12  11  635.98    8.26
   1  12  11   75.59    1.40
   2  12  11  106.84    1.72
   3  12  11   39.95    1.05
   4  12  11   20.79    0.88
   5  12  11    0.81    0.92
   6  12  11  138.35    2.20
   7  12  11   71.49    1.69
   8  12  11   13.87    1.80
   9  12  11    0.96    3.47
   0  13  11    0.25    0.96
   1  13  11   79.18    1.47
   2  13  11   45.18    1.09
   3  13  11    0.63    0.76
   4  13  11    0.13    0.82
   5  13  11    7.56    1.02
   6  13  11    4.44    1.11
   7  13  11    0.65    1.40
   8  13  11   15.07    2.06
   9  13  11    0.07    4.06
   0  14  11  204.10    3.39
   1  14  11   52.41    1.20
   2  14  11    4.99    0.81
   3  14  11   98.45    1.67
   4  14  11   81.70    1.50
   5  14  11    0.92    1.04
   6  14  11   61.13    1.62
   7  14  11   22.94    1.78
   8  14  11    2.16    2.28
   9  14  11    5.29    5.39
   0  15  11    1.71    1.17
   1  15  11   29.38    1.10
   2  15  11   41.29    1.13
   3  15  11   10.48    0.89
   4  15  11   16.01    0.92
   5  15  11   48.73    1.53
   6  15  11    0.95    1.33
   7  15  11    6.40    1.69
   8  15  11   15.81    2.73
   0  16  11   47.57    1.72
   1  16  11    0.73    0.87
   2  16  11   48.86    1.24
   3  16  11   16.02    1.07
   4  16  11   78.86    1.57
   5  16  11    4.36    1.34
   6  16  11   23.92    1.58
   7  16  11    0.87    1.97
   8  16  11    1.08    2.97
   0  17  11   -0.03    1.34
   1  17  11   14.15    1.02
   2  17  11   70.14    1.52
   3  17  11   18.14    1.17
   4  17  11   19.80    1.07
   5  17  11   21.90    1.51
   6  17  11    5.37    1.53
   7  17  11    3.11    2.21
   8  17  11   15.46    5.52
   0  18  11   71.37    2.21
   1  18  11    3.42    1.05
   2  18  11   12.09    1.06
   3  18  11    0.34    1.11
   4  18  11   10.50    1.16
   5  18  11    8.54    1.57
   6  18  11    4.47    1.88
   7  18  11    5.68    2.81
   0  19  11    1.86    1.56
   1  19  11   31.09    1.25
   2  19  11   47.30    1.38
   3  19  11    6.71    1.31
   4  19  11   40.67    1.38
   5  19  11   27.85    1.80
   6  19  11    6.78    2.24
   7  19  11   -1.28    4.12
   0  20  11    4.15    1.60
   1  20  11    9.67    1.16
   2  20  11    4.28    1.39
   3  20  11    1.04    1.29
   4  20  11    4.29    1.59
   5  20  11   -2.72    2.00
   6  20  11   11.43    3.79
   0  21  11    6.35    2.19
   1  21  11   30.00    1.56
   2  21  11   62.62    1.96
   3  21  11    2.31    1.64
   4  21  11    8.58    2.21
   5  21  11    7.19    2.73
   6  21  11    1.15    4.60
   0  22  11   -0.06    2.49
   1  22  11    7.64    1.72
   2  22  11   -0.92    1.67
   3  22  11   18.25    2.31
   4  22  11    2.91    2.72
   5  22  11   -0.32    4.01
   0  23  11    9.30    2.86
   1  23  11    2.80    1.92
   2  23  11   48.90    2.40
   3  23  11    3.48    2.61
   4  23  11   28.72    4.02
   0  24  11    0.25    3.59
   1  24  11    5.44    2.35
   2  24  11    0.71    2.78
   3  24  11    5.99    4.27
   4  24  11    7.26    5.03
   0  25  11   -0.84    4.71
   1  25  11    1.83    3.73
   2  25  11   33.19    5.11
   0  26  11   12.87    9.33
   0   0  12  413.74    7.19
   1   0  12   29.82    0.95
   2   0  12   12.64    0.77
   3   0  12  205.95    2.92
   4   0  12 1014.97   11.45
   5   0  12   28.38    1.10
   6   0  12  567.39    7.46
   7   0  12  117.69    2.91
   8   0  12    2.58    1.55
   9   0  12   34.63    2.25
  10   0  12    4.48    4.31
   0   1  12   -2.30    0.62
   1   1  12  134.10    1.47
   2   1  12   65.03    0.99
   3   1  12    6.30    0.54
   4   1  12    0.87    0.55
   5   1  12   27.30    0.75
   6   1  12   41.36    0.98
   7   1  12    3.56    0.95
   8   1  12   31.76    1.29
   9   1  12    1.87    1.47
  10   1  12   17.99    3.09
   0   2  12 1585.44   18.65
   1   2  12  146.91    1.58
   2   2  12  184.76    1.89
   3   2  12  341.12    3.02
   4   2  12    6.85    0.59
   5   2  12   29.29    0.79
   6   2  12   96.13    1.51
   7   2  12   27.27    1.10
   8   2  12    3.82    1.13
   9   2  12    1.09    1.75
  10   2  12   27.96    2.98
   0   3  12    0.59    0.62
   1   3  12   73.34    1.02
   2   3  12  180.45    1.81
   3   3  12    0.58    0.44
   4   3  12   31.21    0.80
   5   3  12   21.38    0.67
   6   3  12   36.24    1.00
   7   3  12    4.65    0.91
   8   3  12    0.97    1.31
   9   3  12   15.66    1.78
  10   3  12    1.26    2.88
   0   4  12  426.98    5.23
   1   4  12    1.55    0.41
   2   4  12   78.85    1.12
   3   4  12   24.71    0.68
   4   4  12  174.52    1.83
   5   4  12    3.17    0.66
   6   4  12   98.54    1.71
   7   4  12    7.86    0.97
   8   4  12    0.51    1.32
   9   4  12    8.74    1.86
  10   4  12   10.21    3.16
   0   5  12    1.20    0.64
   1   5  12   70.25    1.10
   2   5  12   39.46    0.81
   3   5  12   22.65    0.68
   4   5  12   30.32    0.76
   5   5  12   87.11    1.46
   6   5  12    1.12    0.86
   7   5  12    2.08    0.91
   8   5  12   65.97    1.88
   9   5  12    0.48    1.90
  10   5  12    4.34    3.34
   0   6  12  116.60    1.95
   1   6  12   57.26    1.01
   2   6  12   81.48    1.22
   3   6  12   35.23    0.79
   4   6  12   74.28    1.20
   5   6  12    0.63    0.67
   6   6  12   44.95    1.21
   7   6  12   10.65    1.06
   8   6  12   -0.88    1.43
   9   6  12    1.76    1.97
  10   6  12   54.15    4.33
   0   7  12    1.86    0.78
   1   7  12   70.70    1.18
   2   7  12  560.53    5.04
   3   7  12    5.49    0.65
   4   7  12  236.17    2.38
   5   7  12  161.66    1.97
   6   7  12   35.26    1.09
   7   7  12    4.83    1.04
   8   7  12   31.27    1.43
   9   7  12   15.46    2.20
  10   7  12    4.45    4.64
   0   8  12   68.78    1.76
   1   8  12    0.62    0.58
   2   8  12    4.74    0.60
   3   8  12    1.43    0.65
   4   8  12   90.25    1.44
   5   8  12    0.47    0.66
   6   8  12   33.56    1.10
   7   8  12    1.47    1.03
   8   8  12    9.62    1.38
   9   8  12   -0.17    2.26
  10   8  12   -5.89    4.87
   0   9  12    0.31    0.78
   1   9  12   77.00    1.28
   2   9  12  349.91    3.56
   3   9  12   10.97    0.75
   4   9  12  258.42    2.62
   5   9  12   38.60    1.16
   6   9  12   50.54    1.29
   7   9  12    0.32    1.01
   8   9  12   27.82    1.38
   9   9  12   -1.79    2.63
   0  10  12   12.78    0.92
   1  10  12    1.60    0.65
   2  10  12    1.02    0.70
   3  10  12    0.20    0.71
   4  10  12   12.33    0.81
   5  10  12    1.90    0.92
   6  10  12   61.58    1.44
   7  10  12    3.93    1.15
   8  10  12    1.39    1.51
   9  10  12   -0.87    2.86
   0  11  12    1.94    0.92
   1  11  12   33.52    0.89
   2  11  12  211.85    2.37
   3  11  12    9.52    0.80
   4  11  12   35.38    1.00
   5  11  12   24.83    1.18
   6  11  12   47.55    1.38
   7  11  12    1.59    1.25
   8  11  12   85.13    2.44
   9  11  12    3.20    3.12
   0  12  12   54.75    1.66
   1  12  12   18.03    0.80
   2  12  12   15.89    0.91
   3  12  12    0.02    0.84
   4  12  12    2.83    0.83
   5  12  12   -0.30    1.12
   6  12  12   32.12    1.39
   7  12  12    0.39    1.40
   8  12  12   34.19    2.22
   9  12  12   -3.58    3.79
   0  13  12    3.79    1.10
   1  13  12  104.01    1.66
   2  13  12  233.84    2.98
   3  13  12   37.40    1.12
   4  13  12  109.06    1.82
   5  13  12   63.08    1.63
   6  13  12    7.48    1.34
   7  13  12    0.44    1.60
   8  13  12   27.07    2.42
   9  13  12   12.52    4.88
   0  14  12  434.62    6.51
   1  14  12   10.92    0.89
   2  14  12    0.53    0.76
   3  14  12   76.69    1.55
   4  14  12    0.72    0.92
   5  14  12   -0.65    1.28
   6  14  12   11.60    1.50
   7  14  12   12.70    1.86
   8  14  12   16.78    2.69
   0  15  12    2.44    1.31
   1  15  12   13.42    0.93
   2  15  12  108.40    1.82
   3  15  12    1.28    0.98
   4  15  12   31.76    1.19
   5  15  12   34.55    1.55
   6  15  12   -1.42    1.65
   7  15  12   -0.64    2.04
   8  15  12   16.24    2.97
   0  16  12    8.81    1.39
   1  16  12   39.56    1.20
   2  16  12    2.86    0.92
   3  16  12   24.15    1.08
   4  16  12   26.67    1.20
   5  16  12    2.12    1.54
   6  16  12   37.95    1.89
   7  16  12    8.36    2.13
   8  16  12    4.81    3.78
   0  17  12    0.88    1.38
   1  17  12    4.86    1.00
   2  17  12   41.67    1.28
   3  17  12    4.33    0.92
   4  17  12   33.81    1.40
   5  17  12    1.23    1.71
   6  17  12    5.04    1.90
   7  17  12    2.13    2.40
   0  18  12  135.23    3.21
   1  18  12   19.89    1.18
   2  18  12   15.40    1.12
   3  18  12   41.17    1.35
   4  18  12   11.78    1.20
   5  18  12   -2.52    1.81
   6  18  12   -0.27    2.17
   7  18  12   15.76    3.46
   0  19  12    1.95    1.66
   1  19  12   -0.18    1.11
   2  19  12   22.76    1.31
   3  19  12    0.82    1.30
   4  19  12    4.54    1.32
   5  19  12   -3.18    1.99
   6  19  12   -1.58    2.70
   7  19  12   -2.44    4.39
   0  20  12   56.46    2.34
   1  20  12   11.54    1.35
   2  20  12    6.63    1.40
   3  20  12   29.65    1.46
   4  20  12   67.38    2.44
   5  20  12   -2.65    2.16
   6  20  12   43.20    4.64
   0  21  12    2.95    2.06
   1  21  12    6.56    1.57
   2  21  12    7.14    1.64
   3  21  12    2.25    1.74
   4  21  12    6.04    2.19
   5  21  12   15.76    3.57
   6  21  12   -2.12    4.80
   0  22  12   65.23    3.45
   1  22  12    7.68    1.85
   2  22  12    3.73    1.85
   3  22  12    7.53    2.33
   4  22  12   11.05    3.16
   5  22  12    6.26    4.79
   0  23  12   -4.27    2.92
   1  23  12    7.43    2.12
   2  23  12    2.76    2.28
   3  23  12    0.06    3.06
   4  23  12   -1.60    4.54
   0  24  12   55.02    3.86
   1  24  12    1.64    2.82
   2  24  12   10.86    3.41
   3  24  12   -0.56    4.84
   0  25  12    3.89    6.01
   1  25  12    9.73    4.47
   2  25  12    0.25    6.13
   0   0  13    4.13    1.10
   1   0  13   -0.08    0.65
   2   0  13    0.08    0.72
   3   0  13   -0.02    0.81
   4   0  13   -1.48    0.81
   5   0  13    0.11    0.93
   6   0  13    0.77    0.99
   7   0  13    0.25    1.39
   8   0  13    2.54    1.77
   9   0  13    0.42    2.45
  10   0  13    5.28    4.53
   0   1  13    6.76    0.77
   1   1  13  262.32    2.43
   2   1  13  332.89    3.01
   3   1  13  121.29    1.46
   4   1  13  234.75    2.36
   5   1  13  289.35    2.77
   6   1  13   61.42    1.18
   7   1  13   19.73    1.08
   8   1  13   90.78    2.03
   9   1  13   23.65    1.91
  10   1  13   10.80    3.31
   0   2  13  127.96    2.04
   1   2  13   48.09    0.91
   2   2  13    5.53    0.53
   3   2  13    1.61    0.52
   4   2  13   82.63    1.29
   5   2  13    2.19    0.64
   6   2  13   60.28    1.14
   7   2  13    9.37    0.87
   8   2  13    7.79    1.19
   9   2  13   11.23    1.81
  10   2  13   -0.75    3.25
   0   3  13    4.68    0.70
   1   3  13  104.90    1.32
   2   3  13  404.49    3.63
   3   3  13    7.87    0.55
   4   3  13  137.16    1.72
   5   3  13    4.02    0.60
   6   3  13   23.60    1.01
   7   3  13    3.20    1.02
   8   3  13   27.55    1.60
   9   3  13   21.32    2.04
  10   3  13    2.61    3.62
   0   4  13  282.58    3.70
   1   4  13    1.69    0.46
   2   4  13   59.51    1.11
   3   4  13  196.53    2.00
   4   4  13   -0.06    0.56
   5   4  13    2.43    0.66
   6   4  13   13.03    0.95
   7   4  13    3.82    1.11
   8   4  13    1.55    1.57
   9   4  13    4.90    2.04
  10   4  13    0.21    3.92
   0   5  13    1.00    0.69
   1   5  13   28.27    0.79
   2   5  13  219.70    2.19
   3   5  13   14.83    0.67
   4   5  13  201.03    2.06
   5   5  13   14.72    0.90
   6   5  13   12.00    1.02
   7   5  13    0.65    0.98
   8   5  13   25.38    1.65
   9   5  13   -2.42    2.03
  10   5  13   22.95    4.30
   0   6  13   68.80    1.71
   1   6  13  106.21    1.44
   2   6  13   16.12    0.68
   3   6  13  156.09    1.74
   4   6  13  104.97    1.46
   5   6  13   13.88    0.83
   6   6  13   87.21    1.77
   7   6  13   48.39    1.42
   8   6  13    7.62    1.35
   9   6  13   16.68    2.28
  10   6  13   18.10    4.78
   0   7  13    0.00    0.87
   1   7  13   41.12    0.91
   2   7  13  163.84    1.84
   3   7  13   -0.04    0.63
   4   7  13   50.66    1.03
   5   7  13    6.26    0.72
   6   7  13    4.81    0.94
   7   7  13    6.41    1.14
   8   7  13    7.63    1.42
   9   7  13    3.21    2.27
   0   8  13  562.39    7.08
   1   8  13   10.69    0.68
   2   8  13  129.36    1.67
   3   8  13   14.00    0.77
   4   8  13  205.18    2.23
   5   8  13   12.67    0.85
   6   8  13   30.01    1.19
   7   8  13   38.64    1.45
   8   8  13   17.18    1.47
   9   8  13    0.16    2.46
   0   9  13   -0.86    0.90
   1   9  13  104.75    1.57
   2   9  13    2.37    0.72
   3   9  13   15.36    0.82
   4   9  13    0.87    0.77
   5   9  13   42.06    1.11
   6   9  13   14.37    1.06
   7   9  13   -0.04    1.19
   8   9  13    7.75    1.63
   9   9  13    7.00    2.88
   0  10  13  134.87    2.42
   1  10  13  136.07    1.77
   2  10  13    4.53    0.80
   3  10  13  132.96    1.85
   4  10  13   63.78    1.30
   5  10  13    7.45    0.88
   6  10  13  125.71    2.20
   7  10  13   53.44    1.52
   8  10  13   25.50    1.98
   9  10  13   -0.10    3.09
   0  11  13    0.67    0.98
   1  11  13   34.71    0.99
   2  11  13    4.84    0.79
   3  11  13    4.05    0.87
   4  11  13    0.50    0.82
   5  11  13    3.64    0.91
   6  11  13   -0.54    1.15
   7  11  13   14.03    1.45
   8  11  13    1.34    2.09
   9  11  13    0.60    3.84
   0  12  13  627.72    8.24
   1  12  13    2.26    0.81
   2  12  13   55.39    1.38
   3  12  13  121.00    1.90
   4  12  13   68.55    1.42
   5  12  13    0.25    0.97
   6  12  13   72.67    1.94
   7  12  13    1.07    1.59
   8  12  13    3.13    2.44
   9  12  13    9.15    4.30
   0  13  13    4.48    1.22
   1  13  13    6.62    0.79
   2  13  13    0.57    0.88
   3  13  13   11.55    1.01
   4  13  13    1.33    0.94
   5  13  13   11.14    1.31
   6  13  13    3.40    1.45
   7  13  13    0.41    1.88
   8  13  13   15.35    2.78
   0  14  13  274.89    4.28
   1  14  13   23.41    0.99
   2  14  13    5.82    0.96
   3  14  13   25.85    1.14
   4  14  13   39.06    1.25
   5  14  13    2.36    1.34
   6  14  13   54.25    1.90
   7  14  13   14.68    2.00
   8  14  13   -1.34    2.99
   0  15  13    1.21    1.24
   1  15  13   51.72    1.29
   2  15  13   32.36    1.21
   3  15  13    0.37    1.03
   4  15  13   35.82    1.27
   5  15  13   33.90    1.76
   6  15  13    4.80    1.74
   7  15  13   -2.43    2.17
   8  15  13    9.46    3.38
   0  16  13   21.09    1.53
   1  16  13   29.99    1.17
   2  16  13   13.15    0.99
   3  16  13    4.63    1.12
   4  16  13   21.67    1.27
   5  16  13   -2.33    1.66
   6  16  13   15.66    1.87
   7  16  13   19.41    2.45
   0  17  13   -2.41    1.44
   1  17  13   85.36    1.77
   2  17  13   38.30    1.28
   3  17  13    2.56    1.18
   4  17  13   22.79    1.43
   5  17  13   27.36    1.95
   6  17  13    3.09    2.11
   7  17  13   -4.34    2.86
   0  18  13   60.77    2.16
   1  18  13    0.68    1.13
   2  18  13   13.77    1.18
   3  18  13    2.13    1.40
   4  18  13   20.02    1.55
   5  18  13    3.11    1.98
   6  18  13    5.52    2.59
   7  18  13    1.05    3.82
   0  19  13   -1.90    1.80
   1  19  13   22.73    1.40
   2  19  13   69.84    1.86
   3  19  13    2.39    1.54
   4  19  13   24.99    1.79
   5  19  13   22.23    2.31
   6  19  13    0.81    3.65
   0  20  13   13.19    2.15
   1  20  13    1.65    1.45
   2  20  13   -0.09    1.46
   3  20  13    3.72    1.34
   4  20  13    4.81    2.18
   5  20  13    3.29    2.51
   6  20  13    7.43    4.36
   0  21  13   -1.79    2.26
   1  21  13   12.62    1.65
   2  21  13   29.52    1.75
   3  21  13    8.45    2.17
   4  21  13   18.53    2.77
   5  21  13   33.41    3.83
   0  22  13    2.77    2.99
   1  22  13    3.45    1.81
   2  22  13    1.73    2.11
   3  22  13    9.70    2.74
   4  22  13    2.29    3.37
   0  23  13    3.16    3.21
   1  23  13    9.83    2.55
   2  23  13   15.68    2.86
   3  23  13   -2.41    4.21
   4  23  13    6.12    4.89
   0  24  13   -1.57    5.45
   1  24  13   -0.86    3.65
   2  24  13    0.80    4.34
   3  24  13    3.34    6.73
   0  25  13   -2.94    8.82
   1  25  13    0.45    5.30
   0   0  14  873.11   13.67
   1   0  14   61.36    1.53
   2   0  14  100.92    2.15
   3   0  14  145.60    2.41
   4   0  14    5.51    0.93
   5   0  14   13.73    1.16
   6   0  14  235.39    3.42
   7   0  14   82.83    2.52
   8   0  14    2.30    1.93
   9   0  14   11.80    2.88
  10   0  14   22.15    7.19
   0   1  14   -1.04    0.78
   1   1  14   10.66    0.65
   2   1  14  210.90    2.25
   3   1  14  110.66    1.41
   4   1  14   -0.01    0.63
   5   1  14  114.48    1.64
   6   1  14   54.61    1.17
   7   1  14   11.29    0.92
   8   1  14   -0.11    1.27
   9   1  14    5.48    1.98
  10   1  14    2.92    5.03
   0   2  14  516.52    6.58
   1   2  14   55.85    1.16
   2   2  14   65.39    1.15
   3   2  14  310.95    2.76
   4   2  14  185.86    2.02
   5   2  14    8.77    0.76
   6   2  14   51.64    1.12
   7   2  14   43.12    1.26
   8   2  14    1.22    1.48
   9   2  14    8.23    2.09
  10   2  14    2.78    4.77
   0   3  14   -0.17    0.90
   1   3  14   63.55    1.14
   2   3  14   28.49    0.79
   3   3  14    0.30    0.55
   4   3  14   14.42    0.74
   5   3  14    0.43    0.65
   6   3  14    2.95    0.82
   7   3  14    4.00    1.10
   8   3  14   78.96    2.19
   9   3  14    5.04    2.24
  10   3  14    4.86    5.63
   0   4  14  110.43    2.03
   1   4  14   90.93    1.32
   2   4  14   15.20    0.71
   3   4  14   40.82    0.91
   4   4  14  190.70    2.11
   5   4  14    3.40    0.75
   6   4  14  123.48    1.89
   7   4  14   21.21    1.18
   8   4  14    0.64    1.65
   9   4  14   -1.02    2.22
  10   4  14   39.30    5.61
   0   5  14    0.44    0.76
   1   5  14   90.05    1.36
   2   5  14  206.01    2.20
   3   5  14   49.08    1.02
   4   5  14   40.23    0.88
   5   5  14  146.47    1.96
   6   5  14    1.54    1.10
   7   5  14    7.99    1.15
   8   5  14    2.80    1.32
   9   5  14   15.71    2.48
   0   6  14  286.45    3.85
   1   6  14    6.32    0.65
   2   6  14   16.37    0.71
   3   6  14    5.30    0.67
   4   6  14  111.06    1.53
   5   6  14    5.53    0.74
   6   6  14   41.68    1.30
   7   6  14   19.19    1.26
   8   6  14    2.65    1.59
   9   6  14    0.48    2.48
   0   7  14    3.33    0.93
   1   7  14  176.30    2.00
   2   7  14  138.29    1.73
   3   7  14    2.59    0.63
   4   7  14  118.79    1.67
   5   7  14    7.62    0.90
   6   7  14    1.72    1.07
   7   7  14    0.59    1.27
   8   7  14   40.67    1.86
   9   7  14    6.14    2.76
   0   8  14   69.07    1.85
   1   8  14    6.12    0.71
   2   8  14   70.81    1.25
   3   8  14    7.17    0.74
   4   8  14    1.09    0.78
   5   8  14   -0.66    0.79
   6   8  14   13.15    1.07
   7   8  14    2.51    1.37
   8   8  14    6.54    1.78
   9   8  14   -5.58    2.95
   0   9  14    1.38    0.98
   1   9  14   71.73    1.32
   2   9  14  194.85    2.28
   3   9  14    2.55    0.77
   4   9  14   26.89    0.96
   5   9  14   44.27    1.20
   6   9  14    2.12    0.96
   7   9  14   19.40    1.57
   8   9  14   31.09    2.11
   9   9  14   13.21    3.59
   0  10  14   83.13    2.07
   1  10  14   11.13    0.82
   2  10  14    2.57    0.81
   3  10  14   22.42    1.00
   4  10  14    3.61    0.87
   5  10  14    2.82    0.97
   6  10  14    0.14    1.15
   7  10  14    4.76    1.42
   8  10  14    2.47    2.15
   9  10  14   -2.83    4.30
   0  11  14    4.82    1.17
   1  11  14   19.04    0.90
   2  11  14  102.77    1.91
   3  11  14  135.85    2.04
   4  11  14   67.82    1.43
   5  11  14  136.01    2.14
   6  11  14   12.36    1.37
   7  11  14    6.80    1.62
   8  11  14   50.60    2.67
   9  11  14   -3.28    4.58
   0  12  14   47.99    1.78
   1  12  14    8.87    0.92
   2  12  14   -0.34    0.90
   3  12  14   18.07    1.06
   4  12  14    2.24    0.97
   5  12  14    0.18    1.02
   6  12  14    5.42    1.52
   7  12  14   10.32    1.86
   8  12  14    3.67    2.78
   0  13  14   -0.59    1.18
   1  13  14   70.90    1.54
   2  13  14  268.86    3.16
   3  13  14   14.82    1.08
   4  13  14   35.81    1.25
   5  13  14    3.61    1.11
   6  13  14   10.03    1.67
   7  13  14    1.67    1.95
   8  13  14   42.12    3.40
   0  14  14    2.78    1.29
   1  14  14    1.25    0.95
   2  14  14   38.42    1.22
   3  14  14   55.41    1.40
   4  14  14    1.36    1.08
   5  14  14    0.08    1.20
   6  14  14    8.40    1.75
   7  14  14    4.54    2.23
   8  14  14   -1.92    3.52
   0  15  14    1.02    1.28
   1  15  14   41.46    1.24
   2  15  14   69.84    1.58
   3  15  14   13.64    1.19
   4  15  14   84.99    1.87
   5  15  14   29.65    1.83
   6  15  14    8.97    1.88
   7  15  14    4.45    2.34
   8  15  14    7.98    5.09
   0  16  14   60.05    2.09
   1  16  14   16.06    1.08
   2  16  14    0.68    1.10
   3  16  14   49.56    1.48
   4  16  14   24.88    1.48
   5  16  14    6.70    1.84
   6  16  14   16.19    2.18
   7  16  14   30.58    3.01
   0  17  14    1.97    1.55
   1  17  14    4.92    1.11
   2  17  14   36.53    1.39
   3  17  14    5.35    1.39
   4  17  14   13.91    1.53
   5  17  14    1.84    2.07
   6  17  14   -0.64    2.34
   7  17  14   -3.22    3.78
   0  18  14   28.22    1.86
   1  18  14   33.17    1.38
   2  18  14    3.12    1.43
   3  18  14   57.87    1.92
   4  18  14   18.55    1.77
   5  18  14    1.39    2.09
   6  18  14   24.53    3.50
   0  19  14   -1.67    1.89
   1  19  14    9.91    1.44
   2  19  14   12.79    1.40
   3  19  14    6.08    1.70
   4  19  14   11.07    2.11
   5  19  14    4.39    2.49
   6  19  14    0.64    4.10
   0  20  14   56.47    2.73
   1  20  14    5.34    1.56
   2  20  14   19.63    1.59
   3  20  14   17.12    2.18
   4  20  14   19.72    2.46
   5  20  14   -0.09    3.58
   0  21  14    1.05    2.42
   1  21  14    0.28    1.69
   2  21  14    1.32    2.11
   3  21  14    5.59    2.41
   4  21  14    3.08    3.13
   5  21  14    9.49    4.15
   0  22  14   33.84    3.51
   1  22  14    6.69    2.27
   2  22  14   12.72    2.65
   3  22  14   10.69    3.57
   4  22  14   11.38    5.20
   0  23  14   -5.00    4.55
   1  23  14   -0.39    3.18
   2  23  14    2.81    3.94
   3  23  14    7.92    5.93
   0  24  14   22.33    7.43
   1  24  14    1.84    5.55
   2  24  14  -14.53    7.56
   0   0  15    3.72    1.21
   1   0  15   -1.22    0.77
   2   0  15   -2.45    0.90
   3   0  15    0.20    0.91
   4   0  15   -1.26    0.96
   5   0  15    0.32    1.07
   6   0  15   -0.94    1.13
   7   0  15   -0.54    1.28
   8   0  15   -0.79    1.94
   9   0  15   -2.85    3.02
   0   1  15    9.27    0.88
   1   1  15   79.26    1.25
   2   1  15  344.02    3.18
   3   1  15    6.82    0.68
   4   1  15   75.82    1.35
   5   1  15   90.68    1.50
   6   1  15   21.39    0.85
   7   1  15    5.24    0.99
   8   1  15   67.10    1.85
   9   1  15    6.94    2.27
   0   2  15  356.10    4.59
   1   2  15   -0.43    0.56
   2   2  15   67.84    1.19
   3   2  15   67.25    1.20
   4   2  15   12.34    0.79
   5   2  15    5.37    0.80
   6   2  15    0.12    0.82
   7   2  15    5.52    1.11
   8   2  15    7.36    1.62
   9   2  15    3.49    2.24
   0   3  15    0.70    0.79
   1   3  15  177.91    1.93
   2   3  15  195.99    2.05
   3   3  15    3.76    0.65
   4   3  15  126.71    1.74
   5   3  15  177.62    2.06
   6   3  15    4.17    0.91
   7   3  15    0.69    1.18
   8   3  15   43.50    2.06
   9   3  15   14.25    2.58
   0   4  15   14.80    0.99
   1   4  15   97.46    1.38
   2   4  15   15.55    0.73
   3   4  15  190.39    2.06
   4   4  15   98.43    1.53
   5   4  15    0.96    0.85
   6   4  15   72.80    1.55
   7   4  15   18.53    1.28
   8   4  15   -1.56    1.73
   9   4  15    1.00    2.52
   0   5  15    2.27    0.82
   1   5  15   15.95    0.75
   2   5  15  215.48    2.29
   3   5  15   47.45    1.03
   4   5  15   63.66    1.17
   5   5  15   27.61    1.01
   6   5  15    9.65    0.94
   7   5  15   36.45    1.50
   8   5  15    4.90    1.75
   9   5  15   -2.82    2.78
   0   6  15  109.69    2.10
   1   6  15    7.90    0.70
   2   6  15   38.74    0.94
   3   6  15   81.18    1.41
   4   6  15  151.48    1.91
   5   6  15    0.13    0.82
   6   6  15   28.36    1.32
   7   6  15   46.42    1.62
   8   6  15   -1.97    1.76
   9   6  15    9.65    3.08
   0   7  15    0.99    0.98
   1   7  15   82.34    1.42
   2   7  15   40.40    0.96
   3   7  15   13.87    0.80
   4   7  15    6.05    0.78
   5   7  15    2.05    0.81
   6   7  15    4.56    1.19
   7   7  15   20.50    1.47
   8   7  15   33.82    2.06
   9   7  15    0.93    3.79
   0   8  15   20.24    1.29
   1   8  15   67.84    1.34
   2   8  15    1.68    0.70
   3   8  15    3.07    0.80
   4   8  15    4.51    0.81
   5   8  15   11.73    0.92
   6   8  15  118.99    2.28
   7   8  15   25.24    1.64
   8   8  15   14.16    2.01
   9   8  15    4.19    3.95
   0   9  15    2.18    1.07
   1   9  15   19.38    0.89
   2   9  15   10.45    0.81
   3   9  15   15.11    0.90
   4   9  15   22.04    0.97
   5   9  15    2.99    0.96
   6   9  15   -1.39    1.16
   7   9  15    3.89    1.62
   8   9  15    2.34    2.15
   9   9  15    8.43    4.16
   0  10  15  699.26    8.55
   1  10  15   36.00    1.05
   2  10  15   94.88    1.70
   3  10  15  154.99    2.13
   4  10  15   38.49    1.19
   5  10  15    1.44    0.96
   6  10  15   19.06    1.27
   7  10  15   37.34    1.82
   8  10  15   23.55    2.41
   9  10  15   11.04    4.71
   0  11  15   -0.19    1.17
   1  11  15    3.99    0.90
   2  11  15    8.64    0.98
   3  11  15    9.78    0.99
   4  11  15   -0.07    0.97
   5  11  15    1.73    1.07
   6  11  15    0.67    1.40
   7  11  15    5.21    1.70
   8  11  15    0.38    2.67
   0  12  15   29.05    1.60
   1  12  15   26.20    1.06
   2  12  15   50.58    1.32
   3  12  15   75.11    1.60
   4  12  15   73.30    1.56
   5  12  15   -0.22    1.11
   6  12  15   44.01    1.80
   7  12  15    6.27    2.12
   8  12  15    8.74    3.38
   0  13  15    0.99    1.25
   1  13  15   17.43    1.08
   2  13  15    4.99    1.04
   3  13  15    0.93    1.08
   4  13  15    0.95    1.10
   5  13  15   22.87    1.42
   6  13  15    4.83    1.73
   7  13  15    5.60    2.20
   8  13  15    4.66    3.77
   0  14  15  136.95    2.97
   1  14  15    7.06    1.06
   2  14  15   12.78    1.15
   3  14  15   62.78    1.59
   4  14  15   50.70    1.48
   5  14  15   -0.32    1.39
   6  14  15   44.53    2.22
   7  14  15   17.17    2.43
   8  14  15   -2.24    4.38
   0  15  15    2.60    1.39
   1  15  15   15.72    1.17
   2  15  15    9.77    1.15
   3  15  15    5.19    1.20
   4  15  15    5.83    1.42
   5  15  15   16.81    1.57
   6  15  15    5.76    2.19
   7  15  15    4.05    2.75
   0  16  15   82.18    2.45
   1  16  15    7.02    1.19
   2  16  15    9.37    1.22
   3  16  15   10.94    1.38
   4  16  15   42.55    1.77
   5  16  15   -0.10    1.95
   6  16  15   43.45    2.61
   7  16  15    8.83    3.51
   0  17  15    0.74    1.59
   1  17  15   41.77    1.41
   2  17  15   57.68    1.76
   3  17  15    4.56    1.53
   4  17  15    8.69    1.68
   5  17  15   55.68    2.51
   6  17  15   -2.45    2.87
   7  17  15    5.26    4.13
   0  18  15   21.75    1.98
   1  18  15    2.08    1.27
   2  18  15    4.03    1.58
   3  18  15   -0.35    1.61
   4  18  15    5.41    1.98
   5  18  15   -0.32    2.46
   6  18  15   11.72    4.04
   0  19  15   -1.02    2.10
   1  19  15   44.07    1.77
   2  19  15   28.24    1.81
   3  19  15    1.11    1.82
   4  19  15   16.41    2.37
   5  19  15   10.87    3.30
   6  19  15    1.27    4.53
   0  20  15   13.08    2.52
   1  20  15    9.56    1.64
   2  20  15    4.29    1.96
   3  20  15    0.65    2.14
   4  20  15   -4.28    2.54
   5  20  15    1.89    3.95
   0  21  15    1.53    2.71
   1  21  15    8.55    2.08
   2  21  15   41.36    2.51
   3  21  15    2.73    2.72
   4  21  15   13.05    4.23
   0  22  15   -1.72    3.77
   1  22  15    1.13    2.56
   2  22  15    5.68    3.24
   3  22  15    1.24    4.93
   4  22  15   -1.13    6.12
   0  23  15   -6.09    6.69
   1  23  15    4.63    5.12
   2  23  15    4.74    5.46
   0  24  15    2.19    9.48
   0   0  16  694.90   11.82
   1   0  16   16.50    1.01
   2   0  16  215.44    3.32
   3   0  16  213.02    3.16
   4   0  16   40.66    1.51
   5   0  16    4.19    1.25
   6   0  16   25.76    1.47
   7   0  16    6.41    1.36
   8   0  16    7.78    2.23
   9   0  16   17.84    3.95
   0   1  16   -1.85    0.83
   1   1  16    0.31    0.63
   2   1  16    0.33    0.66
   3   1  16   12.80    0.78
   4   1  16   -1.05    0.76
   5   1  16   -0.43    0.84
   6   1  16    5.23    0.90
   7   1  16    0.30    1.10
   8   1  16    5.89    1.50
   9   1  16   -0.83    2.70
   0   2  16  219.25    3.21
   1   2  16  162.42    1.86
   2   2  16    5.57    0.68
   3   2  16  122.22    1.61
   4   2  16  240.88    2.61
   5   2  16    7.25    0.85
   6   2  16  193.90    2.26
   7   2  16   33.76    1.46
   8   2  16    6.59    1.77
   9   2  16   12.54    2.85
   0   3  16   -0.71    0.86
   1   3  16   64.15    1.20
   2   3  16    8.20    0.68
   3   3  16    0.91    0.68
   4   3  16   27.85    0.95
   5   3  16   44.35    1.12
   6   3  16    9.16    1.03
   7   3  16    2.46    1.19
   8   3  16    2.35    1.93
   9   3  16   21.12    3.21
   0   4  16  160.34    2.62
   1   4  16   36.86    0.91
   2   4  16   80.18    1.40
   3   4  16   10.67    0.75
   4   4  16   15.33    0.91
   5   4  16   18.99    0.90
   6   4  16    8.94    1.08
   7   4  16   48.30    1.62
   8   4  16   -0.08    1.86
   9   4  16    7.97    3.54
   0   5  16    1.44    0.92
   1   5  16   94.21    1.48
   2   5  16  129.12    1.73
   3   5  16   49.85    1.08
   4   5  16   97.59    1.58
   5   5  16   81.17    1.60
   6   5  16    3.18    1.06
   7   5  16    5.68    1.44
   8   5  16   22.19    2.08
   9   5  16   -3.16    3.71
   0   6  16   30.41    1.20
   1   6  16   48.68    1.09
   2   6  16    3.86    0.73
   3   6  16   49.74    1.13
   4   6  16    1.43    0.68
   5   6  16   15.39    1.05
   6   6  16   63.09    1.52
   7   6  16   15.02    1.51
   8   6  16    1.40    2.07
   9   6  16    1.13    4.14
   0   7  16    1.68    1.08
   1   7  16   11.75    0.79
   2   7  16   66.54    1.29
   3   7  16    0.77    0.77
   4   7  16   20.41    0.93
   5   7  16   51.40    1.26
   6   7  16   13.24    1.15
   7   7  16   34.38    1.74
   8   7  16    6.45    2.21
   9   7  16    3.99    4.33
   0   8  16   42.76    1.56
   1   8  16    5.62    0.83
   2   8  16    8.57    0.84
   3   8  16   12.03    0.86
   4   8  16   33.13    1.09
   5   8  16    2.32    0.84
   6   8  16   12.72    1.39
   7   8  16    0.60    1.64
   8   8  16    3.17    2.49
   9   8  16   -1.58    4.93
   0   9  16    4.50    1.27
   1   9  16  156.77    2.22
   2   9  16   91.31    1.72
   3   9  16   13.14    1.07
   4   9  16   38.20    1.15
   5   9  16   40.94    1.14
   6   9  16   12.30    1.36
   7   9  16    2.56    1.73
   8   9  16   27.54    2.73
   0  10  16    5.24    1.29
   1  10  16    2.53    0.88
   2  10  16   26.76    1.12
   3  10  16    2.06    0.95
   4  10  16   14.02    1.07
   5  10  16   -0.72    1.02
   6  10  16   -0.57    1.47
   7  10  16   -0.17    1.83
   8  10  16   -1.62    2.80
   0  11  16    1.74    1.31
   1  11  16   68.92    1.48
   2  11  16  207.08    2.54
   3  11  16    1.57    0.96
   4  11  16   68.50    1.51
   5  11  16   36.04    1.33
   6  11  16    0.81    1.43
   7  11  16    2.74    1.99
   8  11  16    6.50    3.36
   0  12  16    2.74    1.57
   1  12  16    2.79    1.00
   2  12  16    3.04    0.99
   3  12  16    7.61    1.14
   4  12  16   10.83    1.17
   5  12  16    3.31    1.29
   6  12  16    0.64    1.55
   7  12  16   -1.45    2.20
   8  12  16   -2.73    3.77
   0  13  16   -0.17    1.46
   1  13  16   32.06    1.25
   2  13  16   25.28    1.25
   3  13  16   15.61    1.22
   4  13  16   42.67    1.40
   5  13  16   45.56    1.76
   6  13  16   12.32    1.95
   7  13  16    0.28    2.39
   8  13  16   12.77    4.79
   0  14  16   -1.12    1.58
   1  14  16   30.61    1.27
   2  14  16    6.62    1.19
   3  14  16   35.79    1.45
   4  14  16   12.03    1.43
   5  14  16    2.69    1.56
   6  14  16    0.69    2.12
   7  14  16   10.65    2.76
   0  15  16    3.67    1.40
   1  15  16    6.78    1.18
   2  15  16   89.80    1.95
   3  15  16    3.97    1.42
   4  15  16   22.32    1.57
   5  15  16   23.85    1.98
   6  15  16    4.30    2.47
   7  15  16    2.37    3.35
   0  16  16   67.98    2.24
   1  16  16    9.05    1.34
   2  16  16   31.99    1.59
   3  16  16   38.72    1.81
   4  16  16    1.00    1.62
   5  16  16    0.79    2.16
   6  16  16    0.57    2.81
   7  16  16   -0.72    4.17
   0  17  16   -1.57    1.68
   1  17  16   10.50    1.43
   2  17  16   30.70    1.77
   3  17  16   -1.29    1.64
   4  17  16   25.70    1.96
   5  17  16    0.04    2.39
   6  17  16    5.47    3.68
   0  18  16   59.93    2.69
   1  18  16   13.99    1.70
   2  18  16    4.68    1.75
   3  18  16   30.43    2.03
   4  18  16   25.97    2.32
   5  18  16    0.64    2.73
   6  18  16   37.20    4.59
   0  19  16    0.10    2.28
   1  19  16   -0.58    1.76
   2  19  16   14.96    1.92
   3  19  16    3.63    2.03
   4  19  16   -2.30    2.46
   5  19  16    7.43    3.79
   0  20  16   10.77    2.62
   1  20  16   23.97    2.11
   2  20  16    7.85    2.10
   3  20  16   15.25    2.54
   4  20  16   -1.90    3.42
   5  20  16    9.31    4.66
   0  21  16    0.70    3.47
   1  21  16   -0.03    2.27
   2  21  16    2.97    2.48
   3  21  16    2.40    3.96
   4  21  16   -4.92    4.87
   0  22  16   44.07    7.16
   1  22  16    8.64    4.35
   2  22  16   15.59    5.51
   3  22  16    8.18    7.62
   0  23  16    3.23    8.12
   1  23  16    5.30    5.64
   0   0  17   -0.34    1.34
   1   0  17   -1.48    0.93
   2   0  17   -2.14    1.02
   3   0  17   -2.11    1.04
   4   0  17   -1.35    1.14
   5   0  17    0.29    1.28
   6   0  17    1.89    1.41
   7   0  17   -0.93    1.53
   8   0  17    1.29    2.66
   9   0  17   -2.89    5.51
   0   1  17    3.08    0.94
   1   1  17  132.57    1.70
   2   1  17  208.27    2.27
   3   1  17   42.76    1.07
   4   1  17  105.08    1.74
   5   1  17   83.53    1.55
   6   1  17    8.28    1.03
   7   1  17    3.86    1.09
   8   1  17   30.50    2.05
   9   1  17   22.75    5.26
   0   2  17    3.31    0.98
   1   2  17    1.28    0.68
   2   2  17   -0.32    0.71
   3   2  17   96.41    1.51
   4   2  17   12.37    0.90
   5   2  17    1.74    0.92
   6   2  17    4.05    0.92
   7   2  17    1.41    1.38
   8   2  17    9.12    2.01
   9   2  17    5.87    5.24
   0   3  17    4.71    0.96
   1   3  17   97.21    1.52
   2   3  17  199.37    2.16
   3   3  17   20.55    0.89
   4   3  17   80.03    1.59
   5   3  17   60.16    1.29
   6   3  17   32.20    1.13
   7   3  17   13.60    1.38
   8   3  17   30.31    2.31
   9   3  17    1.10    4.42
   0   4  17   78.65    1.92
   1   4  17    0.28    0.67
   2   4  17    4.74    0.77
   3   4  17   20.04    0.92
   4   4  17   61.76    1.34
   5   4  17    0.85    0.87
   6   4  17   42.70    1.41
   7   4  17   14.82    1.62
   8   4  17    2.43    2.18
   9   4  17   -3.29    4.62
   0   5  17    1.97    1.01
   1   5  17   61.17    1.18
   2   5  17    5.86    0.81
   3   5  17   16.58    0.92
   4   5  17   10.23    0.88
   5   5  17   13.44    1.07
   6   5  17   10.81    1.20
   7   5  17    2.86    1.56
   8   5  17   10.59    2.26
   9   5  17   -0.52    4.73
   0   6  17  273.52    3.98
   1   6  17   81.53    1.50
   2   6  17   98.97    1.69
   3   6  17   30.81    1.07
   4   6  17    2.84    0.77
   5   6  17   -0.73    1.04
   6   6  17    2.56    1.17
   7   6  17   37.90    1.81
   8   6  17   -1.55    2.31
   9   6  17    4.14    4.94
   0   7  17    0.80    1.14
   1   7  17    2.31    0.84
   2   7  17   49.13    1.20
   3   7  17   22.70    1.02
   4   7  17    8.91    0.94
   5   7  17   17.64    1.09
   6   7  17   12.31    1.25
   7   7  17    1.56    1.72
   8   7  17    1.21    2.49
   0   8  17  174.57    3.29
   1   8  17   64.28    1.42
   2   8  17    5.36    0.86
   3   8  17  193.21    2.39
   4   8  17   22.33    1.05
   5   8  17    9.82    1.05
   6   8  17   42.98    1.53
   7   8  17   48.56    2.16
   8   8  17    2.55    2.78
   0   9  17    1.84    1.28
   1   9  17    8.24    0.94
   2   9  17   26.07    1.09
   3   9  17    6.16    0.99
   4   9  17   28.27    1.13
   5   9  17    1.51    0.99
   6   9  17    1.85    1.59
   7   9  17    4.39    1.95
   8   9  17   -4.48    3.15
   0  10  17   90.70    2.63
   1  10  17   32.55    1.14
   2  10  17   10.87    1.05
   3  10  17   61.13    1.46
   4  10  17   36.31    1.26
   5  10  17    2.44    1.04
   6  10  17   39.25    1.79
   7  10  17    1.08    2.03
   8  10  17    1.50    3.74
   0  11  17    1.90    1.40
   1  11  17    6.66    0.99
   2  11  17   15.74    1.14
   3  11  17    9.25    1.09
   4  11  17    2.20    1.09
   5  11  17    1.43    1.12
   6  11  17    4.87    1.67
   7  11  17    2.60    2.17
   8  11  17   -3.47    4.23
   0  12  17   36.56    1.76
   1  12  17   33.99    1.27
   2  12  17    4.74    1.11
   3  12  17   50.44    1.40
   4  12  17   48.79    1.43
   5  12  17    0.55    1.40
   6  12  17   18.05    1.95
   7  12  17   34.90    2.56
   0  13  17    0.82    1.55
   1  13  17   11.07    1.21
   2  13  17    3.25    1.10
   3  13  17    5.98    1.19
   4  13  17    7.82    1.33
   5  13  17   13.23    1.51
   6  13  17    0.80    2.11
   7  13  17   -0.85    2.86
   0  14  17  149.28    3.51
   1  14  17   11.44    1.28
   2  14  17   45.30    1.51
   3  14  17   31.40    1.56
   4  14  17   12.05    1.58
   5  14  17    0.03    1.85
   6  14  17   12.76    2.52
   7  14  17    6.16    3.39
   0  15  17    1.81    1.70
   1  15  17   29.39    1.43
   2  15  17    5.36    1.48
   3  15  17    5.09    1.52
   4  15  17    1.38    1.62
   5  15  17   26.06    2.39
   6  15  17    0.02    2.78
   7  15  17    2.40    4.07
   0  16  17   95.93    3.23
   1  16  17    1.63    1.41
   2  16  17    8.55    1.64
   3  16  17    2.88    1.66
   4  16  17    8.88    1.87
   5  16  17    1.95    2.42
   6  16  17   22.02    3.81
   0  17  17    2.55    2.32
   1  17  17   35.03    1.79
   2  17  17   29.16    1.93
   3  17  17    7.62    1.81
   4  17  17   17.41    2.27
   5  17  17   25.13    2.87
   6  17  17    3.10    4.36
   0  18  17   27.21    2.31
   1  18  17    4.90    1.75
   2  18  17    3.72    1.89
   3  18  17    0.39    1.98
   4  18  17   17.20    2.44
   5  18  17   -0.78    3.58
   0  19  17    1.12    2.37
   1  19  17   29.38    2.21
   2  19  17   25.06    2.08
   3  19  17   -0.18    2.25
   4  19  17   14.07    3.43
   5  19  17   14.45    4.23
   0  20  17    0.91    3.32
   1  20  17   -1.99    2.22
   2  20  17    3.39    2.25
   3  20  17    4.74    2.84
   4  20  17   -1.27    4.56
   0  21  17    0.58    4.66
   1  21  17   11.50    3.47
   2  21  17    8.92    3.60
   3  21  17   -1.03    6.15
   0  22  17   -1.52    7.29
   1  22  17    0.20    6.30
   2  22  17   15.79    7.60
   0   0  18   16.98    1.54
   1   0  18  172.25    2.83
   2   0  18   59.62    1.92
   3   0  18  315.04    4.51
   4   0  18   94.35    2.38
   5   0  18    2.23    1.43
   6   0  18   62.07    2.12
   7   0  18   17.88    1.84
   8   0  18    5.03    3.04
   9   0  18   15.82   13.54
   0   1  18    0.04    1.01
   1   1  18    3.04    0.77
   2   1  18    5.86    0.84
   3   1  18    3.71    0.85
   4   1  18    8.46    0.90
   5   1  18   16.39    1.05
   6   1  18    0.55    1.09
   7   1  18   10.15    1.24
   8   1  18    1.19    2.31
   9   1  18    4.21    5.53
   0   2  18  162.88    2.78
   1   2  18    2.86    0.75
   2   2  18   47.71    1.16
   3   2  18   72.97    1.41
   4   2  18  107.07    1.82
   5   2  18   -0.08    0.93
   6   2  18   22.31    1.11
   7   2  18   41.77    1.58
   8   2  18    5.28    2.38
   9   2  18    3.11    5.65
   0   3  18   -0.94    1.04
   1   3  18   12.86    0.82
   2   3  18   45.96    1.09
   3   3  18   56.93    1.25
   4   3  18   28.55    1.11
   5   3  18   42.04    1.16
   6   3  18    0.20    1.08
   7   3  18   29.35    1.82
   8   3  18   12.27    2.55
   0   4  18  168.43    2.97
   1   4  18   62.37    1.37
   2   4  18    9.63    0.92
   3   4  18   36.55    1.03
   4   4  18   12.50    1.01
   5   4  18    1.66    0.96
   6   4  18   67.73    1.71
   7   4  18   38.47    1.88
   8   4  18   -0.75    2.47
   0   5  18    0.97    1.13
   1   5  18   95.81    1.62
   2   5  18  125.05    1.90
   3   5  18   29.64    1.02
   4   5  18    3.97    0.94
   5   5  18    0.38    1.09
   6   5  18   13.80    1.36
   7   5  18    0.33    1.84
   8   5  18    7.34    2.68
   0   6  18  243.32    3.94
   1   6  18    4.25    0.85
   2   6  18    3.33    0.89
   3   6  18   50.10    1.24
   4   6  18   48.24    1.20
   5   6  18    3.18    1.20
   6   6  18    6.07    1.35
   7   6  18    8.40    1.88
   8   6  18    0.68    3.29
   0   7  18    5.21    1.32
   1   7  18  222.88    2.56
   2   7  18    2.59    0.87
   3   7  18   32.06    1.09
   4   7  18   30.28    1.15
   5   7  18   74.28    1.71
   6   7  18    1.97    1.34
   7   7  18    3.52    2.01
   8   7  18   16.06    3.72
   0   8  18    2.09    1.33
   1   8  18    4.63    0.95
   2   8  18    5.10    0.91
   3   8  18    6.92    0.95
   4   8  18    9.86    1.06
   5   8  18   -0.62    1.13
   6   8  18    9.42    1.44
   7   8  18   -1.04    2.03
   8   8  18   14.17    3.91
   0   9  18    1.56    1.31
   1   9  18   24.16    1.08
   2   9  18   65.20    1.45
   3   9  18   19.02    1.14
   4   9  18   17.97    1.15
   5   9  18   88.63    1.78
   6   9  18    4.19    1.60
   7   9  18   14.14    2.25
   8   9  18   10.40    4.57
   0  10  18   26.94    1.61
   1  10  18    2.78    1.07
   2  10  18    1.48    1.03
   3  10  18    2.05    1.08
   4  10  18    4.16    1.16
   5  10  18   -0.28    1.22
   6  10  18    2.53    1.72
   7  10  18    0.16    2.42
   8  10  18   -0.82    5.18
   0  11  18    0.26    1.47
   1  11  18   46.09    1.35
   2  11  18   31.59    1.29
   3  11  18    5.14    1.18
   4  11  18   50.68    1.56
   5  11  18   30.00    1.46
   6  11  18   -0.89    1.97
   7  11  18    2.88    2.69
   0  12  18    4.47    1.69
   1  12  18    8.30    1.17
   2  12  18    3.41    1.18
   3  12  18   14.27    1.29
   4  12  18   -0.46    1.35
   5  12  18    0.87    1.40
   6  12  18    0.92    2.07
   7  12  18    2.11    2.93
   0  13  18    4.29    1.86
   1  13  18   17.35    1.34
   2  13  18   93.28    1.98
   3  13  18    6.82    1.35
   4  13  18   22.29    1.63
   5  13  18   45.34    2.09
   6  13  18    4.09    2.34
   7  13  18    8.72    3.86
   0  14  18   -0.62    1.79
   1  14  18   10.93    1.38
   2  14  18    5.38    1.50
   3  14  18   25.45    1.70
   4  14  18   14.29    1.70
   5  14  18   -1.62    2.06
   6  14  18    2.52    2.80
   7  14  18    7.71    4.24
   0  15  18    3.29    1.90
   1  15  18   40.53    1.84
   2  15  18   42.47    1.86
   3  15  18    3.36    1.65
   4  15  18   36.30    2.02
   5  15  18   -0.02    2.36
   6  15  18    2.09    3.61
   0  16  18    5.62    2.25
   1  16  18   21.02    1.89
   2  16  18    6.47    1.69
   3  16  18   42.48    2.06
   4  16  18    2.20    2.04
   5  16  18   -0.13    2.72
   6  16  18   -6.32    4.27
   0  17  18    1.02    2.50
   1  17  18   -1.49    1.91
   2  17  18   37.62    2.18
   3  17  18   -0.39    2.02
   4  17  18    2.77    2.39
   5  17  18    2.20    3.58
   0  18  18   14.04    3.04
   1  18  18    3.88    1.95
   2  18  18   16.27    2.21
   3  18  18   15.84    2.29
   4  18  18   13.44    3.18
   5  18  18    2.92    4.04
   0  19  18    5.62    3.28
   1  19  18    3.10    2.23
   2  19  18    0.30    2.20
   3  19  18   -2.75    2.68
   4  19  18    2.77    4.22
   0  20  18   28.84    4.29
   1  20  18    6.10    2.69
   2  20  18   -0.27    3.34
   3  20  18   20.30    4.72
   0  21  18   -3.88    6.86
   1  21  18    9.41    4.78
   2  21  18  -14.70    7.23
   0  22  18   19.78    9.34
   0   0  19    2.09    1.67
   1   0  19    0.94    1.18
   2   0  19    0.24    1.28
   3   0  19    0.45    1.20
   4   0  19   -2.88    1.29
   5   0  19   -0.27    1.47
   6   0  19    0.36    1.65
   7   0  19   -2.00    2.18
   8   0  19    2.02    4.48
   0   1  19    2.74    1.24
   1   1  19   63.91    1.32
   2   1  19   91.55    1.71
   3   1  19   22.81    0.99
   4   1  19   84.21    1.64
   5   1  19   69.95    1.50
   6   1  19    4.27    1.20
   7   1  19    8.09    1.63
   8   1  19    8.89    3.39
   0   2  19   23.28    1.40
   1   2  19   17.80    0.95
   2   2  19   12.08    0.89
   3   2  19    6.11    0.83
   4   2  19   66.27    1.39
   5   2  19    3.55    1.04
   6   2  19    1.98    1.14
   7   2  19    2.99    1.89
   8   2  19    1.67    3.75
   0   3  19    4.63    1.20
   1   3  19   33.34    1.02
   2   3  19   49.88    1.16
   3   3  19    0.64    0.88
   4   3  19   15.54    1.12
   5   3  19   31.25    1.24
   6   3  19    1.29    1.29
   7   3  19    4.11    2.01
   8   3  19   17.39    3.80
   0   4  19   32.66    1.45
   1   4  19   42.85    1.12
   2   4  19   26.37    1.06
   3   4  19    8.32    0.94
   4   4  19    1.37    1.05
   5   4  19    0.81    1.06
   6   4  19    4.48    1.29
   7   4  19   21.67    2.05
   8   4  19    3.43    4.55
   0   5  19    2.78    1.16
   1   5  19  182.44    2.22
   2   5  19   70.58    1.44
   3   5  19    7.62    0.97
   4   5  19   14.95    1.13
   5   5  19   22.74    1.30
   6   5  19   16.43    1.56
   7   5  19    4.14    2.02
   8   5  19   10.17    4.40
   0   6  19   41.29    1.55
   1   6  19   30.39    1.11
   2   6  19    5.43    1.02
   3   6  19   74.69    1.48
   4   6  19   30.11    1.08
   5   6  19    1.03    1.29
   6   6  19   53.85    1.84
   7   6  19   10.16    2.14
   8   6  19   -2.24    4.52
   0   7  19    0.80    1.42
   1   7  19    0.78    0.93
   2   7  19   41.38    1.25
   3   7  19   10.00    1.02
   4   7  19   12.82    0.99
   5   7  19   39.96    1.52
   6   7  19    2.73    1.58
   7   7  19    7.59    2.23
   8   7  19   -1.81    4.69
   0   8  19   19.13    1.64
   1   8  19   46.46    1.31
   2   8  19   50.97    1.33
   3   8  19   75.02    1.55
   4   8  19    0.71    1.08
   5   8  19    6.15    1.35
   6   8  19   13.28    1.76
   7   8  19   17.33    2.46
   8   8  19    6.50    5.34
   0   9  19   -0.17    1.38
   1   9  19    9.29    1.11
   2   9  19    1.08    1.04
   3   9  19    1.42    1.11
   4   9  19    6.12    1.17
   5   9  19    0.28    1.39
   6   9  19    4.03    1.95
   7   9  19    1.69    2.63
   0  10  19   30.23    1.78
   1  10  19   16.86    1.18
   2  10  19    6.13    1.13
   3  10  19   62.92    1.66
   4  10  19   12.17    1.37
   5  10  19    1.94    1.33
   6  10  19    9.52    2.02
   7  10  19   21.01    3.24
   0  11  19    0.46    1.64
   1  11  19   22.47    1.25
   2  11  19    4.15    1.26
   3  11  19    4.17    1.39
   4  11  19    3.15    1.41
   5  11  19    3.42    1.62
   6  11  19    3.58    2.18
   7  11  19   -4.02    3.75
   0  12  19   69.16    2.31
   1  12  19   31.47    1.43
   2  12  19   35.74    1.51
   3  12  19   32.35    1.58
   4  12  19   14.43    1.63
   5  12  19    2.76    1.88
   6  12  19   16.08    2.52
   7  12  19   21.17    4.42
   0  13  19   -1.11    1.86
   1  13  19    6.48    1.39
   2  13  19   -1.79    1.48
   3  13  19    8.00    1.58
   4  13  19    3.76    1.71
   5  13  19   23.18    2.36
   6  13  19    4.01    2.96
   0  14  19   43.16    2.79
   1  14  19   11.99    1.71
   2  14  19    5.03    1.70
   3  14  19   14.69    1.80
   4  14  19   58.72    2.17
   5  14  19   -2.24    2.47
   6  14  19   27.99    4.21
   0  15  19   -1.78    2.51
   1  15  19   32.68    2.01
   2  15  19    4.22    1.82
   3  15  19    5.69    1.89
   4  15  19    2.22    2.00
   5  15  19   20.80    2.74
   6  15  19    4.20    4.48
   0  16  19   15.87    3.27
   1  16  19    4.92    1.93
   2  16  19   10.81    1.94
   3  16  19    5.77    1.98
   4  16  19    6.95    2.44
   5  16  19    1.55    3.89
   0  17  19    0.39    3.18
   1  17  19   22.61    2.27
   2  17  19   10.32    2.16
   3  17  19    1.93    2.17
   4  17  19    7.83    3.08
   5  17  19   -3.81    4.00
   0  18  19   38.36    3.68
   1  18  19    2.60    2.34
   2  18  19    4.17    2.17
   3  18  19    0.30    2.59
   4  18  19   -0.81    4.05
   0  19  19    6.59    3.96
   1  19  19   13.08    2.64
   2  19  19    5.46    2.85
   3  19  19   -2.44    5.15
   0  20  19    0.77    4.97
   1  20  19    3.61    4.17
   2  20  19    7.10    4.93
   0  21  19   22.80    9.57
   1  21  19   20.96    6.69
   0   0  20   74.02    2.81
   1   0  20   11.84    1.32
   2   0  20    4.37    1.31
   3   0  20    7.01    1.36
   4   0  20  125.02    2.92
   5   0  20   12.90    1.72
   6   0  20   38.59    2.19
   7   0  20   55.99    4.01
   8   0  20   -0.32    8.83
   0   1  20   -1.20    1.18
   1   1  20   13.97    0.96
   2   1  20   23.13    1.10
   3   1  20   -0.09    0.97
   4   1  20    7.84    1.03
   5   1  20    5.05    1.14
   6   1  20    3.56    1.29
   7   1  20    2.33    2.27
   8   1  20   10.14    6.05
   0   2  20  131.63    2.63
   1   2  20   69.13    1.37
   2   2  20   43.68    1.21
   3   2  20   54.97    1.27
   4   2  20    2.91    0.97
   5   2  20   -0.72    1.07
   6   2  20   11.51    1.29
   7   2  20   17.06    2.41
   8   2  20   -2.16    5.04
   0   3  20    1.65    1.21
   1   3  20   42.38    1.17
   2   3  20   14.99    0.97
   3   3  20    0.79    0.97
   4   3  20   17.35    1.23
   5   3  20   13.01    1.26
   6   3  20    1.27    1.09
   7   3  20    2.51    2.35
   8   3  20   -7.59    5.23
   0   4  20   95.97    2.38
   1   4  20   16.17    0.97
   2   4  20    5.19    0.99
   3   4  20  153.62    2.16
   4   4  20   45.24    1.41
   5   4  20    0.65    1.19
   6   4  20   56.09    1.89
   7   4  20   11.27    2.45
   8   4  20   -2.38    5.33
   0   5  20    0.18    1.22
   1   5  20   16.51    1.07
   2   5  20    0.12    1.00
   3   5  20   12.67    1.07
   4   5  20    0.54    1.12
   5   5  20   30.37    1.52
   6   5  20    0.05    1.74
   7   5  20   -0.50    2.47
   8   5  20    3.14    5.49
   0   6  20    9.49    1.30
   1   6  20   27.21    1.15
   2   6  20   15.52    1.11
   3   6  20   19.53    1.14
   4   6  20    1.80    1.00
   5   6  20    3.22    1.48
   6   6  20    7.73    1.93
   7   6  20    3.16    2.52
   8   6  20   -1.77    6.32
   0   7  20   -0.93    1.38
   1   7  20   34.78    1.22
   2   7  20   68.23    1.51
   3   7  20    7.28    1.08
   4   7  20   12.63    1.10
   5   7  20   63.40    1.92
   6   7  20    5.19    1.87
   7   7  20   -3.30    2.88
   0   8  20   12.18    1.66
   1   8  20   17.16    1.20
   2   8  20   12.11    1.15
   3   8  20   -0.66    1.06
   4   8  20    3.64    1.27
   5   8  20   -1.23    1.44
   6   8  20   -0.53    2.03
   7   8  20    7.89    3.45
   0   9  20    0.59    1.62
   1   9  20   72.75    1.67
   2   9  20   20.25    1.23
   3   9  20    3.74    1.16
   4   9  20   30.97    1.51
   5   9  20   49.48    1.86
   6   9  20    1.89    2.17
   7   9  20    1.79    3.88
   0  10  20    5.17    1.76
   1  10  20    4.68    1.20
   2  10  20    2.10    1.18
   3  10  20    6.31    1.45
   4  10  20    8.51    1.52
   5  10  20   -0.86    1.77
   6  10  20    4.63    2.35
   7  10  20   18.99    4.79
   0  11  20    2.96    1.74
   1  11  20   56.65    1.57
   2  11  20   38.79    1.63
   3  11  20    1.15    1.52
   4  11  20    3.47    1.57
   5  11  20   28.57    2.36
   6  11  20    2.38    2.53
   7  11  20    7.20    5.05
   0  12  20   -0.17    1.91
   1  12  20   12.88    1.57
   2  12  20    2.25    1.60
   3  12  20   26.35    1.85
   4  12  20   -0.31    1.72
   5  12  20   -1.46    2.26
   6  12  20   -8.08    3.31
   0  13  20    2.40    2.41
   1  13  20   28.13    1.87
   2  13  20   47.84    2.00
   3  13  20   15.22    1.84
   4  13  20   31.50    2.09
   5  13  20   30.40    2.73
   6  13  20   -5.62    4.73
   0  14  20    4.24    2.69
   1  14  20    4.27    1.94
   2  14  20   -2.54    1.93
   3  14  20    8.93    2.07
   4  14  20   11.01    2.14
   5  14  20    0.72    3.14
   6  14  20   -5.80    5.00
   0  15  20   -6.15    2.66
   1  15  20    0.32    2.19
   2  15  20   28.44    2.18
   3  15  20    4.65    2.24
   4  15  20    0.00    2.69
   5  15  20   -1.47    4.60
   0  16  20    0.44    3.16
   1  16  20   11.31    2.30
   2  16  20    1.35    2.08
   3  16  20   18.65    2.40
   4  16  20   12.06    3.60
   5  16  20   -0.59    4.46
   0  17  20    3.64    3.69
   1  17  20    2.38    2.28
   2  17  20    6.74    2.40
   3  17  20   -2.33    2.59
   4  17  20    1.12    4.21
   0  18  20   27.27    4.28
   1  18  20   18.05    2.64
   2  18  20    5.48    2.89
   3  18  20   15.07    4.52
   0  19  20    4.86    5.70
   1  19  20    0.06    3.84
   2  19  20   16.13    4.17
   3  19  20   -2.66    6.24
   0  20  20   12.17    9.55
   1  20  20    7.61    5.83
   0   0  21    4.92    1.89
   1   0  21    2.26    1.37
   2   0  21   -1.13    1.38
   3   0  21   -0.88    1.37
   4   0  21   -0.72    1.54
   5   0  21   -1.39    1.80
   6   0  21   -0.11    2.12
   7   0  21    1.78    4.34
   8   0  21   -0.09    9.59
   0   1  21    1.22    1.28
   1   1  21   71.87    1.49
   2   1  21   81.00    1.61
   3   1  21    1.58    1.04
   4   1  21   31.01    1.28
   5   1  21   17.13    1.34
   6   1  21    1.38    1.59
   7   1  21    8.70    3.02
   0   2  21   11.89    1.48
   1   2  21    8.21    0.98
   2   2  21    0.66    0.97
   3   2  21   17.46    0.97
   4   2  21    3.01    1.22
   5   2  21   -0.88    1.35
   6   2  21    6.27    1.63
   7   2  21    4.60    3.07
   0   3  21    5.26    1.38
   1   3  21   59.02    1.38
   2   3  21   12.39    0.96
   3   3  21   28.70    1.22
   4   3  21   21.05    1.34
   5   3  21   81.93    1.97
   6   3  21    3.23    1.69
   7   3  21   -3.68    3.32
   0   4  21   38.53    1.69
   1   4  21   17.69    1.04
   2   4  21    8.83    1.13
   3   4  21   44.82    1.36
   4   4  21    2.98    1.26
   5   4  21   -0.81    1.39
   6   4  21    3.15    1.93
   7   4  21    0.50    3.49
   0   5  21   -1.25    1.32
   1   5  21    1.23    1.08
   2   5  21   23.61    1.21
   3   5  21   15.01    1.20
   4   5  21    6.39    1.33
   5   5  21   46.36    1.69
   6   5  21    2.40    2.08
   7   5  21    7.54    3.57
   0   6  21    2.02    1.34
   1   6  21    2.14    1.14
   2   6  21   10.16    1.11
   3   6  21   56.61    1.48
   4   6  21   11.08    1.17
   5   6  21    4.04    1.63
   6   6  21    8.55    2.10
   7   6  21   -2.58    3.63
   0   7  21    2.46    1.58
   1   7  21   55.46    1.54
   2   7  21    6.69    1.17
   3   7  21    2.11    1.21
   4   7  21   17.54    1.30
   5   7  21   -0.54    1.78
   6   7  21   -2.59    2.14
   7   7  21    6.57    3.97
   0   8  21  126.54    3.24
   1   8  21   30.80    1.35
   2   8  21    5.01    1.17
   3   8  21   85.04    1.91
   4   8  21    1.00    1.44
   5   8  21    3.67    1.80
   6   8  21    4.23    2.30
   7   8  21   27.52    5.09
   0   9  21   -0.65    1.81
   1   9  21    2.52    1.22
   2   9  21   19.14    1.44
   3   9  21   -0.87    1.32
   4   9  21    1.86    1.51
   5   9  21    3.26    1.97
   6   9  21   -0.31    2.47
   7   9  21    4.74    5.09
   0  10  21    6.34    1.99
   1  10  21   27.41    1.56
   2  10  21    0.11    1.51
   3  10  21   69.06    2.20
   4  10  21   26.20    1.84
   5  10  21    2.11    2.19
   6  10  21   13.73    3.03
   0  11  21    3.71    2.11
   1  11  21    6.54    1.56
   2  11  21    5.83    1.69
   3  11  21    2.52    1.73
   4  11  21    1.07    1.83
   5  11  21    6.31    2.39
   6  11  21    6.36    3.88
   0  12  21   46.35    2.87
   1  12  21   19.88    1.82
   2  12  21    8.28    1.84
   3  12  21   39.88    2.09
   4  12  21    7.24    1.93
   5  12  21    5.10    2.62
   6  12  21   13.18    4.47
   0  13  21   -2.19    2.77
   1  13  21   23.43    1.98
   2  13  21   -1.55    1.93
   3  13  21    1.32    2.06
   4  13  21   -0.83    2.30
   5  13  21    2.35    3.41
   0  14  21   25.97    3.34
   1  14  21    4.60    2.17
   2  14  21    1.90    2.14
   3  14  21    3.76    2.08
   4  14  21    4.15    2.66
   5  14  21   -4.26    4.67
   0  15  21   -5.12    3.00
   1  15  21    3.26    2.41
   2  15  21    4.38    2.30
   3  15  21    4.77    2.33
   4  15  21    7.22    3.50
   5  15  21   10.93    5.21
   0  16  21   24.38    3.72
   1  16  21   -4.16    2.36
   2  16  21   -2.70    2.38
   3  16  21    2.67    2.81
   4  16  21    7.34    5.27
   0  17  21    1.44    3.57
   1  17  21    3.32    2.65
   2  17  21    1.51    2.93
   3  17  21    0.90    4.36
   0  18  21    6.74    5.26
   1  18  21   -2.91    3.77
   2  18  21   -0.21    4.35
   3  18  21   -2.65    6.66
   0  19  21   14.10    6.33
   1  19  21   13.19    5.17
   0   0  22   11.86    2.12
   1   0  22   90.76    2.53
   2   0  22    0.76    1.54
   3   0  22    6.63    1.60
   4   0  22    1.33    1.68
   5   0  22    2.82    1.98
   6   0  22   59.20    3.30
   7   0  22   42.65    9.26
   0   1  22   -1.79    1.51
   1   1  22   14.16    1.15
   2   1  22    2.34    1.06
   3   1  22   -0.18    1.05
   4   1  22   -1.29    1.22
   5   1  22    0.91    1.43
   6   1  22    5.95    1.97
   7   1  22   12.91    5.48
   0   2  22   73.51    2.41
   1   2  22    9.98    1.05
   2   2  22    5.72    1.07
   3   2  22   70.50    1.43
   4   2  22   26.29    1.52
   5   2  22    6.93    1.57
   6   2  22    4.27    2.32
   7   2  22   15.80    5.37
   0   3  22   -0.49    1.42
   1   3  22   45.75    1.32
   2   3  22    5.01    1.13
   3   3  22   -1.01    1.17
   4   3  22    3.04    1.51
   5   3  22    1.06    1.56
   6   3  22    0.06    2.19
   7   3  22   -5.36    5.29
   0   4  22   22.29    1.65
   1   4  22   18.60    1.13
   2   4  22   52.78    1.44
   3   4  22   61.83    1.63
   4   4  22    3.25    1.51
   5   4  22    2.38    1.55
   6   4  22    1.51    2.37
   7   4  22   -2.32    5.83
   0   5  22    0.18    1.48
   1   5  22    7.26    1.14
   2   5  22   12.92    1.28
   3   5  22    6.52    1.31
   4   5  22    7.42    1.53
   5   5  22   52.44    2.00
   6   5  22   -1.53    2.35
   7   5  22    4.97    5.89
   0   6  22   18.11    1.58
   1   6  22    2.74    1.16
   2   6  22    5.47    1.29
   3   6  22   29.61    1.50
   4   6  22    4.42    1.31
   5   6  22    2.62    1.88
   6   6  22   -3.68    2.39
   7   6  22   -1.96    7.15
   0   7  22   -1.32    1.75
   1   7  22   39.61    1.43
   2   7  22    7.35    1.34
   3   7  22    5.70    1.44
   4   7  22    4.63    1.46
   5   7  22   15.81    2.15
   6   7  22    0.64    2.54
   0   8  22   18.13    2.16
   1   8  22    3.60    1.46
   2   8  22    1.50    1.39
   3   8  22    2.55    1.45
   4   8  22   11.33    1.71
   5   8  22    4.67    2.09
   6   8  22   17.35    3.34
   0   9  22   -2.45    2.09
   1   9  22   72.43    2.09
   2   9  22   24.23    1.69
   3   9  22    4.88    1.59
   4   9  22    4.72    1.79
   5   9  22   39.28    2.64
   6   9  22   -8.72    3.74
   0  10  22    3.94    2.27
   1  10  22    3.64    1.70
   2  10  22    0.32    1.67
   3  10  22    0.33    1.87
   4  10  22   -0.29    2.09
   5  10  22   -4.68    2.57
   6  10  22   -3.57    4.31
   0  11  22    7.61    2.83
   1  11  22   39.59    1.99
   2  11  22    4.99    1.97
   3  11  22   15.08    2.04
   4  11  22   19.80    2.36
   5  11  22   44.00    3.96
   6  11  22    1.44    4.88
   0  12  22   -2.23    2.64
   1  12  22   -0.34    1.78
   2  12  22    2.26    2.02
   3  12  22    6.73    2.10
   4  12  22    8.26    2.37
   5  12  22    5.29    4.04
   0  13  22    4.00    3.08
   1  13  22   16.69    2.18
   2  13  22   22.11    2.44
   3  13  22    1.05    2.16
   4  13  22    6.37    3.02
   5  13  22    3.43    4.78
   0  14  22   -3.37    3.47
   1  14  22    6.27    2.42
   2  14  22    1.28    2.32
   3  14  22   26.04    2.52
   4  14  22   -3.04    3.31
   0  15  22    1.11    3.33
   1  15  22    1.35    2.50
   2  15  22    2.73    2.50
   3  15  22    7.90    3.01
   4  15  22    2.42    5.92
   0  16  22    0.03    3.97
   1  16  22    2.60    3.21
   2  16  22    0.11    3.57
   3  16  22    2.18    5.10
   0  17  22   -1.08    5.39
   1  17  22   -2.74    3.99
   2  17  22   13.57    4.57
   0  18  22   -2.00    6.28
   1  18  22    0.75    4.96
   0   0  23    1.99    2.24
   1   0  23    1.27    1.55
   2   0  23    0.55    1.68
   3   0  23   -0.60    1.91
   4   0  23    1.28    1.96
   5   0  23    3.53    2.55
   6   0  23   -6.37    3.99
   7   0  23  -16.48   15.04
   0   1  23    1.68    1.57
   1   1  23   29.92    1.29
   2   1  23    5.45    1.30
   3   1  23   10.49    1.20
   4   1  23    3.58    1.38
   5   1  23   38.16    2.15
   6   1  23    6.45    2.80
   7   1  23   -3.02   10.16
   0   2  23   15.24    1.67
   1   2  23    2.03    1.15
   2   2  23    4.29    1.26
   3   2  23    0.89    1.41
   4   2  23    9.30    1.62
   5   2  23    3.98    1.77
   6   2  23    4.44    2.76
   7   2  23   -0.26    7.54
   0   3  23    0.14    1.62
   1   3  23   40.68    1.38
   2   3  23   52.78    1.74
   3   3  23    3.45    1.43
   4   3  23   14.36    1.76
   5   3  23   12.82    1.82
   6   3  23    1.00    3.04
   0   4  23    0.12    1.59
   1   4  23    3.55    1.19
   2   4  23    0.96    1.39
   3   4  23    8.85    1.50
   4   4  23   10.17    1.73
   5   4  23    2.39    1.95
   6   4  23    5.85    3.46
   0   5  23    1.02    1.78
   1   5  23   22.42    1.57
   2   5  23    9.45    1.49
   3   5  23    8.11    1.56
   4   5  23   20.25    1.86
   5   5  23   20.99    2.17
   6   5  23    3.31    3.86
   0   6  23   12.71    1.99
   1   6  23   33.85    1.72
   2   6  23   11.50    1.59
   3   6  23   49.95    1.86
   4   6  23   -0.64    1.77
   5   6  23    1.57    2.21
   6   6  23    5.80    4.72
   0   7  23    1.21    2.30
   1   7  23   14.80    1.60
   2   7  23   12.91    1.64
   3   7  23   -1.13    1.60
   4   7  23    2.29    1.80
   5   7  23    6.29    2.52
   6   7  23   -0.80    4.31
   0   8  23    9.67    2.61
   1   8  23   14.97    1.78
   2   8  23    3.46    1.57
   3   8  23   47.58    1.98
   4   8  23   12.17    2.21
   5   8  23    3.41    2.60
   6   8  23    6.43    4.54
   0   9  23   -3.24    2.54
   1   9  23    1.88    1.87
   2   9  23    7.73    1.76
   3   9  23    6.40    1.79
   4   9  23   13.00    2.32
   5   9  23   10.60    3.02
   6   9  23   -8.31    5.24
   0  10  23   26.74    2.92
   1  10  23   22.50    1.99
   2  10  23    5.08    1.92
   3  10  23   32.87    2.21
   4  10  23    0.17    2.41
   5  10  23    4.27    3.91
   0  11  23   -2.40    2.72
   1  11  23    2.99    1.93
   2  11  23   -3.72    2.11
   3  11  23    1.65    2.20
   4  11  23   -5.19    2.57
   5  11  23    8.71    5.02
   0  12  23   11.58    2.99
   1  12  23   15.08    2.11
   2  12  23    1.07    2.38
   3  12  23   11.72    2.33
   4  12  23   18.33    3.49
   5  12  23    5.69    5.88
   0  13  23   -0.53    3.46
   1  13  23   15.62    2.33
   2  13  23   -0.49    2.48
   3  13  23   -0.55    2.82
   4  13  23   -1.09    4.17
   0  14  23   25.06    3.74
   1  14  23    9.56    2.62
   2  14  23    7.14    2.72
   3  14  23   12.55    3.66
   4  14  23    4.01    5.30
   0  15  23   -6.79    4.67
   1  15  23   20.90    3.85
   2  15  23   10.57    4.10
   3  15  23    6.26    5.54
   0  16  23    4.08    6.15
   1  16  23    1.15    4.44
   2  16  23    0.38    4.55
   0  17  23   -3.14    6.75
   1  17  23    2.74    5.03
   0   0  24  173.25    7.38
   1   0  24    8.15    2.08
   2   0  24   15.85    2.15
   3   0  24   65.16    2.89
   4   0  24    4.94    2.55
   5   0  24   -0.62    2.81
   6   0  24    2.65    6.48
   0   1  24   -0.22    2.12
   1   1  24    5.39    1.48
   2   1  24    4.10    1.55
   3   1  24    6.23    1.39
   4   1  24    3.78    1.69
   5   1  24    6.28    2.08
   6   1  24   -0.42    5.22
   0   2  24   -1.31    2.04
   1   2  24   24.63    1.61
   2   2  24    0.63    1.44
   3   2  24   18.27    1.71
   4   2  24    3.78    1.77
   5   2  24    3.80    2.33
   6   2  24   13.93    5.45
   0   3  24   -2.20    2.11
   1   3  24    0.47    1.44
   2   3  24   -2.62    1.65
   3   3  24    0.11    1.60
   4   3  24    1.54    1.90
   5   3  24    6.27    2.49
   6   3  24   -5.74    5.48
   0   4  24   14.78    2.34
   1   4  24   10.81    1.46
   2   4  24    2.88    1.69
   3   4  24   21.31    1.78
   4   4  24   15.04    2.02
   5   4  24    4.29    2.46
   6   4  24    4.95    5.99
   0   5  24   -6.51    2.07
   1   5  24   28.85    1.86
   2   5  24    4.34    1.68
   3   5  24    2.17    1.73
   4   5  24   11.78    2.02
   5   5  24    6.66    2.44
   6   5  24   -2.52    6.88
   0   6  24   11.33    2.67
   1   6  24   16.24    1.75
   2   6  24    5.23    1.66
   3   6  24   29.12    1.90
   4   6  24    6.92    2.08
   5   6  24    1.10    2.71
   6   6  24   17.36    7.54
   0   7  24    1.07    2.63
   1   7  24   27.79    1.93
   2   7  24    4.52    1.83
   3   7  24    7.25    1.81
   4   7  24    5.84    2.26
   5   7  24   24.45    3.35
   0   8  24   23.61    2.88
   1   8  24    2.30    1.94
   2   8  24    1.22    1.89
   3   8  24    1.23    1.97
   4   8  24    8.41    2.47
   5   8  24    3.71    4.13
   0   9  24   -0.84    2.73
   1   9  24   30.24    2.17
   2   9  24    7.66    2.07
   3   9  24    1.69    2.09
   4   9  24   12.85    2.74
   5   9  24   41.29    7.03
   0  10  24    5.12    2.92
   1  10  24   -1.48    2.04
   2  10  24    1.07    2.14
   3  10  24    6.96    2.39
   4  10  24    2.14    3.23
   5  10  24    8.87    7.84
   0  11  24    0.96    2.96
   1  11  24   14.80    2.22
   2  11  24   27.34    2.67
   3  11  24    7.54    2.60
   4  11  24    9.83    3.88
   0  12  24    3.67    3.19
   1  12  24    0.54    2.21
   2  12  24    0.57    2.49
   3  12  24    8.15    3.43
   4  12  24    3.24    5.06
   0  13  24   -0.77    4.03
   1  13  24   17.16    2.94
   2  13  24   -4.67    3.50
   3  13  24   -2.95    3.92
   0  14  24   -2.36    5.30
   1  14  24    8.80    4.02
   2  14  24    4.38    4.14
   3  14  24    8.62    5.23
   0  15  24   -2.44    5.72
   1  15  24    5.15    4.95
   2  15  24   24.80    5.78
   0   0  25    3.44    3.29
   1   0  25   -1.73    2.44
   2   0  25    4.27    2.52
   3   0  25   -0.19    2.65
   4   0  25    1.53    2.87
   5   0  25    7.84    5.23
   0   1  25    2.15    2.31
   1   1  25   42.22    1.96
   2   1  25    4.59    1.76
   3   1  25    6.46    1.96
   4   1  25    4.52    2.10
   5   1  25   19.58    3.44
   0   2  25   13.96    2.36
   1   2  25   -0.37    1.60
   2   2  25    7.91    1.86
   3   2  25   16.07    2.00
   4   2  25    6.36    2.13
   5   2  25    4.25    3.43
   0   3  25    3.75    2.23
   1   3  25    7.68    1.91
   2   3  25    0.05    1.86
   3   3  25    4.24    2.00
   4   3  25   10.75    2.27
   5   3  25   16.28    3.90
   0   4  25    1.06    2.49
   1   4  25    8.98    1.75
   2   4  25    1.36    1.86
   3   4  25    2.42    2.04
   4   4  25    0.80    2.24
   5   4  25   11.92    4.61
   0   5  25   -1.20    2.74
   1   5  25   16.21    1.95
   2   5  25   23.45    1.99
   3   5  25    5.35    2.12
   4   5  25    4.67    2.42
   5   5  25    8.34    5.12
   0   6  25    6.47    2.81
   1   6  25   13.34    2.13
   2   6  25    3.78    1.97
   3   6  25   16.62    2.27
   4   6  25    4.83    2.71
   5   6  25    6.34    6.01
   0   7  25    0.34    2.87
   1   7  25    0.27    2.05
   2   7  25   -0.04    2.01
   3   7  25    4.47    2.23
   4   7  25   10.43    3.15
   5   7  25    9.48    8.20
   0   8  25    4.59    3.05
   1   8  25   15.24    2.26
   2   8  25   -2.10    2.07
   3   8  25   27.58    2.65
   4   8  25    8.56    3.61
   0   9  25   -5.82    3.01
   1   9  25    7.50    2.31
   2   9  25    3.51    2.17
   3   9  25    8.97    2.92
   4   9  25    2.19    4.14
   0  10  25   21.54    3.42
   1  10  25   13.16    2.31
   2  10  25   15.01    2.52
   3  10  25   25.69    3.62
   4  10  25    4.34    5.46
   0  11  25   -0.05    3.31
   1  11  25   -3.60    2.37
   2  11  25   -2.16    3.36
   3  11  25    8.23    4.19
   0  12  25   18.45    4.83
   1  12  25    6.72    3.10
   2  12  25    7.52    4.47
   3  12  25    8.77    4.52
   0  13  25   -5.92    6.26
   1  13  25   12.99    4.23
   2  13  25   -4.59    5.06
   0  14  25   -4.44    6.61
   1  14  25    7.49    5.60
   0   0  26    4.68    3.74
   1   0  26    5.35    2.79
   2   0  26    7.71    2.94
   3   0  26   29.71    3.26
   4   0  26    2.05    4.15
   5   0  26   17.62    8.18
   0   1  26    1.41    2.80
   1   1  26    6.82    2.02
   2   1  26    7.54    2.04
   3   1  26   13.52    2.28
   4   1  26    2.96    2.78
   5   1  26    1.37    6.28
   0   2  26   11.21    2.90
   1   2  26    7.84    2.12
   2   2  26    2.25    2.05
   3   2  26   30.94    2.51
   4   2  26    0.73    3.08
   5   2  26    3.02    8.14
   0   3  26   -1.11    2.76
   1   3  26    6.06    2.07
   2   3  26    1.68    2.15
   3   3  26    7.88    2.29
   4   3  26   -0.97    3.60
   5   3  26    5.36    6.77
   0   4  26    0.74    2.79
   1   4  26   16.00    2.20
   2   4  26   -2.66    2.00
   3   4  26    5.55    2.46
   4   4  26   -1.87    3.73
   0   5  26   -1.81    3.04
   1   5  26   10.27    2.14
   2   5  26    2.07    2.19
   3   5  26    1.67    2.49
   4   5  26   -1.73    4.18
   0   6  26   19.80    3.04
   1   6  26    0.79    2.12
   2   6  26    4.79    2.37
   3   6  26    1.22    3.01
   4   6  26   19.79    4.53
   0   7  26    1.00    3.24
   1   7  26   10.55    2.35
   2   7  26    7.72    2.41
   3   7  26   10.45    3.80
   4   7  26    3.23    5.17
   0   8  26   -3.77    3.33
   1   8  26   -0.56    2.26
   2   8  26    0.55    2.80
   3   8  26    7.52    3.99
   4   8  26   -8.00    6.76
   0   9  26   -0.19    3.57
   1   9  26   13.57    2.94
   2   9  26    8.69    4.02
   3   9  26   -1.82    4.46
   0  10  26   -4.07    4.64
   1  10  26    1.12    3.29
   2  10  26   -3.12    4.76
   3  10  26    5.85    5.22
   0  11  26  -13.06    4.85
   1  11  26   20.27    3.87
   2  11  26   -0.14    4.95
   0  12  26   -0.49    5.73
   1  12  26   -3.36    4.48
   0   0  27    0.83    4.53
   1   0  27    2.46    3.41
   2   0  27   -2.38    3.57
   3   0  27    7.00    4.49
   4   0  27    4.79    7.48
   0   1  27   -3.45    3.24
   1   1  27    8.42    2.51
   2   1  27    1.89    2.59
   3   1  27    1.27    3.17
   4   1  27   14.43    4.65
   0   2  27    1.67    3.32
   1   2  27    6.04    2.54
   2   2  27   -6.54    2.64
   3   2  27    7.74    3.16
   4   2  27    0.30    4.53
   0   3  27    4.82    3.58
   1   3  27   24.16    2.47
   2   3  27    3.95    2.58
   3   3  27    4.84    3.26
   4   3  27    1.52    4.83
   0   4  27    0.94    3.32
   1   4  27    3.95    2.34
   2   4  27    0.09    2.88
   3   4  27   22.38    4.05
   0   5  27    2.86    3.31
   1   5  27   18.14    2.57
   2   5  27    3.73    3.01
   3   5  27   -3.21    4.35
   0   6  27    4.13    3.56
   1   6  27    3.16    2.71
   2   6  27   -0.24    3.34
   3   6  27   -4.66    4.54
   0   7  27   -4.97    4.10
   1   7  27   -0.12    3.19
   2   7  27   12.58    4.30
   3   7  27    2.90    5.14
   0   8  27    3.02    4.82
   1   8  27    5.94    3.57
   2   8  27   -2.25    5.37
   0   9  27   -0.96    5.52
   1   9  27   -3.86    3.71
   2   9  27    6.54    5.63
   0  10  27    3.34    6.02
   1  10  27    5.12    5.13
   0   0  28   -0.27    6.11
   1   0  28    7.00    4.52
   2   0  28   -2.75    4.74
   3   0  28   17.98    6.03
   0   1  28   -3.59    4.30
   1   1  28    3.60    3.28
   2   1  28    6.09    3.40
   3   1  28    2.32    4.20
   0   2  28   14.52    4.62
   1   2  28    6.73    3.31
   2   2  28    9.18    3.51
   3   2  28   25.34    4.97
   0   3  28    3.94    4.68
   1   3  28    2.59    3.37
   2   3  28   -2.86    3.53
   0   4  28   -0.80    4.82
   1   4  28   11.81    3.78
   2   4  28    2.17    3.90
   0   5  28    7.96    4.95
   1   5  28   19.16    4.02
   2   5  28   11.20    4.49
   0   6  28    1.52    5.43
   1   6  28   -2.06    4.21
   0   7  28   -6.20    5.61
   1   7  28   11.69    4.63
   0   0  29   -1.25    8.16
   0   1  29    1.04    5.65
   0   2  29   -4.99    5.79
   0   0   0    0.00    0.00
;
_shelx_hkl_checksum              89226
_shelx_shelxl_version_number     2014/7
_olex2_submission_special_instructions 'No special instructions were received'
loop_
_space_group_symop_operation_xyz
'x, y, z'
'-x+1/2, -y, z+1/2'
'x+1/2, -y+1/2, -z'
'-x, y+1/2, -z+1/2'
'-x, -y, -z'
'x-1/2, y, -z-1/2'
'-x-1/2, y-1/2, z'
'x, -y-1/2, z-1/2'
loop_
_atom_site_label
_atom_site_type_symbol
_atom_site_fract_x
_atom_site_fract_y
_atom_site_fract_z
_atom_site_U_iso_or_equiv
_atom_site_adp_type
_atom_site_occupancy
_atom_site_site_symmetry_order
_atom_site_calc_flag
_atom_site_refinement_flags_posn
_atom_site_refinement_flags_adp
_atom_site_disorder_assembly
_atom_site_disorder_group
Br1 Br 0.90467(5) 0.52345(2) 0.24302(2) 0.04585(16) Uani 1 1 d . . . .
S1 S 0.49060(16) 0.71768(8) 0.37494(7) 0.0776(4) Uani 1 1 d . . . .
O1 O 0.6554(3) 0.75037(15) 0.50572(13) 0.0500(7) Uani 1 1 d . . . .
N1 N 0.8670(3) 0.71336(15) 0.45248(14) 0.0336(7) Uani 1 1 d . . . .
H1 H 0.9381 0.7344 0.4721 0.040 Uiso 1 1 calc R . . .
C4 C 0.9015(4) 0.58522(17) 0.30814(16) 0.0330(7) Uani 1 1 d . . . .
C6 C 0.7585(4) 0.64503(17) 0.38237(15) 0.0310(7) Uani 1 1 d . . . .
C16 C 0.6113(4) 0.7750(2) 0.3415(2) 0.0474(10) Uani 1 1 d . . . .
C5 C 0.7585(4) 0.60095(18) 0.33441(16) 0.0345(7) Uani 1 1 d . . . .
H5 H 0.6660 0.5825 0.3203 0.041 Uiso 1 1 calc R . . .
C20 C 0.7292(15) 0.8792(4) 0.3407(5) 0.146(4) Uani 1 1 d . U . .
H20 H 0.7477 0.9186 0.3598 0.176 Uiso 1 1 calc R . . .
C1 C 0.8977(4) 0.67107(17) 0.40360(15) 0.0292(7) Uani 1 1 d . . . .
C3 C 1.0399(4) 0.61235(18) 0.32794(18) 0.0376(8) Uani 1 1 d . . . .
H3 H 1.1332 0.6014 0.3085 0.045 Uiso 1 1 calc R . . .
C10 C 0.6213(5) 0.5846(2) 0.5058(2) 0.0511(11) Uani 1 1 d . . . .
C17 C 0.6790(7) 0.7640(3) 0.2848(3) 0.087(2) Uani 1 1 d . U . .
H17 H 0.6633 0.7247 0.2650 0.104 Uiso 1 1 calc R . . .
C2 C 1.0406(4) 0.65617(19) 0.37712(18) 0.0391(8) Uani 1 1 d . . . .
H2 H 1.1330 0.6745 0.3914 0.047 Uiso 1 1 calc R . . .
C21 C 0.6308(10) 0.8329(3) 0.3697(3) 0.098(2) Uani 1 1 d . U . .
H21 H 0.5811 0.8421 0.4071 0.117 Uiso 1 1 calc R . . .
C7 C 0.6271(4) 0.6735(2) 0.41952(18) 0.0389(9) Uani 1 1 d . . . .
C8 C 0.7135(4) 0.71737(19) 0.46538(17) 0.0366(8) Uani 1 1 d . . . .
C19 C 0.7952(10) 0.8654(5) 0.2856(6) 0.137(3) Uani 1 1 d . U . .
H19 H 0.8609 0.8956 0.2673 0.164 Uiso 1 1 calc R . . .
C18 C 0.7695(10) 0.8100(4) 0.2566(5) 0.125(3) Uani 1 1 d . U . .
H18 H 0.8123 0.8025 0.2176 0.150 Uiso 1 1 calc R . . .
C9B C 0.512(3) 0.6227(11) 0.4623(16) 0.040(3) Uani 0.94(19) 1 d . U A 2
C15 C 0.7089(7) 0.5318(3) 0.4904(3) 0.0806(18) Uani 1 1 d . U . .
H15 H 0.7057 0.5150 0.4504 0.097 Uiso 1 1 calc R . . .
C14 C 0.8043(8) 0.5033(4) 0.5363(5) 0.118(3) Uani 1 1 d . U . .
H14 H 0.8676 0.4683 0.5268 0.141 Uiso 1 1 calc R . . .
C11 C 0.6229(9) 0.6065(3) 0.5664(3) 0.093(2) Uani 1 1 d . U . .
H11 H 0.5614 0.6418 0.5767 0.112 Uiso 1 1 calc R . . .
C13 C 0.8016(11) 0.5287(5) 0.5961(5) 0.136(3) Uani 1 1 d . U . .
H13 H 0.8650 0.5105 0.6265 0.163 Uiso 1 1 calc R . . .
C12 C 0.7099(14) 0.5787(4) 0.6111(4) 0.136(3) Uani 1 1 d . U . .
H12 H 0.7064 0.5939 0.6516 0.163 Uiso 1 1 calc R . . .
C9A C 0.495(2) 0.6208(12) 0.4484(14) 0.034(3) Uani 0.93(19) 1 d . U A 1
H9AA H 0.4594 0.5901 0.4174 0.041 Uiso 0.17(8) 1 calc R . A 1
H9AB H 0.4053 0.6423 0.4669 0.041 Uiso 0.01(9) 1 calc R . A 1
loop_
_atom_site_aniso_label
_atom_site_aniso_U_11
_atom_site_aniso_U_22
_atom_site_aniso_U_33
_atom_site_aniso_U_23
_atom_site_aniso_U_13
_atom_site_aniso_U_12
Br1 0.0421(3) 0.0443(2) 0.0512(3) -0.01343(17) 0.00677(17) -0.00279(17)
S1 0.0483(7) 0.1039(12) 0.0806(10) 0.0101(8) -0.0063(6) 0.0131(7)
O1 0.0292(13) 0.073(2) 0.0481(16) -0.0196(15) 0.0038(12) 0.0080(13)
N1 0.0183(12) 0.0477(18) 0.0349(15) -0.0082(13) -0.0003(11) -0.0004(12)
C4 0.0310(17) 0.0332(17) 0.0348(17) -0.0008(14) 0.0036(14) -0.0011(14)
C6 0.0173(14) 0.0430(19) 0.0325(16) -0.0009(14) -0.0009(12) 0.0004(13)
C16 0.0309(18) 0.053(2) 0.059(2) 0.0085(19) -0.0089(18) 0.0113(18)
C5 0.0239(16) 0.0438(19) 0.0358(17) -0.0023(15) -0.0016(13) -0.0040(14)
C20 0.208(10) 0.088(5) 0.144(7) 0.041(5) -0.096(6) -0.053(6)
C1 0.0205(14) 0.0354(17) 0.0316(16) -0.0005(13) -0.0023(13) -0.0001(13)
C3 0.0231(16) 0.046(2) 0.044(2) -0.0026(16) 0.0070(14) 0.0030(15)
C10 0.036(2) 0.059(3) 0.058(3) 0.013(2) 0.0060(18) -0.0113(19)
C17 0.087(4) 0.068(3) 0.106(5) 0.024(3) 0.053(4) 0.033(3)
C2 0.0195(15) 0.047(2) 0.051(2) -0.0080(17) 0.0004(15) -0.0011(15)
C21 0.169(7) 0.051(3) 0.073(4) 0.012(3) -0.047(4) -0.009(4)
C7 0.0165(15) 0.059(2) 0.0408(19) -0.0070(17) 0.0012(13) 0.0021(15)
C8 0.0204(15) 0.052(2) 0.0376(18) -0.0039(16) 0.0001(13) 0.0036(15)
C19 0.072(4) 0.118(6) 0.220(9) 0.096(7) -0.027(6) -0.025(5)
C18 0.090(5) 0.102(5) 0.182(7) 0.077(5) 0.077(5) 0.048(4)
C9B 0.036(5) 0.063(4) 0.020(7) -0.001(5) -0.006(5) -0.023(4)
C15 0.061(3) 0.082(4) 0.099(4) 0.040(3) 0.034(3) 0.003(3)
C14 0.070(4) 0.108(5) 0.175(7) 0.092(5) 0.033(5) 0.013(4)
C11 0.151(6) 0.074(4) 0.054(3) 0.017(3) -0.013(4) -0.013(4)
C13 0.107(6) 0.146(8) 0.154(6) 0.097(6) -0.043(6) -0.030(5)
C12 0.213(10) 0.103(5) 0.092(5) 0.045(4) -0.066(6) -0.037(5)
C9A 0.020(4) 0.068(5) 0.016(6) 0.002(5) -0.004(4) -0.009(3)
loop_
_atom_type_symbol
_atom_type_description
_atom_type_scat_dispersion_real
_atom_type_scat_dispersion_imag
_atom_type_scat_source
C C 0.0033 0.0016 'International Tables Vol C Tables 4.2.6.8 and 6.1.1.4'
H H 0.0000 0.0000 'International Tables Vol C Tables 4.2.6.8 and 6.1.1.4'
Br Br -0.2901 2.4595 'International Tables Vol C Tables 4.2.6.8 and 6.1.1.4'
N N 0.0061 0.0033 'International Tables Vol C Tables 4.2.6.8 and 6.1.1.4'
O O 0.0106 0.0060 'International Tables Vol C Tables 4.2.6.8 and 6.1.1.4'
S S 0.1246 0.1234 'International Tables Vol C Tables 4.2.6.8 and 6.1.1.4'
loop_
_geom_angle_atom_site_label_1
_geom_angle_atom_site_label_2
_geom_angle_atom_site_label_3
_geom_angle
C16 S1 C7 100.88(19)
C1 N1 H1 123.9
C8 N1 H1 123.9
C8 N1 C1 112.2(3)
C5 C4 Br1 118.2(3)
C3 C4 Br1 119.5(3)
C3 C4 C5 122.3(3)
C5 C6 C1 120.4(3)
C5 C6 C7 131.3(3)
C1 C6 C7 108.3(3)
C17 C16 S1 120.5(4)
C21 C16 S1 119.8(5)
C21 C16 C17 119.6(6)
C4 C5 H5 121.3
C6 C5 C4 117.5(3)
C6 C5 H5 121.3
C21 C20 H20 120.3
C19 C20 H20 120.3
C19 C20 C21 119.5(9)
C6 C1 N1 109.5(3)
C2 C1 N1 128.1(3)
C2 C1 C6 122.4(3)
C4 C3 H3 119.8
C4 C3 C2 120.3(3)
C2 C3 H3 119.8
C15 C10 C9B 126.6(11)
C15 C10 C11 119.1(6)
C15 C10 C9A 119.8(10)
C11 C10 C9B 114.3(11)
C11 C10 C9A 121.0(10)
C16 C17 H17 119.4
C16 C17 C18 121.1(7)
C18 C17 H17 119.4
C1 C2 C3 117.0(3)
C1 C2 H2 121.5
C3 C2 H2 121.5
C16 C21 C20 118.4(8)
C16 C21 H21 120.8
C20 C21 H21 120.8
C6 C7 S1 114.2(3)
C6 C7 C8 102.5(3)
C6 C7 C9B 118.2(8)
C6 C7 C9A 116.2(9)
C8 C7 S1 111.1(3)
C8 C7 C9B 107.2(12)
C8 C7 C9A 118.1(12)
C9B C7 S1 103.5(12)
C9A C7 S1 95.3(9)
O1 C8 N1 125.6(4)
O1 C8 C7 126.8(3)
N1 C8 C7 107.5(3)
C20 C19 H19 119.0
C18 C19 C20 121.9(8)
C18 C19 H19 119.0
C17 C18 H18 120.3
C19 C18 C17 119.3(9)
C19 C18 H18 120.3
C10 C9B C7 107.3(15)
C10 C15 H15 120.5
C10 C15 C14 118.9(7)
C14 C15 H15 120.5
C15 C14 H14 120.7
C13 C14 C15 118.7(8)
C13 C14 H14 120.7
C10 C11 H11 118.7
C12 C11 C10 122.6(8)
C12 C11 H11 118.7
C14 C13 H13 119.2
C12 C13 C14 121.6(8)
C12 C13 H13 119.2
C11 C12 H12 120.5
C13 C12 C11 119.0(9)
C13 C12 H12 120.5
C10 C9A H9AA 112.4
C10 C9A H9AB 112.4
C7 C9A C10 96.8(13)
C7 C9A H9AA 112.4
C7 C9A H9AB 112.4
H9AA C9A H9AB 110.0
loop_
_geom_bond_atom_site_label_1
_geom_bond_atom_site_label_2
_geom_bond_distance
Br1 C4 1.901(4)
S1 C16 1.732(5)
S1 C7 1.768(4)
O1 C8 1.213(4)
N1 H1 0.8600
N1 C1 1.396(4)
N1 C8 1.345(4)
C4 C5 1.387(5)
C4 C3 1.379(5)
C6 C5 1.381(5)
C6 C1 1.385(4)
C6 C7 1.502(5)
C16 C17 1.371(7)
C16 C21 1.359(8)
C5 H5 0.9300
C20 H20 0.9300
C20 C21 1.422(12)
C20 C19 1.346(15)
C1 C2 1.384(5)
C3 H3 0.9300
C3 C2 1.397(5)
C10 C9B 1.54(4)
C10 C15 1.369(7)
C10 C11 1.382(8)
C10 C9A 1.81(3)
C17 H17 0.9300
C17 C18 1.372(9)
C2 H2 0.9300
C21 H21 0.9300
C7 C8 1.534(5)
C7 C9B 1.71(2)
C7 C9A 1.69(2)
C19 H19 0.9300
C19 C18 1.329(14)
C18 H18 0.9300
C15 H15 0.9300
C15 C14 1.412(10)
C14 H14 0.9300
C14 C13 1.392(15)
C11 H11 0.9300
C11 C12 1.347(10)
C13 H13 0.9300
C13 C12 1.341(14)
C12 H12 0.9300
C9A H9AA 0.9700
C9A H9AB 0.9700
loop_
_geom_torsion_atom_site_label_1
_geom_torsion_atom_site_label_2
_geom_torsion_atom_site_label_3
_geom_torsion_atom_site_label_4
_geom_torsion
Br1 C4 C5 C6 178.9(3)
Br1 C4 C3 C2 -177.8(3)
S1 C16 C17 C18 177.2(6)
S1 C16 C21 C20 -179.3(6)
S1 C7 C8 O1 58.5(5)
S1 C7 C8 N1 -120.9(3)
S1 C7 C9B C10 -176.8(11)
S1 C7 C9A C10 -169.5(10)
N1 C1 C2 C3 -179.5(4)
C4 C3 C2 C1 -0.8(6)
C6 C1 C2 C3 -1.0(6)
C6 C7 C8 O1 -179.2(4)
C6 C7 C8 N1 1.5(4)
C6 C7 C9B C10 55.8(19)
C6 C7 C9A C10 70.3(15)
C16 S1 C7 C6 -58.0(3)
C16 S1 C7 C8 57.2(3)
C16 S1 C7 C9B 172.0(10)
C16 S1 C7 C9A -179.9(11)
C16 C17 C18 C19 1.8(12)
C5 C4 C3 C2 1.7(6)
C5 C6 C1 N1 -179.2(3)
C5 C6 C1 C2 2.1(6)
C5 C6 C7 S1 -61.0(5)
C5 C6 C7 C8 178.8(4)
C5 C6 C7 C9B 61.2(15)
C5 C6 C7 C9A 48.5(13)
C20 C19 C18 C17 -3.2(14)
C1 N1 C8 O1 179.7(4)
C1 N1 C8 C7 -0.9(4)
C1 C6 C5 C4 -1.2(5)
C1 C6 C7 S1 118.7(3)
C1 C6 C7 C8 -1.6(4)
C1 C6 C7 C9B -119.2(15)
C1 C6 C7 C9A -131.8(12)
C3 C4 C5 C6 -0.6(5)
C10 C15 C14 C13 2.2(10)
C10 C11 C12 C13 1.6(13)
C17 C16 C21 C20 -3.6(9)
C21 C16 C17 C18 1.6(9)
C21 C20 C19 C18 1.1(15)
C7 S1 C16 C17 91.6(4)
C7 S1 C16 C21 -92.8(4)
C7 C6 C5 C4 178.4(4)
C7 C6 C1 N1 1.1(4)
C7 C6 C1 C2 -177.6(4)
C8 N1 C1 C6 -0.1(4)
C8 N1 C1 C2 178.5(4)
C8 C7 C9B C10 -59.3(14)
C8 C7 C9A C10 -52.1(13)
C19 C20 C21 C16 2.4(13)
C9B C10 C15 C14 179.2(10)
C9B C10 C11 C12 179.3(11)
C9B C7 C8 O1 -54.0(11)
C9B C7 C8 N1 126.7(10)
C15 C10 C9B C7 -80.4(15)
C15 C10 C11 C12 1.3(10)
C15 C10 C9A C7 -90.3(14)
C15 C14 C13 C12 0.7(13)
C14 C13 C12 C11 -2.6(14)
C11 C10 C9B C7 101.8(13)
C11 C10 C15 C14 -3.1(8)
C11 C10 C9A C7 94.4(11)
C9A C10 C15 C14 -178.5(9)
C9A C10 C11 C12 176.6(11)
C9A C7 C8 O1 -50.1(9)
C9A C7 C8 N1 130.6(8)
