#------------------------------------------------------------------------------
#$Date: 2017-03-07 03:37:42 +0200 (Tue, 07 Mar 2017) $
#$Revision: 194013 $
#$URL: file:///home/coder/svn-repositories/cod/cif/1/54/55/1545510.cif $
#------------------------------------------------------------------------------
#
# This file is available in the Crystallography Open Database (COD),
# http://www.crystallography.net/
#
# All data on this site have been placed in the public domain by the
# contributors.
#
data_1545510
loop_
_publ_author_name
'Liu, Chengwei'
'Liu, Yongmei'
'Liu, Ruzhang'
'Lalancette, Roger'
'Szostak, Roman'
'Szostak, Michal'
_publ_section_title
;
 Palladium-Catalyzed Suzuki--Miyaura Cross-Coupling of N-Mesylamides by
 N--C Cleavage: Electronic Effect of the Mesyl Group
;
_journal_name_full               'Organic Letters'
_journal_paper_doi               10.1021/acs.orglett.7b00373
_journal_year                    2017
_chemical_formula_moiety         'C14 H13 N O3 S'
_chemical_formula_sum            'C14 H13 N O3 S'
_chemical_formula_weight         275.31
_space_group_crystal_system      orthorhombic
_space_group_IT_number           61
_space_group_name_Hall           '-P 2ac 2ab'
_space_group_name_H-M_alt        'P b c a'
_symmetry_space_group_name_Hall  '-P 2ac 2ab'
_symmetry_space_group_name_H-M   'P b c a'
_atom_sites_solution_hydrogens   geom
_atom_sites_solution_primary     direct
_atom_sites_solution_secondary   difmap
_audit_creation_method           SHELXL-2014/7
_cell_angle_alpha                90
_cell_angle_beta                 90
_cell_angle_gamma                90
_cell_formula_units_Z            8
_cell_length_a                   9.2267(3)
_cell_length_b                   9.9695(4)
_cell_length_c                   28.6206(10)
_cell_measurement_reflns_used    8789
_cell_measurement_temperature    100(2)
_cell_measurement_theta_max      69.34
_cell_measurement_theta_min      3.75
_cell_volume                     2632.68(16)
_computing_cell_refinement       'APEX 2'
_computing_data_collection       'APEX 2 (Bruker, 2006)'
_computing_data_reduction        'SAINT (Bruker, 2005)'
_computing_molecular_graphics    SHELXTL
_computing_publication_material  SHELXTL
_computing_structure_refinement  'SHELXL-2014/7 (Sheldrick, 2014)'
_computing_structure_solution    'SHELXL-2014/7 (Sheldrick, 2014)'
_diffrn_ambient_temperature      100(2)
_diffrn_measured_fraction_theta_full 0.986
_diffrn_measured_fraction_theta_max 0.984
_diffrn_measurement_device_type  'Bruker SMART CCD Apex-II area-detector'
_diffrn_measurement_method       '\f and \w'
_diffrn_radiation_monochromator  graphite
_diffrn_radiation_source         'fine-focus sealed tube'
_diffrn_radiation_type           CuK\a
_diffrn_radiation_wavelength     1.54178
_diffrn_reflns_av_R_equivalents  0.0316
_diffrn_reflns_av_unetI/netI     0.0133
_diffrn_reflns_Laue_measured_fraction_full 0.986
_diffrn_reflns_Laue_measured_fraction_max 0.984
_diffrn_reflns_limit_h_max       10
_diffrn_reflns_limit_h_min       -10
_diffrn_reflns_limit_k_max       10
_diffrn_reflns_limit_k_min       -11
_diffrn_reflns_limit_l_max       32
_diffrn_reflns_limit_l_min       -34
_diffrn_reflns_number            19747
_diffrn_reflns_point_group_measured_fraction_full 0.986
_diffrn_reflns_point_group_measured_fraction_max 0.984
_diffrn_reflns_theta_full        67.679
_diffrn_reflns_theta_max         67.956
_diffrn_reflns_theta_min         3.088
_exptl_absorpt_coefficient_mu    2.225
_exptl_absorpt_correction_T_max  0.567
_exptl_absorpt_correction_T_min  0.422
_exptl_absorpt_correction_type   numerical
_exptl_absorpt_process_details   'SADABS (Sheldrick, 2008a)'
_exptl_crystal_colour            colourless
_exptl_crystal_density_diffrn    1.389
_exptl_crystal_description       block
_exptl_crystal_F_000             1152
_exptl_crystal_size_max          0.342
_exptl_crystal_size_mid          0.220
_exptl_crystal_size_min          0.187
_refine_diff_density_max         0.326
_refine_diff_density_min         -0.344
_refine_diff_density_rms         0.041
_refine_ls_extinction_coef       0.00216(13)
_refine_ls_extinction_expression Fc^*^=kFc[1+0.001xFc^2^\l^3^/sin(2\q)]^-1/4^
_refine_ls_extinction_method     'SHELXL-2014/7 (Sheldrick 2014'
_refine_ls_goodness_of_fit_ref   1.089
_refine_ls_hydrogen_treatment    constr
_refine_ls_matrix_type           full
_refine_ls_number_parameters     174
_refine_ls_number_reflns         2353
_refine_ls_number_restraints     0
_refine_ls_restrained_S_all      1.089
_refine_ls_R_factor_all          0.0288
_refine_ls_R_factor_gt           0.0287
_refine_ls_shift/su_max          0.001
_refine_ls_shift/su_mean         0.000
_refine_ls_structure_factor_coef Fsqd
_refine_ls_weighting_details
'w=1/[\s^2^(Fo^2^)+(0.0351P)^2^+1.6522P] where P=(Fo^2^+2Fc^2^)/3'
_refine_ls_weighting_scheme      calc
_refine_ls_wR_factor_gt          0.0756
_refine_ls_wR_factor_ref         0.0756
_reflns_Friedel_coverage         0.000
_reflns_number_gt                2344
_reflns_number_total             2353
_reflns_threshold_expression     'I > 2\s(I)'
_cod_data_source_file            ol7b00373_si_002.cif
_cod_data_source_block           YONGMEI_a
_cod_database_code               1545510
_shelx_shelxl_version_number     2014/7
_shelx_space_group_comment
;
The symmetry employed for this shelxl refinement is uniquely defined
by the following loop, which should always be used as a source of
symmetry information in preference to the above space-group names.
They are only intended as comments.
;
_shelx_res_file
;

    YONGMEI_a.res created by SHELXL-2014/7

TITL YONGMEI_a.res in Pbca
CELL  1.54178   9.2267   9.9695  28.6206   90.000   90.000   90.000
ZERR    8.000   0.0003   0.0004   0.0010    0.000    0.000    0.000
LATT 1
SYMM 1/2-X, -Y, 1/2+Z
SYMM -X, 1/2+Y, 1/2-Z
SYMM 1/2+X, 1/2-Y, -Z
SFAC C  H  N  O  S
UNIT 112  104  8  24  8
L.S. 15
ACTA
BOND $H
FMAP 2
PLAN 2
TEMP -173.230
WGHT    0.035100    1.652200
EXTI    0.002158
FVAR       0.43447
S1    5    0.233591    0.737623    0.450195    11.00000    0.01468    0.01424 =
         0.01526   -0.00132    0.00252    0.00003
O1    4    0.104914    0.636243    0.365215    11.00000    0.01339    0.02947 =
         0.02740   -0.00677   -0.00174   -0.00059
O2    4    0.142162    0.845907    0.436092    11.00000    0.02630    0.01656 =
         0.02408   -0.00019    0.00220    0.00570
O3    4    0.347379    0.765184    0.482602    11.00000    0.01926    0.03394 =
         0.01671   -0.00692    0.00083   -0.00135
N1    3    0.319576    0.673687    0.402611    11.00000    0.01162    0.01723 =
         0.01500   -0.00221    0.00144   -0.00071
C1    1    0.236751    0.632002    0.364364    11.00000    0.01663    0.01297 =
         0.01918   -0.00009   -0.00127   -0.00165
C2    1    0.474148    0.699515    0.399579    11.00000    0.01265    0.01667 =
         0.01392   -0.00438    0.00091   -0.00176
C3    1    0.571101    0.615005    0.421972    11.00000    0.01849    0.01744 =
         0.01694   -0.00109   -0.00067   -0.00079
AFIX  43
H3    2    0.537338    0.540327    0.439482    11.00000   -1.20000
AFIX   0
C4    1    0.718491    0.641397    0.418367    11.00000    0.01716    0.02392 =
         0.02086   -0.00374   -0.00310    0.00282
AFIX  43
H4    2    0.786092    0.584339    0.433592    11.00000   -1.20000
AFIX   0
C5    1    0.767963    0.750427    0.392711    11.00000    0.01447    0.03102 =
         0.02487   -0.00575    0.00161   -0.00522
AFIX  43
H5    2    0.868996    0.767218    0.390124    11.00000   -1.20000
AFIX   0
C6    1    0.669699    0.834450    0.370946    11.00000    0.02294    0.02348 =
         0.02268    0.00117    0.00334   -0.00796
AFIX  43
H6    2    0.703437    0.909171    0.353452    11.00000   -1.20000
AFIX   0
C7    1    0.521395    0.810048    0.374550    11.00000    0.01928    0.01792 =
         0.01716   -0.00038    0.00041   -0.00054
AFIX  43
H7    2    0.453636    0.868449    0.360033    11.00000   -1.20000
AFIX   0
C8    1    0.318505    0.579043    0.323235    11.00000    0.01573    0.01728 =
         0.01756   -0.00393   -0.00038   -0.00578
C9    1    0.417823    0.475009    0.327934    11.00000    0.02237    0.02158 =
         0.01970   -0.00400   -0.00041   -0.00067
AFIX  43
H9    2    0.438703    0.438961    0.357914    11.00000   -1.20000
AFIX   0
C10   1    0.486204    0.424206    0.288579    11.00000    0.02532    0.03134 =
         0.03177   -0.01345    0.00339    0.00104
AFIX  43
H10   2    0.553401    0.352513    0.291549    11.00000   -1.20000
AFIX   0
C11   1    0.456772    0.477691    0.245029    11.00000    0.03339    0.04017 =
         0.02291   -0.01411    0.01067   -0.01274
AFIX  43
H11   2    0.505772    0.444180    0.218271    11.00000   -1.20000
AFIX   0
C12   1    0.356390    0.579690    0.240238    11.00000    0.04757    0.03455 =
         0.01555   -0.00090   -0.00041   -0.01586
AFIX  43
H12   2    0.335671    0.615227    0.210173    11.00000   -1.20000
AFIX   0
C13   1    0.285882    0.630236    0.279227    11.00000    0.03064    0.02230 =
         0.02075   -0.00051   -0.00537   -0.00474
AFIX  43
H13   2    0.215758    0.699364    0.275927    11.00000   -1.20000
AFIX   0
C14   1    0.129095    0.604143    0.471006    11.00000    0.02259    0.01858 =
         0.02859    0.00198    0.01064   -0.00086
AFIX 137
H14A  2    0.073505    0.633494    0.498333    11.00000   -1.50000
H14B  2    0.192843    0.529756    0.479876    11.00000   -1.50000
H14C  2    0.062348    0.574342    0.446477    11.00000   -1.50000
AFIX   0
HKLF 4

REM  YONGMEI_a.res in Pbca
REM R1 =  0.0287 for    2344 Fo > 4sig(Fo)  and  0.0288 for all    2353 data
REM    174 parameters refined using      0 restraints

END

WGHT      0.0350      1.6555

REM Highest difference peak  0.326,  deepest hole -0.344,  1-sigma level  0.041
Q1    1   0.1740  0.6665  0.4598  11.00000  0.05    0.33
Q2    1   0.2805  0.7010  0.4218  11.00000  0.05    0.24
;
_shelx_res_checksum              67515
_shelx_hkl_file
;
  -1   0   0    2.60    0.20
   1   0   0    3.10    0.20
  -1   0   0    2.60    0.30
  -1   0   0    3.50    0.20
  -2   0   0 3392.46  132.99
  -2   0   0 3555.44  155.18
  -2   0   0 3537.15  104.29
  -2   0   0 3757.22  104.09
  -2   0   0 3635.74  105.39
  -3   0   0    1.50    0.40
  -3   0   0    1.00    0.30
  -3   0   0    0.60    0.30
  -3   0   0    0.10    0.20
  -4   0   0  569.84   16.60
  -4   0   0  551.24   17.00
  -4   0   0  564.94   16.30
  -4   0   0  482.65   16.50
  -5   0   0    1.00    0.50
  -5   0   0    0.40    0.30
  -5   0   0    0.50    0.20
  -5   0   0    0.70    0.40
  -5   0   0    0.00    0.20
  -6   0   0   11.40    1.40
  -6   0   0   13.10    1.30
  -6   0   0   12.20    0.90
  -6   0   0   11.10    1.50
  -7   0   0    0.50    0.30
  -7   0   0    0.50    0.40
  -7   0   0    1.20    0.40
  -7   0   0    0.10    0.30
  -8   0   0  423.06   12.90
  -8   0   0  413.86   12.90
  -8   0   0  407.26   12.50
  -8   0   0  392.36   12.50
  -9   0   0    0.30    0.40
  -9   0   0    0.20    0.60
  -9   0   0    0.30    0.40
 -10   0   0  171.78    5.50
  10   0   0  165.58    5.80
   0  -1   0    4.30    0.30
   0   1   0    4.40    0.30
   0   1   0    4.30    0.30
   0   1   0    4.90    0.30
   0  -1   0    4.50    0.30
  -1  -1   0    4.70    0.40
  -1   1   0    4.10    0.40
  -1   1   0    4.10    0.40
   1  -1   0    3.80    0.30
  -1   1   0    4.60    0.40
   1   1   0    5.50    0.40
   1   1   0    4.90    0.40
  -1  -1   0    4.70    0.30
  -1   1   0    5.30    0.30
   1  -1   0    4.90    0.40
  -1  -1   0    6.10    0.40
  -1  -1   0    4.60    0.40
   2   1   0  641.14   20.10
  -2   1   0  703.03   20.00
  -2   1   0  703.83   20.30
   2   1   0  706.33   20.30
  -2   1   0  679.23   20.40
  -2  -1   0  708.63   20.80
  -2  -1   0  717.33   21.70
  -2  -1   0  691.43   20.20
  -2   1   0  714.63   21.20
  -2  -1   0  664.93   20.00
  -2   1   0  741.83   21.40
  -2   1   0  647.74   20.30
  -3  -1   0    0.20    0.20
  -3   1   0    0.40    0.20
  -3   1   0    0.20    0.30
  -3   1   0    0.40    0.30
  -3   1   0    0.30    0.20
   3   1   0    0.50    0.20
  -3   1   0    0.20    0.30
  -3  -1   0    0.60    0.30
  -3  -1   0    0.50    0.30
  -3  -1   0    0.20    0.20
  -4   1   0  461.15   14.20
  -4   1   0  437.36   12.90
  -4  -1   0  456.65   14.30
  -4  -1   0  420.16   13.00
  -4  -1   0  459.55   13.90
  -4   1   0  450.85   13.50
  -4  -1   0  449.76   13.50
  -4   1   0  447.36   14.30
  -4   1   0  431.46   13.70
  -4  -1   0  428.96   13.70
  -5  -1   0    2.70    0.60
  -5   1   0    0.50    0.20
  -5  -1   0    0.30    0.20
  -5   1   0    0.30    0.40
  -5   1   0    0.20    0.30
  -5  -1   0    0.40    0.40
  -5   1   0    1.40    0.60
  -5  -1   0    0.60    0.40
  -5   1   0    0.20    0.30
  -6   1   0   13.00    1.40
  -6  -1   0   12.50    1.30
  -6  -1   0   12.30    0.90
  -6   1   0   13.80    1.70
  -6   1   0   11.70    2.20
  -6  -1   0   12.30    1.50
  -6  -1   0   12.10    1.60
  -6   1   0   12.80    1.30
  -6   1   0   12.30    0.90
  -7  -1   0    0.70    0.50
  -7  -1   0    0.60    0.30
  -7   1   0    0.20    0.30
  -7   1   0    0.30    0.30
  -7  -1   0    0.50    0.40
  -7  -1   0    0.40    0.30
  -7   1   0    0.20    0.40
  -7   1   0    0.20    0.40
  -7  -1   0    1.30    0.50
  -7   1   0    1.60    0.50
  -8  -1   0  634.44   19.10
  -8   1   0  626.94   19.00
  -8  -1   0  607.74   18.70
  -8  -1   0  622.54   19.10
  -8   1   0  668.33   18.80
  -8   1   0  627.44   19.00
  -8  -1   0  620.54   18.70
  -9   1   0    0.40    0.40
  -9  -1   0    0.20    0.40
  -9  -1   0    0.10    0.40
   9  -1   0   -0.90    0.50
  -9  -1   0    0.60    0.60
  -9   1   0    0.40    0.40
  10   1   0  405.96   12.70
 -10   1   0  413.56   12.40
  10  -1   0  405.06   12.50
 -10  -1   0  418.46   12.40
   0   2   0 4830.22  175.28
   0  -2   0 4282.57  169.78
   0  -2   0 4255.27  133.99
   0   2   0 5001.10  170.98
   0  -2   0 4878.51  149.79
   0   2   0 4802.42  183.08
   1   2   0    0.20    0.20
   1  -2   0    0.40    0.20
  -1   2   0    1.30    0.40
  -1  -2   0    0.50    0.20
   1  -2   0    0.20    0.20
  -1  -2   0    0.20    0.20
   1   2   0    0.30    0.20
  -1  -2   0    0.30    0.20
   1  -2   0    0.20    0.20
  -1   2   0    0.20    0.20
  -1  -2   0    0.30    0.20
  -1   2   0    0.40    0.20
   2   2   0 5184.88  193.88
  -2   2   0 5191.98  157.18
  -2  -2   0 5132.09  218.08
  -2   2   0 5062.29  198.48
  -2  -2   0 5161.68  212.18
  -2   2   0 5136.79  221.28
  -2   2   0 5886.31  160.68
  -2  -2   0 5686.13  156.38
  -2   2   0 5587.54  181.78
   2   2   0 5369.86  157.88
  -2  -2   0 5788.82  175.38
  -3   2   0    0.10    0.30
  -3  -2   0    0.50    0.30
   3  -2   0    0.40    0.20
  -3   2   0    0.50    0.40
  -3  -2   0    0.10    0.30
   3   2   0    1.20    0.30
  -3   2   0    0.70    0.30
  -3  -2   0    0.30    0.20
  -4   2   0 1081.59   30.60
  -4   2   0 1095.89   32.30
  -4   2   0 1068.39   31.60
  -4   2   0 1049.30   32.10
  -4  -2   0  996.80   31.80
  -4  -2   0 1072.39   31.30
  -4  -2   0 1082.29   30.80
  -4  -2   0 1098.09   32.20
   4  -2   0 1103.49   31.20
  -5   2   0    0.80    0.50
  -5  -2   0    0.20    0.40
  -5   2   0    1.10    0.60
   5  -2   0    0.40    0.30
  -5  -2   0    0.40    0.20
  -5  -2   0    0.60    0.50
  -5   2   0    0.40    0.20
  -5   2   0    0.60    0.50
  -5  -2   0    0.80    0.40
  -6  -2   0   31.70    2.50
  -6  -2   0   33.50    2.20
  -6  -2   0   31.70    1.70
  -6  -2   0   33.40    1.60
  -6   2   0   32.30    1.50
  -6   2   0   32.90    2.40
   6  -2   0   32.70    2.10
  -6   2   0   33.00    2.70
  -6  -2   0   35.20    1.80
  -6   2   0   34.20    1.60
  -7  -2   0    1.80    0.60
  -7  -2   0    0.60    0.40
  -7  -2   0    0.10    0.30
   7  -2   0    0.10    0.40
  -7  -2   0    0.20    0.30
  -7   2   0    0.30    0.50
  -7  -2   0    0.50    0.50
  -7   2   0    0.70    0.40
  -7   2   0    0.10    0.30
  -8  -2   0  552.34   16.80
  -8   2   0  538.45   17.10
  -8  -2   0  581.04   16.90
  -8  -2   0  568.34   17.30
  -8   2   0  570.54   17.20
  -8   2   0  584.04   16.90
  -8  -2   0  556.54   17.20
  -9  -2   0    0.20    0.30
  -9  -2   0    0.30    0.60
  -9   2   0    0.90    0.40
  -9   2   0    0.50    0.40
  -9  -2   0    0.20    0.40
  -9  -2   0   -0.10    0.30
 -10  -2   0  193.08    6.20
 -10   2   0  192.38    6.20
  10   2   0  192.98    6.50
   0  -3   0    1.50    0.40
   0   3   0    1.00    0.40
   0  -3   0    0.60    0.30
   0   3   0    1.90    0.40
   1  -3   0    1.20    0.30
  -1  -3   0    1.80    0.40
  -1  -3   0    0.50    0.20
  -1   3   0    1.00    0.40
   1   3   0    0.70    0.30
   1  -3   0    1.60    0.40
  -1  -3   0    0.90    0.40
  -1  -3   0    1.40    0.40
  -1   3   0    0.70    0.30
   1  -3   0    0.80    0.30
  -2   3   0 1602.84   50.79
  -2   3   0 1688.43   49.50
  -2  -3   0 1581.34   46.10
   2  -3   0 1596.54   48.20
  -2   3   0 1613.04   63.99
  -2  -3   0 1638.34   46.40
  -2   3   0 1699.23   49.30
  -2  -3   0 1569.54   46.40
  -2  -3   0 1505.75   46.60
   2   3   0 1487.65   46.70
   2  -3   0 1596.24   46.60
  -3   3   0    0.40    0.40
  -3  -3   0    0.10    0.30
  -3   3   0    0.30    0.30
  -3  -3   0    0.60    0.40
  -3   3   0    0.20    0.20
  -3  -3   0    0.50    0.30
   3  -3   0    0.30    0.20
  -3   3   0    0.20    0.30
  -4  -3   0 1061.99   31.50
  -4   3   0 1024.10   29.90
   4  -3   0 1045.90   30.50
  -4  -3   0 1059.79   30.10
  -4   3   0 1048.60   31.70
  -4  -3   0 1049.30   30.60
  -4  -3   0 1045.80   31.60
  -4   3   0 1046.00   31.00
  -4   3   0  993.20   31.50
  -5  -3   0    0.60    0.50
  -5  -3   0    0.60    0.30
  -5   3   0    0.60    0.40
  -5  -3   0    2.80    0.90
  -5   3   0    0.10    0.40
  -5   3   0    0.50    0.30
  -5   3   0    1.20    0.60
   5  -3   0    0.80    0.40
  -6  -3   0  250.47    8.10
  -6  -3   0  249.28    7.90
   6  -3   0  249.08    8.80
  -6   3   0  263.77    8.10
  -6  -3   0  234.28   10.00
  -6   3   0  256.37    7.90
  -6  -3   0  258.37    8.20
  -6  -3   0  258.27    9.00
  -7   3   0    1.10    0.50
  -7  -3   0    0.50    0.40
  -7   3   0    0.60    0.40
  -7  -3   0    0.80    0.40
  -7   3   0    0.50    0.40
  -7  -3   0    1.00    0.50
  -7  -3   0    0.10    0.30
  -8  -3   0  195.98    6.20
  -8   3   0  185.38    6.40
  -8   3   0  188.68    6.20
  -8  -3   0  178.58    6.50
  -8  -3   0  179.38    6.40
  -8  -3   0  177.88    6.00
  -9   3   0    0.10    0.60
  -9   3   0    0.90    0.40
  -9  -3   0    0.90    0.40
  -9  -3   0    0.80    0.40
  -9  -3   0    0.40    0.60
 -10   3   0   16.30    1.00
  10   3   0   20.70    1.40
 -10  -3   0   17.80    1.00
   0  -4   0  911.11   27.80
   0  -4   0  948.51   27.30
   0   4   0  945.51   27.70
   0   4   0  913.81   28.30
   0   4   0  966.20   27.90
  -1  -4   0    1.40    0.50
  -1  -4   0    1.30    0.40
  -1   4   0    0.70    0.40
   1   4   0    0.60    0.30
  -1  -4   0    1.40    0.40
  -1   4   0    0.90    0.40
  -1   4   0    0.70    0.20
   1  -4   0    1.10    0.40
   1   4   0    0.60    0.40
  -1   4   0    1.20    0.50
   1  -4   0    1.70    0.50
  -2   4   0   36.20    1.90
   2  -4   0   29.80    2.00
  -2   4   0   32.60    1.40
  -2  -4   0   33.50    2.10
  -2  -4   0   35.70    1.80
  -2   4   0   30.60    1.90
   2  -4   0   32.00    1.70
   2   4   0   38.00    2.00
  -2  -4   0   32.10    2.10
  -2   4   0   33.30    2.20
  -3  -4   0    1.60    0.50
   3   4   0    0.60    0.40
  -3   4   0    0.60    0.20
  -3   4   0    2.50    0.70
  -3   4   0    1.30    0.50
  -3  -4   0    1.50    0.60
  -3  -4   0    0.70    0.30
   3  -4   0    1.50    0.50
   3  -4   0    0.90    0.50
  -3  -4   0    0.70    0.50
  -4  -4   0 1578.24   43.00
  -4   4   0 1480.95   42.70
  -4  -4   0 1500.65   44.00
  -4  -4   0 1522.95   44.10
  -4   4   0 1394.86   43.90
  -4   4   0 1461.25   43.40
  -4   4   0 1314.47   44.00
   4  -4   0 1506.15   42.80
  -5   4   0    1.40    0.80
  -5  -4   0    1.80    0.50
   6  -4   0  235.58    8.50
  -6   4   0  243.88    7.60
  -6  -4   0  245.78    7.90
  -6  -4   0  240.48    7.60
  -6   4   0  245.08    7.60
  -6  -4   0  228.38    7.50
  -6  -4   0  228.58    8.60
  -6  -4   0  230.58    7.70
  -6   4   0  241.08    7.70
   6   4   0  239.28    7.50
   7   4   0    0.20    0.30
  -7   4   0    1.70    0.60
  -7  -4   0    0.40    0.40
  -7   4   0    1.30    0.50
  -7   4   0    0.40    0.40
  -7  -4   0    0.20    0.40
  -7  -4   0    0.40    0.40
  -7  -4   0    0.50    0.40
  -8  -4   0  106.79    3.80
  -8   4   0  106.09    3.90
   8   4   0  105.39    3.80
  -8  -4   0  107.79    3.90
  -8   4   0  105.89    3.90
  -8   4   0  107.99    4.20
  -8  -4   0  107.89    4.10
  -9  -4   0    0.00    0.50
  -9  -4   0    0.30    0.30
  -9   4   0    0.40    0.30
  10   4   0  203.08    6.70
 -10  -4   0  216.58    6.50
 -10   4   0  207.98    6.50
  -1  -5   0    1.10    0.40
  -1   5   0    1.00    0.50
   1   5   0    0.60    0.40
  -1   5   0    0.80    0.30
  -1   5   0    1.10    0.50
  -1   5   0    1.00    0.50
  -1  -5   0    0.70    0.40
   1  -5   0    0.50    0.40
  -2  -5   0 1365.76   41.10
   2  -5   0 1454.05   40.40
   2  -5   0 1333.67   41.00
  -2   5   0 1411.46   40.70
  -2   5   0 1407.66   41.30
  -2   5   0 1423.56   39.60
  -2   5   0 1325.87   40.80
  -2  -5   0 1379.56   40.20
   2   5   0 1325.67   40.70
  -3   5   0    0.90    0.30
  -3  -5   0    0.30    0.40
  -3   5   0    0.40    0.50
  -3  -5   0    0.20    0.40
   3  -5   0    0.40    0.40
   3   5   0    0.40    0.40
  -3   5   0    0.20    0.30
   3  -5   0    0.50    0.40
  -4   5   0  137.19    5.90
   4  -5   0  148.19    5.50
  -4  -5   0  133.29    6.20
  -4   5   0  139.49    6.50
  -4  -5   0  134.89    5.40
  -4   5   0  146.09    4.80
   4  -5   0  137.39    6.30
   5  -5   0    1.20    0.60
  -5  -5   0    0.90    0.60
  -5   5   0   -0.10    0.30
   5   5   0    0.10    0.20
  -5  -5   0    0.20    0.30
  -5   5   0    0.40    0.30
  -6  -5   0  791.42   23.20
  -6   5   0  819.52   23.40
  -6   5   0  774.92   23.30
   6   5   0  781.82   23.10
  -6   5   0  778.52   23.20
  -7  -5   0    0.30    0.40
  -7   5   0    0.30    0.40
  -7   5   0    3.20    0.60
  -7   5   0    0.50    0.40
   7   5   0    0.50    0.40
  -8  -5   0  148.49    5.00
   8   5   0  143.79    4.90
  -8   5   0  147.69    5.40
  -8   5   0  151.38    5.10
  -8   5   0  153.28    5.10
  -9  -5   0    0.00    0.30
  -9   5   0    0.40    0.30
  -9   5   0    0.60    0.30
   0   6   0  282.37    8.80
   0  -6   0  290.37    9.40
   0   6   0  281.27   10.00
   0  -6   0  275.87   10.10
   1   6   0    3.20    0.80
  -1  -6   0    0.40    0.40
  -1   6   0    0.60    0.50
   1  -6   0    0.90    0.50
  -1   6   0    1.10    0.60
  -1   6   0    1.20    0.40
  -1   6   0    0.50    0.50
  -1  -6   0    0.20    0.40
   1  -6   0    0.30    0.40
   2  -6   0  778.92   24.70
  -2   6   0  755.72   24.90
  -2  -6   0  725.03   24.50
  -2   6   0  760.82   24.60
  -2   6   0  830.62   23.10
   2   6   0  790.32   24.50
  -2   6   0  808.82   24.40
  -2  -6   0  807.32   23.70
   2  -6   0  807.02   23.80
  -3  -6   0    1.00    0.50
  -3   6   0    2.50    0.90
   3  -6   0    5.90    1.00
  -4   6   0  428.66   12.90
   4  -6   0  423.96   14.20
   4   6   0  438.96   12.90
  -4   6   0  413.16   13.00
  -4  -6   0  433.46   14.10
  -4  -6   0  439.96   12.90
  -4   6   0  438.46   13.20
  -5  -6   0    0.20    0.30
   5   6   0   -0.20    0.30
  -5   6   0    2.20    0.50
  -5   6   0    0.70    0.40
  -5   6   0    0.70    0.40
  -6   6   0  214.58    7.30
  -6   6   0  224.38    7.50
   6   6   0  228.28    7.20
  -6  -6   0  219.48    7.20
  -6   6   0  231.68    7.30
  -7   6   0    0.30    0.40
   7   6   0    2.00    0.50
  -7   6   0    0.10    0.40
  -7  -6   0    0.20    0.30
  -7   6   0    0.50    0.40
  -8   6   0  306.67    9.40
  -8  -6   0  296.57    9.30
  -8   6   0  311.67    9.50
   8   6   0  301.67    9.30
  -9   6   0    0.30    0.30
   9   6   0    0.10    0.20
  -9  -6   0    0.50    0.30
  -9   6   0    0.30    0.30
   0  -7   0    0.90    0.50
   0   7   0    1.30    0.70
   1   7   0    0.40    0.50
  -1   7   0    0.00    0.40
  -1  -7   0    0.60    0.30
  -1   7   0    1.20    0.40
  -1  -7   0    0.30    0.40
  -1   7   0    0.30    0.30
   1  -7   0    0.40    0.40
  -2  -7   0   28.70    2.00
   2   7   0   25.80    2.30
  -2   7   0   28.20    2.40
  -2   7   0   32.10    1.50
  -2   7   0   30.70    1.70
   2  -7   0   30.40    2.10
  -2  -7   0   28.40    1.40
  -3  -7   0    0.90    0.40
  -3   7   0    0.50    0.30
  -3  -7   0    0.00    0.40
   3  -7   0    0.60    0.60
   3   7   0    0.10    0.30
  -3   7   0    0.50    0.30
   3   7   0    0.40    0.50
  -3   7   0    0.50    0.40
   4   7   0    1.00    0.40
  -4   7   0    1.20    0.50
  -4   7   0    0.90    0.50
  -4   7   0    0.40    0.30
  -4  -7   0    0.60    0.40
  -5   7   0    0.60    0.40
  -5   7   0    0.80    0.40
  -5   7   0    0.60    0.40
  -5  -7   0    0.30    0.30
   5   7   0    1.30    0.40
  -6   7   0   30.60    1.70
  -6  -7   0   29.20    1.60
  -6   7   0   29.00    1.60
  -6   7   0   28.60    1.80
   6   7   0   33.80    1.60
  -7  -7   0    0.40    0.40
  -7   7   0    1.00    0.40
   7   7   0    0.20    0.30
   8   7   0  225.58    6.90
  -8  -7   0  222.58    6.90
  -8   7   0  220.48    7.00
  -8   7   0  227.68    7.00
   9  -7   0    0.20    0.50
   0   8   0 1027.70   29.60
   0  -8   0 1015.10   29.60
   1  -8   0    0.80    0.40
  -1  -8   0   -0.30    0.30
  -1  -8   0    0.20    0.30
  -1   8   0    0.90    0.40
  -2   8   0 1261.77   36.40
  -2  -8   0 1238.08   36.40
   2  -8   0 1288.67   36.40
  -3   8   0    1.40    0.50
  -3  -8   0    0.30    0.30
   3   8   0    1.80    0.50
   3  -8   0    1.60    0.50
  -3   8   0    0.20    0.30
  -3   8   0    0.10    0.30
   4   8   0  102.39    3.70
  -4  -8   0  101.99    3.70
  -4   8   0  103.99    3.70
  -4   8   0  102.69    3.80
   4  -8   0  104.39    3.70
  -4   8   0  102.19    4.10
   5   8   0    1.10    0.40
  -5  -8   0    0.70    0.40
  -5   8   0    0.60    0.40
  -5   8   0    0.40    0.40
   5  -8   0    0.60    0.50
  -5   8   0    0.20    0.30
  -6   8   0 1434.96   42.20
   6   8   0 1484.75   42.20
   6  -8   0 1493.15   42.20
  -6   8   0 1469.85   42.30
  -6  -8   0 1457.35   42.20
  -7   8   0    0.70    0.30
   7  -8   0    2.20    0.50
  -7   8   0    0.60    0.30
   7   8   0    1.50    0.40
   8   8   0  173.48    5.40
  -8   8   0  173.68    5.50
   8  -8   0  180.38    5.50
   0  -9   0    0.00    0.30
   1  -9   0    0.40    0.40
  -1   9   0    0.30    0.30
  -2   9   0  449.66   13.70
   2  -9   0  461.55   13.70
  -3   9   0    1.40    0.40
   3  -9   0    1.10    0.40
  -4   9   0   25.70    1.40
   4   9   0   25.80    1.30
   4  -9   0   28.20    1.40
  -4   9   0   24.80    1.40
  -5   9   0    0.00    0.30
   5  -9   0    0.30    0.30
   5   9   0    0.80    0.30
  -5   9   0    0.90    0.40
  -6   9   0   65.39    2.60
   6  -9   0   66.29    2.50
   6   9   0   68.39    2.50
   7  -9   0    0.60    0.30
   7   9   0    0.10    0.20
  -7   9   0    0.20    0.20
   1 -10   0    0.70    0.40
   2 -10   0  899.21   26.10
   3 -10   0    0.40    0.30
   4 -10   0   60.59    2.30
   5  10   0    0.70    0.30
   5 -10   0    0.20    0.30
  -5  10   0    0.40    0.30
   0   0   1    1.40    0.10
   0   0   1    1.40    0.10
  -1   0  -1    2.80    0.30
   1   0  -1    2.90    0.30
  -1   0   1    2.90    0.30
  -1   0   1    2.70    0.30
  -1   0   1    2.80    0.30
  -1   0   1    2.90    0.30
  -1   0  -1    2.80    0.20
  -1   0  -1    2.60    0.20
  -1   0  -1    2.60    0.20
  -1   0   1    2.90    0.20
  -2   0   1    0.30    0.20
  -2   0  -1    0.10    0.20
   2   0  -1    0.80    0.20
  -2   0  -1    0.50    0.20
  -2   0   1    0.30    0.20
  -2   0   1    1.30    0.40
  -2   0   1    0.50    0.30
  -2   0  -1    0.60    0.20
  -3   0   1    0.80    0.30
  -3   0  -1    0.60    0.30
  -3   0  -1    1.40    0.50
  -3   0   1    0.60    0.20
  -3   0  -1    1.30    0.30
  -3   0   1    0.40    0.30
  -3   0   1    1.80    0.50
  -4   0  -1    0.70    0.40
  -4   0   1    1.30    0.50
  -4   0  -1    0.50    0.40
  -4   0   1    0.90    0.50
  -4   0   1    1.10    0.30
  -4   0  -1    1.10    0.40
  -4   0  -1    0.50    0.20
  -4   0  -1    0.50    0.30
  -4   0   1    0.70    0.30
  -4   0   1    1.60    0.50
  -5   0  -1    0.20    0.20
  -5   0   1    0.50    0.20
  -5   0   1    0.30    0.30
  -5   0  -1    0.40    0.30
  -5   0  -1    0.40    0.30
  -5   0  -1    0.30    0.40
  -5   0   1    0.50    0.40
  -5   0   1    0.70    0.50
  -5   0   1    0.70    0.40
  -5   0  -1    1.60    0.60
  -6   0   1    2.10    0.60
  -6   0   1    0.50    0.50
  -6   0  -1    0.20    0.30
  -6   0  -1    0.80    0.30
  -6   0   1    2.30    0.50
  -6   0   1    0.30    0.40
  -6   0  -1    0.20    0.30
  -6   0  -1    0.00    0.30
  -7   0   1    0.10    0.40
  -7   0   1    0.40    0.30
  -7   0  -1    0.30    0.40
  -7   0   1    0.90    0.50
  -7   0   1    0.40    0.30
  -7   0  -1    0.60    0.40
  -7   0  -1    0.50    0.30
  -7   0  -1    0.40    0.30
  -7   0  -1    0.30    0.30
  -7   0   1    0.40    0.30
  -8   0  -1    0.60    0.40
  -8   0   1    1.50    0.70
  -8   0  -1    0.20    0.40
  -8   0  -1    0.10    0.50
  -8   0   1    0.40    0.40
  -8   0  -1    0.40    0.40
  -8   0   1    0.30    0.40
  -8   0   1    0.90    0.40
  -9   0   1    0.30    0.40
  -9   0   1    1.40    0.70
  -9   0  -1    0.20    0.40
  -9   0  -1    1.30    0.70
  -9   0   1    0.00    0.40
  -9   0  -1    0.40    0.40
  10   0   1    0.20    0.60
 -10   0   1    1.00    0.40
  10   0  -1    1.10    0.70
 -10   0  -1    0.60    0.40
   0  -1   1    8.70    0.40
   0   1  -1    9.20    0.50
   0  -1  -1   11.40    0.50
   0  -1   1    9.40    0.60
   0   1  -1    9.70    0.50
   0   1  -1   11.10    0.50
   0   1   1   11.60    0.50
   0   1   1    8.40    0.50
   0   1   1    9.00    0.50
   0  -1   1    9.30    0.50
  -1   1   1  105.79    3.70
  -1  -1  -1  114.19    3.60
  -1  -1  -1  111.39    3.70
  -1  -1  -1  118.49    3.70
   1   1  -1  117.99    3.70
  -1   1   1  112.89    3.50
  -1  -1  -1  109.59    3.40
  -1   1   1  123.79    3.80
  -1   1   1  117.69    3.70
  -1  -1  -1  120.39    3.70
   1   1  -1  114.49    3.60
  -1   1   1  117.29    3.80
  -1   1  -1  123.49    3.80
  -1  -1   1  118.99    3.70
   1   1   1  118.69    3.40
  -1   1  -1  116.39    3.50
  -1   1  -1  114.19    3.60
  -1  -1   1  121.29    3.80
  -1   1  -1  120.19    3.60
   1  -1  -1  113.89    3.50
  -1  -1   1  116.09    3.50
   1   1   1  120.79    3.60
   1   1   1  122.89    3.70
  -1  -1   1  113.79    3.60
  -1   1  -1   98.89    3.50
   1  -1  -1  112.29    3.70
  -1   1  -1  117.49    3.80
  -2  -1  -1 1923.91   57.19
  -2  -1  -1 1808.42   55.89
   2   1  -1 2022.00   55.59
  -2  -1  -1 1797.42   72.69
   2   1  -1 1763.12   56.29
  -2   1   1 1853.11   55.59
  -2  -1  -1 1944.41   55.59
  -2  -1  -1 1882.11   55.89
  -2   1   1 2024.00   57.59
  -2   1   1 1848.32   56.69
  -2   1  -1 1862.81   58.09
  -2   1  -1 2019.50   54.99
  -2  -1   1 1809.12   56.39
  -2  -1   1 1875.01   57.79
  -2  -1   1 2004.40   57.19
  -2   1  -1 1882.91   55.69
   2  -1  -1 1905.31   55.99
   2   1   1 1888.51   62.99
  -2   1  -1 1653.23   55.59
   2   1   1 2006.70   56.99
  -2   1  -1 1759.42   57.49
  -2  -1   1 1977.20   55.99
  -2   1  -1 2016.80   56.49
  -3  -1  -1   14.00    0.90
  -3   1   1   12.20    0.80
  -3  -1  -1   12.70    0.90
  -3   1   1   11.90    1.10
   3   1  -1   10.90    0.60
  -3  -1  -1   13.60    1.00
  -3   1   1   12.90    1.10
  -3   1   1   13.70    1.00
  -3   1  -1   10.00    0.80
  -3   1  -1   12.90    0.90
   3   1   1   11.90    0.70
  -3  -1   1   14.50    1.00
  -3  -1   1   12.70    0.80
  -3  -1   1   12.10    1.00
  -3  -1   1   12.00    1.10
  -3   1  -1   12.70    1.10
  -3   1  -1   12.90    1.10
  -3   1  -1   12.60    0.90
  -4   1   1  117.69    4.20
  -4  -1  -1  111.39    3.70
  -4  -1  -1  119.89    4.20
  -4   1   1  114.79    3.70
  -4   1   1  117.69    4.80
  -4  -1  -1  117.49    4.30
  -4   1   1  119.59    4.80
  -4  -1  -1  118.59    4.80
  -4   1   1  120.39    4.50
  -4  -1  -1  114.49    4.50
  -4  -1   1  107.79    4.50
  -4   1  -1  115.89    4.70
  -4  -1   1  117.29    3.80
  -4  -1   1  118.69    4.90
  -4  -1   1  117.69    4.50
  -4   1  -1  120.99    4.20
  -4  -1   1  114.99    4.20
  -4   1  -1  119.39    4.40
  -4   1  -1  110.49    4.70
  -4   1  -1  108.89    3.60
  -5   1   1   75.99    3.90
  -5  -1  -1   75.59    3.30
  -5  -1  -1   76.99    3.90
  -5  -1  -1   74.89    3.60
  -5   1   1   75.09    3.90
  -5   1   1   72.29    2.70
  -5   1   1   77.49    3.20
  -5   1  -1   74.39    3.40
  -5  -1   1   77.69    3.30
  -5   1  -1   73.99    3.20
  -5  -1   1   75.99    2.80
  -5  -1   1   72.99    3.60
  -5   1  -1   72.59    3.70
  -5  -1   1   75.49    4.00
  -5   1  -1   78.29    4.00
  -5   1  -1   73.09    2.60
  -6   1   1  212.28    7.50
  -6   1   1  201.58    8.50
  -6   1   1  209.38    8.00
  -6   1   1  206.38    8.30
  -6   1   1  215.08    6.80
  -6  -1  -1  212.58    7.60
  -6  -1  -1  211.18    8.10
  -6  -1  -1  214.88    6.80
  -6  -1  -1  204.48    8.50
  -6   1  -1  208.98    6.70
  -6  -1   1  204.78    8.20
  -6  -1   1  218.88    6.90
  -6   1  -1  213.48    7.60
  -6  -1   1  193.48    8.40
  -6   1  -1  215.08    8.60
  -6   1  -1  203.58    7.80
  -6  -1   1  221.48    7.60
  -7  -1  -1   35.40    2.40
  -7  -1  -1   39.40    1.80
  -7  -1  -1   37.60    1.80
  -7   1   1   37.00    1.80
  -7  -1  -1   37.10    2.00
  -7  -1  -1   38.30    2.00
  -7   1   1   40.30    2.00
  -7   1   1   39.90    1.80
  -7   1   1   36.60    2.00
  -7  -1   1   39.00    1.80
  -7  -1   1   39.90    2.00
  -7   1  -1   36.40    2.00
  -7  -1   1   37.80    2.00
  -7  -1   1   37.70    2.50
  -7   1  -1   38.70    1.80
  -7  -1   1   38.50    1.80
  -7   1  -1   41.00    1.80
  -7   1  -1   39.10    1.90
  -7   1  -1   41.30    2.60
  -8  -1  -1  204.48    7.20
  -8   1   1  212.68    7.30
  -8   1   1  215.38    7.00
  -8  -1  -1  218.38    7.30
  -8   1   1  220.38    7.30
  -8  -1  -1  214.48    7.00
  -8  -1  -1  211.58    6.90
  -8  -1   1  223.58    7.40
  -8   1  -1  208.78    7.20
  -8   1  -1  211.78    7.00
  -8  -1   1  216.88    7.30
  -8  -1   1  212.68    6.90
  -8  -1   1  212.28    7.00
  -8   1  -1  215.18    7.20
  -9   1   1   53.19    2.30
  -9  -1  -1   53.39    2.60
  -9  -1  -1   51.19    2.20
  -9   1   1   47.00    2.40
  -9  -1  -1   50.39    2.20
  -9  -1  -1   47.80    2.40
  -9  -1   1   48.00    2.50
   9  -1  -1   50.19    2.60
  -9   1  -1   51.49    2.30
  -9  -1   1   51.79    2.60
  -9   1  -1   49.40    2.40
  -9  -1   1   48.00    2.20
  -9   1  -1   51.29    2.50
  10  -1   1   12.80    1.20
 -10  -1  -1   16.60    1.00
  10   1  -1   15.60    1.40
 -10   1   1   14.40    1.00
  10  -1  -1   13.70    1.20
 -10   1  -1   13.70    1.00
 -10  -1   1   13.80    1.00
  10   1   1   14.60    1.40
   0   2   1 2711.03   84.19
   0   2  -1 2975.70   84.69
   0  -2   1 2746.83   83.69
   0   2  -1 2965.00   83.89
   0   2  -1 2627.54  122.09
   0  -2  -1 2777.82   84.09
   0  -2  -1 2760.92   82.69
   0   2   1 3047.40  111.69
   0  -2   1 2813.42   82.49
   0  -2  -1 2941.51   84.69
   0  -2   1 2932.31   85.39
   0   2   1 2819.02   83.69
  -1   2   1  814.12   24.10
  -1   2   1  824.02   23.60
  -1   2   1  832.72   25.30
   1  -2   1  803.52   23.00
   1  -2   1  811.12   23.60
  -1  -2  -1  866.31   24.30
   1   2  -1  803.12   25.10
  -1  -2  -1  722.03   22.60
  -1   2   1  792.32   23.50
   1   2  -1  850.71   23.70
  -1  -2  -1  785.62   24.10
  -1  -2  -1  721.83   23.10
  -1   2  -1  765.32   23.00
  -1  -2   1  802.72   24.30
  -1   2  -1  711.23   22.80
  -1  -2   1  791.42   23.00
  -1   2  -1  806.02   25.30
  -1  -2   1  768.42   24.30
   1  -2  -1  827.62   23.60
  -1   2  -1  852.11   24.90
  -1  -2   1  714.73   23.10
   1   2   1  733.43   23.50
  -1   2  -1  801.62   24.30
   1   2   1  771.12   24.20
   1  -2  -1  731.73   22.80
  -2   2   1 2795.72   89.39
   2   2  -1 3059.69   88.19
  -2   2   1 3039.00   86.99
  -2   2   1 2945.31  131.69
  -2  -2  -1 2929.81   86.19
  -2  -2  -1 2960.80   89.49
  -2  -2  -1 3074.69   87.79
  -2  -2  -1 3021.30   89.99
   2   2  -1 2923.21   89.79
   2  -2   1 3034.50   87.49
  -2   2   1 3185.78   91.99
  -2   2  -1 3119.29   91.89
  -2   2  -1 2807.42   87.99
   2  -2  -1 2985.20   87.49
  -2  -2   1 3005.10   87.89
  -2  -2   1 2869.91   87.19
  -2   2  -1 2769.62   87.09
  -2  -2   1 3000.70   90.79
  -2   2  -1 3030.80  116.79
  -2  -2   1 3202.98   90.19
   2   2   1 2894.41   88.69
  -2   2  -1 3094.29   91.09
  -3   2   1   40.50    2.20
   3   2  -1   40.00    1.80
  -3  -2  -1   39.20    1.80
   3  -2   1   41.50    1.80
  -3  -2  -1   41.80    2.20
  -3   2   1   39.00    2.20
  -3  -2  -1   39.10    1.60
  -3   2   1   40.20    2.00
  -3  -2  -1   40.20    2.10
  -3  -2   1   38.50    2.10
  -3  -2   1   38.70    1.80
  -3  -2   1   40.70    1.90
  -3  -2   1   41.70    2.20
  -3   2  -1   41.90    1.90
   3  -2  -1   41.10    1.80
   3   2   1   36.90    1.70
  -3   2  -1   39.90    2.20
  -3   2  -1   40.60    2.20
  -4   2   1   33.60    1.40
  -4  -2  -1   33.50    1.80
  -4   2   1   33.70    2.00
  -4  -2  -1   35.40    2.10
  -4   2   1   35.00    2.30
  -4   2   1   39.40    2.40
  -4  -2  -1   35.40    2.30
  -4  -2  -1   34.90    1.50
  -4   2  -1   35.20    2.30
  -4   2  -1   34.50    2.30
  -4   2  -1   35.70    1.90
  -4  -2   1   34.00    2.10
  -4   2  -1   35.40    1.80
  -4  -2   1   34.40    1.80
  -4   2  -1   34.10    1.30
  -4  -2   1   34.50    2.30
   4  -2  -1   35.50    1.80
  -5  -2  -1    0.20    0.20
  -5  -2  -1    0.10    0.30
  -5   2   1    0.70    0.40
  -5   2   1    0.10    0.30
  -5   2   1    0.90    0.60
  -5  -2  -1    0.40    0.30
  -5  -2  -1    0.90    0.60
  -5   2   1    0.10    0.20
   5  -2   1    1.00    0.50
  -5   2  -1    1.00    0.60
  -5  -2   1    0.40    0.50
   5  -2  -1    0.30    0.30
  -5   2  -1    0.90    0.50
  -5  -2   1    1.20    0.40
  -5  -2   1    0.40    0.30
  -5   2  -1    0.50    0.50
  -5  -2   1    0.10    0.30
  -5   2  -1    0.60    0.20
  -6   2   1  203.18    8.50
  -6  -2  -1  194.78    6.70
  -6  -2  -1  204.28    6.60
  -6   2   1  216.78    6.70
  -6  -2  -1  210.18    6.80
  -6  -2  -1  213.68    7.60
  -6   2   1  206.08    8.00
  -6   2   1  204.18    6.60
  -6  -2  -1  192.38    8.10
   6  -2   1  208.38    7.40
   6  -2  -1  215.38    7.40
  -6  -2   1  205.28    6.80
  -6  -2   1  213.28    6.60
  -6   2  -1  210.68    6.60
  -6  -2   1  216.98    6.90
  -6   2  -1  208.88    6.60
  -6   2  -1  208.08    8.60
  -6  -2   1  213.28    7.50
  -6   2  -1  208.18    7.90
  -6  -2   1  189.38    8.10
  -7   2   1    0.40    0.50
  -7  -2  -1    0.90    0.40
  -7   2   1    0.20    0.30
  -7   2   1    0.50    0.40
   7  -2   1    0.40    0.60
  -7  -2  -1    0.40    0.40
  -7  -2  -1    0.60    0.40
  -7  -2  -1    0.50    0.40
  -7  -2  -1    0.40    0.50
  -7  -2   1    1.60    0.70
  -7   2  -1    0.90    0.40
  -7  -2   1    0.30    0.40
  -7  -2   1    0.90    0.40
   7  -2  -1    0.20    0.40
  -7  -2   1    0.70    0.40
  -7   2  -1    1.30    0.40
  -7   2  -1    0.20    0.50
  -7  -2   1    0.60    0.40
  -8   2   1    6.00    0.90
  -8   2   1    5.10    0.70
  -8  -2  -1    5.40    0.70
  -8  -2  -1    6.30    0.90
  -8  -2  -1    6.30    0.90
  -8  -2  -1    4.00    0.70
  -8  -2   1    7.20    1.10
  -8   2  -1    6.00    1.00
  -8  -2   1    4.90    0.80
  -8  -2   1    5.00    0.70
   8  -2  -1    4.40    0.90
  -8  -2   1    6.90    0.80
  -8   2  -1    5.10    0.80
  -9   2   1   10.00    0.90
  -9  -2  -1    8.60    0.90
  -9  -2  -1   10.20    1.20
  -9   2   1    8.80    1.00
  -9  -2  -1    8.70    0.90
  -9  -2  -1    8.80    1.00
  -9  -2   1   10.80    0.90
  -9  -2   1   10.20    0.90
  -9   2  -1   10.30    0.90
  -9  -2   1    8.50    1.00
   9  -2  -1    8.80    1.40
  -9   2  -1    9.20    1.00
  -9  -2   1    8.90    1.20
 -10   2   1   15.20    1.00
 -10  -2  -1   16.70    1.00
  10   2  -1   18.60    1.50
 -10   2  -1   15.10    1.00
 -10  -2   1   15.80    1.00
  10  -2  -1   15.80    1.10
   0   3   1    1.80    0.40
   0   3  -1    1.50    0.40
   0  -3   1    0.40    0.30
   0   3  -1    0.80    0.30
   0  -3  -1    0.70    0.30
   0  -3   1    0.40    0.30
   0  -3   1    0.40    0.20
   0  -3  -1    1.00    0.40
   0   3  -1    0.30    0.30
   0  -3  -1    0.30    0.20
   1  -3   1   11.00    1.00
  -1  -3  -1   11.30    0.80
  -1  -3  -1   11.50    0.90
   1   3  -1   11.20    0.90
  -1  -3  -1   11.60    0.80
   1  -3   1   11.70    0.80
   1   3  -1   12.50    1.00
  -1   3   1   12.40    1.00
  -1   3   1   11.40    0.90
   1  -3   1   10.40    0.80
  -1   3   1   11.60    0.90
  -1  -3  -1   11.00    1.00
   1   3   1   11.40    0.90
   1  -3  -1   11.10    0.90
  -1  -3   1   11.90    0.80
  -1   3  -1   12.00    0.90
  -1  -3   1   11.40    0.90
   1  -3  -1   11.80    0.80
  -1  -3   1   11.30    1.00
   1   3   1   11.50    1.00
  -1   3  -1   11.10    0.90
  -1  -3   1   13.70    1.00
   1  -3  -1   11.70    0.90
  -1   3  -1   11.90    1.00
  -2   3   1   52.29    2.50
  -2  -3  -1   52.99    2.50
   2  -3   1   54.19    2.10
  -2   3   1   51.99    2.60
  -2  -3  -1   52.39    2.50
  -2  -3  -1   50.39    1.90
   2  -3   1   50.09    2.50
  -2   3   1   55.79    2.40
  -2  -3  -1   52.29    2.10
  -2   3   1   51.19    2.20
   2   3  -1   52.09    2.30
   2   3  -1   49.60    2.50
   2   3   1   45.90    2.40
  -2  -3   1   47.80    2.10
  -2   3  -1   52.09    2.30
  -2   3  -1   53.59    2.70
  -2  -3   1   50.89    2.50
  -2  -3   1   53.49    2.60
  -2  -3   1   51.19    2.10
  -2   3  -1   48.60    2.50
   2   3   1   50.59    2.30
   2  -3  -1   52.09    2.10
  -3  -3  -1   81.89    3.60
  -3   3   1   78.09    3.60
  -3   3   1   81.59    3.70
  -3   3   1   77.29    2.60
   3  -3   1   79.39    3.00
  -3  -3  -1   79.99    2.80
  -3  -3  -1   77.79    3.10
  -3  -3  -1   78.69    3.60
  -3   3   1   77.89    3.40
   3   3  -1   74.09    3.10
  -3  -3   1   81.59    3.70
  -3   3  -1   80.19    3.80
   3  -3  -1   80.29    3.00
  -3  -3   1   76.69    3.10
  -3  -3   1   80.29    2.80
   3   3   1   71.69    3.10
  -3   3  -1   76.89    2.60
  -3   3  -1   82.69    3.30
  -3  -3   1   78.69    3.60
  -3   3  -1   77.99    3.60
  -3   3  -1   82.49    3.10
  -4   3   1  927.31   26.90
  -4  -3  -1  889.81   25.90
  -4   3   1  884.61   27.50
  -4  -3  -1  908.51   26.50
   4  -3   1  906.61   26.40
  -4  -3  -1  923.81   27.40
  -4   3   1  797.72   27.20
  -4  -3  -1  903.51   27.20
  -4   3   1  904.91   25.80
  -4   3  -1  858.61   26.70
  -4   3  -1  887.41   27.50
  -4  -3   1  893.61   25.90
  -4  -3   1  919.41   26.50
  -4  -3   1  920.21   27.30
   4  -3  -1  881.01   26.30
  -4   3  -1  883.51   25.70
  -4   3  -1  900.01   27.50
  -4  -3   1  894.41   27.40
  -5   3   1  116.19    3.90
  -5   3   1  113.49    5.00
  -5  -3  -1  109.99    5.20
  -5  -3  -1  119.19    4.70
  -5   3   1  113.99    5.50
  -5  -3  -1  111.89    5.40
   5  -3   1  117.89    4.50
  -5   3   1  113.29    5.50
   5  -3  -1  115.89    4.50
  -5   3  -1  116.39    5.50
  -5  -3   1  114.89    4.10
  -5  -3   1  109.99    5.40
  -5  -3   1  118.29    4.60
  -5   3  -1  112.89    5.50
  -5   3  -1  114.79    4.90
  -5  -3   1  113.89    5.30
  -5   3  -1  116.19    3.90
  -6  -3  -1    9.30    0.90
   6  -3   1    8.20    1.10
  -6  -3  -1    8.80    0.90
  -6   3   1   10.60    0.90
  -6  -3  -1   10.60    1.20
  -6  -3  -1   10.40    0.80
  -6   3   1   10.10    0.80
  -6  -3   1   10.00    1.20
  -6  -3   1   10.70    1.00
  -6   3  -1    9.80    0.80
  -6   3  -1   10.50    0.80
   6  -3  -1    9.10    1.10
  -6  -3   1    9.60    0.90
  -6  -3   1    9.50    0.80
  -7  -3  -1    2.70    0.70
  -7   3   1    2.70    0.60
  -7  -3  -1    4.00    0.70
  -7  -3  -1    1.50    0.50
  -7   3   1    1.80    0.50
  -7  -3  -1    2.10    0.60
  -7   3   1    2.70    0.60
  -7  -3   1    1.30    0.50
  -7  -3   1    3.00    0.60
  -7  -3   1    1.40    0.50
  -7   3  -1    1.50    0.50
  -7   3  -1    2.30    0.60
  -7  -3   1    2.10    0.60
  -7   3  -1    2.20    0.60
  -8   3   1  246.28    7.80
  -8   3   1  252.17    8.10
  -8  -3  -1  232.68    7.70
  -8  -3  -1  245.88    7.80
  -8  -3  -1  229.38    8.10
  -8  -3  -1  242.88    8.00
  -8   3   1  242.78    7.80
  -8  -3   1  252.57    7.80
  -8  -3   1  234.68    8.10
  -8  -3   1  226.78    7.60
  -8   3  -1  248.18    7.80
  -8   3  -1  241.18    8.00
  -8  -3   1  250.17    8.10
  -9   3   1   45.70    2.00
  -9  -3  -1   45.30    2.00
  -9  -3  -1   44.70    2.30
  -9  -3  -1   44.00    2.00
  -9  -3   1   43.30    2.30
  -9   3  -1   43.90    2.70
  -9   3  -1   44.30    2.00
  -9  -3   1   44.50    2.00
 -10   3   1    2.60    0.50
 -10  -3  -1    2.50    0.50
  10   3  -1    3.60    0.80
 -10  -3   1    3.10    0.50
 -10   3  -1    2.80    0.50
  10   3   1    3.60    0.70
   0   4  -1   61.49    2.90
   0  -4  -1   64.89    2.90
   0   4  -1   63.09    2.90
   0  -4   1   66.29    2.60
   0   4  -1   64.19    2.90
   0   4   1   61.79    2.80
   0  -4   1   63.69    3.00
   0   4   1   64.89    2.80
   0  -4  -1   65.99    2.60
   0   4   1   60.19    2.90
  -1   4   1  118.89    4.60
  -1   4   1  114.59    4.40
  -1  -4  -1  121.89    4.50
  -1   4   1  118.39    4.60
   1   4  -1  118.19    4.60
   1  -4   1  117.69    4.20
   1   4  -1  112.39    4.40
   1  -4   1  119.29    4.70
  -1  -4  -1  119.79    4.10
  -1  -4  -1  106.29    4.10
  -1  -4  -1  111.19    4.60
  -1   4   1  119.39    3.90
  -1  -4   1  117.19    4.10
   1   4   1  109.79    4.50
  -1  -4   1  110.89    4.30
  -1   4  -1  117.29    4.40
   1  -4  -1  118.09    4.20
  -1  -4   1  115.39    4.60
  -1   4  -1  119.99    4.50
   1  -4  -1  111.09    4.50
   1   4   1  120.09    4.50
  -1   4  -1  114.39    3.70
  -1   4  -1  115.69    4.70
  -2   4   1  211.58    6.40
  -2   4   1  212.58    7.10
  -2  -4  -1  201.78    6.80
   2  -4   1  208.48    6.80
   2   4  -1  197.58    7.10
  -2   4   1  209.58    7.60
  -2   4   1  224.58    7.40
  -2  -4  -1  202.28    7.30
  -2  -4  -1  207.58    7.50
   2  -4   1  209.48    7.50
  -2   4  -1  205.08    6.30
  -2   4  -1  216.98    7.20
   2  -4  -1  214.78    6.90
   2  -4  -1  203.88    7.40
  -2  -4   1  201.18    6.80
   2   4   1  200.88    7.10
  -2   4  -1  202.08    7.10
  -2  -4   1  214.38    7.50
  -2   4  -1  204.08    7.60
  -2  -4   1  208.18    7.50
  -3   4   1   14.50    1.30
   3   4  -1   12.10    1.20
  -3   4   1   12.40    1.30
  -3  -4  -1    9.90    0.80
   3  -4   1   10.30    0.90
  -3   4   1   11.50    1.40
   3  -4   1    9.20    1.20
  -3  -4  -1    9.90    1.20
  -3  -4  -1    8.60    1.20
  -3   4   1    9.90    0.70
  -3  -4  -1    9.50    1.00
  -3   4  -1   11.00    1.40
  -3  -4   1   10.40    1.30
  -3  -4   1   14.70    1.10
  -3  -4   1   10.30    1.30
  -3   4  -1    9.30    1.20
  -3   4  -1    9.50    0.70
   3  -4  -1   12.70    1.30
   3   4   1   10.90    1.10
   3  -4  -1   10.60    1.00
  -3   4  -1    9.80    1.10
   4  -4   1  492.95   14.90
  -4  -4  -1  473.55   15.90
  -4   4   1  495.15   16.00
  -4   4   1  480.35   15.50
  -4   4   1  500.15   14.30
  -4   4   1  477.95   16.20
  -4  -4  -1  486.35   14.50
  -4  -4  -1  478.05   15.90
   4  -4   1  472.25   15.90
  -4  -4  -1  476.65   15.00
  -4  -4   1  489.75   15.00
  -4  -4   1  455.45   14.40
   4  -4  -1  477.55   14.80
  -4   4  -1  495.95   14.20
  -4   4  -1  468.05   15.30
  -4   4  -1  482.65   16.00
  -4  -4   1  486.35   16.00
  -4   4  -1  463.95   16.20
  -5  -4  -1  536.35   15.90
  -5   4   1  526.15   15.70
  -5   4   1  495.65   18.10
  -5  -4  -1  532.95   16.60
   5  -4   1  511.25   16.40
  -5  -4  -1  521.45   17.70
  -5  -4  -1  523.65   18.40
  -5   4   1  528.15   17.30
  -5  -4   1  524.15   16.50
  -5   4  -1  591.54   16.70
  -5  -4   1  505.95   17.80
   5  -4  -1  526.15   16.40
  -5  -4   1  507.15   15.80
  -5   4  -1  553.14   15.70
  -5   4  -1  515.95   17.00
  -6  -4  -1  118.79    4.40
  -6   4   1  114.39    4.10
   6  -4   1  112.69    4.90
  -6   4   1  122.59    4.30
  -6   4   1  116.89    4.10
  -6  -4  -1  115.69    5.10
  -6  -4  -1  114.79    4.00
  -6  -4  -1  115.89    4.20
  -6  -4  -1  117.69    4.10
   6   4  -1  115.89    4.00
  -6   4  -1  122.49    4.30
  -6  -4   1  119.69    4.40
   6   4   1  115.59    4.00
  -6   4  -1  121.89    4.20
  -6  -4   1  113.19    4.20
  -6  -4   1  117.09    5.00
  -6   4  -1  113.89    4.10
   6  -4  -1  112.99    4.90
   7   4  -1   36.20    1.80
  -7   4   1   37.90    1.90
  -7   4   1   41.70    1.90
  -7  -4  -1   36.50    2.10
  -7  -4  -1   38.20    1.80
  -7   4   1   40.30    2.10
  -7  -4  -1   43.50    2.00
  -7  -4  -1   37.20    2.00
  -7  -4   1   37.30    1.90
  -7   4  -1   40.10    1.90
  -7  -4   1   37.20    2.20
  -7   4  -1   38.40    1.90
   7   4   1   39.20    1.80
   8   4  -1    4.30    0.80
  -8   4   1    5.70    0.80
  -8  -4  -1    6.00    0.90
  -8   4   1    8.30    0.80
  -8   4   1    6.20    0.90
  -8  -4  -1    5.30    0.70
  -8  -4  -1    6.40    0.80
   8   4   1    6.20    0.70
  -8   4  -1    5.60    0.90
  -8   4  -1    7.90    0.80
  -8  -4   1    6.60    0.80
  -8   4  -1    6.10    0.70
  -9  -4  -1    0.60    0.50
  -9   4   1    0.40    0.30
  -9  -4  -1    1.00    0.40
  -9   4   1    0.70    0.40
  -9  -4  -1    1.10    0.40
  -9  -4   1    0.70    0.40
  -9  -4   1    0.10    0.50
  -9   4  -1    1.20    0.40
  10   4  -1   14.60    1.60
 -10  -4  -1   14.90    0.90
 -10   4   1   15.50    0.90
 -10  -4   1   15.60    0.90
 -10   4  -1   15.20    0.90
  10   4   1   17.60    1.20
   0   5   1    0.30    0.20
   0   5  -1    0.60    0.30
   0   5   1    0.30    0.30
   0  -5  -1    0.90    0.40
   0  -5  -1    0.90    0.40
   0  -5   1    1.00    0.50
   0   5  -1    0.20    0.30
   0   5  -1    0.30    0.30
   0  -5   1    0.10    0.30
  -1   5   1   19.40    1.00
   1  -5   1   15.60    1.20
  -1   5   1   13.90    1.40
   1   5  -1   13.80    0.90
  -1  -5  -1   15.20    1.20
   1  -5   1   14.20    1.40
  -1  -5  -1   14.80    1.40
  -1   5   1   15.40    1.40
   1   5  -1   15.40    1.40
  -1   5   1   17.80    1.50
  -1   5  -1   13.90    1.40
   1  -5  -1   14.20    1.40
  -1  -5   1   15.50    1.50
   1   5   1   13.40    1.30
  -1   5  -1   15.60    1.40
  -1   5  -1   14.90    1.40
  -1  -5   1   14.40    1.10
  -1   5  -1   14.40    0.90
   1  -5  -1   15.20    1.20
  -2   5   1   99.49    4.10
  -2  -5  -1   91.59    3.80
  -2   5   1   99.09    4.40
  -2  -5  -1   96.09    4.40
  -2   5   1   93.89    3.40
   2  -5   1   91.99    4.40
  -2   5   1   92.29    4.50
   2   5  -1   87.89    4.10
   2  -5   1   98.59    3.90
  -2   5  -1   93.89    4.20
  -2   5  -1   95.19    3.30
   2   5   1  101.99    4.30
  -2   5  -1   93.99    4.60
  -2  -5   1   93.09    3.80
   2  -5  -1   97.19    3.90
  -2  -5   1   94.19    4.40
   2  -5  -1   90.59    4.30
  -2   5  -1   97.89    4.10
   3   5  -1    1.90    0.70
  -3   5   1    1.60    0.40
   3  -5   1    2.80    0.80
   3  -5   1    1.30    0.50
  -3   5   1    1.60    0.60
  -3  -5  -1    1.80    0.70
  -3   5   1    1.40    0.70
  -3  -5  -1    2.10    0.60
  -3  -5   1    1.30    0.70
  -3  -5   1    2.00    0.60
  -3   5  -1    2.80    0.80
  -3   5  -1    2.00    0.40
   3  -5  -1    1.40    0.50
  -3   5  -1    2.10    0.70
   3  -5  -1    1.50    0.70
   3   5   1    1.40    0.60
  -4  -5  -1  499.25   17.10
  -4   5   1  475.25   17.30
   4  -5   1  515.05   16.10
  -4  -5  -1  523.25   16.20
  -4   5   1  539.45   15.40
  -4   5   1  517.85   16.80
   4  -5   1  504.65   17.30
   4  -5  -1  538.65   16.20
  -4   5  -1  510.55   15.30
  -4  -5   1  549.54   16.20
  -4   5  -1  500.45   17.60
  -4  -5   1  497.95   17.20
  -4   5  -1  498.85   16.60
   4  -5  -1  492.15   17.00
  -5   5   1  125.69    4.40
  -5  -5  -1  124.09    4.60
  -5   5   1  134.19    4.60
   5  -5   1  126.09    5.20
  -5   5   1  123.19    4.30
  -5  -5  -1  127.69    4.30
  -5  -5  -1  124.69    5.30
   5   5  -1  129.19    4.30
  -5   5  -1  125.19    4.40
  -5  -5   1  128.99    4.40
  -5  -5   1  122.29    5.20
   5  -5  -1  123.89    5.20
  -5   5  -1  127.39    4.40
   5   5   1  128.09    4.30
  -5   5  -1  130.69    4.50
  -6  -5  -1   13.80    1.00
  -6  -5  -1   13.30    1.00
  -6   5   1   14.10    1.00
   6   5  -1   14.60    1.00
  -6   5   1   14.00    1.10
  -6   5   1   14.50    1.20
   6   5   1   12.10    1.00
  -6   5  -1   14.20    1.10
  -6  -5   1   12.30    1.00
  -6   5  -1   14.10    1.10
  -6   5  -1   14.40    1.00
  -7   5   1   74.49    3.00
  -7   5   1   74.39    3.00
  -7   5   1   75.39    3.20
  -7  -5  -1   75.79    3.00
   7   5  -1   74.89    2.90
  -7  -5  -1   76.69    2.90
  -7   5  -1   74.49    3.00
  -7   5  -1   73.49    3.20
  -7   5  -1   73.19    3.00
   7   5   1   72.29    2.90
  -7  -5   1   73.79    3.00
   8   5  -1    3.70    0.60
  -8   5   1    3.70    0.60
  -8  -5  -1    3.00    0.60
  -8   5   1    3.40    0.70
  -8   5   1    4.00    0.70
  -8  -5  -1    4.90    0.90
  -8   5  -1    3.40    0.70
  -8  -5   1    3.50    0.60
   8   5   1    3.80    0.60
  -8   5  -1    3.40    0.60
  -8   5  -1    3.80    0.70
  -9   5   1    0.70    0.40
  -9  -5  -1    0.80    0.30
  -9   5   1    1.10    0.40
  -9   5  -1    0.50    0.30
  -9   5  -1    0.90    0.40
  -9  -5   1    1.20    0.40
   0   6   1  985.20   29.70
   0  -6  -1  966.20   29.70
   0  -6  -1  978.70   29.00
   0   6  -1  970.90   28.40
   0   6  -1  973.10   29.70
   0  -6   1  976.10   29.90
   0  -6   1  984.60   28.90
  -1   6   1   68.09    3.70
  -1  -6  -1   71.29    3.70
   1  -6   1   73.69    3.30
  -1  -6  -1   77.69    3.30
  -1   6   1   76.29    3.80
  -1   6   1   69.99    2.80
   1   6  -1   72.89    3.80
   1  -6   1   75.89    3.90
  -1   6  -1   68.19    3.80
  -1  -6   1   70.49    3.80
  -1   6  -1   73.79    2.80
  -1   6  -1   71.99    3.90
   1  -6  -1   75.09    3.30
   1  -6  -1   67.59    3.70
   1   6   1   74.49    3.80
  -1  -6   1   72.49    3.20
  -1   6  -1   68.49    3.70
  -2   6   1   14.90    1.60
  -2   6   1   15.10    1.10
   2  -6   1   17.20    1.80
  -2   6   1   16.60    1.80
   2   6  -1   14.20    1.60
  -2  -6  -1   15.70    1.40
   2  -6   1   15.10    1.40
  -2   6   1   13.30    1.60
  -2  -6  -1   15.50    1.70
  -2  -6   1   15.70    1.70
  -2   6  -1   16.40    1.80
   2   6   1   17.60    1.70
  -2   6  -1   15.00    1.10
   2  -6  -1   15.50    1.40
  -2   6  -1   15.20    1.60
  -2   6  -1   14.70    1.60
   3  -6   1  147.59    8.00
  -3   6   1  158.68    5.30
   3   6  -1  155.38    6.50
  -3   6   1  154.48    6.70
  -3  -6  -1  149.99    5.90
   3  -6   1  155.58    6.10
  -3  -6   1  151.78    6.80
   3   6   1  157.98    6.50
   3  -6  -1  148.19    6.70
  -3  -6   1  162.88    6.00
  -3   6  -1  162.88    5.30
   3  -6  -1  159.18    6.10
  -3   6  -1  153.08    6.60
  -4  -6  -1   11.20    1.30
  -4   6   1   11.30    0.90
  -4  -6  -1   13.00    0.90
  -4   6   1   11.30    1.00
   4   6  -1   10.70    0.90
   4  -6   1   12.10    1.40
  -4   6   1   10.30    0.90
   4  -6  -1   13.10    1.50
  -4   6  -1   11.10    0.90
  -4  -6   1   12.70    1.40
  -4  -6   1   11.80    0.90
   4   6   1   10.30    0.80
  -4   6  -1   11.30    0.90
  -4   6  -1   13.20    1.00
  -5  -6  -1  274.77    8.90
  -5  -6  -1  273.57    8.90
   5   6  -1  301.97    9.00
  -5   6   1  279.17    8.90
  -5   6   1  296.87    9.30
  -5   6   1  291.97    9.10
  -5  -6   1  285.07    9.00
  -5   6  -1  289.47    9.00
  -5   6  -1  288.97    9.10
   5   6   1  282.67    8.90
  -5   6  -1  297.67    9.30
  -6  -6  -1  102.89    3.80
  -6   6   1  109.89    3.90
  -6  -6  -1  108.49    3.90
   6   6  -1  107.99    3.90
  -6   6   1  109.19    4.20
  -6   6   1  109.79    4.00
  -6  -6   1  109.69    3.90
  -6   6  -1  109.69    4.00
  -6   6  -1  110.69    4.00
   6   6   1  103.19    3.80
  -6   6  -1  108.39    4.20
  -7  -6  -1   52.99    2.30
  -7   6   1   48.90    2.30
  -7   6   1   50.39    2.20
  -7   6   1   48.60    2.50
   7   6  -1   50.89    2.20
   7   6   1   52.19    2.20
  -7   6  -1   51.09    2.30
  -7   6  -1   50.69    2.50
  -7   6  -1   51.49    2.30
  -7  -6   1   52.19    2.30
  -8   6   1    0.20    0.30
  -8   6   1    0.90    0.40
   8   6  -1    0.20    0.30
  -8  -6  -1    0.30    0.30
  -8   6  -1    2.80    0.60
  -8  -6   1    0.40    0.30
  -8   6  -1    0.40    0.40
  -9   6   1   17.80    1.00
  -9   6   1   17.40    1.00
   9   6  -1   17.60    0.90
  -9  -6  -1   17.50    1.00
  -9   6  -1   17.30    1.00
  -9   6  -1   17.90    1.00
   9   6   1   18.10    0.90
  -9  -6   1   18.80    1.00
   0   7  -1    0.30    0.40
   0  -7  -1    0.20    0.40
   0   7   1    0.50    0.50
   0   7  -1    0.60    0.30
   0  -7   1    0.70    0.50
  -1   7   1   13.70    1.60
   1  -7   1   12.80    1.30
   1   7  -1   12.80    1.60
  -1  -7  -1   14.90    1.40
  -1   7   1   12.40    0.90
   1  -7  -1   12.80    1.30
  -1   7  -1   15.20    1.10
  -1  -7   1   12.50    0.90
  -1   7  -1   15.00    1.70
  -1  -7   1   13.40    1.30
   1   7   1   13.60    1.70
  -1   7  -1   13.00    0.90
  -2   7   1   56.99    2.20
  -2  -7  -1   52.09    2.90
   2  -7   1   51.69    2.90
  -2   7   1   49.60    3.20
  -2   7   1   49.99    2.30
   2   7  -1   55.69    3.50
  -2  -7   1   51.39    2.10
  -2   7  -1   52.59    2.10
  -2  -7   1   52.99    2.90
  -2   7  -1   48.60    3.20
   2   7   1   50.49    3.30
  -2   7  -1   52.69    2.40
   2  -7  -1   52.29    2.90
   2  -7  -1   51.79    2.80
  -3  -7  -1  210.38    6.90
  -3  -7  -1  214.98    6.90
   3   7  -1  225.88    8.80
   3  -7   1  219.08    8.10
  -3   7   1  226.58    7.00
  -3  -7  -1  222.28    8.10
  -3   7   1  219.38    6.90
   3   7  -1  217.08    6.90
  -3   7   1  222.68    7.30
   3   7   1  214.68    6.90
   3   7   1  201.08    8.60
  -3   7  -1  223.18    7.30
  -3   7  -1  215.88    7.00
  -3   7  -1  213.38    6.90
  -3  -7   1  223.78    6.90
  -3  -7   1  218.28    8.00
   3  -7  -1  217.58    8.10
  -4   7   1   15.70    1.10
  -4   7   1   14.40    1.20
   4   7  -1   13.50    1.00
  -4  -7  -1   13.80    1.00
  -4   7   1   14.40    1.00
  -4  -7  -1   14.50    1.00
  -4   7  -1   15.30    1.20
  -4  -7   1   14.80    1.00
  -4   7  -1   14.40    1.00
   4   7   1   13.40    1.00
  -4   7  -1   15.50    1.10
  -5   7   1   44.00    2.10
  -5   7   1   46.00    2.30
   5   7  -1   42.40    2.00
  -5   7   1   44.60    2.00
  -5  -7  -1   44.20    2.00
  -5   7  -1   45.40    2.30
  -5   7  -1   44.10    2.10
   5   7   1   44.90    2.00
  -5  -7   1   44.90    2.00
  -5   7  -1   44.80    2.10
  -6  -7  -1    1.60    0.50
  -6   7   1    1.10    0.40
  -6   7   1    1.30    0.60
   6   7  -1    1.40    0.50
  -6   7   1    1.60    0.50
  -6   7  -1    2.00    0.60
  -6   7  -1    1.50    0.50
  -6  -7   1    1.30    0.50
  -6   7  -1    1.40    0.50
   6   7   1    1.70    0.50
   7   7  -1   21.10    1.20
  -7   7   1   19.80    1.30
  -7  -7  -1   19.30    1.20
  -7   7   1   19.40    1.20
   7   7   1   21.10    1.20
  -7   7  -1   20.40    1.30
  -7   7  -1   19.30    1.30
  -7  -7   1   19.50    1.20
   8   7  -1    4.80    0.60
  -8   7   1    6.00    0.70
  -8   7   1    5.00    0.60
  -8   7  -1    4.70    0.60
  -8   7  -1    5.00    0.60
  -8  -7   1    4.60    0.60
   8   7   1    5.10    0.60
   9  -7  -1   16.20    1.20
   0  -8  -1  279.87    8.50
   0   8  -1  282.27    8.60
   0  -8   1  261.87    8.70
  -1  -8  -1  204.48    6.50
  -1   8   1  207.18    7.30
   1  -8   1  205.78    6.50
  -1   8  -1  203.68    6.60
   1  -8  -1  209.48    6.60
  -1  -8   1  197.78    6.50
  -2   8   1    2.20    0.50
   2  -8   1    1.80    0.40
  -2  -8  -1    0.90    0.40
  -2   8  -1    3.10    0.70
  -2   8  -1    1.30    0.40
  -2  -8   1    1.40    0.40
   2  -8  -1    1.20    0.40
  -3   8   1   72.79    2.80
  -3  -8  -1   72.89    2.90
   3   8  -1   71.69    2.70
  -3   8   1   69.29    2.80
   3  -8   1   69.59    2.70
  -3   8  -1   71.19    2.80
  -3  -8   1   72.19    2.80
  -3   8  -1   70.89    3.10
   3  -8  -1   70.29    2.80
   3   8   1   71.89    2.70
  -3   8  -1   73.29    2.90
   4  -8   1   24.80    1.40
  -4   8   1   23.10    1.30
  -4   8   1   23.40    1.40
   4   8  -1   23.00    1.30
  -4   8   1   23.30    1.60
  -4  -8   1   23.10    1.30
  -4   8  -1   23.80    1.60
   4  -8  -1   22.10    1.40
  -4   8  -1   24.00    1.40
   4   8   1   23.20    1.30
  -4   8  -1   23.80    1.40
   5   8  -1  111.49    4.00
  -5   8   1  111.59    4.10
  -5   8   1  114.39    4.00
   5  -8   1  113.99    4.00
  -5   8   1  105.49    4.30
  -5  -8   1  114.89    4.00
  -5   8  -1  109.89    4.00
  -5   8  -1  110.59    4.30
   5   8   1  112.99    4.00
  -5   8  -1  113.79    4.10
   5  -8  -1  118.19    4.00
   6   8  -1    5.30    0.70
  -6   8   1    3.10    0.60
   6  -8   1    6.50    0.90
  -6   8   1    3.20    0.60
  -6   8  -1    5.30    0.70
   6  -8  -1    6.50    0.90
  -6  -8   1    4.80    0.70
  -6   8  -1    3.20    0.60
  -7   8   1  121.39    4.00
  -7   8   1  109.09    3.90
   7   8  -1  119.09    3.90
   7  -8   1  120.59    4.00
   7   8   1  112.19    3.90
   7  -8  -1  117.09    4.00
  -7   8  -1  114.19    3.90
  -7   8  -1  119.19    4.00
  -7  -8   1  111.09    3.90
  -8   8   1   15.00    0.90
   8  -8   1   14.80    0.90
   8   8  -1   13.90    0.80
   8  -8  -1   17.40    0.90
  -8   8  -1   15.60    0.90
   8   8   1   14.00    0.80
   0  -9   1   -0.10    0.30
   0  -9  -1    0.50    0.40
  -1  -9  -1   35.30    1.60
   1  -9   1   28.70    1.50
  -1   9  -1   32.60    1.60
   1  -9  -1   28.80    1.50
  -1  -9   1   29.10    1.50
  -2  -9  -1  117.19    4.40
   2  -9   1  106.89    3.80
  -2   9  -1  109.59    3.90
  -2  -9   1  109.99    3.90
   2  -9  -1  107.29    3.90
   3  -9   1  298.87    9.30
  -3   9  -1  296.57    9.30
  -3  -9   1  303.07    9.30
   3  -9  -1  304.87    9.40
  -3   9  -1  308.17    9.40
   4  -9   1   26.90    1.40
   4   9  -1   26.10    1.40
  -4   9   1   25.20    1.40
  -4   9  -1   27.50    1.50
  -4   9  -1   27.40    1.40
   4   9   1   24.30    1.30
  -4  -9   1   25.90    1.40
   4  -9  -1   28.40    1.40
   5   9  -1   32.60    1.50
   5  -9   1   30.30    1.50
  -5   9   1   29.90    1.50
   5  -9  -1   30.70    1.50
  -5   9  -1   31.20    1.60
   5   9   1   28.90    1.40
  -5  -9   1   28.00    1.40
  -5   9  -1   30.40    1.50
   6  -9   1    0.80    0.30
   6   9  -1    0.40    0.30
  -6   9   1    0.50    0.30
   6  -9  -1    0.40    0.30
  -6   9  -1    0.50    0.30
   6   9   1    0.60    0.30
  -6   9  -1    0.50    0.30
   7  -9   1    4.00    0.40
   7   9  -1    4.30    0.50
  -7   9   1    4.40    0.50
  -7   9  -1    4.00    0.50
   7   9   1    3.70    0.40
   7  -9  -1    3.40    0.40
   0 -10  -1   56.99    2.30
   1 -10  -1   31.20    1.50
   2 -10   1   25.60    1.30
   2 -10  -1   27.40    1.40
   3 -10   1  189.08    6.10
   3 -10  -1  196.18    6.10
   4 -10   1  131.69    4.40
   4 -10  -1  135.09    4.40
  -4  10  -1  134.59    4.50
  -5  10   1  159.38    5.10
   5  10  -1  160.78    5.00
   5 -10   1  160.48    5.10
   5  10   1  159.48    5.00
  -5  10  -1  163.98    5.20
   5 -10  -1  164.68    5.10
   2 -11  -1   73.29    2.60
   3 -11  -1   37.90    1.50
   0   0  -2 1222.88   48.60
   0   0  -2 1474.05   42.40
   0   0  -2 1396.96   46.50
   0   0   2 1390.26   47.40
   0   0  -2 1549.74   41.60
   0   0  -2 1516.25   42.20
   0   0   2 1474.65   42.20
  -1   0  -2 3717.93  118.69
  -1   0   2 3680.13  131.29
  -1   0  -2 3107.39  121.89
  -1   0  -2 3680.23  123.59
  -1   0  -2 3382.66  103.29
  -1   0   2 3642.44  122.99
   1   0  -2 3989.40  136.39
  -1   0   2 3436.56  115.29
  -1   0   2 3914.01  125.89
  -2   0  -2 3208.48  112.49
   2   0   2 2923.21   92.59
   2   0  -2 3233.78   94.89
  -2   0   2 3175.08   95.89
  -2   0   2 3540.55   95.89
  -2   0   2 3284.07   96.39
  -2   0  -2 3518.65   96.49
  -2   0  -2 3272.07   94.99
  -2   0  -2 3121.29   93.79
  -2   0   2 3270.67   95.69
  -2   0  -2 2928.51  110.59
  -3   0  -2  147.69    5.20
   3   0  -2  129.09    4.90
  -3   0   2  146.39    4.70
  -3   0  -2  152.28    4.80
  -3   0   2  153.18    5.00
  -3   0   2  142.79    5.10
   3   0   2  135.89    4.30
  -3   0  -2  148.29    5.00
  -3   0  -2  136.09    4.70
  -3   0  -2  142.59    4.70
  -3   0   2  148.39    5.30
  -4   0  -2   78.99    3.10
  -4   0  -2   72.69    3.40
  -4   0   2   73.19    3.50
  -4   0   2   73.49    3.30
  -4   0  -2   70.89    2.90
  -4   0   2   69.29    2.50
  -4   0   2   73.99    3.30
  -4   0  -2   80.69    3.30
  -4   0   2   71.89    2.90
  -5   0  -2   12.70    1.20
  -5   0   2   14.60    1.40
  -5   0   2   13.20    1.10
  -5   0   2   13.80    1.40
  -5   0  -2   13.20    0.80
  -5   0   2   13.30    1.50
  -5   0  -2   14.20    1.20
  -5   0   2   14.40    0.90
  -5   0  -2   17.30    1.70
  -6   0  -2  131.59    4.40
  -6   0  -2  135.59    5.60
  -6   0  -2  130.29    5.20
  -6   0   2  134.79    4.50
  -6   0   2  121.99    6.00
  -6   0   2  131.49    5.10
  -6   0  -2  124.49    6.00
  -6   0   2  127.09    5.70
  -7   0  -2  173.18    6.10
  -7   0   2  176.98    6.10
  -7   0  -2  177.58    6.90
  -7   0   2  182.88    6.10
  -7   0   2  174.68    5.80
  -7   0  -2  182.18    5.80
  -7   0   2  172.28    6.80
  -7   0  -2  179.68    6.00
  -7   0  -2  175.68    5.80
  -7   0   2  173.38    5.80
  -8   0   2  339.87   11.00
  -8   0  -2  338.27   11.00
  -8   0   2  346.07   11.10
  -8   0   2  353.16   10.70
  -8   0  -2  337.17   10.70
  -8   0  -2  352.36   10.70
  -8   0  -2  348.77   11.00
  -9   0  -2   36.90    1.80
  -9   0  -2   35.00    2.00
  -9   0   2   38.20    1.90
   9   0  -2   36.60    2.20
  -9   0   2   35.70    2.00
  -9   0  -2   37.00    2.10
 -10   0  -2  257.07    8.10
  10   0   2  253.17    8.40
 -10   0   2  263.87    8.10
  10   0  -2  264.57    8.40
   0  -1   2    2.30    0.30
   0   1  -2    2.00    0.20
   0  -1   2    1.90    0.20
   0  -1   2    1.70    0.20
   0   1   2    1.90    0.20
   0   1  -2    2.00    0.20
   0   1   2    1.70    0.20
   0  -1  -2    2.60    0.20
   0   1   2    2.10    0.20
  -1  -1  -2  502.95   16.00
  -1   1   2  538.65   27.10
  -1   1   2  523.45   15.70
  -1  -1  -2  500.95   15.20
  -1  -1  -2  453.55   15.80
  -1   1   2  538.25   16.00
   1   1  -2  480.95   15.10
   1   1  -2  541.45   15.40
  -1  -1  -2  528.95   15.60
  -1   1   2  573.84   15.80
  -1   1  -2  531.65   15.50
  -1   1  -2  568.44   15.50
  -1  -1   2  503.65   15.80
  -1  -1   2  526.85   15.50
  -1   1  -2  497.95   15.90
  -1  -1   2  504.65   15.40
   1  -1  -2  514.95   15.10
   1   1   2  503.95   15.20
  -1   1  -2  448.26   15.20
  -1   1  -2  529.15   15.10
  -1  -1   2  524.85   15.10
   1   1   2  545.15   15.80
   1  -1  -2  569.24   16.00
  -2  -1  -2  359.96   11.50
   2   1  -2  374.46   11.70
  -2  -1  -2  385.76   11.30
  -2   1   2  377.46   11.70
  -2  -1  -2  417.46   11.80
  -2   1   2  390.56   11.40
  -2   1   2  376.36   11.60
  -2  -1  -2  414.86   11.60
  -2   1   2  406.56   11.90
   2   1  -2  377.86   11.30
  -2   1   2  361.86   11.10
  -2  -1  -2  375.06   11.40
  -2   1  -2  406.56   11.30
  -2   1  -2  400.56   11.40
  -2  -1   2  384.66   11.80
   2   1   2  337.47   11.30
  -2   1  -2  394.56   11.80
  -2  -1   2  412.56   11.70
  -2   1  -2  398.56   11.80
  -2  -1   2  397.36   11.30
  -2   1  -2  375.56   11.80
  -2   1  -2  391.46   11.30
   2  -1  -2  378.26   11.60
  -3   1   2  258.47    8.40
   3   1  -2  245.08    7.50
  -3   1   2  253.47    7.80
   3   1  -2  275.87    8.80
  -3  -1  -2  254.37    8.00
  -3  -1  -2  263.37    7.80
  -3  -1  -2  255.47    7.80
  -3  -1  -2  250.17    8.30
  -3   1   2  246.48    8.30
  -3   1  -2  257.87    7.80
  -3   1  -2  254.67    8.30
  -3   1  -2  223.38    7.70
  -3   1  -2  227.98    7.70
  -3  -1   2  256.57    7.80
  -3   1  -2  263.37    7.80
  -3  -1   2  265.97    8.50
  -3   1  -2  253.87    8.40
  -3  -1   2  244.88    8.10
   3   1   2  229.28    7.60
  -3  -1   2  261.47    8.20
  -4   1   2  132.99    5.30
  -4  -1  -2  137.29    4.80
  -4  -1  -2  130.19    4.90
  -4  -1  -2  131.69    5.30
  -4   1   2  135.99    4.70
  -4  -1  -2  135.29    4.20
  -4   1   2  137.69    5.40
  -4   1   2  129.69    4.20
  -4   1  -2  131.29    5.30
  -4  -1   2  129.19    4.30
  -4   1  -2  128.19    5.20
  -4  -1   2  129.79    5.30
  -4  -1   2  134.89    4.70
  -4  -1   2  141.49    5.10
  -4  -1   2  136.39    5.20
  -4   1  -2  142.79    4.80
  -4   1  -2  132.99    4.70
  -5  -1  -2  877.21   25.70
  -5  -1  -2  920.01   26.50
  -5   1   2  932.31   25.70
  -5   1   2  922.71   26.90
  -5  -1  -2  862.91   27.20
  -5  -1  -2  807.72   26.70
  -5   1   2  922.01   27.50
  -5   1   2  907.61   26.40
  -5   1   2  877.31   27.40
  -5  -1   2  857.31   27.00
  -5   1  -2  907.91   26.40
  -5   1  -2  917.91   27.50
  -5  -1   2  866.01   26.30
  -5  -1   2  915.21   25.80
  -5   1  -2  854.61   26.50
  -5   1  -2  876.31   27.10
  -5  -1   2  869.81   27.50
  -5   1  -2  880.61   25.50
  -6   1   2  119.59    5.70
  -6  -1  -2  127.49    5.00
  -6   1   2  125.39    5.50
  -6  -1  -2  116.79    5.30
  -6  -1  -2  121.69    5.80
  -6   1   2  115.49    5.80
  -6  -1  -2  125.79    4.30
  -6   1   2  124.39    4.90
  -6   1   2  124.69    4.30
  -6   1  -2  123.09    5.90
  -6  -1   2  126.79    4.90
  -6   1  -2  124.89    5.00
  -6  -1   2  117.29    5.80
  -6  -1   2  118.59    4.30
  -6   1  -2  125.79    4.20
  -6  -1   2  116.59    5.50
  -7   1   2   88.19    3.60
  -7   1   2   96.49    3.60
  -7  -1  -2   87.69    3.30
  -7  -1  -2   95.69    3.60
  -7  -1  -2   91.69    3.40
  -7   1   2   89.79    3.30
  -7  -1  -2   86.09    3.50
  -7  -1  -2   91.69    4.30
  -7   1  -2   84.99    3.50
  -7  -1   2   85.49    3.20
  -7   1  -2   86.69    4.20
  -7  -1   2   84.99    4.10
   7  -1  -2   85.09    4.00
  -7  -1   2   92.19    3.40
  -7   1  -2   88.79    3.30
  -7  -1   2  100.39    3.70
  -7   1  -2   89.29    3.40
  -7   1  -2   92.69    3.40
  -7  -1   2   88.09    3.60
  -8   1   2  470.15   13.90
  -8   1   2  469.05   14.20
  -8  -1  -2  462.15   13.90
  -8  -1  -2  438.76   14.20
  -8   1   2  441.56   14.10
  -8  -1  -2  459.85   13.90
  -8  -1  -2  466.55   14.30
  -8  -1   2  455.25   14.20
  -8  -1   2  454.25   13.80
  -8  -1   2  475.55   13.90
  -8   1  -2  465.15   13.90
  -8   1  -2  450.35   14.20
  -8  -1   2  454.45   14.30
  -8   1  -2  452.85   14.10
  -9  -1  -2  582.64   17.30
  -9   1   2  568.04   17.60
  -9  -1  -2  581.64   17.60
  -9   1   2  568.94   17.20
  -9  -1  -2  564.84   17.20
  -9  -1  -2  598.04   17.60
  -9   1  -2  580.64   17.20
  -9  -1   2  556.14   17.60
   9  -1  -2  577.64   17.60
  -9   1  -2  582.54   17.50
  -9  -1   2  598.14   17.60
  -9   1  -2  575.54   17.50
  -9  -1   2  578.54   17.20
  10  -1   2  206.68    6.90
  10   1  -2  213.98    7.00
 -10  -1  -2  209.38    6.70
 -10   1   2  210.88    6.70
 -10  -1  -2  212.08    7.00
 -10   1  -2  204.68    6.60
  10  -1  -2  206.48    6.80
 -10  -1   2  213.28    6.70
   0   2   2 9715.83  300.97
   0  -2  -2 8143.79  255.47
   0   2  -2 9999.00  310.77
   0   2  -2 9170.08  300.87
   0  -2   2 8600.44  299.27
   0   2   2 8532.95  309.57
   0   2  -2 9099.59  310.27
   0  -2  -2 9455.05  311.07
   0  -2   2 8352.26  281.37
   0  -2   2 8703.43  317.07
  -1  -2  -2  115.79    3.60
  -1  -2  -2  111.59    3.60
  -1   2   2  123.49    4.20
  -1  -2  -2  125.89    4.20
   1  -2   2  119.89    3.80
  -1   2   2  128.89    4.10
  -1   2   2  124.09    4.10
  -1   2   2  117.49    3.90
   1   2  -2  120.69    4.10
   1  -2   2  120.29    4.20
   1   2  -2  120.99    4.00
  -1  -2  -2  121.09    3.80
  -1  -2   2  125.99    4.20
   1   2   2  115.59    4.10
  -1   2  -2  113.59    3.90
   1  -2  -2  120.89    3.80
  -1  -2   2  113.59    3.80
  -1   2  -2  132.29    4.30
   1  -2  -2  116.99    4.10
   1   2   2  112.99    4.00
  -1  -2   2  119.89    4.10
  -1   2  -2  124.29    3.90
  -1   2  -2  106.89    3.90
  -1  -2   2  123.69    4.10
  -2   2   2  477.65   15.00
  -2  -2  -2  512.35   15.10
   2   2  -2  501.15   15.10
  -2  -2  -2  503.55   15.10
  -2   2   2  527.65   14.70
   2  -2   2  515.95   14.70
  -2  -2  -2  497.45   14.70
  -2   2   2  539.05   15.20
   2   2  -2  437.96   14.70
  -2   2   2  543.55   15.30
  -2  -2   2  528.85   15.20
  -2  -2   2  534.25   15.30
   2   2   2  493.95   14.80
  -2   2  -2  525.65   14.80
  -2   2  -2  444.96   14.70
  -2  -2   2  506.55   14.90
  -2   2  -2  505.05   14.70
   2  -2  -2  506.75   14.70
  -2  -2   2  500.35   14.70
   2   2   2  490.35   14.90
   2  -2  -2  486.25   14.90
  -2   2  -2  433.46   15.10
  -3  -2  -2  218.08    6.80
  -3  -2  -2  212.08    7.30
  -3  -2  -2  216.88    7.20
  -3   2   2  217.28    7.50
  -3   2   2  218.08    7.10
   3  -2   2  214.38    6.70
  -3   2   2  207.18    7.30
   3   2  -2  194.38    6.70
  -3   2  -2  213.88    6.80
  -3  -2   2  213.18    7.40
  -3  -2   2  209.98    7.30
  -3   2  -2  220.48    7.50
  -3  -2   2  204.78    6.70
  -3   2  -2  217.18    7.50
  -3  -2   2  207.98    6.90
  -3   2  -2  202.08    6.60
   3   2   2  222.58    6.80
   3  -2  -2  225.78    6.70
  -4  -2  -2  269.97    8.80
  -4   2   2  239.48    7.70
  -4   2   2  260.07    9.00
  -4   2   2  249.68    8.60
  -4  -2  -2  243.48    8.20
  -4  -2  -2  254.67    7.80
  -4   2   2  266.17    9.20
  -4  -2  -2  254.57    8.90
  -4   2  -2  229.08    7.50
  -4  -2   2  263.97    8.20
   4  -2  -2  254.77    8.10
  -4  -2   2  268.67    8.90
  -4   2  -2  266.07    9.10
  -4   2  -2  258.97    8.30
  -4  -2   2  258.17    9.10
  -4   2  -2  254.97    9.00
  -4   2  -2  246.78    8.30
  -4  -2   2  246.48    7.80
  -5   2   2    7.80    1.20
  -5   2   2    5.40    1.10
  -5  -2  -2    5.50    0.80
  -5  -2  -2    6.10    1.10
  -5   2   2    5.00    0.90
  -5  -2  -2    5.00    0.90
  -5   2   2    5.10    0.50
  -5  -2   2    5.30    0.80
  -5   2  -2    5.30    0.80
  -5  -2   2    5.00    1.00
  -5   2  -2    5.40    1.00
  -5  -2   2    5.00    0.60
   5  -2  -2    4.40    0.70
  -5   2  -2    5.90    0.50
  -5   2  -2    4.40    1.00
  -5   2  -2    5.90    0.80
  -6   2   2   11.70    1.40
  -6  -2  -2    9.40    1.30
  -6   2   2   10.60    1.70
  -6  -2  -2   10.30    0.90
  -6  -2  -2   12.30    0.90
  -6   2   2   11.60    0.80
  -6  -2  -2   10.60    1.20
  -6   2   2   13.00    1.00
   6  -2   2   10.20    1.20
  -6  -2  -2    9.40    0.90
  -6   2  -2   11.10    1.30
  -6  -2   2    9.60    1.40
  -6   2  -2   12.30    0.80
   6  -2  -2   10.40    1.10
  -6  -2   2   10.90    1.20
  -6  -2   2    9.90    0.90
  -6   2  -2   10.60    1.50
  -6  -2   2   10.10    0.80
  -6  -2   2   10.00    0.90
  -6   2  -2   10.90    0.80
  -7   2   2   28.40    1.70
  -7  -2  -2   26.70    1.40
  -7  -2  -2   24.70    1.60
  -7   2   2   23.10    1.80
  -7  -2  -2   26.40    1.40
  -7   2   2   27.20    1.50
  -7  -2  -2   25.90    1.60
  -7   2   2   27.40    1.60
  -7  -2   2   24.60    2.00
   7  -2  -2   27.40    2.20
  -7  -2   2   26.60    1.40
  -7  -2   2   24.30    1.40
  -7  -2   2   24.90    1.60
  -7   2  -2   27.10    1.50
  -7   2  -2   25.40    1.60
  -7  -2   2   27.20    1.70
  -7   2  -2   27.30    1.40
  -8   2   2  140.89    5.10
  -8  -2  -2  140.39    5.20
  -8  -2  -2  140.29    4.80
  -8  -2  -2  144.29    4.90
  -8  -2  -2  140.79    5.10
  -8   2   2  136.49    4.80
  -8   2  -2  143.49    5.10
   8  -2  -2  140.49    5.10
  -8   2  -2  134.09    4.80
  -8  -2   2  131.79    4.70
  -8  -2   2  134.29    5.20
  -8  -2   2  138.69    4.90
  -8   2  -2  136.79    5.00
  -8  -2   2  137.49    5.10
  -9  -2  -2   79.19    3.00
  -9  -2  -2   78.39    3.00
  -9   2   2   77.49    3.10
  -9  -2  -2   78.29    3.30
  -9  -2  -2   83.69    3.40
  -9   2   2   71.49    3.30
  -9  -2   2   78.29    3.30
   9  -2  -2   80.09    3.20
  -9   2  -2   78.69    3.30
  -9   2  -2   78.39    3.00
  -9  -2   2   78.49    3.10
 -10  -2  -2  165.48    5.60
  10   2  -2  164.98    5.60
 -10   2   2  156.48    5.30
 -10  -2  -2  165.68    5.30
 -10  -2   2  166.08    5.30
 -10   2  -2  164.88    5.30
  10  -2  -2  154.98    5.30
   0   3   2    1.30    0.40
   0   3  -2    1.50    0.40
   0  -3  -2    1.70    0.40
   0   3   2    2.20    0.40
   0  -3   2    1.70    0.50
   0  -3  -2    1.50    0.40
   0   3  -2    1.60    0.40
   0  -3   2    2.00    0.40
   1   3  -2  518.05   16.10
   1  -3   2  505.15   15.60
  -1   3   2  553.34   15.90
  -1   3   2  532.55   16.00
   1   3  -2  568.74   16.00
  -1  -3  -2  515.85   16.10
  -1   3   2  556.14   16.10
   1  -3   2  548.25   16.20
  -1  -3  -2  534.95   15.60
   1  -3  -2  566.74   15.70
  -1   3  -2  510.75   16.20
   1  -3  -2  506.35   15.90
  -1   3  -2  507.05   15.90
   1   3   2  546.65   16.00
   1   3   2  510.35   15.50
  -1  -3   2  532.05   15.60
   1   3   2  549.05   16.10
   1  -3  -2  494.05   15.90
  -1   3  -2  538.85   15.90
  -1  -3   2  547.75   16.10
  -1  -3   2  487.25   15.90
  -1  -3   2  540.35   16.10
  -2   3   2 2357.76   66.69
  -2  -3  -2 2152.38   67.39
  -2   3   2 2297.47   68.29
   2  -3   2 2210.38   68.99
  -2   3   2 2277.87   67.79
   2   3  -2 2229.28   68.49
  -2  -3  -2 2323.57   66.69
   2  -3   2 2218.38   65.59
  -2   3   2 2103.39   67.09
   2   3  -2 2398.56   68.69
  -2  -3  -2 2249.68   66.89
  -2  -3   2 2359.86   67.09
  -2   3  -2 2280.17   70.19
  -2  -3   2 2253.97   66.19
  -2  -3   2 2029.50   66.09
   2  -3  -2 2122.29   65.49
  -2  -3   2 1976.00   67.69
  -2   3  -2 2212.48   67.59
  -2   3  -2 2327.97   71.29
   3   3  -2  358.66   10.60
  -3   3   2  334.37    9.80
  -3  -3  -2  325.77    9.90
  -3   3   2  324.77   10.70
  -3  -3  -2  340.77   11.00
   3  -3   2  336.47   10.30
  -3   3   2  311.87   10.90
  -3   3   2  308.57   11.00
  -3  -3  -2  339.57   10.40
  -3  -3  -2  334.57   10.90
  -3   3  -2  338.07   11.20
   3  -3  -2  330.67   10.20
  -3   3  -2  323.57    9.70
  -3   3  -2  342.77   11.20
  -3  -3   2  329.17   11.00
  -3   3  -2  341.87   10.50
  -3  -3   2  359.96   10.40
  -3   3  -2  329.67   10.30
   3   3   2  312.17   10.40
  -3  -3   2  322.97   11.10
  -4   3   2  332.67   11.00
  -4  -3  -2  315.27    9.90
  -4  -3  -2  327.87   10.50
  -4   3   2  322.07   11.40
  -4  -3  -2  339.07   11.20
   4  -3   2  328.07   10.30
  -4   3   2  325.67    9.80
  -4  -3  -2  322.87   11.20
  -4   3   2  325.17   11.30
  -4  -3   2  330.27   11.20
  -4   3  -2  313.87    9.60
  -4   3  -2  330.77   11.50
  -4  -3   2  325.87   10.00
  -4  -3   2  342.27   10.40
  -4   3  -2  331.87   11.40
   4  -3  -2  325.67   10.30
  -4   3  -2  326.77   10.60
  -4  -3   2  322.87   11.40
  -5   3   2  285.57   10.80
  -5   3   2  291.67   10.30
  -5   3   2  298.87    8.90
  -5  -3  -2  302.67   10.50
  -5   3   2  294.47   10.80
  -5  -3  -2  297.37    9.70
  -5  -3  -2  288.07   10.60
  -5  -3  -2  290.27    9.10
   5  -3   2  286.97    9.50
  -5  -3   2  283.87    9.10
  -5  -3   2  280.57   10.60
  -5  -3   2  285.27   10.70
  -5  -3   2  286.27    9.60
  -5   3  -2  282.87    9.80
   5  -3  -2  292.87    9.50
  -5   3  -2  292.67   10.80
  -5   3  -2  286.37   10.80
  -5   3  -2  278.57    8.70
  -6  -3  -2  369.56   11.30
   6  -3   2  374.66   12.30
  -6  -3  -2  362.06   12.40
  -6  -3  -2  410.26   11.80
  -6   3   2  374.26   11.50
  -6   3   2  367.36   11.30
  -6  -3  -2  353.36   11.50
  -6  -3   2  385.16   12.40
  -6  -3   2  353.06   11.50
  -6   3  -2  381.56   11.40
  -6   3  -2  370.26   11.30
   6  -3  -2  363.76   12.20
  -6  -3   2  391.36   11.70
  -6  -3   2  384.06   11.40
   6  -3  -2  371.76   11.70
  -7  -3  -2  545.55   16.40
  -7  -3  -2  565.54   16.80
  -7   3   2  567.34   16.40
  -7  -3  -2  528.75   16.30
  -7   3   2  546.45   16.70
  -7  -3  -2  546.55   16.70
  -7   3   2  557.74   16.40
  -7  -3   2  560.14   16.50
  -7  -3   2  553.24   16.80
  -7   3  -2  567.34   16.60
   7  -3  -2  529.75   16.50
  -7  -3   2  532.45   16.60
  -7   3  -2  529.45   16.40
  -7   3  -2  556.34   16.40
  -8   3   2  297.57    9.00
  -8   3   2  284.87    8.90
  -8  -3  -2  275.67    9.30
  -8  -3  -2  281.07    8.90
  -8  -3  -2  281.47    9.20
  -8   3   2  264.87    9.20
  -8  -3  -2  285.97    8.90
  -8  -3   2  284.97    9.00
  -8   3  -2  277.77    9.10
  -8  -3   2  291.47    9.20
  -8   3  -2  284.47    8.90
  -9  -3  -2   20.30    1.20
  -9  -3  -2   21.50    1.60
  -9  -3  -2   20.00    1.20
  -9   3   2   23.30    1.30
  -9   3  -2   19.80    1.30
  -9  -3   2   20.30    1.50
  -9  -3   2   21.10    1.30
  -9   3  -2   20.90    1.80
 -10  -3  -2  122.39    4.30
  10   3  -2  121.39    4.30
 -10  -3  -2  120.09    4.10
 -10   3   2  120.49    4.10
 -10   3  -2  123.79    4.10
 -10  -3   2  124.09    4.10
   0   4  -2  683.83   22.30
   0  -4  -2  732.23   22.70
   0  -4  -2  771.42   22.40
   0  -4   2  704.33   21.90
   0   4   2  758.62   22.40
   0   4   2  758.42   22.60
   0   4   2  760.02   22.30
   0  -4   2  790.22   22.70
   0   4  -2  739.63   22.50
   0   4  -2  799.52   22.70
   1   4  -2   56.79    2.90
  -1  -4  -2   69.89    2.70
   1  -4   2   67.29    3.20
  -1  -4  -2   65.89    2.90
  -1   4   2   70.69    3.00
   1   4  -2   62.49    3.10
  -1  -4  -2   64.89    3.10
  -1   4   2   66.39    3.10
   1  -4   2   67.69    2.70
  -1   4   2   66.89    3.10
  -1   4  -2   67.39    3.00
  -1  -4   2   62.69    2.90
  -1   4  -2   64.39    2.30
  -1  -4   2   65.69    3.10
   1   4   2   68.59    3.00
   1   4   2   69.99    3.20
  -1  -4   2   69.29    2.60
  -1   4  -2   68.59    3.00
   1  -4  -2   63.39    2.90
   1  -4  -2   68.69    2.80
  -1   4  -2   66.39    3.20
  -2  -4  -2 1979.70   61.89
  -2   4   2 2192.98   63.49
  -2  -4  -2 1983.80   60.29
  -2  -4  -2 1989.40   60.59
   2  -4   2 2057.59   60.89
   2  -4   2 2056.89   63.29
  -2   4   2 2165.78   63.59
  -2   4   2 2097.19   61.09
  -2   4   2 2107.59   65.49
  -2  -4  -2 2140.79   62.29
   2   4  -2 2255.47   64.99
  -2   4  -2 2443.66  100.79
  -2   4  -2 2020.40   61.99
   2   4   2 2108.79   90.19
  -2  -4   2 2183.38   62.29
   2  -4  -2 1851.11   61.29
  -2   4  -2 2069.79   69.69
   2  -4  -2 2165.88   62.39
  -2  -4   2 2114.29   60.69
  -2   4  -2 2133.29   60.59
  -2  -4   2 1849.52   62.99
   3   4  -2   53.29    2.70
  -3   4   2   53.19    2.10
  -3  -4  -2   54.89    3.00
  -3   4   2   54.09    2.90
  -3  -4  -2   55.59    3.10
   3  -4   2   59.09    2.50
  -3  -4  -2   53.99    2.20
   3  -4   2   52.79    3.00
  -3   4   2   52.09    3.10
  -3  -4  -2   57.59    2.60
  -3   4   2   56.99    3.00
  -3   4  -2   54.49    2.70
  -3   4  -2   54.29    3.20
  -3   4  -2   52.29    2.00
  -3  -4   2   66.49    2.70
   3  -4  -2   51.09    2.90
   3  -4  -2   56.49    2.50
   3   4   2   57.29    2.80
  -3  -4   2   54.89    3.10
  -3   4  -2   53.09    2.60
  -4  -4  -2  731.03   22.70
  -4   4   2  737.33   23.10
  -4  -4  -2  724.43   21.20
  -4   4   2  703.03   22.40
  -4   4   2  727.63   22.80
  -4   4   2  739.13   21.10
   4  -4   2  742.03   21.70
  -4  -4  -2  724.83   22.70
   4  -4   2  719.23   22.80
  -4  -4  -2  725.73   21.80
  -4   4  -2  740.33   22.10
  -4  -4   2  732.23   22.90
  -4   4  -2  720.03   20.90
   4  -4  -2  694.03   21.60
  -4   4  -2  719.33   23.00
  -4  -4   2  703.63   21.10
  -4  -4   2  735.73   21.70
  -4   4  -2  645.34   22.70
  -5   4   2  250.77    9.70
  -5  -4  -2  219.88    9.20
  -5   4   2  230.18    9.00
  -5  -4  -2  250.77    7.80
   5  -4   2  236.58    8.20
  -5   4   2  241.48    7.60
  -5  -4  -2  243.38    8.40
  -5  -4  -2  231.58    9.20
  -5   4  -2  242.38    8.70
  -5   4  -2  242.68    7.50
  -5  -4   2  231.48    7.50
   5  -4  -2  239.88    8.20
  -5  -4   2  238.78    7.70
  -5  -4   2  243.88    8.30
  -5   4  -2  228.58    7.50
  -6   4   2   22.60    1.40
  -6   4   2   21.10    1.30
  -6  -4  -2   21.70    1.50
  -6   4   2   21.00    1.20
  -6  -4  -2   20.40    1.20
   6   4  -2   21.40    1.20
  -6  -4  -2   20.70    1.30
  -6  -4  -2   19.60    1.30
  -6  -4  -2   20.00    1.80
   6  -4   2   22.20    1.80
  -6  -4  -2   20.30    1.20
   6  -4  -2   21.80    1.70
  -6   4  -2   22.20    1.30
  -6  -4   2   21.60    1.30
  -6  -4   2   20.00    1.50
  -6   4  -2   22.00    1.30
  -6  -4   2   18.60    1.70
  -6  -4   2   21.40    1.30
  -6   4  -2   22.60    1.30
  -7   4   2   19.00    1.20
  -7   4   2   18.40    1.40
  -7  -4  -2   19.30    1.40
   7   4  -2   20.10    1.20
  -7  -4  -2   19.90    1.50
  -7  -4  -2   20.40    1.30
  -7   4   2   20.10    1.30
  -7  -4  -2   18.40    1.20
  -7   4  -2   19.70    1.30
   7   4   2   18.90    1.20
  -7  -4   2   19.30    1.30
  -7   4  -2   21.40    1.30
  -7   4  -2   26.60    1.50
  -8   4   2  161.48    5.80
  -8  -4  -2  161.78    5.70
  -8  -4  -2  160.48    5.50
  -8   4   2  170.38    5.60
  -8   4   2  165.58    5.60
  -8  -4  -2  155.58    5.90
  -8  -4  -2  165.08    5.50
  -8   4  -2  163.98    5.80
  -8  -4   2  157.88    5.50
  -8   4  -2  170.78    5.60
  -8   4  -2  164.68    5.50
   8   4   2  166.38    5.40
  -9   4   2    4.30    0.60
  -9  -4  -2    4.70    0.80
  -9  -4  -2    4.40    0.60
  -9  -4  -2    4.50    0.60
  -9   4   2    4.60    0.70
  -9  -4   2    4.70    0.70
  -9   4  -2    5.50    0.70
 -10   4   2   31.60    1.40
 -10  -4  -2   29.50    1.70
 -10  -4   2   31.20    1.40
  10   4   2   32.40    1.60
 -10   4  -2   33.50    1.40
   0  -5  -2    0.70    0.40
   0   5   2    2.20    0.60
   0   5  -2    2.20    0.70
   0  -5   2    1.20    0.50
   0   5   2    1.00    0.30
   1   5  -2   35.30    2.20
  -1   5   2   37.20    2.20
   1   5  -2   36.50    2.40
   1  -5   2   38.80    2.50
   1   5  -2   39.30    1.70
   1  -5   2   39.90    2.00
  -1   5   2   37.00    2.30
  -1   5   2   37.20    1.70
  -1  -5  -2   39.30    2.30
  -1   5   2   38.20    2.40
  -1  -5  -2   39.10    2.00
  -1   5  -2   38.30    1.60
  -1   5  -2   37.50    2.30
  -1  -5   2   36.90    2.40
  -1  -5   2   37.30    1.90
  -1   5  -2   39.00    2.30
   1  -5  -2   36.40    2.30
   1   5   2   41.00    2.40
  -1   5  -2   41.50    2.60
   1  -5  -2   39.00    2.00
  -2  -5  -2  370.96   11.80
  -2   5   2  379.96   12.50
  -2   5   2  371.16   11.20
   2  -5   2  379.56   11.90
  -2   5   2  347.17   12.50
   2  -5   2  371.56   12.60
  -2  -5  -2  402.46   12.50
   2   5  -2  378.46   12.40
  -2   5   2  381.06   12.20
  -2   5  -2  373.46   11.20
   2   5   2  379.26   12.30
   2  -5  -2  356.56   12.30
  -2  -5   2  365.06   11.70
  -2   5  -2  374.86   12.30
  -2  -5   2  363.36   12.60
   2  -5  -2  364.56   11.90
  -2   5  -2  384.56   12.30
  -2   5  -2  367.46   12.80
  -3   5   2    2.40    0.50
  -3  -5  -2    3.50    0.80
  -3   5   2    2.40    0.90
  -3   5   2    2.40    0.70
   3  -5   2    1.40    0.50
  -3  -5  -2    2.80    0.70
  -3  -5  -2    1.80    0.50
   3   5  -2    2.00    0.70
   3  -5   2    1.40    0.60
  -3   5  -2    2.50    0.40
   3  -5  -2    3.00    0.80
  -3   5  -2    1.80    0.80
   3   5   2    1.80    0.60
  -3  -5   2    1.90    0.60
   3  -5  -2    2.30    0.80
  -3  -5   2    1.00    0.60
  -3   5  -2    1.40    0.60
  -4  -5  -2   47.90    2.70
  -4   5   2   48.40    3.10
   4  -5   2   48.80    2.60
  -4  -5  -2   47.20    2.20
  -4   5   2   51.39    2.20
  -4   5   2   47.70    3.40
  -4  -5  -2   43.20    3.20
   4  -5   2   48.00    3.30
  -4   5  -2   49.99    2.10
  -4   5  -2   46.60    2.90
  -4   5  -2   47.40    3.60
   4  -5  -2   47.30    3.10
   4  -5  -2   47.20    2.60
  -4  -5   2   47.70    2.60
  -4  -5   2   46.10    3.20
  -5  -5  -2  639.34   18.50
   5  -5   2  626.14   19.60
  -5   5   2  608.94   18.50
  -5   5   2  663.03   18.90
   5   5  -2  637.54   18.50
  -5  -5  -2  646.54   18.60
  -5  -5  -2  609.14   19.70
  -5  -5  -2  629.54   18.90
  -5   5   2  623.64   18.60
   5  -5  -2  626.04   19.70
  -5   5  -2  649.93   18.70
  -5   5  -2  612.54   18.50
  -5   5  -2  632.84   18.70
  -5  -5   2  628.24   18.60
  -5  -5   2  604.94   19.60
  -6   5   2   32.90    1.90
  -6  -5  -2   34.70    1.70
  -6  -5  -2   32.00    1.90
  -6  -5  -2   32.70    1.60
  -6   5   2   32.20    1.70
   6   5  -2   35.30    1.70
  -6   5   2   33.30    1.70
   6   5   2   31.80    1.60
  -6  -5   2   32.60    1.70
  -6   5  -2   33.90    1.80
  -6   5  -2   35.10    1.80
  -6   5  -2   36.60    1.70
  -7   5   2  371.86   11.50
   7   5  -2  358.96   11.30
  -7  -5  -2  373.76   11.40
  -7   5   2  374.76   11.80
  -7  -5  -2  362.66   11.30
  -7   5   2  371.36   11.40
  -7   5  -2  366.86   11.50
  -7   5  -2  382.86   11.70
  -7  -5   2  374.46   11.50
   7   5   2  361.16   11.30
  -7   5  -2  382.36   11.50
   8   5  -2  149.88    5.20
  -8   5   2  162.58    5.30
  -8   5   2  150.08    5.60
  -8  -5  -2  160.08    5.30
  -8  -5  -2  158.48    5.20
  -8   5   2  157.48    5.40
  -8   5  -2  159.78    5.60
  -8  -5   2  161.38    5.40
  -8   5  -2  165.18    5.40
   8   5   2  154.08    5.20
  -8   5  -2  163.28    5.40
  -9   5   2   26.50    1.40
  -9   5   2   27.70    1.40
  -9  -5  -2   27.70    1.40
  -9  -5   2   28.40    1.40
  -9   5  -2   30.60    1.50
  -9   5  -2   26.60    1.40
   0  -6  -2  254.97    8.60
   0  -6   2  251.57    9.50
   0   6  -2  260.77    8.10
   0  -6   2  256.47    8.60
   0   6  -2  272.27    9.40
   0   6   2  257.07    9.30
   0  -6  -2  247.68    9.10
   1   6  -2    9.40    1.30
   1  -6   2    9.10    1.00
  -1   6   2    8.10    1.20
  -1   6   2    8.40    0.80
  -1  -6  -2   10.60    1.10
   1  -6   2    8.00    1.20
   1   6   2    7.60    1.20
  -1   6  -2    8.40    1.20
   1  -6  -2    8.80    1.20
  -1   6  -2    8.00    1.20
  -1  -6   2    9.60    1.30
  -1   6  -2    7.90    1.20
  -1  -6   2    8.60    1.00
  -2   6   2  274.47    8.60
   2  -6   2  255.17   10.10
   2  -6   2  281.87    9.30
  -2  -6  -2  274.67    9.20
  -2   6   2  275.37    9.70
  -2   6   2  266.27   10.10
   2   6  -2  265.77    9.80
  -2   6  -2  269.37    8.50
  -2  -6   2  275.87    9.10
  -2   6  -2  263.07    9.80
   2   6   2  278.37    9.80
   2  -6  -2  284.07    9.30
   2  -6  -2  254.47    9.80
  -2  -6   2  270.27   10.20
  -2   6  -2  285.87    9.90
  -2   6  -2  258.57   10.20
  -3  -6  -2  234.98    8.20
  -3   6   2  232.58    9.00
   3   6  -2  241.88    8.80
   3  -6   2  238.98    8.30
  -3  -6   2  219.38   10.20
  -3   6  -2  224.98    7.20
  -3  -6   2  225.18    7.20
   3   6   2  234.78    8.80
   3  -6  -2  236.18    8.30
  -3   6  -2  242.68    7.50
  -3  -6   2  227.68    8.10
   3  -6  -2  210.08    8.80
  -3   6  -2  230.08    8.80
   4  -6   2  181.28    7.20
  -4   6   2  184.68    6.20
  -4  -6  -2  180.88    7.10
  -4  -6  -2  194.28    6.20
  -4   6   2  180.08    6.00
   4   6  -2  209.18    6.10
  -4  -6  -2  194.78    6.10
  -4   6   2  196.08    6.40
  -4   6  -2  196.78    6.20
  -4   6  -2  185.38    6.10
  -4  -6   2  186.28    6.10
   4  -6  -2  183.18    7.20
  -4   6  -2  195.08    6.30
  -4  -6   2  178.98    7.00
   5   6  -2   55.49    2.40
  -5   6   2   58.49    2.70
  -5  -6  -2   58.99    2.40
  -5   6   2   58.09    2.40
  -5  -6  -2   56.49    2.40
  -5   6   2   55.99    2.50
  -5   6  -2   61.69    2.70
  -5  -6   2   61.09    2.50
   5   6   2   61.49    2.40
  -5   6  -2   60.59    2.50
  -6  -6  -2  596.34   17.70
  -6  -6  -2  561.64   17.60
  -6   6   2  601.64   17.80
   6   6  -2  583.04   17.60
  -6   6   2  598.04   18.10
  -6   6   2  589.24   17.70
  -6   6  -2  580.14   17.80
   6   6   2  634.74   17.70
  -6   6  -2  614.14   18.00
  -6   6  -2  593.44   17.70
  -6  -6   2  581.84   17.70
  -7   6   2    9.70    0.90
  -7   6   2   10.60    1.10
  -7  -6  -2   10.20    0.90
   7   6  -2    8.60    0.80
  -7  -6  -2   11.10    0.90
  -7   6   2   10.30    1.00
  -7   6  -2   11.10    1.00
  -7  -6   2   12.10    1.00
  -7   6  -2   10.20    1.10
  -7   6  -2   10.40    0.90
   7   6   2   10.50    0.90
  -8   6   2   69.09    2.80
  -8   6   2   72.59    2.90
   8   6  -2   73.99    2.70
  -8  -6  -2   68.59    2.70
  -8   6  -2   76.19    2.90
  -8  -6   2   72.59    2.80
  -8   6  -2   72.89    2.80
   8   6   2   77.09    2.70
  -9   6   2   33.50    1.60
   9   6  -2   33.30    1.40
  -9   6   2   34.10    1.50
   9   6   2   31.50    1.40
  -9   6  -2   37.20    1.50
  -9  -6   2   34.80    1.50
  -9   6  -2   33.40    1.50
   0  -7   2    0.10    0.30
   0   7  -2    0.50    0.30
   0   7   2    0.40    0.50
   0   7  -2    0.40    0.50
   0  -7  -2    1.10    0.50
  -1   7   2   77.49    4.20
   1   7  -2   73.49    4.20
   1  -7   2   79.69    3.70
  -1  -7  -2   79.09    3.70
  -1   7  -2   80.69    4.30
  -1  -7   2   79.39    2.90
  -1  -7   2   80.79    3.70
   1   7   2   86.09    4.40
   1  -7  -2   82.49    3.70
  -1   7  -2   79.69    3.00
  -1   7  -2   81.59    3.20
  -2   7   2  148.29    5.30
   2  -7   2  152.68    6.00
  -2  -7  -2  159.28    6.10
   2   7  -2  153.78    6.80
  -2   7   2  159.68    6.70
   2   7   2  156.38    6.80
  -2   7  -2  164.18    5.40
   2  -7  -2  148.79    6.00
  -2   7  -2  144.19    5.10
  -2  -7   2  155.18    5.10
  -2   7  -2  153.68    6.70
   2  -7  -2  148.09    5.10
  -2  -7   2  156.98    6.00
  -3  -7  -2   37.50    2.40
  -3   7   2   38.60    2.00
   3   7  -2   37.00    1.70
  -3   7   2   35.80    1.80
  -3  -7  -2   36.50    1.70
   3   7  -2   31.90    2.70
  -3   7   2   36.50    1.70
   3  -7   2   37.10    2.50
   3   7   2   36.60    1.70
   3  -7  -2   37.90    1.80
   3   7   2   34.60    2.70
  -3   7  -2   38.00    1.90
  -3   7  -2   38.50    1.80
   3  -7  -2   36.70    2.50
  -3  -7   2   36.50    1.70
  -3  -7   2   35.70    2.40
  -3   7  -2   37.40    1.70
  -4  -7  -2    4.40    0.70
  -4   7   2    1.20    0.40
   4   7  -2    0.50    0.30
  -4   7   2    1.10    0.50
  -4   7   2    1.20    0.40
  -4   7  -2    1.40    0.50
  -4   7  -2    1.80    0.50
   4   7   2    0.50    0.30
  -4  -7   2    0.50    0.40
  -4   7  -2    1.70    0.50
  -5   7   2  463.75   14.40
   5   7  -2  474.55   14.00
  -5   7   2  465.45   14.00
  -5   7   2  471.35   14.10
  -5  -7  -2  430.36   13.90
  -5  -7  -2  451.35   14.90
  -5   7  -2  480.95   14.40
   5   7   2  468.55   14.00
  -5  -7   2  462.25   14.00
  -5   7  -2  454.35   14.10
  -5   7  -2  480.05   14.10
  -6  -7  -2  207.18    6.70
   6   7  -2  211.98    6.80
  -6   7   2  218.98    7.00
  -6   7   2  199.78    6.70
  -6  -7  -2  207.58    6.90
  -6   7   2  206.88    7.20
  -6   7  -2  207.28    6.90
  -6   7  -2  210.58    6.80
  -6   7  -2  205.78    7.10
   6   7   2  209.38    6.70
  -6  -7   2  214.38    6.80
   7   7  -2    0.20    0.30
  -7   7   2    0.50    0.40
  -7   7   2    0.70    0.40
  -7  -7   2    0.80    0.40
  -7   7  -2    0.50    0.40
   7   7   2    0.40    0.30
  -7   7  -2    1.50    0.50
   8   7  -2  117.79    3.80
  -8   7   2  106.39    3.80
  -8   7   2  113.09    3.90
  -8   7  -2  115.19    3.90
  -8  -7   2  111.39    3.80
  -8   7  -2  111.89    3.90
   8   7   2  115.59    3.80
   0  -8  -2  661.53   18.90
   0   8  -2  622.14   18.90
  -1  -8  -2  102.59    3.60
  -1  -8   2  101.79    3.60
   1  -8  -2  102.39    3.60
  -1   8  -2  103.29    3.70
  -2  -8  -2  178.78    5.90
   2  -8   2  184.78    5.90
   2  -8  -2  186.88    5.90
  -2  -8   2  177.88    5.90
  -2   8  -2  181.48    6.30
  -2   8  -2  182.28    6.00
  -3   8   2   32.50    1.70
  -3  -8  -2   35.60    1.70
   3   8  -2   36.40    1.70
   3  -8   2   35.60    1.70
  -3   8  -2   37.60    1.80
   3  -8  -2   34.70    1.70
  -3  -8   2   35.30    1.70
  -3   8  -2   35.70    1.70
   3   8   2   36.60    1.70
  -3   8  -2   35.90    2.00
   4  -8   2   33.10    1.70
   4   8  -2   32.50    1.60
  -4  -8  -2   34.60    1.70
  -4   8   2   33.40    1.70
   4   8   2   37.40    1.70
  -4   8  -2   33.60    1.90
   4  -8  -2   36.10    1.70
  -4   8  -2   35.00    1.70
  -4   8  -2   35.50    1.80
  -4  -8   2   35.10    1.70
  -5   8   2   33.50    1.80
   5   8  -2   34.80    1.70
   5  -8   2   33.60    1.70
   5   8   2   33.50    1.70
   5  -8  -2   34.00    1.80
  -5   8  -2   35.10    1.80
  -5  -8   2   36.70    1.70
  -5   8  -2   33.10    1.90
  -5   8  -2   36.00    1.80
   6   8  -2   23.00    1.30
   6  -8   2   23.80    1.40
  -6   8   2   22.40    1.40
  -6   8  -2   24.90    1.40
   6   8   2   23.60    1.30
  -6   8  -2   22.60    1.30
  -6  -8   2   25.20    1.40
   6  -8  -2   23.90    1.40
   7   8  -2  213.48    6.70
   7  -8   2  216.98    6.70
  -7   8   2  221.08    6.80
   7  -8  -2  217.88    6.70
   7   8   2  207.88    6.70
  -7   8  -2  212.98    6.80
  -7  -8   2  210.38    6.70
  -7   8  -2  214.78    6.70
   8   8  -2  119.89    3.80
   8  -8   2  118.49    3.80
  -8   8   2  120.09    3.90
  -8   8  -2  116.99    3.90
   8  -8  -2  120.89    3.80
   8   8   2  118.29    3.80
   0  -9   2   -0.10    0.30
   0  -9  -2   -0.10    0.30
  -1  -9  -2  275.27    8.80
   1  -9  -2  285.37    8.80
  -1   9  -2  287.27    8.90
  -1  -9   2  287.07    8.90
  -2  -9  -2   14.80    1.10
   2  -9   2   15.50    1.00
  -2  -9   2   16.50    1.10
   2  -9  -2   16.30    1.10
  -2   9  -2   16.20    1.10
   3  -9   2   27.20    1.40
  -3  -9  -2   26.60    1.40
   3  -9  -2   27.10    1.40
  -3   9  -2   26.10    1.50
  -3   9  -2   26.40    1.40
  -3  -9   2   25.80    1.40
   4  -9   2   39.10    1.80
   4   9  -2   37.70    1.70
  -4   9   2   38.70    1.80
   4   9   2   40.00    1.80
  -4   9  -2   38.60    1.90
  -4   9  -2   37.90    1.80
   4  -9  -2   41.90    1.80
  -4  -9   2   40.10    1.80
   5   9  -2   36.80    1.70
  -5   9   2   36.50    1.80
   5  -9   2   38.10    1.70
  -5  -9   2   36.60    1.70
  -5   9  -2   36.20    1.70
   5   9   2   35.40    1.60
  -5   9  -2   37.70    1.80
   5  -9  -2   37.40    1.70
  -6   9   2  132.49    4.40
   6  -9   2  133.39    4.30
   6   9  -2  131.99    4.30
  -6   9  -2  128.99    4.40
  -6  -9   2  125.79    4.30
  -6   9  -2  136.39    4.50
   6  -9  -2  135.69    4.40
   6   9   2  136.29    4.30
  -7   9   2   27.60    1.20
   7  -9   2   26.30    1.10
   7   9  -2   26.50    1.20
   7  -9  -2   24.70    1.20
   7   9   2   25.30    1.10
  -7   9  -2   26.40    1.20
   0 -10  -2  193.98    6.10
   0 -10   2  186.98    6.10
   1 -10   2   53.29    2.20
  -1 -10  -2   54.09    2.20
  -1 -10   2   55.99    2.20
   1 -10  -2   54.79    2.20
  -2 -10   2  241.98    7.70
   2 -10  -2  256.17    7.80
  -3 -10   2    0.70    0.30
   3 -10  -2    0.80    0.40
  -3  10  -2    0.60    0.40
   4 -10   2   59.59    2.20
   4 -10  -2   61.09    2.30
  -4  10  -2   58.39    2.30
  -4  10  -2   56.69    2.30
  -5  10   2   10.80    0.80
   5  10  -2   12.20    0.70
   5 -10   2   11.30    0.70
  -5  10  -2   10.10    0.80
   5 -10  -2   10.30    0.70
   5  10   2   10.60    0.70
   1 -11  -2   33.90    1.50
   2 -11  -2   11.10    0.80
   3 -11  -2   63.29    2.30
   0   0  -3    3.80    0.30
   0   0   3    3.70    0.20
   0   0   3    4.30    0.30
   0   0  -3    3.80    0.20
   0   0  -3    3.90    0.30
   1   0  -3    0.80    0.20
  -1   0  -3    0.50    0.20
  -1   0   3    0.50    0.10
  -1   0   3    1.20    0.20
  -1   0  -3    0.60    0.20
  -1   0   3    0.20    0.10
  -1   0  -3    0.40    0.10
   1   0  -3    0.30    0.10
   2   0  -3    1.00    0.30
  -2   0   3    0.90    0.30
  -2   0   3    1.40    0.40
  -2   0  -3    1.40    0.20
  -2   0  -3    1.50    0.20
  -2   0   3    1.10    0.20
  -2   0   3    0.90    0.30
  -3   0  -3    0.60    0.30
   3   0   3    0.70    0.20
  -3   0   3    0.30    0.20
  -3   0   3    0.10    0.30
  -3   0   3    0.20    0.20
  -3   0   3    1.00    0.40
  -3   0  -3    0.20    0.20
  -3   0  -3    1.10    0.30
  -3   0  -3    0.70    0.20
   3   0  -3    0.10    0.20
  -4   0  -3    0.20    0.30
  -4   0   3    0.50    0.30
  -4   0   3    1.60    0.60
  -4   0  -3    0.30    0.30
  -4   0   3    0.20    0.20
  -4   0  -3    0.50    0.30
  -4   0   3    0.30    0.40
  -4   0  -3    0.20    0.20
  -5   0   3    0.50    0.30
  -5   0  -3    0.30    0.40
  -5   0  -3    0.30    0.20
  -5   0   3    1.30    0.60
  -5   0  -3    0.60    0.40
  -5   0   3    0.30    0.40
  -5   0  -3    1.20    0.50
  -5   0   3    0.70    0.50
  -6   0  -3    0.20    0.40
  -6   0   3    1.30    0.40
  -6   0  -3    0.90    0.60
  -6   0   3    0.50    0.50
  -6   0   3    0.50    0.50
  -6   0   3    0.40    0.40
  -6   0  -3    0.50    0.30
  -6   0  -3    0.50    0.40
  -7   0   3    0.40    0.50
  -7   0   3    0.70    0.50
  -7   0   3    0.40    0.30
  -7   0   3    0.60    0.30
  -7   0  -3    0.30    0.30
  -7   0   3    0.20    0.30
  -7   0  -3    0.10    0.20
  -7   0  -3    0.60    0.40
  -7   0  -3    0.70    0.40
  -7   0  -3    0.60    0.50
  -8   0  -3    1.00    0.50
  -8   0   3    1.10    0.50
  -8   0  -3    0.50    0.40
  -8   0   3    1.00    0.40
  -8   0  -3    0.00    0.30
  -8   0   3   -0.40    0.50
  -8   0  -3    0.10    0.30
  -9   0   3    0.90    0.40
  -9   0  -3    0.80    0.40
   9   0  -3    1.30    0.80
  -9   0   3    0.70    0.50
  -9   0  -3    0.40    0.40
  -9   0  -3    1.20    0.70
  10   0   3   -0.50    0.50
 -10   0   3    1.60    0.50
  10   0  -3    0.80    0.60
 -10   0  -3    1.40    0.40
   0  -1  -3    2.30    0.30
   0  -1  -3    2.20    0.20
   0  -1  -3    2.20    0.20
   0   1   3    1.30    0.20
   0  -1  -3    1.80    0.20
   0  -1   3    2.30    0.30
   1   1  -3  369.46   10.90
  -1  -1  -3  363.96   10.70
  -1  -1  -3  370.36   11.00
  -1   1   3  377.86   11.00
  -1   1   3  382.66   11.00
  -1   1   3  350.36   10.70
   1   1  -3  371.56   10.80
  -1  -1  -3  334.97   10.80
  -1  -1  -3  369.46   10.70
  -1   1   3  340.77   11.00
  -1  -1   3  378.46   11.00
  -1  -1   3  388.26   10.60
  -1   1  -3  376.16   10.70
  -1   1  -3  366.06   10.70
   1   1   3  389.46   10.90
  -1  -1   3  382.46   11.00
  -1  -1   3  380.96   10.90
  -1   1  -3  347.27   10.80
  -1   1  -3  358.46   11.10
  -1   1  -3  374.06   11.00
  -1   1  -3  370.06   10.70
   1  -1  -3  343.67   10.60
  -2  -1  -3 1174.58   37.00
  -2   1   3 1065.69   34.10
  -2   1   3 1217.98   34.70
  -2   1   3 1184.98   37.10
  -2  -1  -3 1129.59   35.20
  -2  -1  -3 1107.29   34.70
  -2  -1  -3 1138.19   35.10
   2   1  -3 1091.89   34.90
   2   1  -3 1150.68   34.70
  -2   1   3 1213.58   36.80
  -2  -1  -3 1256.67   36.30
  -2   1   3 1245.48   37.50
  -2   1  -3 1305.97   36.20
  -2   1  -3 1230.68   35.10
  -2  -1   3 1278.47   34.80
  -2  -1   3 1240.78   37.60
   2  -1  -3 1194.38   36.20
  -2  -1   3 1212.28   35.80
  -2   1  -3 1152.68   34.90
  -2   1  -3 1220.18   35.10
  -2   1  -3 1053.09   35.10
   2   1   3 1296.97   35.70
  -2  -1   3 1202.98   37.70
  -2   1  -3 1200.98   37.30
   3   1  -3   15.60    1.20
  -3   1   3   17.10    1.20
  -3   1   3   18.10    1.00
  -3  -1  -3   17.00    1.20
  -3   1   3   16.30    1.30
   3   1  -3   16.40    0.80
  -3   1   3   17.40    1.30
  -3  -1  -3   16.70    1.00
  -3  -1  -3   16.50    1.10
  -3  -1  -3   16.40    0.90
  -3   1  -3   17.30    0.90
  -3   1  -3   17.60    1.00
  -3   1  -3   17.50    1.30
  -3  -1   3   16.60    1.20
   3   1   3   15.90    0.90
  -3  -1   3   16.70    1.20
  -3  -1   3   18.30    1.00
  -3   1  -3   16.60    1.30
  -3  -1   3   17.90    1.30
  -3   1  -3   15.00    0.90
  -3   1  -3   16.50    0.80
  -4  -1  -3  276.97    8.70
  -4   1   3  300.57   10.00
  -4   1   3  290.17    8.80
  -4   1   3  286.87    9.90
  -4   1   3  299.17    9.20
  -4  -1  -3  286.57    9.90
  -4   1   3  300.77    9.70
  -4  -1  -3  307.27    9.60
  -4  -1  -3  292.17    9.30
  -4  -1   3  287.27    8.80
  -4  -1   3  292.17    9.80
  -4   1  -3  301.77   10.00
  -4  -1   3  301.57    9.20
  -4  -1   3  290.97   10.00
  -4   1  -3  285.67    9.30
  -4   1  -3  295.87    9.30
  -4   1  -3  288.77    9.80
  -5  -1  -3   54.39    2.60
  -5  -1  -3   49.00    2.00
  -5   1   3   53.89    2.50
  -5   1   3   49.99    3.10
  -5   1   3   50.59    2.90
  -5  -1  -3   51.39    3.00
  -5  -1  -3   50.49    2.70
  -5   1   3   49.70    2.00
  -5   1   3   51.89    3.10
  -5  -1   3   51.49    2.50
  -5  -1   3   48.80    2.10
  -5  -1   3   53.79    2.90
  -5   1  -3   53.59    2.60
  -5   1  -3   53.79    3.20
  -5   1  -3   52.49    3.00
  -5   1  -3   51.49    2.50
  -5   1  -3   48.80    1.90
  -5  -1   3   51.39    3.00
  -5  -1   3   51.59    3.20
  -6   1   3  102.09    5.10
  -6   1   3  100.29    4.80
  -6   1   3   96.69    4.10
  -6   1   3   93.79    5.10
  -6  -1  -3  100.09    4.60
  -6  -1  -3   93.99    5.00
  -6   1   3  104.69    3.60
  -6  -1  -3   98.49    4.30
  -6  -1   3   93.99    6.20
  -6  -1   3   97.89    4.20
  -6  -1   3   92.19    4.80
  -6   1  -3   96.69    3.40
  -6   1  -3   98.39    4.30
  -6   1  -3   92.59    5.00
  -6  -1   3   99.29    3.70
  -7   1   3   15.00    1.00
  -7  -1  -3   16.00    1.20
  -7   1   3   16.90    1.30
  -7  -1  -3   15.20    1.10
  -7  -1  -3   15.10    1.10
  -7   1   3   15.30    1.20
  -7  -1  -3   12.30    1.40
  -7  -1  -3   14.60    1.00
  -7  -1   3   15.90    1.30
  -7  -1   3   15.10    1.20
  -7   1  -3   13.80    1.00
   7  -1  -3   13.80    1.40
  -7   1  -3   15.00    1.10
  -7   1  -3   15.70    1.10
  -7   1  -3   13.70    1.50
  -7   1  -3   13.80    1.10
  -7  -1   3   14.70    1.00
  -7  -1   3   13.90    1.00
  -7  -1   3   13.40    1.40
  -8  -1  -3  103.29    4.00
  -8   1   3  100.59    3.70
  -8   1   3   99.19    4.00
  -8   1   3   99.19    4.00
  -8  -1  -3   99.69    3.70
  -8  -1  -3  100.19    3.70
  -8  -1  -3   98.99    4.00
  -8   1  -3  102.49    4.00
  -8  -1   3   90.39    3.60
  -8   1  -3   99.79    3.70
  -8  -1   3   97.49    3.70
  -8  -1   3  104.79    4.10
  -8   1  -3   98.89    3.90
  -8  -1   3  100.79    4.00
  -9  -1  -3    4.30    0.80
  -9  -1  -3    4.50    0.70
  -9   1   3    6.10    0.80
  -9  -1  -3    4.80    0.90
  -9   1   3    5.00    0.80
  -9  -1  -3    5.30    0.70
  -9   1  -3    5.20    0.70
   9  -1  -3    4.60    0.90
  -9   1  -3    5.00    0.90
  -9  -1   3    5.60    0.80
  -9   1  -3    4.20    0.70
  10  -1   3   46.10    2.20
  10   1  -3   46.60    2.30
 -10   1   3   45.90    2.00
 -10  -1  -3   48.30    2.00
 -10  -1  -3   50.39    2.30
 -10  -1   3   45.80    2.00
  10  -1  -3   44.90    2.20
 -10   1  -3   48.70    2.00
   0  -2  -3 1379.36   42.40
   0  -2   3 1555.04   43.20
   0   2  -3 1359.66   44.90
   0   2  -3 1551.24   44.50
   0   2  -3 1671.93   44.90
   0   2   3 1515.35   44.80
   0  -2   3 1566.14   45.70
   0   2   3 1323.77   43.40
   0  -2   3 1472.35   43.80
   0   2   3 1272.57   43.40
   0  -2  -3 1363.06   43.10
   0   2  -3 1382.26   43.30
   0  -2  -3 1575.24   43.90
   1   2  -3 2261.17   67.99
  -1  -2  -3 2273.17   68.69
  -1  -2  -3 2441.46   68.19
   1  -2   3 2361.76   70.09
  -1   2   3 2360.76   69.59
  -1   2   3 2335.97   69.49
  -1   2   3 2416.36   68.19
  -1   2   3 2227.88   68.49
   1  -2   3 2327.97   66.99
  -1  -2  -3 2228.38   66.79
   1   2  -3 2384.16   69.39
   1   2   3 2476.65   69.09
  -1  -2   3 2284.87   69.99
  -1   2  -3 2425.36   67.89
  -1   2  -3 2197.68   68.29
   1   2   3 1995.10   67.69
   1  -2  -3 2212.78   67.19
  -1  -2   3 2273.77   68.69
  -1  -2   3 2300.37   69.19
  -1  -2   3 2377.76   66.79
  -1   2  -3 2301.47   70.19
  -1   2  -3 1953.40   67.29
   2   2  -3  295.47    9.20
  -2  -2  -3  287.07    8.70
  -2  -2  -3  281.67    9.00
  -2   2   3  293.17    9.30
   2   2  -3  303.77    8.90
  -2   2   3  258.37    9.00
  -2   2   3  297.27    8.70
   2  -2   3  290.17    8.70
  -2   2   3  285.47    9.10
  -2   2  -3  253.97    8.60
  -2  -2   3  295.27    9.20
   2   2   3  270.57    8.80
  -2  -2   3  302.17    9.30
  -2   2  -3  294.87    9.30
  -2  -2   3  277.47    8.60
  -2   2  -3  286.27    8.70
   2  -2  -3  297.57    8.70
   2  -2  -3  286.27    9.00
  -2   2  -3  301.57    9.40
  -2   2  -3  289.37    8.80
  -2  -2   3  286.77    9.00
  -3  -2  -3  106.29    4.10
  -3   2   3   90.09    4.00
  -3   2   3  110.29    4.10
  -3  -2  -3  106.89    3.80
   3   2  -3   98.49    3.70
  -3  -2  -3  101.69    4.00
  -3   2   3  105.99    4.30
  -3  -2   3  108.59    3.70
  -3  -2   3  109.69    4.20
  -3  -2   3  109.19    4.00
   3  -2  -3  105.79    3.60
   3   2   3  101.29    3.70
  -3   2  -3  112.29    4.40
  -3   2  -3  103.39    3.70
  -3  -2   3  110.89    4.40
  -3   2  -3  104.89    4.30
  -3   2  -3  102.99    3.70
  -3   2  -3  102.09    3.60
  -4  -2  -3  638.64   19.00
  -4   2   3  647.64   19.50
  -4  -2  -3  658.13   19.50
  -4   2   3  634.04   19.90
  -4   2   3  625.54   18.40
  -4   2   3  660.23   19.90
  -4  -2  -3  654.33   19.80
  -4  -2  -3  585.94   18.40
  -4   2  -3  615.04   18.90
  -4   2  -3  652.43   19.00
  -4  -2   3  647.74   20.00
  -4  -2   3  650.13   19.80
  -4   2  -3  575.24   19.70
  -4  -2   3  634.94   18.90
  -4  -2   3  649.74   19.40
  -4   2  -3  618.84   19.80
   4  -2  -3  635.44   18.80
  -5  -2  -3   27.10    1.70
  -5  -2  -3   27.00    2.00
  -5   2   3   23.30    2.10
  -5   2   3   26.60    2.20
  -5  -2  -3   28.20    2.20
  -5   2   3   25.50    1.30
  -5  -2  -3   24.80    1.30
  -5   2   3   24.90    2.00
  -5  -2   3   25.30    2.10
  -5  -2   3   25.50    2.20
  -5   2  -3   27.00    2.20
  -5   2  -3   27.30    2.20
  -5  -2   3   24.70    1.60
  -5   2  -3   24.60    1.10
  -5   2  -3   30.40    1.80
  -5   2  -3   25.60    1.70
   5  -2  -3   25.30    1.60
  -5  -2   3   25.60    1.40
  -6  -2  -3  436.16   13.80
  -6  -2  -3  405.96   12.90
  -6   2   3  436.06   12.90
  -6   2   3  407.56   14.40
  -6  -2  -3  435.56   12.70
  -6   2   3  437.16   13.10
   6  -2   3  424.56   13.60
  -6   2   3  403.66   12.70
  -6  -2  -3  409.36   14.40
  -6  -2   3  425.16   13.60
  -6   2  -3  448.36   14.60
  -6   2  -3  431.86   12.70
  -6   2  -3  417.56   14.80
  -6  -2   3  424.76   12.90
  -6  -2   3  414.06   12.70
  -6   2  -3  432.16   12.70
  -6  -2   3  434.06   13.00
  -6  -2   3  408.36   14.80
   6  -2  -3  421.46   13.50
  -7  -2  -3   23.20    1.50
  -7   2   3   24.20    1.50
  -7   2   3   22.50    1.30
  -7  -2  -3   19.80    1.20
  -7  -2  -3   24.10    1.50
  -7  -2  -3   19.30    1.20
  -7   2   3   20.60    1.30
  -7  -2   3   22.30    1.50
  -7   2  -3   19.80    1.40
   7  -2  -3   20.10    1.50
  -7  -2   3   26.10    1.40
  -7  -2   3   23.20    1.90
  -7   2  -3   21.40    1.30
  -7  -2   3   21.70    1.50
   7  -2  -3   22.60    2.00
  -7   2  -3   22.60    1.40
  -8   2   3    1.90    0.60
  -8  -2  -3    1.40    0.50
  -8   2   3    1.80    0.50
  -8  -2  -3    3.80    0.80
  -8  -2  -3    2.30    0.60
  -8  -2  -3    1.40    0.50
  -8   2  -3    1.60    0.50
  -8  -2   3    1.70    0.50
  -8  -2   3    1.60    0.60
  -8   2  -3    2.30    0.70
   8  -2  -3    0.10    0.60
  -8   2  -3    1.60    0.50
  -8  -2   3    2.00    0.70
  -9   2   3   11.10    1.10
  -9  -2  -3   12.80    1.30
  -9  -2  -3   11.10    0.90
  -9  -2  -3   11.80    1.00
  -9   2   3   10.10    0.90
  -9  -2  -3   11.70    1.10
  -9  -2   3   10.10    1.20
  -9   2  -3   12.80    1.10
   9  -2  -3   10.60    1.10
  -9  -2   3   12.50    1.00
  -9   2  -3   11.40    1.00
  10   2  -3   34.30    1.90
 -10   2   3   30.70    1.50
 -10  -2  -3   35.30    1.90
 -10  -2  -3   35.20    1.60
 -10   2  -3   34.50    1.60
  10  -2  -3   33.60    1.70
 -10  -2   3   34.20    1.60
   0  -3  -3    0.40    0.30
   0   3  -3    0.20    0.30
   0   3   3    0.40    0.30
   0  -3  -3    0.40    0.20
   0  -3   3    0.00    0.20
   0   3  -3    1.40    0.40
   0   3   3    0.50    0.30
   0  -3  -3    0.60    0.30
   0  -3   3    0.70    0.30
   0   3   3    0.40    0.20
   0  -3   3    0.20    0.30
  -1   3   3  765.32   22.60
  -1  -3  -3  735.33   22.60
  -1  -3  -3  770.82   22.10
   1  -3   3  755.92   22.10
  -1  -3  -3  702.43   22.20
  -1   3   3  743.43   22.50
  -1   3   3  785.02   22.40
   1   3  -3  743.83   22.40
   1  -3   3  759.32   22.70
   1   3  -3  727.83   22.50
  -1  -3   3  764.92   22.50
  -1   3  -3  776.42   22.40
  -1  -3   3  772.82   22.00
  -1   3  -3  796.62   22.90
   1  -3  -3  780.42   22.60
   1  -3  -3  778.92   22.20
   1   3   3  735.53   22.20
  -1  -3   3  789.82   22.70
  -1   3  -3  767.72   38.00
   1   3   3  743.13   22.50
  -2  -3  -3  423.76   13.40
  -2   3   3  417.06   13.30
   2   3  -3  432.76   13.50
   2  -3   3  413.96   13.40
  -2   3   3  440.26   13.40
  -2   3   3  418.56   12.90
   2  -3   3  444.56   12.80
  -2  -3  -3  423.36   12.90
  -2   3   3  403.96   13.50
   2   3  -3  431.76   13.20
  -2   3  -3  425.26   13.70
  -2  -3   3  415.26   12.80
   2   3   3  412.16   13.10
  -2  -3   3  433.86   13.40
   2  -3  -3  436.16   12.80
  -2   3  -3  437.06   13.00
  -2   3  -3  449.95   13.10
  -2  -3   3  460.95   13.70
  -2  -3   3  413.66   13.10
  -3   3   3   15.40    1.30
   3   3  -3   13.80    1.10
  -3  -3  -3   16.90    1.40
   3  -3   3   15.10    1.00
  -3   3   3   15.30    0.80
  -3   3   3   15.10    1.30
  -3  -3  -3   15.80    1.30
  -3   3   3   14.70    1.40
  -3  -3  -3   15.80    1.10
  -3  -3  -3   14.80    0.90
   3   3   3   13.50    1.10
  -3   3  -3   15.80    1.10
  -3   3  -3   15.80    1.10
  -3  -3   3   16.30    1.50
  -3  -3   3   14.70    1.40
  -3   3  -3   15.80    1.50
  -3   3  -3   16.00    1.50
  -3  -3   3   16.00    1.10
  -3  -3   3   15.40    1.20
   3  -3  -3   15.10    1.00
  -4  -3  -3    0.40    0.30
  -4   3   3    0.20    0.40
  -4  -3  -3    0.20    0.40
  -4   3   3    0.20    0.20
  -4   3   3    0.70    0.50
   4  -3   3    0.30    0.30
  -4   3   3    1.40    0.70
  -4  -3  -3    0.20    0.30
  -4  -3  -3    0.90    0.30
  -4   3  -3    0.40    0.30
  -4   3  -3    0.30    0.20
  -4  -3   3    0.50    0.50
  -4  -3   3    0.70    0.30
  -4  -3   3    0.80    0.50
  -4  -3   3    0.50    0.30
   4  -3  -3    0.70    0.30
  -4   3  -3    0.70    0.50
  -4   3  -3    0.90    0.50
  -5  -3  -3  109.79    4.50
  -5   3   3  113.89    3.80
  -5   3   3  104.19    5.20
  -5  -3  -3  111.89    5.10
  -5   3   3  109.29    5.00
  -5  -3  -3  108.79    3.90
  -5  -3  -3  110.39    5.20
  -5   3   3  104.39    5.30
   5  -3   3  108.19    4.30
  -5   3  -3  102.29    5.20
  -5   3  -3  108.19    4.50
  -5   3  -3  104.89    3.60
   5  -3  -3  110.79    4.30
  -5  -3   3  105.79    4.30
  -5  -3   3  112.49    3.90
  -5  -3   3  104.49    5.30
  -5   3  -3  108.79    5.30
  -6   3   3    1.90    0.50
   6  -3   3    3.10    0.70
  -6  -3  -3    2.30    0.50
  -6  -3  -3    2.70    0.50
  -6  -3  -3    2.70    0.80
  -6   3   3    3.50    0.60
  -6   3  -3    3.20    0.60
  -6  -3   3    2.50    0.60
  -6  -3   3    4.10    0.70
   6  -3  -3    2.30    0.70
   6  -3  -3    1.20    0.50
  -6  -3   3    2.40    0.50
  -6   3  -3    2.40    0.50
  -6  -3   3    2.20    0.70
  -7  -3  -3    1.70    0.50
  -7  -3  -3    0.50    0.40
  -7   3   3    2.10    0.50
  -7  -3  -3    1.10    0.40
  -7   3   3    1.50    0.50
  -7  -3  -3    0.20    0.40
  -7   3   3    0.80    0.40
  -7  -3   3    2.30    0.60
  -7   3  -3    0.40    0.30
   7   3   3    0.80    0.50
  -7   3  -3    0.40    0.40
  -7  -3   3    1.80    0.60
   7  -3  -3   -0.60    0.40
  -7  -3   3    0.60    0.40
  -8  -3  -3  878.21   26.10
  -8  -3  -3  902.91   26.10
  -8  -3  -3  892.01   26.50
  -8   3   3  886.31   26.10
  -8  -3  -3  894.71   26.40
  -8   3   3  861.41   26.10
  -8   3   3  899.01   26.50
  -8   3  -3  887.91   26.30
  -8  -3   3  954.50   26.20
  -8  -3   3  851.41   26.30
  -8   3  -3  891.51   26.10
  -9   3   3    4.30    0.70
  -9  -3  -3    1.80    0.60
  -9  -3  -3    1.30    0.40
  -9  -3  -3    2.40    0.50
  -9   3  -3    1.90    0.50
  -9  -3   3    2.10    0.50
 -10   3   3   29.80    1.40
 -10  -3  -3   29.90    1.60
  10   3  -3   31.50    1.70
 -10  -3  -3   31.00    1.40
 -10  -3   3   30.80    1.50
 -10   3  -3   30.40    1.40
   0  -4   3    5.10    0.80
   0   4   3    4.50    0.60
   0  -4  -3    5.30    0.60
   0  -4  -3    5.10    0.80
   0  -4  -3    6.90    0.80
   0   4   3    5.10    0.80
   0   4  -3    6.00    0.50
   0   4  -3    4.90    0.80
   0  -4   3    5.40    0.60
   0   4   3    6.80    0.90
  -1  -4  -3  323.47   10.60
   1   4  -3  321.87   10.50
   1  -4   3  334.97   10.10
  -1  -4  -3  317.47   10.30
  -1   4   3  332.27   10.60
  -1  -4  -3  330.27   10.00
  -1   4   3  342.07   10.70
  -1   4   3  342.57   10.40
   1  -4   3  311.27   10.70
   1   4   3  322.17   10.40
  -1   4  -3  300.07   10.70
   1  -4  -3  324.57   10.10
  -1   4  -3  308.87    9.50
  -1  -4   3  309.37   10.40
  -1  -4   3  317.17   10.60
  -1   4  -3  322.17   10.40
  -1   4  -3  322.27   10.40
  -1  -4   3  325.27    9.90
   2  -4   3  775.82   22.90
  -2   4   3  751.32   21.60
  -2   4   3  728.13   22.30
   2   4  -3  790.92   22.60
  -2  -4  -3  729.53   22.10
  -2  -4  -3  744.03   21.70
   2  -4   3  759.82   22.00
  -2   4   3  755.32   22.90
  -2   4   3  758.62   22.70
  -2  -4  -3  727.03   22.80
   2   4  -3  743.03   23.20
  -2   4  -3  758.42   22.40
   2  -4  -3  746.63   22.10
  -2   4  -3  791.42   23.20
  -2  -4   3  660.93   22.20
  -2  -4   3  709.33   22.90
  -2   4  -3  747.73   21.50
   2   4   3  721.33   22.50
  -2  -4   3  745.83   22.00
  -2   4  -3  781.02   22.40
   2  -4  -3  742.23   22.60
  -3  -4  -3  618.74   18.50
   3   4  -3  665.33   19.40
  -3  -4  -3  633.24   19.10
  -3   4   3  646.14   20.10
   3  -4   3  641.34   18.90
   3  -4   3  605.34   19.80
  -3  -4  -3  627.54   19.80
  -3   4   3  629.34   19.70
  -3  -4  -3  644.94   19.60
  -3   4   3  637.74   18.50
  -3   4   3  645.14   19.70
  -3   4  -3  625.64   19.30
   3  -4  -3  606.24   19.60
   3  -4  -3  637.14   19.00
  -3   4  -3  609.44   18.20
  -3  -4   3  651.83   20.10
  -3   4  -3  603.14   19.10
  -3   4  -3  614.84   20.10
  -3  -4   3  653.93   19.00
   3   4   3  630.54   19.40
   4  -4   3   31.90    2.40
  -4   4   3   29.90    2.30
  -4   4   3   29.30    2.20
  -4  -4  -3   29.90    2.30
  -4  -4  -3   30.10    1.60
   4  -4   3   30.60    1.80
  -4  -4  -3   28.10    2.20
  -4   4   3   29.20    2.40
  -4  -4  -3   35.20    2.00
  -4   4   3   32.10    1.50
  -4   4  -3   30.70    2.00
  -4   4  -3   30.20    1.30
  -4   4  -3   27.40    2.40
  -4  -4   3   31.30    2.50
  -4   4  -3   28.90    2.40
   4  -4  -3   36.40    1.90
  -4  -4   3   32.40    1.90
   5  -4   3   26.10    1.80
  -5   4   3   27.00    1.50
  -5   4   3   26.70    2.40
  -5  -4  -3   26.00    2.30
  -5  -4  -3   26.90    1.90
  -5  -4  -3   24.70    2.30
  -5   4   3   26.30    2.30
  -5  -4  -3   30.80    1.60
   5  -4  -3   25.30    1.80
  -5  -4   3   26.90    1.90
  -5   4  -3   26.50    1.30
  -5   4  -3   26.90    2.00
  -5   4  -3   26.90    1.30
   6  -4   3   42.30    2.60
  -6   4   3   40.20    1.90
  -6  -4  -3   40.70    1.90
   6   4  -3   40.00    1.80
  -6   4   3   40.80    1.90
  -6  -4  -3   38.60    1.90
  -6   4   3   42.60    2.10
  -6  -4  -3   38.40    2.00
  -6  -4  -3   43.80    1.90
  -6  -4  -3   44.00    2.20
  -6  -4  -3   40.80    2.60
  -6  -4   3   40.90    2.00
  -6   4  -3   45.50    2.00
  -6   4  -3   42.60    2.00
   6  -4  -3   38.90    2.40
  -6  -4   3   40.00    2.50
  -6   4  -3   41.00    1.90
  -7   4   3   22.50    1.40
  -7   4   3   21.50    1.50
  -7  -4  -3   21.70    1.60
  -7  -4  -3   22.30    1.30
   7   4  -3   22.30    1.30
  -7  -4  -3   24.20    1.40
  -7   4   3   22.20    1.30
  -7  -4  -3   25.40    1.60
  -7   4  -3   22.90    1.50
  -7   4  -3   22.30    1.40
  -7  -4   3   23.30    1.40
   7   4   3   22.30    1.30
  -7   4  -3   23.90    1.40
  -8  -4  -3    8.00    0.80
  -8   4   3    7.90    0.80
  -8   4   3    6.70    0.90
  -8  -4  -3    8.50    1.00
  -8  -4  -3    7.80    0.80
  -8   4   3    7.30    0.80
  -8  -4  -3    7.40    0.90
  -8  -4   3    7.00    0.80
  -8   4  -3    6.20    0.80
  -8   4  -3   10.50    0.90
  -8   4  -3    6.60    0.90
   8   4   3    7.00    0.70
  -9  -4  -3   37.50    2.00
  -9   4   3   38.30    1.80
  -9  -4  -3   36.90    1.70
  -9  -4  -3   37.50    1.70
  -9   4   3   39.40    1.80
   9   4  -3   42.20    2.10
  -9  -4   3   39.30    1.80
  -9   4  -3   38.20    1.80
 -10   4  -3    2.40    0.40
 -10  -4   3    1.60    0.40
   0  -5   3    1.30    0.60
   0   5  -3    0.40    0.20
   0  -5  -3    1.20    0.50
   0  -5   3    0.30    0.40
   0  -5   3    0.20    0.30
   0  -5  -3    0.10    0.30
   0   5   3    0.20    0.30
   0   5  -3    0.40    0.40
   0   5  -3    0.30    0.40
   1   5  -3    8.00    1.10
  -1  -5  -3    9.40    0.90
  -1  -5  -3    7.90    1.00
   1  -5   3    8.70    1.20
  -1   5   3    8.30    1.10
  -1   5   3    8.70    1.10
  -1   5   3    8.60    0.70
  -1   5   3    8.90    1.20
   1   5  -3    9.20    0.70
   1  -5   3    8.50    0.90
   1   5  -3    8.50    1.10
  -1  -5   3    8.30    1.10
  -1   5  -3    8.90    0.70
  -1   5  -3   10.40    1.30
  -1   5  -3    8.60    1.10
   1  -5  -3    8.70    1.00
   1   5   3    8.70    1.10
  -1  -5   3   10.50    0.90
   2   5  -3  946.01   28.20
  -2   5   3  894.81   28.30
  -2   5   3  968.40   27.00
  -2   5   3  922.31   27.90
  -2   5   3  962.30   28.60
   2  -5   3  964.90   27.70
  -2  -5  -3  923.01   27.50
   2  -5   3  902.91   28.50
  -2   5  -3  970.30   28.10
  -2  -5   3  890.31   27.40
   2   5   3  932.01   28.10
  -2   5  -3  920.11   26.90
  -2   5  -3  930.31   28.10
  -2  -5   3  879.11   28.50
  -2   5  -3  972.10   28.90
   2  -5  -3  954.70   27.70
   2  -5  -3  874.71   28.00
  -3   5   3   14.60    1.60
   3   5  -3   14.20    1.50
  -3   5   3   13.50    1.60
  -3   5   3   14.30    1.00
   3  -5   3   13.20    1.20
  -3  -5  -3   13.90    1.30
   3  -5   3   14.00    1.60
  -3  -5  -3   13.00    1.00
   3   5   3   13.40    1.40
  -3   5  -3   13.50    0.90
  -3  -5   3   14.00    1.20
   3  -5  -3   14.00    1.30
  -3  -5   3   12.90    1.60
   3  -5  -3   12.40    1.40
  -3   5  -3   16.60    1.50
  -3   5  -3   13.00    1.60
  -4   5   3    2.00    1.10
  -4   5   3    2.80    0.50
   4  -5   3    2.50    0.70
  -4   5   3    2.60    0.90
  -4  -5  -3    1.80    0.50
   4  -5   3    3.00    1.30
  -4  -5  -3    2.50    0.70
  -4   5  -3    2.90    0.70
  -4   5  -3    2.40    0.50
  -4  -5   3    1.50    0.70
  -4  -5   3    2.40    0.70
   4  -5  -3    2.20    0.70
   4  -5  -3    2.40    0.90
  -5  -5  -3   74.69    2.90
  -5   5   3   71.89    2.80
   5  -5   3   73.59    3.60
  -5   5   3   75.99    3.10
  -5  -5  -3   75.19    2.90
  -5   5   3   74.49    2.90
  -5  -5  -3   69.49    2.70
  -5  -5  -3   73.99    3.70
   5   5  -3   76.59    2.80
  -5   5  -3   72.89    2.90
  -5  -5   3   70.49    3.50
  -5   5  -3   75.79    2.90
   5  -5  -3   73.19    3.70
  -5  -5   3   74.19    2.90
  -6  -5  -3   19.90    1.40
  -6   5   3   19.50    1.20
  -6  -5  -3   19.30    1.20
  -6   5   3   20.80    1.40
  -6  -5  -3   19.40    1.20
  -6   5   3   25.60    1.40
   6   5  -3   19.20    1.20
  -6   5  -3   21.30    1.30
  -6   5  -3   20.30    1.30
  -6   5  -3   19.90    1.30
  -6  -5   3   19.70    1.30
   6   5   3   19.40    1.20
  -7   5   3   78.89    3.00
  -7  -5  -3   75.09    3.50
  -7  -5  -3   73.39    3.00
  -7   5   3   79.09    3.20
  -7  -5  -3   79.29    3.00
  -7   5   3   79.19    3.40
   7   5  -3   76.79    3.00
  -7   5  -3   75.49    3.20
  -7   5  -3   75.79    3.10
  -7  -5   3   77.99    3.10
  -7   5  -3   75.49    3.10
   7   5   3   84.29    3.00
  -8  -5  -3   56.59    2.40
  -8   5   3   59.79    2.50
  -8   5   3   58.29    2.40
   8   5  -3   57.69    2.30
  -8   5   3   57.09    2.70
  -8  -5  -3   54.69    2.30
  -8   5  -3   59.39    2.70
  -8   5  -3   59.69    2.50
   8   5   3   58.19    2.30
  -8  -5   3   58.19    2.50
  -8   5  -3   60.29    2.50
  -9   5   3    4.60    0.60
  -9  -5  -3    4.90    0.60
  -9   5   3    5.10    0.60
  -9  -5  -3    4.30    0.60
  -9  -5   3    4.50    0.60
  -9   5  -3    4.30    0.60
   0  -6  -3   40.00    2.20
   0  -6   3   39.10    3.40
   0   6   3   37.20    2.50
   0  -6   3   37.60    2.10
   0   6  -3   38.70    2.60
   0   6  -3   42.90    1.90
   0   6  -3   39.70    2.70
   0  -6   3   37.90    2.70
   1  -6   3  297.27    9.60
   1   6  -3  290.77    9.20
   1  -6   3  278.97   10.50
  -1  -6  -3  283.87    9.60
   1   6  -3  296.67   10.40
  -1   6   3  284.77   10.20
   1   6   3  300.97   10.30
  -1   6  -3  281.17   10.30
  -1   6  -3  293.37   10.40
  -1   6  -3  285.27    9.00
  -1   6  -3  288.67   10.60
  -1  -6   3  305.47    9.60
  -1  -6   3  280.47   10.50
   1  -6  -3  296.77    9.60
   2  -6   3   17.90    1.90
  -2  -6  -3   18.60    1.50
  -2   6   3   19.80    1.20
  -2   6   3   21.10    2.00
  -2   6   3   19.60    1.80
   2   6  -3   18.20    1.80
  -2   6  -3   20.60    1.90
  -2  -6   3   17.90    1.90
   2   6   3   19.00    1.80
  -2  -6   3   18.70    1.50
  -2   6  -3   20.70    1.20
  -2   6  -3   18.80    1.80
   2  -6  -3   19.70    1.60
  -2   6  -3   18.10    2.00
   3   6  -3   67.69    3.80
  -3  -6  -3   65.09    3.30
   3  -6   3   64.99    3.30
   3  -6  -3   66.59    3.40
  -3   6  -3   67.69    2.70
   3   6   3   69.49    3.70
  -3  -6   3   64.29    2.50
  -3   6  -3   64.39    2.50
  -3  -6   3   64.99    3.20
  -3   6  -3   60.79    3.60
   4   6  -3  244.48    7.40
  -4  -6  -3  228.68    7.40
  -4   6   3  233.28    7.50
   4  -6   3  236.08    8.60
  -4  -6  -3  238.78    7.50
  -4  -6  -3  228.98    8.60
  -4   6   3  226.78    7.40
  -4   6   3  246.48    7.80
  -4  -6   3  239.08    7.50
  -4  -6   3  231.58    8.40
  -4   6  -3  245.18    7.70
  -4   6  -3  239.38    7.60
  -4   6  -3  240.68    7.50
   4  -6  -3  230.88    8.60
  -5   6   3  210.88    7.10
  -5   6   3  202.38    6.70
   5   6  -3  210.78    6.80
  -5  -6  -3  204.98    6.80
  -5   6   3  223.28    7.00
   5   6   3  217.98    6.80
  -5   6  -3  215.68    7.00
  -5  -6   3  208.98    6.80
  -5   6  -3  205.98    6.90
  -5   6  -3  210.88    6.80
   6   6  -3   58.39    2.50
  -6  -6  -3   62.39    2.50
  -6   6   3   61.29    2.80
  -6   6   3   59.89    2.70
  -6   6   3   61.29    2.50
  -6  -6  -3   63.09    2.50
  -6  -6   3   62.09    2.60
   6   6   3   59.39    2.50
  -6   6  -3   65.39    2.70
  -6   6  -3   65.49    2.70
  -6   6  -3   64.79    2.80
  -7   6   3  271.67    8.80
  -7   6   3  273.47    9.10
  -7  -6  -3  273.47    8.60
  -7  -6  -3  269.47    8.60
  -7   6   3  273.47    8.60
   7   6  -3  273.47    8.60
  -7  -6   3  286.87    8.70
  -7   6  -3  283.57    8.70
  -7   6  -3  278.17    9.00
   7   6   3  267.87    8.60
  -7   6  -3  276.87    8.80
  -8  -6  -3    2.60    0.50
   8   6  -3    2.80    0.50
  -8   6   3    3.20    0.60
  -8   6   3    3.10    0.60
  -8   6  -3    2.40    0.50
  -8   6  -3    2.50    0.50
  -8  -6   3    3.10    0.60
   8   6   3    3.30    0.60
  -9   6   3   18.80    1.00
   9   6  -3   17.30    0.90
  -9   6  -3   19.00    1.00
  -9   6  -3   18.10    1.00
  -9  -6   3   18.70    1.00
   9   6   3   18.90    1.00
   0   7  -3    0.70    0.40
   0  -7   3    0.60    0.40
   0   7  -3    0.80    0.60
   0   7  -3    3.50    0.50
   0   7   3    0.80    0.60
   0  -7  -3    0.00    0.40
   1   7  -3  247.88    9.50
   1   7  -3  242.58    7.60
   1  -7   3  241.38    8.40
  -1   7   3  233.68    9.20
  -1  -7  -3  250.97    8.60
   1   7   3  234.98    9.30
  -1   7  -3  248.48    7.60
  -1  -7   3  235.18    8.40
   1  -7  -3  245.88    8.60
  -1   7  -3  244.18    9.40
  -1   7  -3  243.58    7.90
  -2  -7  -3   33.20    1.90
  -2   7   3   34.70    2.60
   2   7  -3   38.20    2.80
   2  -7   3   33.30    2.20
  -2  -7  -3   32.20    2.20
  -2  -7   3   33.40    1.60
   2   7   3   34.20    2.70
  -2   7  -3   35.10    1.60
   2  -7  -3   34.10    1.60
  -2  -7   3   32.20    2.20
   2  -7  -3   34.90    2.30
  -2   7  -3   34.60    1.80
  -2   7  -3   34.50    2.70
  -3  -7  -3  211.78    6.80
  -3  -7  -3  218.48    8.10
  -3   7   3  211.98    7.20
   3   7  -3  220.58    6.80
   3   7  -3  206.28    8.60
  -3   7   3  205.88    6.90
   3  -7   3  215.88    8.10
   3   7   3  209.28    8.60
  -3  -7   3  215.88    6.90
   3  -7  -3  218.08    6.90
  -3   7  -3  214.38    6.90
  -3  -7   3  215.78    7.90
   3   7   3  221.88    6.80
  -3   7  -3  218.58    7.20
   3  -7  -3  216.38    8.20
  -3   7  -3  224.08    7.00
  -4   7   3  165.78    5.90
  -4  -7  -3  167.28    5.50
  -4   7   3  162.08    5.60
   4   7  -3  163.28    5.50
  -4   7  -3  171.48    5.90
  -4  -7   3  165.28    5.50
  -4   7  -3  165.98    5.60
   4   7   3  165.38    5.50
  -4   7  -3  166.48    5.60
   5   7  -3   27.70    1.50
  -5   7   3   30.20    1.80
  -5  -7  -3   30.80    1.60
  -5   7   3   29.90    1.70
  -5   7   3   26.50    1.90
   5   7   3   31.00    1.60
  -5   7  -3   29.90    1.60
  -5   7  -3   31.40    1.80
  -5  -7   3   30.60    1.60
  -5   7  -3   28.30    1.60
  -6   7   3  151.58    5.20
  -6   7   3  147.49    5.60
   6   7  -3  165.58    5.30
  -6  -7  -3  152.18    5.20
  -6   7   3  157.48    5.40
  -6   7  -3  152.68    5.60
  -6  -7   3  153.48    5.30
  -6   7  -3  159.98    5.40
   6   7   3  155.98    5.20
  -6   7  -3  161.88    5.40
   7   7  -3    7.30    0.80
  -7   7   3    6.80    1.30
  -7  -7  -3    8.40    0.80
  -7   7   3    8.50    0.90
   7   7   3    7.00    0.70
  -7   7  -3    7.60    0.80
  -7   7  -3    6.90    0.80
  -7  -7   3    5.00    0.70
   8   7  -3   60.69    2.30
  -8   7   3   58.99    2.40
  -8   7  -3   62.99    2.40
  -8   7  -3   60.09    2.40
   8   7   3   63.99    2.30
   0   8  -3  108.99    3.90
   0  -8  -3  106.19    3.80
  -1  -8  -3  117.69    4.10
  -1   8  -3  115.99    4.40
   1  -8  -3  116.19    4.10
  -1  -8   3  112.79    4.00
  -1   8  -3  118.39    4.10
   2  -8   3   18.00    1.40
  -2  -8  -3   17.40    1.10
  -2  -8   3   17.00    1.10
  -2   8  -3   17.60    1.20
  -2   8  -3   17.00    1.10
  -2   8  -3   17.50    1.30
   2  -8  -3   16.90    1.10
  -3  -8  -3   48.10    2.10
  -3   8   3   48.60    2.40
   3  -8   3   47.40    2.00
   3   8  -3   46.50    2.00
  -3   8  -3   46.20    2.30
   3   8   3   46.50    2.00
  -3   8  -3   46.90    2.10
  -3  -8   3   47.60    2.10
  -3   8  -3   46.40    2.10
   3  -8  -3   46.30    2.10
  -4  -8  -3   18.80    1.20
  -4   8   3   17.30    1.20
   4   8  -3   16.50    1.10
   4  -8   3   16.10    1.20
   4   8   3   17.00    1.10
  -4   8  -3   17.50    1.40
  -4   8  -3   18.70    1.20
  -4  -8   3   18.70    1.20
  -4   8  -3   16.80    1.20
   4  -8  -3   19.40    1.30
  -5   8   3    4.50    0.70
   5   8  -3    3.60    0.60
  -5  -8  -3    4.70    0.60
   5  -8   3    3.10    0.70
  -5   8  -3    5.00    0.80
   5   8   3    3.40    0.60
   5  -8  -3    4.20    0.70
  -5   8  -3    3.00    0.60
  -5   8  -3    3.50    0.70
  -5  -8   3    2.40    0.60
   6   8  -3   27.80    1.50
  -6   8   3   28.40    1.60
   6  -8   3   28.50    1.50
  -6  -8  -3   27.20    2.00
  -6  -8   3   28.30    1.50
  -6   8  -3   29.50    1.50
   6  -8  -3   30.10    1.60
  -6   8  -3   27.70    1.60
   6   8   3   29.10    1.50
  -7   8   3   78.69    2.90
   7  -8   3   78.39    2.80
   7   8  -3   75.09    2.80
   7  -8  -3   78.49    2.80
  -7   8  -3   75.19    2.90
  -7   8  -3   74.79    2.80
   7   8   3   76.59    2.80
  -7  -8   3   74.69    2.80
  -8   8   3   78.99    2.70
   8  -8   3   78.49    2.60
   8   8  -3   75.39    2.60
   8  -8  -3   80.79    2.70
   8   8   3   78.09    2.60
  -8   8  -3   75.49    2.70
   0  -9  -3    0.10    0.30
   0  -9   3    0.50    0.30
  -1  -9  -3   46.40    2.10
  -1  -9   3   49.30    2.10
   1  -9  -3   44.50    2.00
  -1   9  -3   49.00    2.10
  -2  -9  -3  417.06   12.60
   2  -9  -3  416.26   12.60
  -2  -9   3  410.86   12.60
  -2   9  -3  419.16   12.60
  -3  -9  -3  100.49    3.70
   3  -9   3  105.29    3.70
  -3   9  -3  103.49    3.80
  -3  -9   3  103.99    3.70
   3  -9  -3  103.99    3.70
  -3   9  -3  105.89    3.80
   4  -9   3   88.79    3.10
  -4   9   3   84.09    3.20
   4   9  -3   86.09    3.10
  -4  -9  -3   82.89    3.10
  -4   9  -3   87.49    3.30
  -4  -9   3   89.99    3.20
  -4   9  -3   86.49    3.20
   4   9   3   89.29    3.10
  -4   9  -3   83.39    3.60
   4  -9  -3   86.79    3.20
   5   9  -3    4.80    0.60
   5  -9   3    4.70    0.60
  -5   9   3    5.00    0.70
   5   9   3    4.60    0.60
  -5   9  -3    4.80    0.70
   5  -9  -3    5.00    0.70
  -5   9  -3    5.00    0.60
  -5  -9   3    5.50    0.70
   6   9  -3   23.30    1.20
  -6   9   3   23.50    1.20
   6  -9   3   23.20    1.20
   6   9   3   22.80    1.20
   6  -9  -3   22.30    1.20
  -6  -9   3   22.00    1.20
  -6   9  -3   23.50    1.30
  -6   9  -3   23.10    1.20
  -7   9   3    6.50    0.60
   7   9  -3    6.60    0.50
  -7   9  -3    6.10    0.60
   7  -9  -3    6.30    0.60
   7   9   3    5.90    0.50
   0 -10   3  415.76   12.80
   0 -10  -3  434.86   12.80
  -1 -10  -3   55.59    2.30
   1 -10   3   56.09    2.30
   1 -10  -3   57.09    2.30
  -1 -10   3   54.09    2.30
  -2 -10  -3   38.50    1.70
  -2 -10   3   37.50    1.80
   2 -10  -3   38.60    1.80
  -2  10  -3   41.00    1.80
   3 -10  -3   14.20    1.00
  -3 -10   3   12.70    0.90
  -3  10  -3   13.10    0.90
   4 -10  -3   32.80    1.50
  -4  10  -3   34.40    1.50
  -4 -10   3   31.70    1.50
  -4  10  -3   37.10    1.60
   5  10  -3    7.80    0.60
  -5  10  -3    8.40    0.70
   5  10   3    8.30    0.60
   5 -10  -3    8.80    0.70
  -5  10  -3    7.50    0.60
   0 -11  -3    0.10    0.30
   1 -11  -3    1.00    0.30
   2 -11  -3   43.80    1.80
   3 -11  -3    1.20    0.30
   0   0   4 1479.95   44.50
   0   0   4 1565.54   45.50
   0   0  -4 1663.03   51.09
   0   0   4 1552.24   46.10
   0   0  -4 1441.16   44.80
   0   0  -4 1461.65   44.40
   0   0  -4 1542.35   45.70
  -1   0   4  759.32   21.70
   1   0  -4  742.63   21.10
   1   0  -4  674.23   21.10
  -1   0  -4  726.53   21.70
  -1   0  -4  677.43   22.20
  -1   0   4  638.94   21.50
  -1   0   4  740.83   20.50
  -1   0  -4  753.52   20.70
  -1   0  -4  682.53   21.80
   2   0  -4    4.20    0.30
  -2   0  -4    3.80    0.50
  -2   0   4    4.20    0.60
  -2   0  -4    2.50    0.40
   2   0  -4    2.70    0.50
  -2   0   4    3.20    0.50
  -2   0  -4    3.50    0.40
  -2   0  -4    4.30    0.30
  -2   0   4    3.10    0.50
  -2   0   4    2.80    0.30
  -3   0  -4  264.27    8.60
  -3   0   4  274.47    8.80
  -3   0  -4  244.38    8.00
  -3   0  -4  255.87    8.00
   3   0   4  258.07    8.00
  -3   0   4  274.37    8.80
  -3   0  -4  271.47    8.40
  -3   0   4  262.57    8.60
   3   0  -4  270.57    8.60
  -3   0  -4  270.27    8.20
  -3   0   4  260.07    8.00
  -4   0   4  233.68    8.20
  -4   0   4  227.28    7.40
  -4   0  -4  236.98    7.60
  -4   0  -4  234.88    7.80
  -4   0  -4  230.68    8.10
  -4   0  -4  225.58    7.50
  -4   0   4  231.88    7.10
  -4   0   4  227.48    8.30
  -4   0   4  244.58    8.10
  -5   0   4  415.36   14.00
  -5   0   4  431.16   12.90
  -5   0  -4  410.36   13.90
  -5   0  -4  423.46   13.10
  -5   0  -4  387.66   12.10
  -5   0  -4  410.06   13.10
  -5   0   4  417.66   12.40
  -5   0   4  414.86   13.80
  -5   0   4  423.86   13.80
  -6   0  -4  106.69    4.70
  -6   0  -4  105.29    5.30
  -6   0  -4  104.89    4.50
  -6   0   4  114.49    4.00
  -6   0   4  108.69    5.50
  -6   0   4  102.99    4.30
  -7   0  -4   69.99    2.70
  -7   0  -4   72.89    2.80
  -7   0   4   65.59    3.40
  -7   0   4   65.19    2.60
  -7   0  -4   66.79    3.50
  -7   0   4   63.39    2.70
  -7   0  -4   70.49    2.90
  -7   0  -4   69.39    2.70
  -7   0   4   69.19    3.00
  -7   0   4   71.69    3.00
  -8   0  -4   42.50    2.00
  -8   0   4   43.20    2.30
  -8   0  -4   44.50    2.00
  -8   0  -4   44.70    2.30
  -8   0  -4   44.70    2.20
  -8   0   4   41.10    2.30
  -8   0   4   40.40    2.00
   9   0  -4  798.72   23.50
  -9   0  -4  800.52   23.10
  -9   0  -4  797.12   23.40
  -9   0   4  778.52   23.10
  -9   0  -4  753.32   23.40
 -10   0  -4  165.58    5.30
  10   0  -4  159.18    5.50
 -10   0  -4  157.18    5.50
 -10   0   4  156.88    5.30
   0  -1   4    2.90    0.40
  -1   1   4  233.58    8.00
  -1   1   4  275.57    7.80
  -1  -1  -4  253.07    7.70
  -1   1   4  280.97    8.20
  -1  -1  -4  264.97    7.90
   1   1  -4  282.27    7.90
  -1  -1  -4  253.17    7.90
   1   1  -4  273.77    8.00
  -1  -1  -4  267.27    7.70
  -1  -1   4  256.47    7.60
   1   1   4  259.27    7.60
  -1   1  -4  264.97    8.10
  -1  -1   4  267.17    8.10
   1   1   4  257.87    7.60
  -1  -1   4  267.97    8.00
  -1   1  -4  270.37    8.00
   1  -1  -4  247.68    7.60
  -1  -1   4  258.17    8.10
   1   1   4  260.77    7.90
   1  -1  -4  262.57    8.10
  -1   1  -4  248.98    8.10
  -2   1   4 1231.88   35.90
  -2  -1  -4 1290.07   37.60
  -2  -1  -4 1134.29   36.50
   2   1  -4 1266.77   36.40
  -2   1   4 1237.08   38.30
  -2  -1  -4 1191.18   35.70
   2   1  -4 1213.78   37.60
  -2   1   4 1227.58   37.70
  -2   1   4 1169.48   36.50
  -2  -1  -4 1205.58   36.60
  -2   1  -4 1210.98   38.80
  -2   1  -4 1198.18   35.70
  -2   1  -4 1244.08   35.30
  -2   1  -4 1130.89   37.30
   2  -1  -4 1199.38   35.90
   2   1   4 1191.28   36.80
  -2  -1   4 1248.88   36.10
  -2  -1   4 1141.39   37.70
   2  -1  -4 1296.27   36.70
  -2  -1   4 1239.18   38.20
  -2  -1   4 1347.67   36.60
  -2   1  -4 1219.78   36.60
  -3   1   4  812.62   23.50
   3   1  -4  749.23   22.60
  -3   1   4  823.62   23.70
  -3  -1  -4  774.72   22.90
  -3  -1  -4  774.12   24.30
  -3  -1  -4  809.72   23.00
  -3   1   4  822.82   22.80
   3   1  -4  735.63   23.30
  -3   1   4  811.52   23.40
  -3  -1  -4  822.92   23.40
  -3  -1   4  763.62   23.40
  -3   1  -4  803.62   23.00
  -3  -1   4  782.82   22.80
  -3   1  -4  730.03   26.70
   3   1   4  738.03   22.80
  -3  -1   4  790.02   23.60
  -3   1  -4  771.42   22.70
  -3   1  -4  761.12   23.50
  -3   1  -4  828.22   23.60
  -3   1  -4  840.92   23.50
  -3  -1   4  759.32   23.40
  -4   1   4   12.70    1.30
  -4   1   4   11.80    0.70
  -4   1   4   10.50    1.20
  -4  -1  -4   10.30    1.10
  -4  -1  -4   10.10    1.00
  -4   1   4   12.00    1.20
  -4   1   4   11.30    0.90
  -4  -1  -4   10.10    0.60
  -4  -1  -4   11.10    1.00
  -4   1  -4   11.10    0.90
  -4  -1   4    9.90    1.10
  -4   1  -4   11.90    1.20
  -4  -1   4   11.10    1.20
  -4  -1   4   11.30    1.20
  -4   1  -4   11.30    1.20
  -4  -1   4   10.70    0.90
  -4  -1   4   11.50    0.70
  -4   1  -4   11.00    1.00
  -5  -1  -4   60.49    3.00
  -5  -1  -4   58.49    2.30
  -5   1   4   62.79    3.50
  -5   1   4   65.19    3.40
  -5  -1  -4   62.59    3.40
  -5  -1  -4   63.49    2.90
  -5   1   4   64.29    2.80
  -5   1   4   59.59    3.50
  -5   1   4   66.89    2.40
  -5   1  -4   62.19    2.90
  -5   1  -4   64.59    2.90
  -5  -1   4   63.69    2.50
  -5  -1   4   64.09    3.30
  -5   1  -4   60.69    3.30
  -5   1  -4   55.99    2.10
  -5   1  -4   59.39    3.40
  -5  -1   4   63.69    2.80
  -5  -1   4   62.59    3.40
  -5  -1   4   59.39    3.50
  -6   1   4  212.58    8.60
  -6  -1  -4  203.28    6.60
  -6  -1  -4  208.88    7.50
  -6  -1  -4  204.58    8.40
  -6  -1  -4  208.78    7.80
  -6  -1  -4  211.18    7.00
  -6   1   4  208.28    6.70
  -6   1   4  198.68    8.10
  -6   1   4  190.88    9.70
  -6  -1   4  181.68    7.20
  -6  -1   4  199.48    7.20
  -6   1  -4  203.88    6.40
  -6   1  -4  239.88    7.60
  -6  -1   4  204.18    6.70
   6  -1  -4  191.28    7.10
  -6   1  -4  208.78    9.20
  -6   1  -4  211.38    7.50
  -6  -1   4  207.68    8.30
  -6  -1   4  192.08    7.20
  -7   1   4   88.09    3.20
  -7  -1  -4   84.79    3.20
  -7  -1  -4   90.49    3.40
  -7   1   4   84.39    3.40
  -7   1   4   80.69    3.40
  -7  -1  -4   84.09    3.40
  -7  -1  -4   82.49    3.10
  -7  -1  -4   79.09    4.00
  -7  -1   4   79.89    4.80
  -7  -1   4   81.19    3.20
  -7  -1   4   85.89    3.50
  -7   1  -4   85.19    3.20
  -7   1  -4   78.69    4.00
  -7   1  -4   92.69    3.30
  -7  -1   4   86.79    3.50
  -7   1  -4   80.59    3.30
  -7   1  -4   84.39    3.20
   7  -1  -4   81.09    3.80
  -8   1   4   17.90    1.20
  -8   1   4   17.20    1.40
  -8  -1  -4   17.40    1.20
  -8  -1  -4   17.90    1.30
  -8  -1  -4   17.00    1.40
  -8  -1  -4   23.30    1.30
  -8   1  -4   17.80    1.30
   8  -1  -4   14.40    1.40
  -8   1  -4   19.10    1.50
  -8  -1   4   17.20    1.50
  -8   1  -4   17.50    1.20
  -8  -1   4   17.50    1.40
  -8   1  -4   19.20    1.30
  -8  -1   4   18.60    1.20
  -9   1   4  247.38    8.80
  -9  -1  -4  279.17    8.50
   9   1  -4  268.87    8.90
  -9  -1  -4  273.87    8.80
  -9  -1  -4  273.77    8.90
  -9   1   4  266.67    8.50
  -9  -1  -4  284.27    8.60
  -9   1  -4  269.87    8.80
  -9   1  -4  264.37    8.70
  -9   1  -4  271.37    8.50
   9  -1  -4  267.97    8.80
  -9  -1   4  263.87    8.50
 -10  -1  -4   35.50    1.50
 -10   1   4   28.90    1.50
  10  -1   4   27.90    1.70
  10   1  -4   29.30    1.80
 -10  -1  -4   32.60    1.80
  10  -1  -4   29.40    1.70
 -10  -1   4   29.60    1.50
 -10   1  -4   30.40    1.50
   0  -2  -4 2201.78   64.19
   0   2   4 2235.88   62.79
   0   2  -4 2176.28   65.69
   0  -2   4 2096.79   65.19
   0  -2   4 1993.60   61.09
   0   2  -4 1889.01   62.69
   0  -2  -4 2061.19   61.79
   0  -2   4 2126.69   64.39
   0   2  -4 2140.79   63.29
   0   2   4 2100.89   63.89
   0  -2  -4 2020.10   67.79
   0   2   4 2144.39   63.59
   0   2  -4 2177.18   63.49
   1  -2   4 3375.46   97.69
  -1  -2  -4 3477.85  100.29
  -1  -2  -4 3357.66   98.29
  -1  -2  -4 3451.65   98.09
   1   2  -4 3483.25  100.29
  -1   2   4 3212.88   99.79
   1  -2   4 3088.29  100.09
  -1   2   4 2852.01   98.19
  -1   2   4 3494.95  100.79
  -1   2   4 3429.86   98.69
   1   2  -4 3691.33  101.39
  -1  -2   4 3443.56   99.89
  -1  -2   4 3401.26   97.29
  -1  -2   4 3390.36  100.99
  -1   2  -4 3086.69  101.19
  -1   2  -4 3037.60   97.89
  -1   2  -4 3295.77   98.29
  -1   2  -4 3585.54  100.19
   1  -2  -4 3095.49   97.49
   1   2   4 3735.13  100.29
   1   2   4 3251.07   99.09
   1  -2  -4 3739.03  100.89
  -1  -2   4 3528.95  101.39
  -2   2   4  811.62   24.20
  -2   2   4  720.63   22.50
   2  -2   4  774.72   21.90
  -2  -2  -4  772.72   22.00
  -2   2   4  764.22   22.40
  -2  -2  -4  788.82   23.00
   2   2  -4  764.52   22.10
   2   2  -4  757.32   22.40
  -2  -2  -4  797.52   22.30
  -2   2   4  730.33   22.40
  -2  -2   4  803.62   22.60
  -2  -2   4  773.92   21.80
  -2   2  -4  774.92   22.70
  -2   2  -4  729.33   22.60
   2   2   4  743.13   22.10
  -2   2  -4  762.32   22.50
  -2  -2   4  670.63   22.20
   2  -2  -4  764.12   21.80
   2  -2  -4  735.83   22.30
  -2  -2   4  758.92   22.40
  -2   2  -4  650.53   22.20
  -3  -2  -4  112.99    4.30
   3   2  -4  127.79    4.00
  -3   2   4  105.59    4.30
  -3   2   4  112.99    4.40
  -3   2   4  107.99    4.50
  -3  -2  -4  110.09    4.30
  -3  -2  -4  105.49    3.90
  -3   2  -4  109.19    3.90
  -3  -2   4  114.09    3.80
  -3   2  -4  108.39    3.90
  -3  -2   4   94.99    4.20
   3  -2  -4  110.99    3.80
  -3  -2   4  119.99    4.60
  -3   2  -4  113.29    3.80
  -3   2  -4  110.19    4.50
   3   2   4  113.59    4.00
  -3   2  -4  121.19    4.70
  -4  -2  -4  359.06   11.70
  -4   2   4  351.46   11.90
  -4  -2  -4  362.96   11.50
  -4  -2  -4  349.87   10.50
  -4  -2  -4  345.37   11.10
  -4   2   4  363.76   11.60
  -4   2   4  355.96   10.50
  -4   2   4  357.56   11.80
   4  -2  -4  345.27   10.90
  -4  -2   4  353.86   12.00
  -4   2  -4  357.36   11.10
  -4   2  -4  354.36   11.90
  -4   2  -4  347.07   10.90
  -4  -2   4  359.26   10.60
  -4   2  -4  356.86   11.90
  -4  -2   4  357.66   10.90
  -4  -2   4  339.27   11.40
  -4  -2   4  326.47   11.60
  -5  -2  -4  268.77    9.00
  -5   2   4  274.47    8.30
  -5   2   4  259.37    9.50
  -5   2   4  280.47   10.00
  -5  -2  -4  269.97    9.50
  -5  -2  -4  267.27    9.70
  -5  -2  -4  265.57    8.30
  -5   2   4  278.17   10.20
  -5  -2   4  258.47    9.70
  -5  -2   4  267.57    8.40
  -5   2  -4  255.97    8.00
  -5   2  -4  270.07   10.00
  -5   2  -4  263.07    9.80
  -5   2  -4  266.77    9.00
  -5  -2   4  273.07    8.80
  -5  -2   4  264.77   10.00
  -5   2  -4  270.87    8.90
   5  -2  -4  269.97    8.80
  -6  -2  -4  106.79    4.00
  -6   2   4  103.79    3.70
  -6  -2  -4  108.69    4.70
   6  -2   4  109.49    4.50
  -6  -2  -4  102.49    3.70
  -6   2   4  105.49    3.90
  -6  -2  -4  112.39    4.00
  -6   2   4  109.89    5.30
  -6   2   4  111.49    4.00
  -6  -2  -4  115.99    5.60
   6  -2  -4  100.79    4.40
  -6   2  -4  108.79    3.70
  -6  -2   4  106.99    4.50
  -6  -2   4  103.39    3.80
  -6  -2   4  111.39    4.00
  -6  -2   4  113.59    4.10
  -6   2  -4  110.79    3.80
  -7  -2  -4   25.80    1.40
  -7   2   4   25.00    1.60
  -7  -2  -4   25.30    1.50
  -7  -2  -4   24.10    1.30
  -7   2   4   23.90    1.40
  -7   2   4   28.00    1.40
  -7  -2  -4   23.60    1.50
  -7   2  -4   23.40    1.40
  -7   2  -4   21.80    1.40
  -7  -2   4   23.90    1.60
  -7   2  -4   24.40    1.40
  -7  -2   4   22.60    1.40
  -7  -2   4   26.80    1.60
   7  -2  -4   21.50    1.50
  -8  -2  -4    0.50    0.40
  -8  -2  -4    0.30    0.40
  -8   2   4    1.30    0.50
  -8  -2  -4    0.60    0.40
  -8  -2  -4    0.50    0.40
  -8   2   4    1.30    0.50
  -8   2  -4    0.30    0.40
  -8   2  -4    1.70    0.50
  -8  -2   4    0.10    0.60
   8  -2  -4   -0.30    0.50
  -8   2  -4    0.20    0.60
  -8  -2   4    0.40    0.40
  -9   2   4   75.09    3.40
  -9   2   4   80.29    3.10
  -9  -2  -4   89.89    3.50
  -9  -2  -4   79.69    3.10
  -9  -2  -4   82.09    3.10
  -9  -2  -4   76.99    3.30
   9   2  -4   82.69    3.50
   9  -2  -4   84.39    3.30
  -9  -2   4   81.79    3.20
  -9   2  -4   79.79    3.30
  -9   2  -4   82.69    3.10
 -10  -2  -4   16.00    1.30
 -10   2   4   14.70    1.00
 -10  -2  -4   15.50    1.00
  10   2  -4   15.40    1.40
 -10  -2   4   16.20    1.00
 -10   2  -4   15.70    1.00
  10  -2  -4   16.40    1.10
   0   3   4    0.80    0.40
   0  -3   4    1.50    0.50
   0   3   4    1.00    0.30
   0  -3  -4    0.80    0.30
   0  -3  -4    0.30    0.20
   0  -3   4    0.30    0.20
   0   3  -4    1.30    0.40
   0   3  -4    0.70    0.30
   0  -3   4    0.50    0.20
  -1   3   4   67.19    2.60
  -1  -3  -4   63.49    2.50
   1   3  -4   60.69    2.70
  -1   3   4   60.79    2.70
   1   3  -4   57.39    2.60
   1  -3   4   61.89    2.80
  -1   3   4   64.19    2.80
   1  -3   4   65.69    2.40
  -1  -3  -4   62.49    2.80
  -1  -3  -4   60.39    2.40
  -1  -3   4   62.39    2.80
  -1  -3   4   63.09    2.80
   1   3   4   63.39    2.70
   1   3   4   59.29    2.70
   1  -3  -4   62.39    2.50
  -1  -3   4   61.29    2.30
  -1   3  -4   65.79    2.60
   1  -3  -4   65.49    2.50
   1   3   4   61.69    2.10
  -1  -3   4   58.89    2.60
   1  -3  -4   63.79    2.80
  -1   3  -4   62.39    2.70
  -1   3  -4   66.69    3.00
  -2   3   4  104.79    3.80
   2  -3   4  100.19    4.20
  -2  -3  -4  103.59    3.70
  -2   3   4  110.29    4.20
  -2   3   4  107.59    4.30
  -2  -3  -4  101.39    4.10
   2  -3   4  101.19    3.60
  -2  -3  -4  109.89    4.00
   2   3  -4  100.09    4.20
   2   3  -4  102.59    4.00
  -2   3   4  110.99    4.10
  -2   3  -4  104.29    4.40
  -2   3  -4  100.69    3.90
  -2  -3   4  110.19    4.10
  -2   3  -4  104.59    3.80
  -2  -3   4  106.19    4.20
  -2  -3   4   95.19    3.60
   2   3   4  109.49    4.00
  -2  -3   4  100.99    4.30
   2  -3  -4  101.29    3.60
  -3  -3  -4  318.97   10.10
  -3   3   4  316.77   11.30
   3   3  -4  324.27   10.70
  -3  -3  -4  328.47   10.60
  -3   3   4  333.17   10.10
  -3  -3  -4  341.27   11.10
  -3   3   4  357.76   11.10
   3  -3   4  335.57   10.40
  -3   3   4  340.37   11.10
  -3   3  -4  340.67   11.30
  -3   3  -4  347.47   11.50
  -3   3  -4  340.97   10.60
  -3  -3   4  347.47   10.40
  -3  -3   4  330.27   10.80
  -3  -3   4  352.66   11.50
  -3   3  -4  350.26   10.60
   3  -3  -4  335.77   10.40
  -3  -3   4  328.27   11.20
   3   3   4  343.77   10.70
   4  -3   4   17.90    1.30
  -4   3   4   19.20    1.60
  -4   3   4   16.10    1.00
  -4  -3  -4   19.60    1.60
  -4  -3  -4   15.70    1.00
  -4  -3  -4   17.00    1.30
  -4   3   4   16.60    1.60
  -4   3   4   17.90    1.80
  -4  -3  -4   15.90    1.50
  -4   3  -4   17.00    1.70
  -4   3  -4   16.10    1.70
  -4   3  -4   16.10    0.80
  -4   3  -4   16.80    1.30
   4  -3  -4   18.40    1.20
  -4  -3   4   18.90    1.10
  -4  -3   4   17.00    1.20
  -4  -3   4   17.50    1.70
  -5  -3  -4   15.80    1.70
  -5   3   4   14.70    1.70
  -5   3   4   14.80    1.00
  -5  -3  -4   14.30    1.60
  -5   3   4   15.10    1.80
   5  -3   4   14.90    1.30
  -5  -3  -4   15.40    1.00
  -5   3   4   13.80    1.50
  -5  -3  -4   15.30    1.40
  -5   3  -4   14.40    0.80
  -5   3  -4   14.70    1.70
  -5  -3   4   15.30    1.00
  -5   3  -4   15.70    1.30
  -5  -3   4   15.10    1.30
   5  -3  -4   15.50    1.30
  -5  -3   4   15.30    1.80
  -5   3  -4   13.50    1.70
  -6   3   4  111.89    4.00
  -6  -3  -4  105.69    3.80
  -6  -3  -4  106.19    4.00
  -6  -3  -4  107.39    4.70
  -6  -3  -4  110.19    4.00
   6  -3   4  110.29    4.60
  -6   3   4  104.79    3.80
  -6   3  -4  113.29    3.80
  -6  -3   4  105.19    4.50
  -6  -3   4  108.99    4.10
   6  -3  -4  107.39    4.50
  -6  -3   4  104.89    3.80
   6  -3  -4  103.39    3.90
  -6   3  -4  108.39    3.80
  -6  -3   4  110.69    4.00
  -7  -3  -4  556.24   16.80
  -7   3   4  560.74   16.80
  -7   3   4  558.74   16.80
  -7  -3  -4  566.34   16.80
  -7  -3  -4  579.54   17.20
  -7   3   4  598.54   17.20
  -7  -3  -4  557.24   17.10
  -7   3  -4  561.64   16.90
  -7   3  -4  571.84   16.80
  -7  -3   4  542.75   17.00
  -7  -3   4  566.84   16.90
   7  -3  -4  542.35   16.90
  -8  -3  -4  491.25   14.70
  -8  -3  -4  494.95   14.70
  -8   3   4  479.65   15.10
  -8  -3  -4  468.25   15.10
  -8   3   4  489.25   14.70
  -8  -3  -4  500.05   15.10
  -8   3   4  489.35   14.70
  -8  -3   4  482.75   15.00
  -8   3  -4  490.85   14.90
  -8  -3   4  495.35   14.80
  -8   3  -4  489.35   14.70
  -9  -3  -4  405.86   12.10
  -9  -3  -4  391.26   11.70
  -9  -3  -4  385.96   11.70
  -9   3   4  376.26   11.70
   9   3  -4  370.76   12.00
  -9  -3   4  386.16   11.80
  -9   3  -4  386.26   11.80
 -10   3   4   55.69    2.20
 -10  -3  -4   55.99    2.10
 -10  -3  -4   57.69    2.40
  10   3  -4   54.69    2.40
 -10   3  -4   56.99    2.20
 -10  -3   4   59.29    2.20
   0   4  -4 1782.62   50.99
   0  -4  -4 1644.44   49.90
   0   4   4 1540.15   48.70
   0  -4   4 1722.03   53.59
   0   4   4 1643.84   49.90
   0   4  -4 1725.13   51.19
   0  -4  -4 1752.72   48.90
   0  -4  -4 1716.93   49.80
   0  -4   4 1664.43   51.89
   0   4  -4 1711.43   53.29
   0   4  -4 1687.23   48.90
   0   4   4 1591.04   50.99
   0  -4   4 1610.14   49.40
   1   4  -4 1392.76   39.90
   1   4  -4 1404.06   43.40
   1  -4   4 1353.06   41.10
   1   4  -4 1404.76   40.80
  -1  -4  -4 1354.86   40.50
  -1  -4  -4 1401.06   41.00
  -1   4   4 1412.16   41.00
  -1   4   4 1456.75   40.80
  -1  -4  -4 1408.06   41.40
  -1   4   4 1419.46   42.70
   1  -4   4 1390.96   40.40
   1  -4  -4 1375.76   40.60
  -1   4  -4 1404.96   45.10
  -1   4  -4 1404.36   42.10
  -1  -4   4 1396.96   41.00
   1  -4  -4 1435.56   40.40
   1   4   4 1410.66   40.80
  -1  -4   4 1397.46   41.10
  -1   4  -4 1417.86   40.90
  -1  -4   4 1359.16   40.20
  -1   4  -4 1341.37   40.60
  -2  -4  -4  134.99    5.30
  -2   4   4  123.89    5.20
   2  -4   4  130.19    4.60
  -2   4   4  126.49    5.10
  -2  -4  -4  140.59    4.70
   2  -4   4  129.59    5.30
  -2   4   4  129.99    4.20
  -2  -4  -4  128.49    4.90
   2   4  -4  120.69    4.90
   2   4  -4  123.29    5.20
  -2   4   4  134.59    4.80
   2   4   4  135.39    5.00
  -2  -4   4  119.79    4.40
  -2  -4   4  128.39    5.00
  -2   4  -4  126.69    4.90
  -2   4  -4  121.99    4.80
  -2   4  -4  120.79    4.00
  -2  -4   4  130.59    5.40
   2  -4  -4  132.59    4.70
  -2   4  -4  134.29    5.50
  -3   4   4 1450.35   42.00
   3  -4   4 1484.55   40.70
   3   4  -4 1355.96   41.20
  -3  -4  -4 1366.66   40.30
  -3   4   4 1327.97   41.40
  -3  -4  -4 1406.36   41.40
  -3  -4  -4 1292.77   41.50
  -3   4   4 1440.46   41.60
   3  -4   4 1476.95   41.90
  -3   4   4 1319.27   40.20
  -3  -4  -4 1382.16   40.90
  -3   4  -4 1419.66   42.10
  -3  -4   4 1450.25   42.00
   3  -4  -4 1377.16   41.40
  -3   4  -4 1446.76   41.00
  -3   4  -4 1471.85   41.10
   3   4   4 1507.75   41.30
  -3  -4   4 1485.95   40.80
   3  -4  -4 1296.17   40.70
  -3   4  -4 1325.87   40.00
  -4   4   4   15.70    1.80
  -4  -4  -4   13.90    1.00
  -4  -4  -4   12.40    1.50
  -4  -4  -4   14.80    1.60
  -4   4   4   15.40    1.00
   4  -4   4   14.90    1.20
  -4   4   4   14.90    1.60
   4  -4   4   17.60    1.80
  -4  -4   4   17.20    1.80
  -4  -4   4   17.60    1.30
  -4   4  -4   15.10    1.30
   4  -4  -4   16.10    1.30
  -4   4  -4   15.40    1.80
  -4   4  -4   14.10    0.80
  -5  -4  -4 1260.47   36.30
  -5   4   4 1277.37   35.40
  -5   4   4 1221.68   37.20
  -5  -4  -4 1159.38   37.20
  -5   4   4 1130.09   37.30
  -5  -4  -4 1247.08   35.50
   5  -4   4 1222.58   36.10
  -5   4  -4 1195.68   35.10
  -5   4  -4 1256.87   35.10
   5  -4  -4 1219.08   36.00
  -5   4  -4 1266.47   37.10
  -5  -4   4 1226.68   35.20
  -5  -4   4 1172.18   36.00
   6  -4   4   38.30    2.40
  -6   4   4   38.80    1.90
  -6  -4  -4   36.80    1.80
   6   4  -4   40.60    1.80
  -6  -4  -4   41.20    1.80
  -6  -4  -4   37.80    2.50
  -6  -4  -4   39.20    1.80
  -6   4   4   39.60    2.00
  -6   4   4   41.10    1.80
  -6  -4  -4   39.40    2.00
  -6   4  -4   40.90    1.90
  -6   4  -4   45.70    1.90
   6  -4  -4   37.90    2.40
  -6   4  -4   39.90    1.90
  -6  -4   4   37.30    1.80
   7   4  -4  128.69    4.30
  -7   4   4  118.39    4.30
  -7  -4  -4  114.99    4.20
  -7   4   4  122.39    4.40
  -7  -4  -4  122.29    4.30
  -7  -4  -4  124.99    4.70
  -7   4   4  123.59    4.60
  -7  -4  -4  120.09    4.50
  -7   4  -4  125.69    4.40
   7   4   4  118.39    4.20
  -7   4  -4  124.29    4.40
  -7  -4   4  115.69    4.30
  -7   4  -4  117.89    4.30
  -8  -4  -4    1.60    0.50
  -8  -4  -4    1.00    0.50
  -8  -4  -4    1.90    0.50
  -8  -4  -4    0.80    0.50
  -8   4   4    1.20    0.40
  -8   4   4    0.80    0.50
  -8   4   4    2.20    0.50
  -8   4  -4    2.40    0.60
  -8  -4   4    2.70    0.60
  -8   4  -4    1.20    0.50
  -8   4  -4    2.10    0.60
   8   4   4    0.80    0.40
  -9  -4  -4   23.20    1.30
  -9  -4  -4   26.10    1.60
  -9   4   4   25.50    1.30
   9   4  -4   25.20    1.70
  -9  -4  -4   23.30    1.30
  -9   4   4   25.00    1.40
  -9  -4   4   25.10    1.40
  -9   4  -4   23.40    1.30
 -10  -4  -4   26.50    1.50
 -10  -4  -4   23.90    1.10
 -10   4  -4   24.30    1.20
 -10  -4   4   23.90    1.20
   0  -5   4    0.50    0.30
   0  -5   4    0.30    0.40
   0   5   4    0.20    0.30
   0  -5  -4   -0.10    0.30
   0   5  -4    0.40    0.40
   0   5  -4    2.30    0.70
   0  -5   4    0.30    0.40
   0  -5  -4    0.40    0.40
   0   5  -4    0.30    0.20
  -1   5   4   51.59    2.10
   1   5  -4   51.49    2.90
  -1   5   4   55.19    2.90
  -1  -5  -4   55.09    2.50
   1   5  -4   52.89    2.90
   1  -5   4   54.09    2.50
   1  -5   4   52.89    3.10
   1   5  -4   53.59    2.10
  -1   5   4   50.79    2.70
  -1   5  -4   55.19    2.90
  -1  -5   4   54.39    3.10
   1  -5  -4   50.89    2.70
  -1   5  -4   55.09    2.90
   1   5   4   54.19    2.90
  -1   5  -4   54.29    3.10
  -1  -5   4   54.29    2.40
   1  -5  -4   55.79    2.50
  -1   5  -4   52.29    2.10
  -2   5   4   94.29    4.40
   2  -5   4   96.59    4.60
   2  -5   4   90.49    3.80
  -2  -5  -4   90.89    3.40
  -2  -5  -4   93.99    3.80
  -2   5   4   93.59    3.40
  -2   5   4   94.59    4.50
   2   5  -4   90.69    4.20
  -2   5   4   90.09    4.00
  -2  -5   4   96.19    4.60
  -2  -5   4   94.89    3.70
  -2   5  -4   95.59    3.30
  -2   5  -4   87.69    4.60
  -2   5  -4   97.09    4.20
  -2   5  -4   96.79    4.20
   2  -5  -4   93.79    3.90
   2   5   4   93.79    4.20
   3  -5   4   59.79    2.80
  -3   5   4   55.79    3.50
  -3   5   4   56.49    3.30
  -3  -5  -4   58.29    2.90
   3   5  -4   52.59    3.10
   3  -5   4   59.99    3.50
  -3   5   4   59.49    2.40
  -3  -5  -4   57.49    2.40
   3  -5  -4   52.09    3.10
  -3  -5   4   55.29    3.50
  -3   5  -4   59.19    3.10
  -3  -5   4   57.69    2.70
   3   5   4   58.59    3.10
  -3   5  -4   56.59    2.20
   3  -5  -4   60.19    2.90
  -3   5  -4   58.09    3.60
  -4   5   4    0.50    0.30
   4  -5   4    0.50    0.40
  -4  -5  -4    0.80    0.40
  -4  -5  -4    3.10    0.80
  -4   5   4    0.00    0.40
   4  -5  -4    0.40    0.50
  -4   5  -4    0.80    0.30
  -4   5  -4    0.70    0.30
  -4  -5   4    1.40    0.60
  -4  -5   4    0.40    0.30
  -4   5  -4    0.20    0.40
   4  -5  -4    1.10    0.60
   4   5   4    1.20    0.90
  -5  -5  -4  381.86   11.50
  -5   5   4  366.86   11.40
   5   5  -4  372.56   11.10
  -5   5   4  346.97   11.00
  -5  -5  -4  351.96   11.10
  -5   5   4  351.26   11.10
   5  -5   4  369.26   12.10
  -5  -5  -4  362.96   12.30
  -5  -5   4  367.16   11.10
  -5   5  -4  370.56   11.10
  -5   5  -4  379.76   11.20
   5  -5  -4  366.76   12.20
  -5   5  -4  345.87   11.10
  -6  -5  -4  275.07    9.00
  -6  -5  -4  283.47    8.90
   6   5  -4  287.17    8.90
  -6   5   4  297.07    9.30
  -6   5   4  286.27    9.10
  -6   5   4  280.47    8.90
  -6  -5  -4  292.07    9.00
  -6  -5  -4  279.77    9.40
  -6   5  -4  284.07    9.10
  -6   5  -4  289.07    9.00
  -6  -5   4  287.57    9.10
  -6   5  -4  296.57    9.10
  -7   5   4  716.43   21.30
  -7   5   4  694.53   20.80
  -7  -5  -4  681.03   21.30
  -7  -5  -4  725.73   20.90
  -7  -5  -4  688.93   20.80
  -7   5   4  722.43   21.00
   7   5  -4  716.33   20.80
  -7   5  -4  707.23   21.10
  -7   5  -4  724.13   21.00
  -7   5  -4  714.43   21.00
  -7  -5   4  715.63   21.00
   7   5   4  685.73   20.80
  -8   5   4  228.28    7.40
   8   5  -4  233.88    7.40
  -8   5   4  235.08    7.60
  -8  -5  -4  232.88    7.40
  -8  -5  -4  243.28    7.50
  -8   5   4  218.58    8.60
  -8   5  -4  228.48    7.50
  -8  -5   4  233.18    7.50
  -8   5  -4  241.88    7.50
   8   5   4  250.07    7.40
  -8   5  -4  230.38    7.70
  -9   5   4  179.28    5.90
  -9  -5  -4  172.88    5.90
  -9  -5  -4  179.58    5.80
  -9   5   4  182.98    5.80
  -9  -5   4  192.48    5.90
  -9   5  -4  191.08    5.90
   0  -6   4 1859.91   56.79
   0   6  -4 2031.40   56.69
   0  -6   4 1860.91   56.69
   0   6   4 1917.41   56.39
   0  -6   4 1935.61   55.49
   0  -6  -4 1940.41   55.59
   0   6  -4 1847.92   56.49
   0   6  -4 1972.50   54.99
   1   6  -4  139.79    4.80
   1  -6   4  149.88    5.40
   1  -6   4  130.99    6.10
   1   6  -4  149.49    6.10
  -1   6   4  139.99    5.80
  -1  -6  -4  147.49    5.40
   1   6   4  134.59    5.90
  -1  -6   4  133.59    5.20
  -1   6  -4  148.79    4.90
  -1   6  -4  147.59    6.10
  -1   6  -4  144.59    6.30
  -1  -6   4  144.09    6.30
  -1   6  -4  137.69    6.00
   1  -6  -4  144.89    5.40
   2  -6   4   53.59    3.40
  -2   6   4   51.39    3.00
  -2   6   4   53.79    2.30
  -2  -6  -4   52.59    2.70
   2   6  -4   49.40    3.10
   2  -6   4   52.89    2.80
  -2   6   4   45.80    3.20
  -2  -6   4   55.09    2.70
  -2  -6   4   50.79    3.40
   2  -6  -4   54.39    2.80
  -2   6  -4   54.39    3.20
  -2   6  -4   52.69    2.20
  -2   6  -4   53.69    3.20
  -2   6  -4   49.99    3.40
   2   6   4   58.49    3.30
  -3   6   4  407.96   12.20
   3  -6   4  395.46   13.00
  -3  -6  -4  391.06   12.90
   3   6  -4  390.66   13.60
  -3   6  -4  410.26   15.20
  -3   6  -4  389.46   11.90
   3   6   4  375.96   13.40
  -3   6  -4  412.76   12.10
   3  -6  -4  391.16   13.00
  -3  -6   4  380.26   12.70
  -3  -6   4  394.96   11.90
  -4  -6  -4   73.69    3.70
   4  -6   4   66.69    3.60
   4   6  -4   68.59    2.70
  -4  -6  -4   69.29    2.80
  -4  -6  -4   68.99    2.70
  -4   6   4   67.79    2.80
  -4   6   4   72.89    3.00
  -4   6  -4   69.69    2.80
  -4  -6   4   73.29    2.80
   4  -6  -4   69.99    3.70
  -4   6  -4   71.89    2.90
  -4   6  -4   69.59    2.70
  -5   6   4  459.25   14.00
  -5  -6  -4  456.45   13.90
  -5   6   4  462.15   14.20
  -5  -6  -4  471.55   14.00
   5   6  -4  451.75   13.80
  -5   6  -4  458.95   13.90
  -5  -6   4  469.45   14.00
  -5   6  -4  448.16   14.00
  -5   6  -4  467.65   14.10
  -6   6   4  196.98    6.50
  -6   6   4  197.28    6.80
   6   6  -4  193.18    6.40
  -6  -6  -4  190.28    6.40
  -6   6   4  184.58    6.30
  -6   6  -4  199.98    6.60
  -6   6  -4  194.08    6.50
  -6   6  -4  195.78    6.50
  -6  -6   4  199.68    6.50
   6   6   4  197.68    6.40
  -7   6   4  604.74   17.90
  -7   6   4  588.04   17.70
   7   6  -4  651.73   17.80
  -7  -6  -4  581.04   17.80
  -7   6   4  570.34   18.20
  -7  -6   4  593.14   17.90
  -7   6  -4  623.74   18.00
  -7   6  -4  576.04   18.00
  -7   6  -4  621.84   17.90
   7   6   4  588.94   17.70
   8   6  -4   47.80    2.00
  -8  -6  -4   50.29    2.10
  -8   6   4   49.60    2.20
  -8   6   4   50.29    2.10
  -8   6  -4   49.99    2.10
  -8  -6   4   49.60    2.10
   8   6   4   49.10    2.00
  -8   6  -4   48.50    2.10
  -9   6   4   67.09    2.40
   9   6  -4   66.49    2.30
  -9  -6   4   66.09    2.40
  -9   6  -4   64.19    2.40
  -9   6  -4   67.39    2.40
   9   6   4   63.49    2.30
   0   7  -4    1.80    0.50
   0   7   4    0.40    0.50
   0  -7  -4    0.40    0.50
   0   7  -4    0.40    0.50
   0  -7   4    1.00    0.50
   0   7  -4    0.60    0.30
  -1   7   4   16.60    1.80
   1   7  -4   16.40    1.00
   1   7  -4   16.50    1.90
   1  -7   4   16.50    1.40
  -1  -7  -4   16.50    1.50
  -1   7  -4   17.80    1.20
  -1   7  -4   17.30    1.10
  -1   7  -4   16.20    1.80
   1  -7  -4   16.60    1.50
   1   7   4   16.10    1.80
  -1  -7   4   17.40    1.50
  -2  -7  -4   31.50    1.60
   2  -7   4   36.70    2.30
  -2   7   4   30.60    2.50
   2   7  -4   33.80    2.70
  -2  -7  -4   32.00    2.20
  -2  -7   4   33.40    1.60
  -2   7  -4   32.40    2.60
  -2   7  -4   34.90    1.70
  -2   7  -4   36.80    1.70
   2  -7  -4   30.70    2.20
   2  -7  -4   32.60    1.60
  -2   7  -4   38.30    1.90
  -2  -7   4   33.30    2.20
   2   7   4   31.60    2.60
   3   7  -4   72.69    4.30
  -3   7   4   75.19    2.90
   3   7  -4   75.19    2.80
  -3  -7  -4   73.79    2.90
  -3  -7  -4   71.69    2.80
   3  -7   4   74.49    4.10
  -3   7  -4   76.59    2.90
  -3   7  -4   73.19    2.90
  -3   7  -4   75.79    3.10
  -3  -7   4   74.09    2.90
   3   7   4   69.19    4.10
   3  -7  -4   74.49    2.80
   4   7  -4    1.90    0.50
  -4  -7  -4    1.80    0.50
  -4   7   4    1.50    0.50
  -4   7  -4    1.50    0.50
   4   7   4    2.30    0.50
  -4   7  -4    0.70    0.40
  -4   7  -4    1.40    0.50
  -4  -7   4    1.60    0.50
  -5   7   4  226.28    7.10
  -5  -7  -4  208.58    6.90
   5   7  -4  210.98    6.90
  -5   7  -4  213.68    7.20
   5   7   4  217.58    6.90
  -5   7  -4  213.38    7.00
  -5  -7   4  214.18    7.00
  -5   7  -4  215.28    7.10
  -6  -7  -4    0.60    0.40
  -6   7   4    0.40    0.40
   6   7  -4    0.10    0.30
  -6   7  -4    0.60    0.40
   6   7   4    4.30    0.60
  -6   7  -4    0.30    0.40
  -6  -7   4    0.50    0.40
  -6   7  -4    0.70    0.50
  -7  -7  -4  177.18    6.00
   7   7  -4  189.58    6.10
  -7   7   4  193.38    6.30
  -7   7  -4  183.78    6.20
   7   7   4  194.08    6.10
  -7   7  -4  198.18    6.30
  -7  -7   4  192.98    6.20
   8   7  -4   33.10    1.50
  -8   7   4   32.10    1.60
   8  -7  -4   35.80    1.60
  -8   7  -4   33.20    1.60
   8   7   4   34.10    1.50
  -8  -7   4   35.00    1.50
  -8   7  -4   35.70    1.60
   0  -8  -4   94.79    3.50
   0   8  -4   96.79    3.50
  -1  -8  -4   71.39    2.70
  -1   8  -4   67.59    3.00
   1  -8  -4   69.39    2.70
  -1  -8   4   69.89    2.70
  -1   8  -4   69.89    2.80
  -2  -8  -4    1.00    0.40
  -2   8  -4    1.70    0.50
   2  -8  -4    1.20    0.40
  -2  -8   4    2.80    0.50
  -2   8  -4    1.20    0.40
   3  -8   4  203.18    6.60
  -3  -8  -4  201.48    6.60
   3   8  -4  192.98    6.50
  -3   8  -4  203.68    6.70
  -3  -8   4  208.18    6.60
   3   8   4  201.98    6.50
  -3   8  -4  207.58    7.00
   3  -8  -4  200.68    6.60
  -3   8  -4  211.68    6.70
  -4   8   4   18.90    1.20
  -4  -8  -4   18.50    1.20
   4  -8   4   16.60    1.20
   4   8  -4   18.00    1.10
  -4   8  -4   19.00    1.40
   4  -8  -4   19.30    1.30
  -4   8  -4   18.30    1.20
  -4  -8   4   21.80    1.30
   4   8   4   19.20    1.20
  -4   8  -4   18.90    1.30
  -5  -8  -4    6.30    0.70
   5  -8   4    6.70    0.90
   5   8  -4    6.60    0.70
  -5   8   4    7.70    0.80
  -5  -8   4    7.90    0.80
  -5   8  -4    7.40    0.90
   5  -8  -4    7.20    0.90
  -5   8  -4    6.50    0.80
   5   8   4    7.20    0.80
  -5   8  -4    6.70    0.80
  -6  -8  -4  213.58    6.90
   6  -8   4  217.08    7.00
   6   8  -4  225.18    7.00
  -6   8   4  219.38    7.10
  -6   8  -4  232.58    7.20
  -6  -8   4  214.18    7.10
  -6   8  -4  218.58    7.10
   6   8   4  217.58    7.00
   6  -8  -4  236.28    7.10
   7   8  -4   51.09    2.00
   7  -8   4   47.70    2.00
  -7   8   4   50.29    2.10
  -7   8  -4   49.00    2.00
   7   8   4   49.30    2.00
   7  -8  -4   50.09    2.10
  -7  -8   4   49.80    2.00
  -7   8  -4   53.49    2.10
   8   8  -4   29.10    1.20
  -8   8   4   28.70    1.30
   8  -8  -4   28.50    1.20
   8   8   4   26.50    1.20
  -8   8  -4   28.10    1.30
   0  -9   4   -0.10    0.30
   0  -9  -4    0.00    0.30
  -1  -9  -4    6.40    0.70
  -1  -9   4    3.30    0.60
  -1   9  -4    4.20    0.70
   1  -9  -4    7.20    0.80
  -2  -9  -4   92.99    3.40
  -2   9  -4   93.09    3.40
  -2  -9   4   92.09    3.40
   2  -9  -4   91.89    3.40
  -3  -9  -4    1.50    0.50
  -3   9  -4    2.30    0.50
  -3   9  -4    2.40    0.60
  -3  -9   4    2.20    0.50
   3  -9  -4    1.70    0.50
  -3   9  -4    2.00    0.50
  -4   9   4    5.10    0.70
   4   9  -4    5.80    0.70
   4  -9   4    7.00    0.70
  -4  -9  -4    5.20    0.70
  -4  -9   4    5.10    0.70
   4  -9  -4    4.80    0.70
  -4   9  -4    4.50    0.80
   4   9   4    4.90    0.60
  -4   9  -4    5.50    0.70
  -4   9  -4    5.70    0.70
  -5   9   4  131.29    4.40
   5   9  -4  131.69    4.40
   5  -9   4  129.99    4.30
  -5  -9  -4  123.29    4.30
   5   9   4  131.79    4.40
   5  -9  -4  134.19    4.40
  -5   9  -4  130.29    4.50
  -5  -9   4  128.59    4.40
  -5   9  -4  136.19    4.50
   6  -9   4   11.10    0.70
   6   9  -4    9.50    0.70
  -6   9   4   10.90    0.80
  -6   9  -4   10.60    0.80
  -6   9  -4    9.90    0.80
  -6  -9   4   10.10    0.80
   6   9   4   10.10    0.70
   6  -9  -4    9.90    0.80
   7   9  -4    1.20    0.30
  -7   9   4    2.00    0.40
  -7   9  -4    1.10    0.30
   7   9   4    1.10    0.30
   7  -9  -4    1.30    0.30
   0 -10   4    0.90    0.40
   0 -10  -4    1.00    0.40
  -1 -10  -4  145.99    4.80
   1 -10   4  141.49    4.80
  -1 -10   4  140.79    4.80
   1 -10  -4  145.39    4.80
  -2 -10  -4   57.69    2.30
  -2 -10   4   60.69    2.40
   2 -10  -4   59.19    2.40
  -2  10  -4   60.99    2.40
  -3 -10  -4   49.60    2.00
  -3  10  -4   49.50    2.10
  -3 -10   4   50.79    2.10
   3 -10  -4   52.69    2.10
   4 -10  -4   95.39    3.30
  -4 -10   4   90.29    3.20
  -4  10  -4   94.19    3.30
  -4  10  -4   90.49    3.20
   5  10  -4    8.70    0.60
  -5  10  -4    9.70    0.70
  -5  10  -4   10.30    0.70
   5  10   4    8.80    0.60
  -5 -10   4    9.20    0.70
   5 -10  -4    9.50    0.70
   0 -11  -4    0.60    0.30
   0 -11   4    0.10    0.30
  -1 -11  -4   65.29    2.30
   1 -11   4   61.09    2.30
  -1 -11   4   62.19    2.30
   1 -11  -4   64.39    2.30
   2 -11   4   10.80    0.70
  -2 -11   4    9.40    0.90
   2 -11  -4   11.00    0.80
   3 -11  -4   21.40    1.00
   0   0   5    0.90    0.20
   0   0  -5    0.90    0.20
   0   0   5    0.80    0.30
   0   0  -5    0.70    0.20
   1   0  -5    0.40    0.20
  -1   0  -5    0.80    0.30
  -1   0   5    0.50    0.20
   1   0  -5    1.20    0.30
  -1   0   5    0.50    0.20
  -1   0  -5    0.60    0.20
   1   0   5    0.80    0.30
  -2   0   5    1.60    0.40
   2   0  -5    0.70    0.20
   2   0  -5    0.20    0.20
  -2   0  -5    0.90    0.30
  -2   0  -5    0.20    0.20
  -2   0   5    0.90    0.20
  -2   0  -5    0.30    0.20
  -2   0   5    1.90    0.40
  -2   0  -5    0.50    0.10
  -3   0  -5    0.80    0.20
  -3   0   5    0.60    0.30
  -3   0  -5    1.50    0.40
  -3   0   5    1.00    0.40
   3   0   5    0.70    0.20
  -3   0   5    1.00    0.30
  -3   0   5    0.70    0.40
   3   0  -5    0.80    0.40
  -3   0  -5    2.50    0.40
  -4   0   5    0.20    0.30
  -4   0   5    0.40    0.30
  -4   0  -5    0.50    0.40
  -4   0  -5    0.20    0.30
  -4   0   5    0.40    0.40
  -4   0  -5    0.40    0.30
  -4   0   5    0.60    0.40
  -5   0  -5    0.40    0.30
  -5   0   5    0.30    0.30
  -5   0   5    0.40    0.40
  -5   0  -5    0.30    0.30
  -5   0   5    1.00    0.60
  -5   0  -5    0.40    0.20
  -5   0   5    0.30    0.40
  -5   0   5    0.80    0.40
  -5   0  -5    2.40    0.70
  -6   0  -5    0.30    0.40
  -6   0   5    0.70    0.60
  -6   0  -5    0.90    0.60
  -6   0   5    0.70    0.60
  -6   0   5    0.00    0.20
  -6   0  -5    0.10    0.20
  -6   0  -5    0.30    0.40
  -6   0   5    0.30    0.40
  -6   0   5    1.60    0.60
  -7   0  -5    0.00    0.30
  -7   0   5    1.30    0.50
  -7   0  -5    0.10    0.20
  -7   0  -5    0.10    0.30
  -7   0   5    0.10    0.50
  -7   0  -5    0.60    0.40
  -7   0  -5    0.20    0.40
  -7   0   5    2.70    0.50
   8   0  -5   -1.20    0.50
  -8   0  -5    0.20    0.30
  -8   0   5    1.40    0.50
  -8   0   5    1.30    0.50
  -8   0  -5    0.90    0.40
  -8   0  -5    0.10    0.40
  -8   0  -5    0.80    0.50
  -9   0  -5    0.80    0.40
  -9   0   5    1.60    0.50
  -9   0  -5    1.20    0.60
   9   0  -5    1.60    0.80
  -9   0  -5    1.30    0.40
 -10   0  -5    2.00    0.60
  10   0  -5   -0.30    0.50
 -10   0  -5    0.20    0.30
 -10   0   5    0.80    0.40
   0  -1  -5    0.40    0.10
   0   1  -5    0.40    0.20
   0  -1   5    1.40    0.40
   0  -1  -5    0.30    0.20
   0   1  -5    0.30    0.20
   0  -1  -5    0.20    0.20
   0   1   5    0.40    0.20
   0  -1   5    0.70    0.10
   0   1  -5    0.30    0.20
  -1   1   5    8.60    0.80
  -1   1   5    8.80    0.60
   1   1  -5    9.70    0.70
   1  -1   5    9.30    0.70
  -1  -1  -5    9.00    0.50
  -1  -1  -5    9.60    0.60
  -1   1   5    8.90    0.70
   1   1  -5    9.50    0.70
  -1   1   5   11.10    0.60
   1   1   5   11.10    0.50
   1  -1  -5    9.80    0.80
  -1   1  -5    9.80    0.50
  -1  -1   5    9.60    0.80
  -1   1  -5    9.50    0.80
   1  -1  -5    9.70    0.50
   1   1   5    9.50    0.70
  -1   1  -5    9.00    0.70
  -1  -1   5    9.10    0.80
  -1  -1   5    9.30    0.70
  -1  -1   5    8.20    0.40
  -2  -1  -5   10.70    0.70
  -2  -1  -5   11.10    0.70
  -2   1   5   12.90    1.00
  -2   1   5   12.20    0.90
  -2   1   5   10.30    0.60
  -2  -1  -5   12.90    0.80
  -2   1   5   12.60    0.90
  -2  -1  -5   12.00    0.80
   2   1  -5   11.80    0.90
   2   1  -5   12.70    0.80
  -2   1  -5   11.60    0.90
   2  -1  -5   11.70    0.60
  -2   1  -5   10.90    0.70
  -2  -1   5   11.30    1.00
  -2  -1   5   12.60    1.00
   2  -1  -5   12.60    1.00
   2   1   5   14.10    0.90
   2   1   5   11.80    0.60
  -2   1  -5   10.50    0.80
  -2  -1   5   11.80    0.90
  -3  -1  -5  158.08    5.10
   3   1  -5  147.39    5.40
  -3   1   5  146.99    5.40
  -3   1   5  144.89    5.40
  -3  -1  -5  145.59    4.80
   3   1  -5  143.89    4.80
  -3  -1  -5  146.89    5.30
  -3   1   5  153.98    5.60
  -3  -1  -5  150.88    5.00
  -3   1  -5  154.58    5.50
  -3   1  -5  147.99    5.50
  -3   1  -5  153.78    5.00
  -3   1  -5  144.69    4.90
  -3   1  -5  143.49    4.70
  -3  -1   5  149.29    5.50
  -3  -1   5  147.59    4.80
  -3   1  -5  152.98    4.70
   3   1   5  153.68    5.00
   3  -1  -5  151.18    4.80
  -3  -1   5  157.98    5.60
  -3  -1   5  158.68    5.50
  -4   1   5    1.40    0.30
  -4  -1  -5    1.10    0.40
  -4   1   5    2.30    0.40
  -4  -1  -5    1.20    0.20
  -4  -1  -5    1.40    0.50
  -4   1   5    1.50    0.60
  -4   1   5    1.80    0.70
  -4   1   5    0.90    0.50
  -4  -1  -5    1.00    0.40
  -4  -1   5    1.70    0.60
  -4   1  -5    1.50    0.40
  -4   1  -5    1.10    0.40
  -4   1  -5    1.00    0.50
  -4  -1   5    2.20    0.40
  -4   1  -5    1.00    0.50
  -4  -1   5    1.10    0.50
  -4  -1   5    1.00    0.50
  -4  -1   5    1.50    0.40
  -5   1   5   26.40    1.30
  -5  -1  -5   26.30    1.70
  -5  -1  -5   25.30    1.20
  -5   1   5   25.00    2.10
  -5  -1  -5   25.90    1.80
  -5   1   5   26.30    1.60
  -5   1   5   24.40    2.00
  -5   1   5   24.80    2.10
  -5  -1  -5   26.40    2.10
  -5   1  -5   26.80    1.70
  -5  -1   5   27.60    1.60
  -5  -1   5   27.80    2.10
  -5  -1   5   26.00    2.20
  -5   1  -5   27.00    1.60
  -5  -1   5   26.50    2.10
  -5   1  -5   26.20    2.10
  -6  -1  -5   49.99    2.10
  -6  -1  -5   44.30    2.10
  -6  -1  -5   47.30    2.80
  -6  -1  -5   51.89    3.40
  -6   1   5   48.20    2.20
  -6   1   5   47.00    2.20
  -6  -1  -5   49.90    2.70
  -6   1   5   47.40    3.30
  -6   1   5   49.10    3.20
  -6  -1   5   48.70    2.20
   6  -1  -5   47.80    2.50
  -6   1  -5   50.09    2.70
  -6   1  -5   47.60    2.00
  -6  -1   5   43.30    2.40
  -6  -1   5   48.30    2.20
  -6   1  -5   47.20    1.90
  -6  -1   5   47.70    2.00
  -7  -1  -5    5.80    0.70
  -7   1   5    6.70    0.80
  -7  -1  -5    5.90    0.80
  -7  -1  -5    6.90    0.80
  -7  -1  -5    6.30    0.70
  -7   1   5    7.50    0.70
  -7  -1   5    6.60    0.80
  -7   1  -5    6.70    0.70
  -7   1  -5    8.30    0.80
  -7   1  -5    7.10    0.80
  -7   1  -5    6.70    0.70
  -7  -1   5    8.40    0.80
  -7  -1   5    7.50    1.00
  -8  -1  -5   17.50    1.20
  -8   1   5   16.20    1.30
  -8  -1  -5   17.10    1.20
  -8  -1  -5   18.90    1.40
  -8   1   5   18.00    1.20
  -8  -1  -5   18.00    1.30
  -8  -1   5   16.20    1.50
  -8  -1   5   16.50    1.20
  -8   1  -5   16.60    1.20
  -8   1  -5   17.60    1.40
  -8   1  -5   17.60    1.20
   8  -1  -5   14.30    1.40
  -8  -1   5   16.00    1.40
  -8   1  -5   17.30    1.20
  -9   1   5   21.90    1.40
  -9  -1  -5   24.40    1.70
   9   1  -5   25.00    1.90
  -9  -1  -5   24.30    1.60
  -9  -1  -5   22.90    1.40
  -9  -1  -5   23.20    1.40
  -9   1  -5   24.00    1.40
  -9  -1   5   24.40    1.40
  -9   1  -5   25.70    1.70
   9  -1  -5   24.60    1.70
  -9   1  -5   22.60    1.50
 -10   1   5   75.59    2.80
 -10  -1  -5   79.89    3.20
  10   1  -5   77.29    3.10
 -10  -1  -5   76.69    2.80
  10  -1   5   72.79    3.00
 -10   1  -5   80.09    2.90
 -10  -1   5   77.39    2.90
  10  -1  -5   77.59    3.00
   0  -2  -5  423.76   12.10
   0   2  -5  404.26   12.50
   0   2   5  428.76   12.50
   0   2  -5  362.46   12.30
   0   2   5  437.16   12.30
   0   2  -5  422.16   12.40
   0  -2   5  417.46   12.70
   0  -2   5  405.66   12.80
   0  -2  -5  427.76   12.60
   0   2   5  413.36   12.50
   0  -2  -5  414.46   12.00
   0  -2   5  410.46   12.10
   1  -2   5   77.99    2.60
   1   2  -5   81.19    3.00
  -1   2   5   79.79    3.00
  -1   2   5   75.89    2.80
  -1  -2  -5   76.59    2.60
  -1  -2  -5   76.99    2.70
  -1   2   5   81.99    3.10
  -1   2   5   88.39    2.80
   1   2  -5   73.89    2.90
  -1  -2  -5   79.29    3.00
  -1  -2   5   72.29    3.10
  -1  -2   5   78.89    2.50
   1   2   5   77.69    2.90
   1   2   5   71.49    2.80
   1  -2  -5   79.59    2.70
  -1   2  -5   74.99    3.20
  -1   2  -5   71.29    2.60
   1  -2  -5   65.69    2.90
  -1   2  -5   81.39    2.70
  -1  -2   5   78.79    3.20
  -1  -2   5   74.69    2.90
  -1   2  -5   74.29    2.90
  -2   2   5   36.40    1.60
   2   2  -5   35.60    1.70
  -2   2   5   35.80    1.90
  -2   2   5   36.20    1.90
  -2   2   5   32.30    1.70
  -2  -2  -5   35.30    1.80
   2   2  -5   34.40    1.90
  -2  -2  -5   36.90    1.60
  -2  -2  -5   36.30    1.70
   2  -2   5   35.20    1.50
  -2   2  -5   30.80    1.40
  -2   2  -5   34.90    1.40
  -2  -2   5   34.50    1.40
  -2  -2   5   34.00    1.80
  -2  -2   5   37.00    1.90
  -2   2  -5   38.60    2.00
  -2   2  -5   34.20    1.70
   2   2   5   38.00    1.80
   2  -2  -5   32.10    1.80
  -2   2  -5   33.10    2.00
  -2  -2   5   35.80    2.00
   2  -2  -5   33.90    1.40
  -3  -2  -5   83.39    3.60
  -3  -2  -5   90.29    3.40
   3   2  -5   85.99    3.30
  -3   2   5   82.09    3.70
  -3  -2  -5   94.79    3.70
  -3   2   5   84.39    3.10
  -3   2   5   91.49    3.80
  -3   2   5   83.89    3.90
  -3  -2   5   93.69    4.00
  -3   2  -5   96.19    4.00
  -3   2  -5   88.19    3.30
  -3   2  -5   95.89    4.00
  -3   2  -5   92.09    3.60
   3   2   5   94.79    3.50
   3  -2  -5   90.49    3.20
  -3   2  -5   92.09    3.30
  -3  -2   5   83.99    3.20
  -3   2  -5   92.89    3.10
  -3  -2   5   93.69    3.80
  -3  -2   5   94.99    3.90
  -4  -2  -5  127.89    4.20
  -4   2   5  132.09    5.60
  -4   2   5  131.09    4.30
  -4  -2  -5  131.19    4.80
  -4  -2  -5  134.29    5.10
  -4   2   5  136.19    5.30
  -4  -2  -5  134.49    5.30
  -4   2   5  125.09    5.30
  -4   2  -5  125.99    5.40
  -4   2  -5  135.69    4.60
  -4  -2   5  127.09    5.50
  -4  -2   5  129.09    4.60
   4  -2  -5  135.59    4.60
  -4   2  -5  133.39    4.80
  -4   2  -5  137.69    5.60
  -5  -2  -5   10.50    0.80
  -5   2   5    9.80    1.30
  -5   2   5   11.10    1.50
  -5  -2  -5   10.80    1.40
  -5  -2  -5   11.50    1.30
  -5  -2  -5   10.40    1.10
  -5   2   5   12.60    0.90
  -5  -2   5   10.50    1.00
   5  -2  -5   10.20    1.00
  -5   2  -5   10.60    1.00
  -5   2  -5   10.70    1.40
  -5   2  -5   10.00    1.10
  -5   2  -5   10.10    1.40
  -5  -2   5    9.80    1.40
  -5  -2   5   11.60    0.90
  -6  -2  -5    0.60    0.50
   6  -2   5    0.30    0.40
  -6  -2  -5    1.00    0.40
  -6  -2  -5    0.30    0.30
  -6   2   5    0.60    0.60
  -6   2   5    0.80    0.40
  -6  -2  -5    0.60    0.30
  -6   2   5    0.30    0.20
  -6  -2   5    1.10    0.40
  -6   2  -5    0.40    0.20
   6  -2  -5    1.00    0.50
  -6  -2   5    0.30    0.30
   6  -2  -5    0.00    0.40
  -7   2   5   68.39    2.70
  -7  -2  -5   69.79    3.00
  -7  -2  -5   70.39    2.80
  -7   2   5   72.09    3.00
  -7   2   5   67.49    2.70
  -7  -2  -5   69.29    2.70
  -7  -2  -5   67.49    3.00
  -7   2  -5   69.89    3.20
  -7  -2   5   68.59    3.10
  -7   2  -5   70.79    2.80
  -7   2  -5   70.69    2.80
  -7  -2   5   71.49    2.80
  -7  -2   5   69.49    3.00
   7  -2  -5   67.99    3.00
  -8  -2  -5   55.49    2.40
  -8   2   5   56.59    2.40
  -8  -2  -5   58.29    2.50
  -8  -2  -5   58.69    2.70
  -8   2   5   51.49    2.60
  -8   2   5   57.59    2.40
  -8  -2  -5   54.99    2.60
   8  -2  -5   55.89    2.60
  -8   2  -5   55.39    2.40
  -8   2  -5   53.19    2.60
  -8  -2   5   57.49    2.70
  -8  -2   5   58.69    2.50
  -8   2  -5   54.49    2.50
  -9  -2  -5   38.20    1.80
  -9  -2  -5   34.70    2.00
   9   2  -5   37.90    2.20
  -9  -2  -5   38.20    2.10
  -9  -2  -5   36.40    1.80
  -9   2   5   36.80    1.80
  -9   2  -5   38.40    1.80
  -9   2  -5   34.40    1.90
  -9  -2   5   36.90    1.80
   9  -2  -5   34.90    1.90
 -10   2   5    3.00    0.50
  10   2  -5    1.90    0.70
 -10  -2  -5    3.50    0.50
 -10  -2  -5    2.80    0.70
 -10   2  -5    2.70    0.50
  10  -2  -5    2.90    0.50
 -10  -2   5    2.40    0.50
   0   3   5    0.60    0.30
   0  -3  -5    0.20    0.20
   0  -3  -5    0.10    0.30
   0  -3  -5    0.10    0.20
   0  -3   5    0.10    0.20
   0   3   5    0.50    0.30
   0  -3   5    0.30    0.30
   0   3   5    1.00    0.30
   0  -3   5    0.20    0.30
   0   3  -5    0.20    0.30
   0   3  -5    0.10    0.30
   1   3  -5  370.16   11.70
   1  -3   5  391.66   12.00
   1   3  -5  354.16   11.80
  -1  -3  -5  383.66   11.80
  -1   3   5  384.46   11.60
  -1   3   5  371.56   11.80
   1  -3   5  371.86   11.20
  -1  -3  -5  375.36   11.30
  -1   3   5  383.66   11.80
  -1  -3  -5  387.66   11.40
   1   3   5  360.06   10.90
  -1  -3   5  388.96   12.00
  -1   3  -5  385.86   11.70
  -1  -3   5  360.66   11.10
  -1  -3   5  376.86   12.00
   1   3   5  379.36   11.70
   1  -3  -5  377.06   11.40
  -1   3  -5  381.66   11.50
   1  -3  -5  354.56   11.30
  -1   3  -5  391.56   12.20
   1  -3  -5  359.66   11.80
  -2  -3  -5  185.08    6.30
   2  -3   5  186.18    6.00
  -2   3   5  180.98    6.20
  -2   3   5  190.48    6.60
  -2  -3  -5  191.08    6.20
  -2   3   5  187.18    6.70
  -2   3   5  203.18    6.50
   2   3  -5  178.78    6.40
   2   3  -5  182.68    6.60
   2  -3   5  194.68    6.80
  -2  -3  -5  208.28    5.80
  -2  -3  -5  183.78    6.50
  -2  -3   5  188.18    6.80
   2   3   5  181.48    6.40
  -2   3  -5  189.98    6.40
  -2  -3   5  171.08    6.50
  -2   3  -5  183.18    6.10
  -2  -3   5  188.58    6.00
  -2   3  -5  187.08    7.00
   2  -3  -5  193.18    6.10
  -3   3   5  215.38    7.90
  -3   3   5  236.58    8.30
   3  -3   5  231.48    7.30
  -3  -3  -5  225.68    7.00
  -3  -3  -5  224.88    7.80
   3  -3   5  234.18    8.20
   3   3  -5  218.38    7.60
  -3  -3  -5  227.98    7.50
  -3   3   5  228.18    7.90
  -3  -3  -5  223.68    7.90
  -3   3   5  220.98    7.00
   3   3   5  229.28    7.70
   3  -3  -5  236.68    7.30
  -3  -3   5  222.78    7.80
  -3   3  -5  231.98    8.40
  -3  -3   5  216.98    7.20
  -3   3  -5  236.38    8.30
  -3   3  -5  219.88    7.50
  -3  -3   5  230.18    8.30
  -3   3  -5  227.88    7.30
  -4  -3  -5    1.00    0.50
  -4   3   5    0.90    0.50
  -4  -3  -5    1.90    0.60
  -4   3   5    2.00    0.80
  -4   3   5    1.40    0.60
   4  -3   5    2.70    0.60
  -4   3   5    1.30    0.40
  -4  -3  -5    1.20    0.30
  -4  -3  -5    1.00    0.50
  -4  -3   5    1.80    0.70
  -4   3  -5    2.00    0.80
   4  -3  -5    1.90    0.50
  -4  -3   5    1.30    0.40
  -4   3  -5    1.70    0.70
  -4   3  -5    1.40    0.40
  -5   3   5   14.70    1.80
  -5  -3  -5   17.40    1.70
  -5  -3  -5   14.20    2.10
  -5   3   5   13.30    1.60
  -5   3   5   15.30    1.00
  -5  -3  -5   14.30    1.00
  -5   3   5   14.80    1.70
  -5  -3  -5   16.30    1.40
   5  -3   5   15.10    1.30
  -5   3  -5   14.60    1.80
  -5  -3   5   17.90    1.40
  -5   3  -5   17.70    1.90
  -5  -3   5   15.50    1.80
  -5   3  -5   15.20    0.80
   5  -3  -5   16.00    1.30
  -5   3  -5   14.60    1.30
  -6  -3  -5  322.87   11.00
  -6  -3  -5  339.87   10.20
  -6   3   5  308.17    9.90
  -6  -3  -5  312.77   10.10
   6  -3   5  325.57   10.90
  -6  -3  -5  320.27    9.80
  -6   3   5  344.07   10.20
  -6  -3  -5  320.07    9.90
  -6   3   5  313.37    9.80
  -6  -3   5  332.87    9.90
  -6   3  -5  316.27    9.90
  -6   3  -5  315.57    9.80
   6  -3  -5  315.97    9.90
   6  -3  -5  316.17   10.70
  -6  -3   5  313.97   10.00
  -7   3   5    1.30    0.50
  -7  -3  -5    0.90    0.40
  -7   3   5    0.80    0.40
  -7   3   5    1.50    0.50
  -7  -3  -5    0.50    0.40
  -7  -3  -5    1.80    0.50
  -7  -3  -5    1.20    0.50
  -7  -3  -5    1.20    0.40
  -7   3  -5    1.10    0.40
  -7  -3   5    1.70    0.50
   7  -3  -5    1.20    0.50
  -7   3  -5    1.50    0.50
  -7  -3   5   -0.30    0.50
  -8  -3  -5   67.79    2.80
  -8  -3  -5   67.79    3.10
  -8   3   5   65.39    3.10
  -8   3   5   70.19    2.80
  -8  -3  -5   68.69    2.80
  -8   3   5   71.19    2.80
  -8  -3  -5   70.69    3.10
  -8   3  -5   70.49    2.80
  -8  -3   5   69.49    3.10
  -8  -3   5   70.59    2.90
  -8   3  -5   67.89    2.90
  -9  -3  -5   26.20    1.40
  -9   3   5   22.40    1.40
  -9   3   5   25.00    1.40
  -9  -3  -5   24.00    1.30
   9   3  -5   25.20    1.80
  -9  -3  -5   27.10    1.70
  -9   3  -5   24.60    1.40
  -9  -3   5   23.50    1.40
 -10  -3  -5    6.60    0.60
  10   3  -5    5.50    0.80
 -10   3   5    5.90    0.60
 -10  -3  -5    6.60    0.60
 -10  -3  -5    6.80    0.90
 -10  -3   5    7.00    0.70
 -10   3  -5    6.70    0.60
   0   4   5    1.30    0.40
   0  -4  -5    1.00    0.40
   0  -4   5    1.80    0.60
   0  -4   5    1.80    0.40
   0   4  -5    1.60    0.30
   0  -4   5    1.10    0.50
   0   4  -5    1.10    0.50
   0  -4  -5    1.20    0.40
   1  -4   5  514.65   16.00
  -1  -4  -5  510.65   15.20
  -1  -4  -5  471.85   14.80
  -1   4   5  533.15   15.60
   1   4  -5  500.05   14.70
  -1   4   5  474.85   15.50
  -1  -4  -5  526.25   15.30
  -1  -4  -5  496.05   15.80
   1   4  -5  514.05   15.70
   1  -4   5  492.65   15.10
   1   4  -5  508.95   15.80
  -1   4   5  484.95   15.80
  -1  -4   5  507.55   15.00
   1  -4  -5  503.45   15.10
  -1   4  -5  508.65   15.50
  -1   4  -5  519.85   16.10
  -1   4  -5  513.05   15.70
  -1   4  -5  496.05   14.60
  -1  -4   5  513.15   16.00
  -1  -4   5  492.25   15.80
   1   4   5  493.85   15.60
   1  -4  -5  479.25   15.30
  -2   4   5   27.90    1.30
  -2   4   5   26.70    1.70
   2  -4   5   29.90    1.60
  -2  -4  -5   28.00    1.40
  -2  -4  -5   28.00    1.60
  -2   4   5   30.70    2.00
   2   4  -5   27.90    1.90
  -2  -4  -5   32.50    1.80
   2   4  -5   26.70    2.00
   2  -4   5   28.80    2.10
   2   4  -5   26.60    1.30
  -2  -4  -5   28.40    2.00
  -2   4   5   28.20    2.00
  -2  -4   5   29.30    2.10
  -2   4  -5   29.40    1.20
  -2  -4   5   29.70    1.50
  -2   4  -5   29.90    2.20
  -2   4  -5   29.00    1.70
   2   4   5   28.40    1.90
   2  -4  -5   28.60    1.80
   2  -4  -5   29.10    1.70
  -2  -4   5   27.00    1.90
  -2   4  -5   33.10    1.90
  -3  -4  -5    4.70    0.70
  -3  -4  -5    3.20    0.80
  -3   4   5    3.00    0.80
   3   4  -5    2.60    0.70
  -3   4   5    3.10    0.70
   3  -4   5    4.60    1.00
   3  -4   5    4.10    0.60
  -3   4   5    2.80    0.80
  -3   4  -5    3.40    0.60
   3  -4  -5    3.00    0.70
  -3  -4   5    5.80    1.10
  -3   4  -5    3.10    0.90
  -3  -4   5    2.80    0.60
  -3   4  -5    2.90    0.30
  -3   4  -5    2.40    0.60
   3   4   5    2.80    0.70
   3  -4  -5    2.60    0.70
  -4  -4  -5 1213.68   34.10
  -4   4   5 1153.48   35.60
  -4   4   5 1006.80   35.30
  -4  -4  -5 1182.98   34.80
   4  -4   5 1241.18   34.60
  -4   4   5 1180.68   34.00
  -4  -4  -5 1215.18   35.70
  -4   4   5 1165.38   36.00
   4  -4   5 1175.98   35.90
   4   4   5 1192.78   35.10
  -4  -4   5 1144.29   36.00
   4  -4  -5 1193.18   34.60
  -4   4  -5 1200.68   36.30
  -4   4  -5 1241.08   34.80
  -4  -4   5 1150.18   34.50
  -4   4  -5 1179.28   33.70
  -5   4   5   48.00    2.10
   5  -4   5   48.80    2.60
  -5  -4  -5   50.19    2.70
  -5  -4  -5   43.90    2.00
  -5  -4  -5   46.20    3.10
  -5   4   5   46.60    3.20
  -5   4   5   42.70    3.30
  -5  -4  -5   47.00    2.20
  -5   4  -5   47.50    1.90
  -5   4  -5   42.70    1.90
   5  -4  -5   45.80    2.50
  -5  -4   5   47.00    2.00
  -6  -4  -5   20.10    1.30
  -6  -4  -5   20.60    1.20
  -6   4   5   18.50    1.10
  -6   4   5   18.80    1.20
  -6  -4  -5   20.20    1.20
  -6  -4  -5   18.30    1.30
   6  -4   5   18.40    2.10
  -6   4   5   20.10    1.40
  -6  -4  -5   18.20    1.30
   6   4  -5   19.70    1.20
  -6  -4   5   18.60    1.20
  -6   4  -5   19.90    1.20
  -6   4  -5   21.00    1.20
  -6   4  -5   19.70    1.20
   6  -4  -5   19.50    1.70
   7   4  -5  305.57    9.20
  -7  -4  -5  292.87    9.20
  -7  -4  -5  300.17    9.50
  -7   4   5  293.67    9.20
  -7   4   5  291.47    9.60
  -7  -4  -5  289.47    9.20
  -7  -4  -5  299.37    9.70
  -7  -4  -5  282.67    9.30
  -7   4   5  304.97    9.30
  -7   4  -5  304.57    9.30
  -7   4  -5  295.67    9.30
  -7  -4   5  295.87    9.30
  -7   4  -5  289.27    9.30
   8   4  -5   13.60    1.40
  -8  -4  -5   10.20    1.00
  -8   4   5    7.90    1.00
  -8  -4  -5   11.30    1.10
  -8  -4  -5   10.60    0.90
  -8   4   5    9.40    0.90
  -8   4   5   11.10    1.00
  -8  -4  -5   10.30    0.90
  -8  -4   5   11.00    1.00
  -8   4  -5   10.70    1.00
  -8   4  -5    9.80    0.90
   8   4   5   10.40    0.80
  -9   4   5    0.40    0.30
  -9  -4  -5    0.20    0.30
  -9   4   5    1.00    0.40
  -9  -4  -5    0.20    0.30
  -9  -4  -5    0.30    0.40
   9   4  -5    0.40    0.70
  -9  -4   5    0.40    0.30
  -9   4  -5    0.70    0.40
 -10  -4  -5    1.80    0.40
 -10  -4   5    2.20    0.40
 -10   4  -5    2.20    0.40
   0  -5  -5    0.10    0.30
   0  -5   5    0.30    0.40
   0   5  -5    0.20    0.20
   0   5  -5    1.10    0.50
   0   5  -5    0.10    0.30
   0  -5   5    0.40    0.40
   0  -5   5    0.30    0.30
   0   5   5    0.30    0.40
   1   5  -5   47.40    2.70
  -1   5   5   47.00    2.70
   1  -5   5   49.00    2.30
   1   5  -5   45.90    2.70
  -1   5   5   47.80    2.60
   1   5  -5   47.40    2.00
  -1  -5  -5   45.00    2.30
   1  -5   5   49.00    2.90
   1   5   5   49.60    2.70
  -1  -5   5   43.90    2.70
  -1  -5   5   48.30    2.90
   1  -5  -5   49.10    2.30
  -1  -5   5   47.10    2.20
  -1   5  -5   45.50    1.90
  -1   5  -5   48.90    2.70
  -1   5  -5   47.30    3.00
   2  -5   5   45.40    2.90
  -2   5   5   44.20    2.80
   2   5  -5   43.80    2.70
  -2   5   5   44.50    2.50
  -2  -5  -5   42.20    2.00
   2  -5   5   44.40    2.30
  -2  -5  -5   48.30    2.40
  -2   5  -5   45.60    1.80
  -2   5  -5   44.60    2.60
   2   5   5   46.40    2.70
  -2  -5   5   44.90    3.00
  -2   5  -5   45.10    2.70
   2  -5  -5   46.90    2.40
  -2  -5   5   46.30    2.20
  -2   5  -5   47.40    3.10
  -3  -5  -5   35.60    3.20
  -3  -5  -5   31.40    2.00
   3  -5   5   33.10    2.60
   3  -5   5   33.90    2.00
   3   5  -5   32.40    2.30
  -3   5   5   31.40    2.50
  -3  -5  -5   31.50    1.70
  -3   5   5   35.60    1.70
   3  -5  -5   34.10    2.10
  -3   5  -5   31.30    1.50
  -3   5  -5   31.80    2.20
   3   5   5   38.50    2.40
  -3   5  -5   39.60    2.90
  -3  -5   5   31.90    1.90
  -3  -5   5   32.30    2.60
  -3   5  -5   33.60    2.20
  -4  -5  -5   74.79    3.50
  -4   5   5   71.69    2.90
  -4  -5  -5   74.09    3.00
   4  -5   5   69.69    3.30
   4  -5  -5   70.19    3.50
  -4   5  -5   71.39    2.70
  -4   5  -5   73.19    3.60
  -4   5  -5   70.69    2.70
   4   5   5   65.49    3.70
  -4  -5   5   70.29    2.70
  -5  -5  -5  311.17    9.70
  -5  -5  -5  316.47   10.10
   5  -5   5  312.07   10.70
  -5  -5  -5  315.97    9.80
  -5   5   5  313.57    9.80
  -5  -5  -5  322.87   11.00
   5   5  -5  332.37    9.70
  -5   5   5  314.67   10.00
  -5  -5  -5  304.07    9.80
  -5   5  -5  319.27    9.80
  -5  -5   5  321.97    9.80
  -5   5  -5  310.27    9.70
   5  -5  -5  311.17   10.80
  -5   5  -5  309.07    9.70
  -6   5   5   23.50    1.40
  -6  -5  -5   22.10    1.50
  -6  -5  -5   23.70    1.40
  -6   5   5   22.10    1.50
  -6   5   5   25.50    1.40
   6   5  -5   24.00    1.40
  -6  -5  -5   22.60    1.30
  -6   5  -5   24.40    1.40
  -6   5  -5   22.30    1.40
  -6  -5   5   22.00    1.40
  -6   5  -5   23.80    1.40
  -7   5   5   11.40    0.90
  -7   5   5   12.10    1.10
  -7  -5  -5   12.20    1.00
  -7  -5  -5   10.80    1.10
  -7   5   5   13.00    1.20
   7   5  -5   13.10    1.00
  -7  -5   5   12.40    1.10
  -7   5  -5   12.00    1.00
  -7   5  -5   11.50    1.10
  -7   5  -5   14.00    1.10
   7   5   5   11.90    1.00
  -8   5   5   25.30    1.40
  -8   5   5   24.60    1.50
   8   5  -5   23.20    1.30
  -8  -5  -5   24.90    1.40
  -8   5  -5   25.10    1.40
   8   5   5   26.30    1.30
  -8  -5   5   24.10    1.40
  -8   5  -5   25.10    1.40
  -8   5  -5   23.80    1.50
  -9  -5  -5    1.00    0.30
  -9   5   5    0.50    0.30
  -9  -5  -5    0.40    0.40
  -9   5  -5    1.00    0.30
  -9  -5   5    1.70    0.40
   0   6   5  334.47   11.60
   0  -6   5  320.17   11.90
   0  -6  -5  338.37   10.90
   0  -6   5  330.57   10.70
   0   6  -5  349.47   11.80
   0   6  -5  332.37   11.70
   0  -6   5  336.07   12.00
   0   6  -5  341.47   10.30
   1  -6   5  344.47   11.10
   1  -6   5  319.37   12.30
  -1  -6  -5  356.06   11.30
   1  -6   5  332.57   12.20
  -1   6   5  344.07   11.80
   1   6  -5  351.56   12.10
   1   6  -5  345.57   10.60
   1  -6  -5  350.46   11.20
  -1  -6   5  340.87   12.30
   1   6   5  345.77   11.90
  -1   6  -5  336.87   11.90
  -1   6  -5  348.47   12.00
  -1   6  -5  339.47   12.40
  -1   6  -5  348.57   10.60
  -1  -6   5  357.46   11.10
   2   6  -5  139.19    5.90
   2  -6   5  123.49    6.00
  -2  -6  -5  133.19    5.20
   2  -6   5  139.39    5.30
  -2   6   5  125.19    5.50
  -2   6  -5  135.89    5.80
  -2  -6   5  138.39    6.30
   2   6   5  137.49    5.80
  -2   6  -5  134.39    5.80
   2  -6  -5  132.89    5.20
  -2  -6   5  123.99    5.00
  -2   6  -5  137.29    4.60
  -2   6  -5  123.99    6.20
  -3   6   5   77.99    3.10
   3   6  -5   68.59    4.00
   3  -6   5   75.59    3.70
  -3  -6  -5   79.09    3.70
  -3  -6   5   79.39    2.90
  -3   6  -5   75.69    2.90
  -3  -6   5   77.79    3.70
  -3   6  -5   77.59    3.00
   3  -6  -5   79.09    3.70
   3   6   5   72.79    4.00
  -4  -6  -5   49.00    2.10
  -4   6   5   47.60    2.30
   4  -6   5   45.30    2.80
   4   6  -5   46.40    2.00
  -4  -6  -5   46.20    2.80
  -4   6   5   46.40    2.10
  -4  -6  -5   45.30    2.00
   4  -6  -5   47.00    2.90
  -4   6  -5   48.20    2.10
  -4   6  -5   45.70    2.00
  -4  -6   5   48.10    2.10
  -4   6  -5   47.60    2.10
   5   6  -5   32.80    1.70
  -5  -6  -5   35.20    1.70
  -5   6   5   33.20    1.90
  -5   6   5   34.40    1.80
  -5  -6  -5   36.30    1.80
  -5  -6   5   33.60    1.70
  -5   6  -5   33.70    1.80
  -5   6  -5   33.00    1.70
  -5   6  -5   34.10    1.80
  -6  -6  -5  228.88    7.50
  -6   6   5  222.58    7.80
   6   6  -5  229.38    7.50
  -6   6   5  239.18    7.60
  -6   6  -5  237.78    7.70
  -6   6  -5  240.98    7.60
   6   6   5  241.28    7.50
  -6  -6   5  236.28    7.60
  -6   6  -5  227.18    7.60
   7   6  -5   91.09    3.40
  -7   6   5   92.09    3.50
  -7  -6  -5   89.09    3.40
  -7  -6   5   89.69    3.50
  -7   6  -5   87.69    3.50
   7   6   5   92.19    3.30
  -7   6  -5   90.39    3.60
  -7   6  -5   93.89    3.50
  -8  -6  -5  153.58    5.30
   8   6  -5  167.78    5.40
  -8   6   5  174.38    5.60
  -8   6  -5  171.88    5.50
  -8  -6   5  160.68    5.50
  -8   6  -5  167.58    5.50
   8   6   5  162.38    5.30
  -9   6   5    8.70    0.70
  -9  -6  -5    9.10    0.60
   9   6  -5    8.60    0.60
  -9   6  -5    9.30    0.70
   9   6   5    8.80    0.60
  -9  -6   5    9.60    0.70
   0  -7  -5    0.00    0.40
   0   7  -5    0.30    0.30
   0   7   5    3.10    0.90
   0   7  -5    0.30    0.40
   0   7  -5    1.50    0.40
   0  -7   5    0.70    0.40
  -1   7   5    1.30    0.70
  -1  -7  -5    0.90    0.50
   1  -7   5    1.00    0.50
   1   7  -5    0.70    0.30
   1   7  -5    2.30    0.90
  -1   7  -5    0.50    0.30
  -1   7  -5    0.60    0.30
   1  -7  -5    0.90    0.30
  -1   7  -5    0.80    0.60
   1  -7  -5    0.60    0.50
  -1  -7   5    2.00    0.60
   1   7   5    0.30    0.50
   2  -7   5  295.27   10.00
   2   7  -5  288.87    9.00
  -2   7   5  290.17   10.70
  -2  -7  -5  301.67    9.00
   2   7  -5  268.67   10.80
  -2  -7  -5  286.97   10.10
   2   7   5  280.27   10.80
  -2   7  -5  296.27    9.10
  -2  -7   5  298.97    9.00
  -2   7  -5  296.17   11.00
   2  -7  -5  293.87    9.00
  -2   7  -5  304.07    9.10
  -2   7  -5  290.87    9.30
   2  -7  -5  288.17   10.00
  -3  -7  -5    7.30    0.70
   3   7  -5    6.50    1.30
  -3  -7  -5    6.20    0.70
   3   7  -5    5.50    0.60
  -3   7   5    7.20    0.70
  -3  -7   5    5.70    0.70
   3  -7  -5    7.20    0.80
  -3   7  -5    6.60    0.70
  -3   7  -5    7.00    0.80
  -3   7  -5    7.30    0.80
  -4  -7  -5   44.50    2.00
   4   7  -5   45.60    2.00
  -4   7   5   43.10    2.10
  -4  -7  -5   46.20    2.10
  -4  -7   5   44.30    2.10
  -4   7  -5   44.50    2.10
  -4   7  -5   46.10    2.10
  -4   7  -5   47.30    2.30
   4  -7  -5   45.10    2.10
  -5  -7  -5   56.39    2.40
   5   7  -5   57.49    2.40
  -5   7   5   58.79    2.50
  -5   7  -5   60.19    2.50
  -5   7  -5   57.79    2.50
   5   7   5   56.89    2.40
  -5  -7   5   55.49    2.50
  -5   7  -5   57.39    2.60
  -6   7   5   26.00    1.50
  -6  -7  -5   24.20    1.40
   6   7  -5   24.30    1.40
  -6   7  -5   25.20    1.60
  -6   7  -5   26.30    1.50
   6   7   5   25.70    1.40
  -6   7  -5   25.20    1.50
  -6  -7   5   25.20    1.50
   7   7  -5    1.30    0.40
  -7   7   5    1.30    0.40
  -7  -7  -5    1.40    0.40
  -7  -7   5    1.50    0.50
   7   7   5    1.10    0.40
  -7   7  -5    1.10    0.40
  -7   7  -5    1.50    0.50
   8   7  -5   39.30    1.70
  -8  -7  -5   38.70    1.60
  -8   7   5   41.70    1.80
   8   7   5   42.70    1.70
  -8   7  -5   41.30    1.80
  -8  -7   5   41.30    1.80
   8  -7  -5   42.80    1.80
  -8   7  -5   41.20    1.80
   0  -8  -5  494.35   15.20
   0   8  -5  526.95   15.30
  -1  -8  -5    8.60    0.80
  -1  -8   5    8.00    0.80
  -1   8  -5    9.90    1.00
  -1   8  -5    9.00    0.80
   1  -8  -5    8.70    0.80
  -2  -8  -5   73.19    2.90
   2  -8  -5   75.49    2.90
  -2  -8   5   73.19    2.90
  -2   8  -5   75.19    2.90
  -2   8  -5   72.79    2.90
  -2   8  -5   69.09    3.10
   3   8  -5    5.20    0.60
  -3  -8  -5    4.90    0.70
   3  -8  -5    5.00    0.70
  -3  -8   5    6.10    0.70
  -3   8  -5    5.10    0.80
  -3   8  -5    5.70    0.70
  -3   8  -5    5.10    0.70
   3   8   5    4.90    0.60
  -4   8   5   15.50    1.10
   4   8  -5   17.60    1.10
   4  -8   5   16.40    1.10
  -4  -8  -5   16.10    1.10
   4   8   5   17.60    1.10
  -4   8  -5   16.80    1.20
  -4  -8   5   16.40    1.20
   4  -8  -5   17.60    1.20
  -4   8  -5   19.20    1.20
  -4   8  -5   16.70    1.30
   5  -8   5    8.70    0.90
  -5   8   5   11.90    1.00
  -5  -8  -5   11.80    0.90
   5   8  -5   11.00    0.90
   5  -8  -5   10.90    1.00
  -5   8  -5   11.20    1.00
   5   8   5   11.10    0.90
  -5   8  -5   12.90    1.00
  -5  -8   5   11.90    1.00
  -5   8  -5   13.00    1.10
  -6   8   5  126.69    4.40
   6   8  -5  120.19    4.20
   6  -8   5  118.29    4.20
  -6  -8  -5  123.09    4.20
  -6  -8   5  122.19    4.30
   6  -8  -5  125.79    4.30
  -6   8  -5  125.09    4.30
  -6   8  -5  125.59    4.40
   6   8   5  122.69    4.20
   7   8  -5    1.20    0.40
  -7   8   5    1.10    0.40
   7  -8   5    0.40    0.40
  -7  -8  -5    1.50    0.40
   7   8   5    0.90    0.30
  -7   8  -5    0.80    0.30
  -7  -8   5    1.10    0.40
  -7   8  -5    1.00    0.40
   7  -8  -5    0.60    0.40
   8   8  -5  218.08    6.60
  -8   8   5  218.68    6.70
   8  -8  -5  221.18    6.60
   8   8   5  216.28    6.60
  -8   8  -5  213.48    6.60
   0  -9  -5    1.10    0.40
   0  -9   5    0.20    0.30
  -1  -9  -5   50.59    2.20
  -1   9  -5   50.89    2.20
  -1  -9   5   50.89    2.20
   1  -9  -5   50.79    2.20
  -2  -9  -5   94.29    3.50
   2  -9  -5   91.69    3.40
  -2   9  -5   90.29    3.50
  -2   9  -5   98.89    4.00
  -2  -9   5   93.79    3.50
   3   9  -5   13.40    1.10
  -3  -9  -5   13.40    1.00
  -3  -9   5   13.60    1.00
   3  -9  -5   12.70    1.00
  -3   9  -5   14.10    1.00
  -3   9  -5   12.30    1.00
  -3   9  -5   13.70    1.20
  -4  -9  -5    3.60    0.60
   4   9  -5    3.10    0.50
  -4  -9   5    3.20    0.60
  -4   9  -5    3.70    0.60
   4   9   5    3.30    0.50
   4  -9  -5    2.30    0.60
  -4   9  -5    3.30    0.60
  -5  -9  -5    8.10    0.70
  -5   9   5    7.60    0.80
   5   9  -5    9.00    0.80
   5   9   5    8.10    0.70
  -5   9  -5    9.90    0.90
  -5   9  -5    9.50    0.80
  -5  -9   5    8.70    0.80
   5  -9  -5    8.50    0.80
  -6   9   5    2.90    0.50
   6   9  -5    1.70    0.40
  -6  -9  -5    2.10    0.50
  -6   9  -5    2.50    0.50
   6  -9  -5    2.20    0.50
  -6   9  -5    1.70    0.40
   6   9   5    2.50    0.40
  -6  -9   5    2.20    0.50
   7   9  -5   14.90    0.80
  -7   9   5   15.20    1.00
  -7   9  -5   15.10    0.80
   7  -9  -5   15.30    0.80
   7   9   5   15.10    0.80
   0 -10  -5   84.69    3.10
   0 -10   5   83.89    3.10
   1 -10   5   12.90    1.00
  -1 -10  -5   13.80    1.00
  -1 -10   5   11.70    0.90
   1 -10  -5   12.70    1.00
  -2 -10  -5  145.19    4.80
  -2 -10   5  143.99    4.90
  -2  10  -5  146.29    4.90
   2 -10  -5  144.99    4.80
  -3 -10  -5    4.60    0.60
   3 -10  -5    3.70    0.60
  -3 -10   5    4.60    0.60
  -3  10  -5    4.40    0.80
  -3  10  -5    4.10    0.60
  -4 -10  -5  116.99    3.80
  -4  10  -5  115.39    3.90
  -4 -10   5  113.99    3.90
   4 -10  -5  116.69    3.90
  -4  10  -5  119.29    4.00
   5  10  -5    6.60    0.50
   5  10   5    7.10    0.60
  -5  10  -5    7.40    0.60
   5 -10  -5    7.30    0.60
  -5  10  -5    8.20    0.70
  -5 -10   5    7.40    0.60
   0 -11  -5    0.10    0.30
   0 -11   5    0.30    0.30
   1 -11   5    1.20    0.30
  -1 -11  -5    1.30    0.40
   1 -11  -5    1.20    0.40
  -1 -11   5    1.20    0.40
  -2 -11  -5    8.10    0.60
   2 -11   5    8.00    0.60
  -2 -11   5    7.80    0.60
   2 -11  -5    7.70    0.60
   3 -11  -5    5.30    0.50
   0   0  -6 4221.88  151.08
   0   0  -6 3898.81  137.09
   0   0  -6 3999.00  158.08
   0   0   6 3856.51  150.48
   0   0   6 4217.28  131.89
  -1   0  -6 5472.35  175.38
   1   0  -6 5384.96  212.38
   1   0   6 6079.29  192.98
   1   0  -6 5780.32  193.98
  -1   0  -6 5286.87  173.58
  -1   0   6 5659.63  205.88
  -1   0  -6 5449.15  172.08
  -1   0  -6 5426.56  161.18
  -1   0   6 5638.44  203.68
  -1   0  -6 5311.77  186.28
  -1   0   6 5611.74  185.68
   2   0  -6  123.39    4.00
  -2   0   6  125.29    4.40
  -2   0  -6  121.79    4.20
  -2   0  -6  118.39    4.20
  -2   0   6  125.29    3.80
   2   0  -6  123.09    4.40
  -2   0   6  128.69    4.60
  -2   0  -6  123.89    4.00
  -2   0  -6  112.09    4.20
  -3   0   6 1969.30   56.59
   3   0  -6 1781.82   54.59
  -3   0   6 1778.42   52.29
  -3   0   6 1579.04   54.29
  -3   0  -6 1739.83   53.29
  -3   0  -6 1713.53   53.09
   3   0   6 1937.61   53.29
  -3   0  -6 1794.42   52.69
  -3   0  -6 1718.83   54.09
  -3   0   6 2063.29   56.29
  -3   0  -6 1744.53   78.79
  -4   0  -6 1260.57   41.20
  -4   0   6 1428.16   39.00
  -4   0  -6 1320.17   40.50
  -4   0   6 1382.56   38.80
  -4   0   6 1415.46   40.30
  -4   0   6 1292.17   39.90
  -4   0  -6 1361.96   39.90
  -4   0   6 1325.17   40.10
  -4   0  -6 1403.96   39.30
  -5   0  -6   20.20    1.50
  -5   0  -6   21.60    1.90
  -5   0   6   22.90    2.00
  -5   0   6   21.00    1.90
  -5   0   6   24.70    1.30
  -5   0   6   19.80    1.30
  -5   0  -6   21.80    1.50
  -6   0  -6    8.70    1.00
  -6   0   6    9.60    0.90
  -6   0   6    9.30    1.40
  -6   0  -6    9.10    1.40
  -6   0   6    9.80    0.90
  -6   0  -6    8.70    0.70
  -6   0   6    9.30    1.10
  -6   0  -6   10.00    1.20
  -6   0   6    8.40    0.90
  -6   0  -6    7.90    0.80
  -7   0  -6   11.20    0.90
  -7   0   6   12.50    0.90
  -7   0  -6    9.50    0.90
  -7   0   6   10.80    1.10
  -7   0   6   13.90    1.10
  -7   0  -6   10.30    0.90
  -7   0  -6   11.80    1.00
  -8   0   6    7.80    0.80
  -8   0  -6    7.00    0.80
  -8   0  -6    7.60    0.80
   8   0  -6    7.50    1.20
  -8   0  -6    8.80    0.90
  -8   0  -6    7.80    1.00
   9   0  -6  456.85   14.20
  -9   0  -6  475.05   13.90
  -9   0   6  444.26   13.80
  -9   0  -6  462.55   13.80
  -9   0  -6  460.95   14.20
  -9   0  -6  450.55   14.10
  10   0  -6   37.90    1.90
 -10   0  -6   40.90    2.00
 -10   0   6   38.90    1.80
 -10   0  -6   39.40    1.70
   0   1   6    3.20    0.40
   0   1  -6    1.90    0.40
   0   1  -6    2.30    0.30
   0  -1   6    2.00    0.40
   0  -1  -6    2.30    0.40
   0  -1   6    2.10    0.20
   0  -1   6    2.30    0.50
   0   1   6    2.70    0.40
   0   1  -6    2.10    0.30
  -1  -1  -6 1147.79   34.00
   1   1  -6 1180.78   34.20
  -1  -1  -6 1058.39   31.80
  -1   1   6 1173.98   35.50
   1  -1   6 1102.09   34.40
   1   1  -6 1197.78   34.70
  -1   1   6 1147.79   32.80
  -1   1   6 1076.59   31.80
  -1  -1  -6  925.51   33.00
  -1   1   6 1085.29   33.50
  -1  -1  -6 1022.40   32.00
  -1  -1   6 1143.99   33.50
   1  -1  -6 1107.99   32.10
   1  -1  -6  985.80   31.80
  -1  -1   6 1126.49   32.80
  -1   1  -6 1150.68   32.00
  -1   1  -6 1079.69   31.80
  -1   1  -6 1131.09   32.00
  -1  -1   6 1007.00   31.60
  -1   1  -6 1162.38   35.20
   1   1   6 1102.99   32.80
   1   1   6 1173.68   33.70
  -1   1  -6 1012.00   32.50
  -2  -1  -6   66.19    2.60
   2   1  -6   68.59    3.00
  -2   1   6   76.69    3.10
   2   1  -6   71.99    2.70
  -2   1   6   66.59    2.90
  -2  -1  -6   70.19    2.60
  -2   1   6   80.09    2.90
  -2  -1  -6   70.29    2.60
  -2   1   6   69.59    2.50
  -2  -1  -6   69.99    2.70
   2  -1  -6   69.29    2.40
  -2  -1   6   72.19    2.90
  -2   1  -6   69.39    2.70
  -2  -1   6   71.59    2.40
  -2  -1   6   73.89    3.00
  -2   1  -6   73.79    3.10
   2   1   6   75.89    2.80
   2  -1  -6   72.19    3.00
  -2   1  -6   79.09    2.60
  -2  -1   6   72.19    3.00
   2   1   6   74.89    2.50
  -2   1  -6   76.69    3.00
  -3   1   6   32.30    1.80
  -3  -1  -6   25.90    1.40
   3   1  -6   23.90    1.20
  -3  -1  -6   25.90    1.40
  -3   1   6   26.90    1.70
  -3   1   6   26.60    1.80
   3   1  -6   24.90    1.70
  -3   1  -6   28.90    1.40
  -3   1  -6   28.40    1.80
  -3  -1   6   27.30    1.70
  -3  -1   6   27.60    1.80
  -3   1  -6   25.00    1.00
  -3  -1   6   25.70    1.20
  -3   1  -6   26.50    1.70
  -3   1  -6   26.60    1.10
   3   1   6   26.20    1.40
   3  -1  -6   23.80    1.20
  -3   1  -6   27.80    1.40
  -3  -1   6   26.60    1.70
  -4  -1  -6   39.90    2.30
  -4  -1  -6   43.10    2.10
  -4  -1  -6   42.70    2.10
  -4   1   6   42.50    2.50
  -4   1   6   39.40    2.50
  -4   1   6   42.30    2.40
  -4   1  -6   33.50    2.20
  -4  -1   6   39.60    2.40
  -4  -1   6   40.70    1.80
  -4   1  -6   40.40    1.80
  -4   1  -6   41.50    2.00
  -4  -1   6   44.80    2.50
  -4  -1   6   41.10    2.50
   4  -1  -6   38.90    1.80
  -4   1  -6   39.80    2.40
  -5  -1  -6  822.82   23.80
  -5  -1  -6  852.71   24.80
  -5   1   6  800.42   25.50
  -5   1   6  829.82   25.80
  -5  -1  -6  804.92   24.90
  -5  -1  -6  832.22   25.60
  -5   1   6  816.52   24.10
  -5   1   6  817.12   25.90
  -5   1  -6  852.01   24.80
  -5  -1   6  848.12   24.20
  -5  -1   6  864.41   25.80
   5  -1  -6  819.62   24.40
  -5  -1   6  806.52   25.60
  -5  -1   6  839.82   26.00
  -5  -1   6  780.92   24.40
  -5   1  -6  833.12   25.80
  -5   1  -6  840.72   24.50
  -6   1   6    4.60    0.60
  -6  -1  -6    3.70    0.50
  -6  -1  -6    3.50    1.00
  -6   1   6    3.30    0.60
  -6  -1  -6    4.50    0.60
  -6  -1  -6    3.80    0.80
  -6   1   6    4.10    0.70
  -6   1   6    3.70    1.10
  -6  -1  -6    3.60    1.00
   6  -1  -6    3.40    0.70
  -6   1  -6    3.50    0.80
  -6   1  -6    3.80    0.50
  -6  -1   6    3.80    0.60
  -6  -1   6    6.10    0.60
  -6  -1   6    5.40    0.80
  -7   1   6   14.60    1.20
  -7  -1  -6   15.60    1.10
  -7  -1  -6   14.50    1.20
  -7  -1  -6   14.00    1.00
  -7   1   6   14.70    1.00
  -7  -1  -6   14.30    1.00
  -7  -1   6   16.40    1.10
  -7  -1   6   14.60    1.20
   7  -1  -6   12.30    1.20
  -7   1  -6   15.70    1.00
  -7   1  -6   15.60    1.10
  -7   1  -6   14.30    1.10
  -7  -1   6   15.10    1.30
  -7   1  -6   14.30    1.00
  -8  -1  -6    2.10    0.60
  -8   1   6    1.40    0.60
  -8  -1  -6    1.90    0.60
  -8  -1  -6    1.50    0.50
  -8   1   6    1.80    0.50
  -8  -1  -6    1.50    0.60
   8   1  -6    1.40    0.80
  -8   1  -6    1.30    0.50
  -8   1  -6    1.90    0.50
  -8   1  -6    1.90    0.50
  -8   1  -6    1.30    0.50
  -8  -1   6    2.10    0.50
   8  -1  -6    1.20    0.70
  -9  -1  -6   31.50    1.90
  -9  -1  -6   30.40    1.60
  -9  -1  -6   31.60    1.60
  -9  -1  -6   32.30    1.80
   9   1  -6   33.20    2.10
  -9   1   6   31.00    1.60
  -9   1  -6   33.80    1.70
   9  -1  -6   32.20    1.90
  -9   1  -6   29.60    1.70
  -9   1  -6   30.90    1.90
  -9  -1   6   29.80    1.60
 -10  -1  -6    0.80    0.60
  10  -1   6   -0.40    0.40
 -10  -1  -6    1.10    0.40
 -10   1   6    0.80    0.30
  10   1  -6    0.40    0.60
 -10   1  -6    1.30    0.40
 -10  -1   6    0.90    0.40
  10  -1  -6    0.50    0.50
   0   2   6  872.31   26.50
   0  -2   6  890.01   43.20
   0   2  -6  878.51   25.90
   0   2  -6  716.73   24.60
   0   2  -6  885.01   26.80
   0  -2   6  834.92   24.30
   0   2   6  841.52   24.80
   0  -2   6  856.01   26.70
   0   2   6  879.21   26.10
   0  -2  -6  830.02   25.20
   0  -2  -6  883.41   25.90
  -1  -2  -6 3503.25  101.89
  -1   2   6 3515.65  104.79
  -1   2   6 3262.27  103.79
  -1  -2  -6 3466.95  100.89
  -1  -2  -6 3673.13  104.99
   1  -2   6 3444.66  100.99
   1   2  -6 3569.84  104.79
   1  -2   6 3249.27  104.29
  -1   2   6 3656.53  102.09
  -1   2   6 3669.73  104.19
   1   2  -6 3532.35  103.99
   1  -2  -6 3683.03  104.69
  -1   2  -6 3538.25  102.29
  -1  -2   6 3433.26  100.39
  -1   2  -6 3491.95  104.39
  -1  -2   6 3514.45  106.29
   1  -2  -6 2975.40  101.19
   1   2   6 3632.84  100.39
  -1  -2   6 3443.46  105.39
  -1   2  -6 3685.23  106.89
   1   2   6 3620.04  104.49
  -1  -2   6 3465.75  102.99
  -1   2  -6 3435.16  101.99
  -2   2   6  661.23   20.50
  -2  -2  -6  677.63   20.50
   2   2  -6  705.13   20.80
  -2   2   6  689.23   20.70
  -2   2   6  724.43   21.10
   2  -2   6  722.23   20.40
  -2   2   6  693.23   21.20
   2  -2   6  721.63   21.10
   2   2  -6  721.43   21.10
  -2  -2  -6  707.93   20.60
  -2  -2  -6  733.63   20.80
  -2   2  -6  708.23   20.80
  -2  -2   6  703.93   21.10
   2   2   6  715.93   20.80
  -2  -2   6  723.23   21.30
  -2   2  -6  688.63   20.70
   2  -2  -6  684.63   21.10
  -2  -2   6  676.23   20.30
  -2   2  -6  716.53   21.20
   2  -2  -6  666.03   20.30
  -2   2  -6  716.73   21.40
  -3   2   6 1225.18   38.40
  -3  -2  -6 1253.27   36.10
  -3  -2  -6 1295.07   38.60
  -3   2   6 1252.07   37.10
  -3   2   6 1245.38   36.40
   3   2  -6 1291.87   36.70
  -3  -2  -6 1216.48   36.90
  -3   2   6 1280.67   37.30
  -3  -2  -6 1305.77   36.70
  -3  -2   6 1328.97   37.60
  -3  -2   6 1317.17   36.40
  -3   2  -6 1275.77   37.50
  -3   2  -6 1275.97   39.50
   3  -2  -6 1295.57   36.40
  -3   2  -6 1280.57   39.10
  -3   2  -6 1329.77   37.60
  -3   2  -6 1305.07   37.80
   3   2   6 1207.08   37.30
  -3   2  -6 1206.98   37.00
  -3  -2   6 1142.09   37.20
  -4  -2  -6  300.87    9.70
  -4  -2  -6  338.27   10.50
  -4   2   6  324.37   11.10
  -4   2   6  339.67    9.90
  -4   2   6  325.57   11.40
  -4   2   6  361.46   11.30
  -4  -2  -6  346.77   10.80
  -4  -2   6  326.07    9.90
  -4   2  -6  315.47   11.30
  -4   2  -6  328.37   10.40
  -4   2  -6  336.77   10.10
  -4  -2   6  311.37   11.00
  -4  -2   6  321.57   11.40
  -4   2  -6  333.07   11.30
   4  -2  -6  326.87   10.20
  -4  -2   6  320.37   10.20
  -5   2   6  308.17   11.30
  -5   2   6  317.47   11.20
  -5  -2  -6  321.17   10.40
  -5   2   6  312.77    9.70
  -5  -2  -6  325.47   10.80
  -5  -2  -6  307.07   11.00
  -5   2   6  318.47   11.50
  -5  -2  -6  307.47    9.60
  -5   2  -6  332.27   11.50
  -5  -2   6  319.47   10.30
  -5   2  -6  322.07   10.10
  -5   2  -6  306.27   11.20
  -5  -2   6  315.27   11.50
   5  -2  -6  306.67   10.00
  -5  -2   6  309.17    9.70
  -5   2  -6  313.67   10.40
  -6   2   6  140.59    4.90
  -6   2   6  149.49    5.10
  -6  -2  -6  154.38    5.10
  -6  -2  -6  150.78    4.90
  -6  -2  -6  146.99    5.10
  -6  -2  -6  144.19    5.80
   6  -2   6  145.19    5.70
   6  -2  -6  147.89    5.10
   6  -2  -6  146.19    5.50
  -6  -2   6  146.39    5.10
  -6  -2   6  153.08    4.90
  -6  -2   6  152.58    5.30
  -6   2  -6  142.79    4.90
  -6   2  -6  143.79    4.70
  -7  -2  -6  290.37    9.30
  -7   2   6  281.27    8.90
  -7   2   6  284.87    9.20
  -7   2   6  284.77    8.90
  -7  -2  -6  286.97    8.90
  -7  -2  -6  293.97    9.20
  -7  -2  -6  281.07    9.00
  -7   2  -6  284.97    8.90
  -7  -2   6  279.57    9.20
   7  -2  -6  279.37    9.20
  -7  -2   6  297.97    9.00
  -7   2  -6  281.37    8.90
  -8   2   6    2.60    0.60
  -8   2   6    4.60    0.70
  -8  -2  -6    2.50    0.60
   8   2  -6    1.60    0.80
  -8   2   6    2.20    0.60
  -8  -2  -6    2.40    0.60
  -8  -2  -6    2.10    0.50
  -8  -2  -6    2.50    0.60
  -8   2  -6    2.00    0.50
  -8   2  -6    3.30    0.60
   8  -2  -6    2.60    0.70
  -8  -2   6    2.10    0.60
  -9  -2  -6  284.27    9.60
  -9   2   6  292.07    9.20
   9   2  -6  305.37    9.60
  -9  -2  -6  300.17    9.20
  -9  -2  -6  315.77    9.70
  -9  -2  -6  310.17    9.30
  -9   2  -6  298.57    9.30
  -9   2  -6  283.97    9.40
   9  -2  -6  296.97    9.40
  -9  -2   6  295.47    9.30
 -10  -2  -6   23.90    1.20
  10   2  -6   22.50    1.50
 -10  -2  -6   24.90    1.50
 -10   2   6   23.10    1.20
  10  -2  -6   24.20    1.30
 -10   2  -6   25.20    1.30
 -10  -2   6   25.10    1.30
   0   3   6    0.40    0.30
   0  -3  -6    0.80    0.40
   0   3  -6    0.80    0.40
   0   3   6    0.30    0.30
   0  -3   6    0.60    0.40
   0   3   6    0.50    0.30
   0  -3   6    0.60    0.20
   0  -3  -6    0.50    0.20
   0  -3   6    0.40    0.40
   0  -3  -6    0.50    0.20
   0   3  -6    1.70    0.50
  -1  -3  -6   36.60    1.90
  -1   3   6   34.10    1.80
   1   3  -6   31.90    1.80
  -1   3   6   30.30    1.80
   1  -3   6   33.30    2.00
   1  -3   6   33.60    1.50
  -1  -3  -6   32.30    1.50
   1   3  -6   33.40    1.80
  -1  -3  -6   33.50    1.50
  -1   3   6   30.60    1.70
  -1  -3   6   31.90    1.90
  -1  -3   6   31.90    1.40
   1  -3  -6   32.20    1.50
  -1  -3   6   33.40    2.00
   1  -3  -6   32.90    1.90
   1  -3  -6   31.30    1.50
  -1   3  -6   33.70    2.10
   1   3   6   32.90    1.80
  -1   3  -6   32.10    1.80
   2  -3   6  159.08    5.30
  -2  -3  -6  172.68    6.00
  -2   3   6  161.88    5.70
   2  -3   6  174.38    6.20
  -2   3   6  168.98    6.10
  -2  -3  -6  166.78    5.50
  -2  -3  -6  163.08    5.50
  -2   3   6  161.78    6.00
   2   3  -6  164.68    5.80
  -2  -3  -6  157.68    5.10
  -2   3   6  151.88    5.50
   2   3  -6  161.18    6.00
  -2  -3   6  167.28    6.20
   2  -3  -6  163.28    5.40
  -2   3  -6  156.88    6.30
  -2   3  -6  170.98    5.40
  -2  -3   6  165.28    6.10
  -2  -3   6  152.88    5.20
   2   3   6  164.98    5.80
  -2   3  -6  158.88    5.70
   3   3  -6   14.60    1.20
  -3  -3  -6   13.50    1.20
  -3  -3  -6   13.80    0.80
  -3  -3  -6   12.80    1.20
  -3  -3  -6   14.50    1.10
   3  -3   6   12.30    1.30
  -3   3   6   17.60    1.40
  -3   3   6   14.50    1.40
  -3   3   6   14.10    1.40
  -3  -3   6   14.20    1.00
  -3   3  -6   14.00    1.00
   3   3   6   13.20    1.20
  -3  -3   6   13.80    1.40
  -3   3  -6   13.30    1.10
  -3   3  -6   13.90    1.50
   3  -3  -6   14.30    1.00
  -4  -3  -6  121.59    4.60
  -4   3   6  119.89    5.40
  -4   3   6  118.79    4.00
  -4  -3  -6  124.59    5.10
  -4   3   6  123.59    5.20
  -4   3   6  110.69    5.00
   4  -3   6  118.09    4.40
  -4  -3  -6  116.49    4.00
   4  -3  -6  121.69    4.40
  -4   3  -6  119.89    5.40
   4   3   6  103.29    5.00
  -4   3  -6  116.29    5.40
  -4   3  -6  119.89    4.40
  -4  -3   6  121.89    5.50
  -4  -3   6  114.19    4.30
  -5  -3  -6  188.08    7.50
  -5  -3  -6  188.88    6.90
  -5  -3  -6  194.48    6.20
  -5   3   6  201.58    6.30
  -5   3   6  181.28    7.70
   5  -3   6  193.58    6.80
  -5   3   6  193.58    8.10
  -5   3   6  186.48    7.70
  -5  -3   6  186.58    8.10
  -5   3  -6  185.28    7.90
  -5   3  -6  193.38    8.10
   5  -3  -6  191.68    6.70
  -5   3  -6  189.78    6.70
  -6   3   6  282.17    9.00
  -6  -3  -6  288.07    8.90
  -6  -3  -6  309.67    9.60
  -6  -3  -6  279.07    8.90
  -6  -3  -6  283.87    8.90
  -6  -3  -6  275.97    9.80
  -6   3   6  275.17    8.70
  -6  -3  -6  272.87    8.70
   6  -3   6  277.67    9.60
  -6   3   6  277.77    8.60
   6  -3  -6  281.67    9.50
  -6  -3   6  280.37    8.70
  -6  -3   6  278.87    8.90
  -6   3  -6  272.37    8.50
   6  -3  -6  268.47    8.70
  -6   3  -6  271.47    8.70
  -7  -3  -6  721.63   21.60
  -7   3   6  703.63   21.60
  -7   3   6  751.62   21.60
  -7  -3  -6  742.73   21.70
  -7   3   6  738.93   22.00
  -7  -3  -6  767.02   22.00
  -7  -3  -6  768.02   22.00
  -7  -3  -6  731.83   21.60
   7  -3  -6  729.33   21.70
  -7  -3   6  700.93   21.80
  -7  -3   6  711.13   21.70
  -7   3  -6  743.33   21.60
  -7   3  -6  744.03   21.70
  -8  -3  -6    6.90    0.80
  -8  -3  -6    8.10    1.00
  -8   3   6    7.10    1.00
  -8   3   6    6.60    0.80
  -8   3   6    8.30    0.80
  -8  -3  -6    6.60    0.90
  -8  -3  -6    6.10    0.70
   8   3  -6   10.80    1.40
  -8   3  -6    6.70    0.80
  -8   3  -6    7.30    0.80
  -8  -3   6    7.90    0.90
  -9   3   6  215.98    6.90
  -9  -3  -6  225.68    7.00
  -9   3   6  203.68    6.90
  -9  -3  -6  224.68    7.30
  -9  -3  -6  219.68    6.90
   9   3  -6  212.08    7.20
  -9   3  -6  217.28    7.00
  -9  -3   6  224.88    7.00
 -10   3   6   29.50    1.30
  10   3  -6   26.00    1.40
 -10  -3  -6   29.70    1.60
 -10  -3  -6   28.80    1.30
 -10  -3   6   28.40    1.40
 -10   3  -6   27.10    1.30
   0   4   6  203.38    6.80
   0  -4   6  184.88    6.10
   0  -4  -6  191.58    6.20
   0   4  -6  192.38    6.70
   0  -4   6  183.38    7.00
   0  -4  -6  186.58    6.90
   0  -4   6  199.98    7.10
   0   4  -6  182.08    6.70
   0   4   6  171.98    6.20
   0   4  -6  189.68    5.80
  -1   4   6 1798.72   55.49
   1   4  -6 1908.41   58.59
   1   4  -6 1830.52   54.79
   1  -4   6 1940.21   94.39
  -1  -4  -6 2029.90   55.59
   1  -4   6 1826.22   54.89
  -1  -4  -6 1916.41   54.69
   1   4  -6 1922.41   55.39
  -1  -4  -6 1942.01   54.29
  -1  -4   6 1951.50   54.99
  -1   4  -6 1794.52   56.79
   1   4   6 1913.51   57.39
  -1   4  -6 2010.50   61.99
  -1   4  -6 1881.01   55.09
  -1  -4   6 1736.73   58.39
  -1   4  -6 1982.30   58.69
   1  -4  -6 1985.30   54.69
   2  -4   6    1.50    0.40
   2  -4   6    1.20    0.60
  -2  -4  -6    1.30    0.50
  -2   4   6    1.40    0.30
  -2   4   6    1.50    0.50
  -2   4   6    2.70    0.70
   2   4  -6    1.00    0.50
  -2  -4  -6    1.60    0.50
   2   4  -6    1.50    0.50
  -2  -4  -6    1.20    0.30
  -2  -4   6    1.60    0.60
  -2   4  -6    1.80    0.60
  -2   4  -6    2.40    0.80
  -2  -4   6    1.60    0.40
  -2   4  -6    1.40    0.30
  -2  -4   6    1.40    0.60
   2   4   6    1.60    0.50
   2  -4  -6    2.30    0.60
   2  -4  -6    3.80    0.70
   3  -4   6  756.22   23.10
  -3  -4  -6  732.23   21.40
   3  -4   6  743.63   21.70
  -3  -4  -6  758.12   22.00
  -3   4   6  723.93   22.70
  -3  -4  -6  723.43   22.70
  -3   4   6  726.53   21.30
  -3   4   6  756.62   22.40
  -3   4   6  739.33   23.00
   3   4  -6  682.03   22.20
   3  -4  -6  737.33   21.90
  -3  -4   6  740.03   23.10
  -3   4  -6  732.23   21.90
   3  -4  -6  685.03   22.20
  -3   4  -6  757.82   23.30
  -3   4  -6  708.33   21.00
  -3  -4   6  692.93   21.60
   3   4   6  753.82   22.40
  -4   4   6  502.45   17.50
   4  -4   6  570.34   18.10
  -4  -4  -6  552.14   16.90
  -4   4   6  543.05   16.20
   4  -4   6  556.34   16.70
  -4  -4  -6  563.44   17.80
  -4  -4  -6  557.34   16.30
  -4   4   6  528.15   17.70
  -4   4   6  563.54   18.20
  -4   4  -6  531.15   16.70
  -4  -4   6  530.95   18.20
   4  -4  -6  550.24   16.80
  -4   4  -6  531.95   15.80
  -4   4  -6  560.64   18.40
   4   4   6  509.95   17.00
   5  -4   6  901.01   26.80
  -5  -4  -6  932.41   26.20
  -5  -4  -6  859.41   29.40
  -5  -4  -6  877.51   26.00
  -5   4   6  898.21   26.10
  -5  -4  -6  862.01   26.90
  -5   4  -6  885.11   25.70
  -5  -4   6  893.51   25.90
   5  -4  -6  896.21   26.80
  -5   4  -6  893.11   25.90
  -6  -4  -6   95.79    3.60
  -6  -4  -6  101.59    3.90
  -6   4   6  103.09    3.90
  -6  -4  -6  102.69    3.70
   6   4  -6   97.69    3.60
  -6   4   6  103.69    3.70
  -6   4   6   99.89    3.60
  -6  -4  -6   99.79    3.80
  -6  -4   6  101.89    3.70
  -6   4  -6  100.69    3.60
   6  -4  -6   96.89    4.40
  -6   4  -6   98.79    3.70
  -6   4  -6   99.09    3.60
   7   4  -6  789.32   23.10
  -7  -4  -6  786.32   23.30
  -7  -4  -6  822.32   23.50
  -7  -4  -6  807.32   23.70
  -7   4   6  770.02   23.60
  -7   4   6  790.02   23.20
  -7  -4  -6  795.42   23.20
  -7   4   6  787.52   23.30
  -7   4  -6  815.42   23.30
  -7   4  -6  773.02   23.20
  -7   4  -6  792.32   23.30
  -7  -4   6  755.72   23.30
   8   4  -6  115.79    4.40
  -8  -4  -6  118.19    4.50
  -8   4   6  117.89    4.10
  -8  -4  -6  118.29    4.40
  -8  -4  -6  125.59    4.20
  -8   4   6  111.89    4.20
  -8  -4   6  119.49    4.20
   8   4   6  107.99    4.00
  -8   4  -6  121.89    4.20
  -8   4  -6  109.79    4.20
  -9  -4  -6   81.09    3.10
   9   4  -6   72.99    3.00
  -9   4   6   76.19    2.90
  -9  -4  -6   80.79    2.90
  -9   4   6   75.29    2.80
  -9   4  -6   78.59    2.90
  -9  -4   6   75.19    2.90
 -10  -4  -6    1.10    0.30
   0   5  -6    0.10    0.30
   0   5  -6    1.20    0.30
   0   5  -6    0.90    0.50
   0   5   6    0.20    0.30
   0  -5   6    0.20    0.20
   0  -5   6    0.80    0.50
   0  -5   6    0.40    0.40
   0  -5  -6    0.00    0.30
  -1  -5  -6    9.20    0.80
   1  -5   6    9.60    1.30
   1   5  -6    9.30    1.20
  -1  -5  -6    9.50    1.00
   1   5  -6    8.80    1.20
  -1   5   6    9.40    1.10
   1  -5   6    8.90    0.90
  -1   5   6    9.50    1.10
  -1  -5   6    9.20    1.20
   1   5   6    9.30    1.20
  -1  -5   6    8.60    1.20
  -1   5  -6   13.40    1.50
  -1  -5   6   10.10    0.90
  -1   5  -6    9.70    0.70
   1  -5  -6   11.00    1.00
  -1   5  -6   10.00    1.20
  -1   5  -6   10.50    1.20
   2  -5   6    5.30    0.80
   2   5  -6    6.50    1.00
  -2  -5  -6    5.80    0.60
   2   5  -6    8.00    0.70
  -2   5   6    6.10    0.90
  -2  -5  -6   10.20    1.00
  -2  -5  -6    9.60    1.60
   2  -5   6    6.70    1.20
  -2   5   6    6.10    1.00
   2   5   6    6.70    1.00
  -2   5  -6    6.50    1.20
  -2   5  -6    6.90    1.00
   2  -5  -6    8.50    1.00
  -2   5  -6    6.00    0.90
  -2  -5   6    5.80    1.10
  -3  -5  -6   90.29    3.50
  -3   5   6   92.09    4.70
  -3   5   6   92.19    3.40
   3   5  -6   87.39    4.30
  -3  -5  -6   92.99    4.70
  -3  -5  -6   90.99    4.00
   3  -5   6   91.49    3.90
   3  -5   6   90.39    4.70
  -3   5  -6   89.49    4.90
   3  -5  -6   92.19    4.00
  -3   5  -6   94.29    3.20
  -3   5  -6  106.29    4.40
  -3  -5   6   92.29    4.90
   3   5   6   95.29    4.40
  -3   5  -6   90.19    4.10
   4  -5   6  110.19    4.60
  -4  -5  -6  107.39    5.40
  -4   5   6  111.19    4.10
  -4  -5  -6  117.09    4.20
  -4  -5  -6  112.19    4.80
  -4   5  -6  110.89    3.80
   4  -5  -6  109.49    4.70
  -4   5  -6  111.39    3.90
   4   5   6  110.29    5.00
  -4  -5   6  110.19    3.90
  -5  -5  -6    7.70    0.80
  -5  -5  -6    6.50    0.70
  -5  -5  -6    6.30    1.10
  -5   5   6    8.00    0.90
  -5  -5  -6    7.80    0.80
  -5  -5  -6    6.50    0.80
   5   5  -6    6.30    0.70
  -5   5   6    9.60    0.90
   5  -5   6    7.40    1.10
  -5   5  -6    5.80    0.70
   5  -5  -6    9.90    1.40
  -5  -5   6    6.10    0.70
  -5   5  -6    5.80    0.70
  -5   5  -6    5.40    0.70
  -6   5   6   36.20    2.00
  -6  -5  -6   35.80    1.80
  -6  -5  -6   36.70    1.80
   6   5  -6   36.90    1.80
  -6  -5  -6   35.40    2.50
  -6   5   6   38.50    1.90
  -6   5  -6   38.10    1.90
  -6  -5   6   37.00    1.90
  -6   5  -6   37.70    1.80
  -6   5  -6   36.00    1.80
   7   5  -6  506.75   15.20
  -7  -5  -6  495.55   15.70
  -7   5   6  527.85   15.40
  -7  -5  -6  517.45   15.30
  -7   5  -6  496.85   15.30
  -7   5  -6  499.55   15.40
  -7  -5   6  511.65   15.40
   7   5   6  522.95   15.20
  -7   5  -6  508.05   15.30
  -8   5   6   32.70    1.70
   8   5  -6   33.00    1.60
  -8  -5  -6   36.00    1.70
  -8  -5  -6   36.30    1.90
  -8   5  -6   34.90    1.70
  -8   5  -6   34.80    1.70
  -8  -5   6   33.20    1.70
   8   5   6   33.60    1.60
  -8   5  -6   34.90    2.20
  -9   5   6  612.34   18.00
  -9  -5  -6  602.64   17.90
  -9  -5  -6  594.14   18.00
  -9   5  -6  626.14   18.00
  -9  -5   6  622.24   18.00
   0  -6  -6  160.48    5.90
   0  -6   6  162.78    7.00
   0   6   6  160.88    6.50
   0  -6   6  147.89    6.70
   0   6  -6  161.48    6.60
   0   6  -6  161.48    5.40
   0   6  -6  162.18    6.70
   0  -6   6  158.18    5.70
   1  -6   6  955.20   31.30
   1   6  -6 1038.70   30.90
  -1  -6  -6 1034.80   29.90
   1  -6   6  984.80   31.10
   1   6  -6  982.60   29.20
   1  -6   6  976.10   29.70
  -1   6   6  973.00   30.50
   1   6   6 1007.00   30.70
  -1   6  -6 1051.39   30.80
  -1  -6   6 1007.30   31.20
  -1   6  -6 1037.60   29.20
  -1  -6   6 1013.70   29.70
   1  -6  -6 1006.30   29.80
  -1   6  -6  982.80   30.80
   2  -6   6   10.90    1.20
  -2  -6  -6   10.30    1.20
  -2   6   6   11.00    1.30
   2   6  -6   10.40    1.40
  -2   6  -6   11.10    0.90
  -2   6  -6   14.50    1.00
   2   6   6   10.50    1.40
  -2   6  -6   12.20    1.70
   2  -6  -6   10.90    1.30
  -2   6  -6   10.20    1.30
  -2  -6   6   10.00    1.40
  -2  -6   6   10.00    0.90
  -2   6  -6   12.20    1.50
   3   6  -6  495.75   16.90
   3  -6   6  510.35   16.20
  -3  -6  -6  519.65   16.20
  -3  -6   6  506.05   15.10
  -3   6  -6  521.65   15.20
  -3   6  -6  503.85   15.10
   3   6   6  483.45   16.70
   3  -6  -6  515.75   16.20
  -4   6   6  109.09    3.80
   4  -6   6  104.89    4.80
  -4  -6  -6  103.59    3.80
  -4  -6  -6  105.59    3.80
   4   6  -6  108.29    3.70
  -4  -6  -6  105.29    4.80
  -4  -6  -6  103.79    4.10
  -4   6  -6  107.19    3.90
  -4   6  -6  105.09    3.80
  -4   6  -6  104.09    3.80
  -4  -6   6  106.29    3.80
   4  -6  -6  109.29    4.90
  -5  -6  -6  492.45   15.00
  -5   6   6  501.55   15.00
  -5  -6  -6  497.45   14.90
  -5  -6  -6  484.85   15.40
   5   6  -6  504.05   14.90
  -5   6  -6  513.75   15.00
  -5   6  -6  498.85   15.10
  -5  -6   6  488.55   15.00
  -5   6  -6  501.55   15.10
  -6  -6  -6  479.55   14.60
   6   6  -6  476.65   14.50
  -6  -6  -6  482.85   14.60
  -6   6   6  495.55   14.70
  -6   6  -6  500.25   14.70
  -6   6  -6  496.75   14.70
  -6  -6   6  471.65   14.70
  -6   6  -6  472.65   14.70
  -7   6   6  268.77    8.70
   7   6  -6  271.97    8.50
  -7  -6  -6  278.07    8.60
   7   6   6  277.67    8.50
  -7   6  -6  264.97    8.80
  -7  -6   6  274.27    8.70
  -7   6  -6  284.87    8.70
  -7   6  -6  265.17    8.60
  -8  -6  -6   61.49    2.40
   8   6  -6   60.39    2.40
  -8   6   6   62.49    2.50
  -8   6  -6   65.29    2.50
  -8   6  -6   64.99    2.50
  -8  -6   6   60.59    2.50
   8   6   6   59.59    2.40
  -9   6   6   77.49    2.80
  -9  -6  -6   75.99    2.70
   9   6   6   77.89    2.60
  -9  -6   6   74.99    2.70
  -9   6  -6   81.49    2.80
   9  -6  -6   84.19    2.80
   0   7  -6    0.90    0.60
   0   7  -6    0.40    0.30
   0  -7  -6    0.20    0.30
   0   7   6    1.10    0.70
   0  -7   6    0.30    0.40
   0   7  -6    0.10    0.30
   0  -7  -6    0.20    0.40
   1  -7   6  149.49    5.80
  -1   7   6  145.79    6.50
  -1  -7  -6  158.68    6.00
   1   7  -6  148.69    6.80
   1   7  -6  153.78    5.10
  -1  -7  -6  150.78    5.00
   1  -7  -6  150.38    5.90
  -1   7  -6  158.58    5.30
   1   7   6  146.29    6.60
  -1   7  -6  154.08    5.10
   1  -7  -6  154.28    5.00
  -1   7  -6  149.59    6.80
   2  -7   6  109.49    4.60
   2   7  -6  105.09    3.70
  -2   7   6  103.59    5.10
   2   7  -6  106.99    5.50
  -2  -7  -6  111.19    3.80
  -2  -7  -6  115.59    4.90
   2   7   6  105.09    5.30
  -2  -7   6  109.89    3.90
  -2   7  -6  110.29    5.50
  -2   7  -6  114.19    4.10
  -2   7  -6  108.49    3.90
   2  -7  -6  106.79    4.70
  -2   7  -6  106.99    3.80
  -3   7   6   20.30    1.30
  -3  -7  -6   17.10    1.10
  -3  -7  -6   18.50    1.20
   3   7  -6   19.50    1.10
   3  -7  -6   20.80    1.20
  -3   7  -6   20.10    1.20
  -3  -7   6   18.60    1.20
  -3   7  -6   19.40    1.20
  -3   7  -6   18.60    1.30
  -4  -7  -6    1.10    0.40
   4   7  -6    1.30    0.40
  -4  -7  -6    1.60    0.50
  -4   7   6    1.60    0.50
  -4   7  -6    1.30    0.40
  -4   7  -6    2.40    0.60
   4  -7  -6    2.00    0.60
  -4   7  -6    1.70    0.50
  -4  -7   6    1.40    0.50
  -5   7   6   16.40    1.20
  -5  -7  -6   15.70    1.10
   5   7  -6   16.60    1.10
   5   7   6   15.70    1.10
  -5   7  -6   17.60    1.30
  -5  -7   6   16.00    1.20
  -5   7  -6   14.50    1.10
  -5   7  -6   15.20    1.10
   6   7  -6   61.59    2.50
  -6   7   6   58.79    2.60
  -6  -7  -6   58.89    2.40
  -6  -7   6   56.89    2.50
  -6   7  -6   59.19    2.50
  -6   7  -6   58.29    2.70
   6   7   6   59.89    2.40
  -6   7  -6   59.09    2.50
  -7   7   6   49.60    2.20
  -7  -7  -6   48.50    2.10
   7   7  -6   51.99    2.10
  -7  -7   6   47.90    2.20
  -7   7  -6   49.80    2.20
   7   7   6   50.19    2.10
   7  -7  -6   52.99    2.20
  -7   7  -6   53.39    2.20
  -8   7   6    8.40    0.70
  -8  -7  -6    6.10    0.60
   8   7  -6    7.30    0.60
  -8  -7   6    6.80    0.70
   8  -7  -6    8.70    0.80
   8   7   6    7.50    0.60
  -8   7  -6    7.60    0.70
  -8   7  -6    7.60    0.70
   0  -8  -6    6.70    0.80
   0   8  -6    6.30    0.70
  -1  -8  -6  373.96   11.40
  -1  -8   6  372.96   11.40
   1  -8  -6  376.96   11.40
  -1   8  -6  376.36   11.50
  -1   8  -6  369.56   11.70
  -2  -8  -6  105.59    3.90
  -2   8  -6  121.49    4.00
  -2  -8   6  109.39    3.90
  -2   8  -6  106.79    4.20
  -2   8  -6  101.49    3.90
   2  -8  -6  108.99    3.90
  -3  -8  -6  471.85   14.30
   3   8  -6  492.85   14.30
  -3   8  -6  473.85   14.40
   3   8   6  471.75   14.20
   3  -8  -6  474.85   14.30
  -3  -8   6  464.85   14.40
  -3   8  -6  476.95   14.70
  -3   8  -6  486.45   14.50
  -4   8   6  124.09    4.40
   4   8  -6  127.09    4.30
  -4  -8  -6  121.69    4.30
   4   8   6  120.89    4.20
  -4  -8   6  119.19    4.30
  -4   8  -6  123.99    4.40
  -4   8  -6  121.29    4.40
   4  -8  -6  123.29    4.30
  -4   8  -6  123.89    4.60
  -5  -8  -6   51.29    2.20
   5  -8   6   47.70    2.10
   5   8  -6   51.09    2.20
  -5   8   6   50.59    2.20
  -5  -8   6   48.70    2.20
  -5   8  -6   49.90    2.30
  -5   8  -6   49.80    2.40
   5  -8  -6   49.60    2.20
   5   8   6   49.60    2.10
  -5   8  -6   52.39    2.30
  -6   8   6  118.19    4.10
   6   8  -6  113.09    4.00
  -6  -8  -6  116.99    4.00
   6  -8   6  113.59    3.90
   6  -8  -6  115.79    4.00
  -6   8  -6  116.79    4.10
  -6  -8   6  115.39    4.10
  -6   8  -6  116.99    4.10
   6   8   6  115.09    4.00
  -7   8   6   86.09    3.00
  -7  -8  -6   75.69    2.80
   7  -8   6   74.79    2.70
   7   8  -6   80.19    2.80
  -7   8  -6   78.59    2.90
   7  -8  -6   81.59    2.90
  -7  -8   6   76.19    2.90
   7   8   6   77.49    2.80
  -7   8  -6   81.09    2.90
  -8   8   6   16.70    0.90
   8  -8  -6   16.50    1.10
   8   8   6   17.90    1.00
   0  -9   6    0.00    0.30
   0  -9  -6    0.30    0.40
  -1  -9  -6  221.58    7.00
   1  -9  -6  214.38    7.00
  -1  -9   6  212.68    7.00
  -1   9  -6  223.88    7.10
  -2  -9  -6   41.90    1.90
  -2   9  -6   43.30    2.00
  -2  -9   6   40.20    1.90
  -2   9  -6   39.80    1.90
   2  -9  -6   42.10    1.90
  -2   9  -6   39.20    2.10
  -3  -9  -6   51.59    2.10
   3   9  -6   46.40    2.00
  -3  -9   6   48.10    2.10
  -3   9  -6   47.50    2.10
  -3   9  -6   46.30    2.30
   3  -9  -6   49.00    2.10
  -3   9  -6   49.20    2.20
  -4  -9  -6    9.40    0.80
   4   9  -6   10.20    0.80
   4   9   6    9.20    0.80
  -4  -9   6    9.30    0.90
  -4   9  -6   10.50    0.90
   4  -9  -6   10.30    0.90
  -4   9  -6    9.30    0.90
  -5  -9  -6    3.10    0.50
  -5   9   6    3.20    0.60
   5   9  -6    3.10    0.50
   5  -9  -6    2.70    0.50
  -5   9  -6    3.30    0.60
  -5   9  -6    3.30    0.60
  -5  -9   6    3.60    0.60
   5   9   6    4.60    0.60
  -6   9   6    8.10    0.70
   6   9  -6    6.60    0.60
  -6  -9  -6    5.90    0.60
  -6   9  -6    7.00    0.70
   6   9   6    6.80    0.60
   6  -9  -6    6.10    0.60
  -6  -9   6    6.60    0.60
  -6   9  -6    6.00    0.70
   7   9  -6   39.30    1.50
   7  -9  -6   39.40    1.50
   7   9   6   37.00    1.50
  -7   9  -6   39.30    1.60
   0 -10  -6   38.50    1.70
   0 -10   6   35.60    1.70
   1 -10   6  243.48    7.70
  -1 -10  -6  244.58    7.60
   1 -10  -6  247.58    7.70
  -1 -10   6  239.38    7.70
  -2 -10  -6  181.28    5.80
  -2  10  -6  183.48    5.90
  -2 -10   6  175.88    5.90
   2 -10  -6  184.48    5.90
  -3 -10  -6  214.88    6.80
  -3 -10   6  217.88    6.80
  -3  10  -6  212.48    6.80
   3 -10  -6  215.88    6.80
  -3  10  -6  223.68    6.90
  -4 -10  -6   11.90    0.80
  -4 -10   6   11.20    0.80
  -4  10  -6   12.10    0.90
   4 -10  -6   13.10    0.90
  -4  10  -6   12.00    0.90
   5  10  -6   53.29    2.00
  -5 -10  -6   52.99    2.00
  -5  10  -6   54.99    2.10
  -5  10  -6   56.49    2.10
   5 -10  -6   56.49    2.10
  -5 -10   6   57.09    2.20
   0 -11   6    0.30    0.30
   0 -11  -6    1.10    0.40
   1 -11   6    1.80    0.40
  -1 -11  -6    2.20    0.40
   1 -11  -6    1.60    0.40
  -1 -11   6    1.90    0.40
   2 -11   6   23.70    1.10
  -2 -11  -6   24.50    1.10
  -2 -11   6   23.60    1.10
   2 -11  -6   24.40    1.20
  -3 -11  -6   51.49    2.00
   3 -11  -6   50.99    1.90
   0   0  -7    0.60    0.20
   0   0  -7    1.40    0.30
   0   0   7    0.20    0.20
   0   0  -7    0.20    0.20
  -1   0   7    0.30    0.30
  -1   0  -7    0.60    0.20
  -1   0   7    0.20    0.20
  -1   0  -7    0.40    0.20
   1   0  -7    0.30    0.20
   1   0   7    0.60    0.30
   1   0   7    0.30    0.20
   1   0  -7    0.90    0.30
  -1   0  -7    0.80    0.30
  -2   0   7    0.20    0.20
  -2   0  -7    0.10    0.20
  -2   0  -7    0.30    0.20
  -2   0  -7    0.70    0.30
   2   0  -7    0.20    0.20
  -2   0  -7    0.20    0.20
   2   0  -7    0.70    0.30
  -2   0   7    0.80    0.30
   2   0   7    0.80    0.30
  -2   0  -7    0.50    0.10
  -2   0   7    0.90    0.40
  -3   0   7    0.30    0.30
  -3   0  -7    0.80    0.40
   3   0  -7    0.50    0.40
  -3   0  -7    0.60    0.30
  -3   0  -7    0.50    0.30
  -3   0   7    0.60    0.20
  -3   0   7    0.40    0.40
  -3   0  -7    0.80    0.20
   3   0   7    0.10    0.20
  -4   0  -7    0.20    0.30
  -4   0   7    1.20    0.30
  -4   0   7    0.50    0.40
  -4   0   7    0.40    0.30
  -4   0  -7    0.40    0.30
  -4   0   7    0.40    0.40
  -4   0  -7    0.30    0.20
  -5   0  -7    0.20    0.30
  -5   0   7    1.90    0.40
  -5   0   7    0.00    0.40
  -5   0   7    0.10    0.30
  -5   0  -7    0.80    0.40
  -5   0   7    0.80    0.40
  -5   0  -7    0.30    0.40
  -6   0  -7    0.00    0.30
  -6   0   7    0.20    0.40
  -6   0  -7    0.30    0.30
  -6   0  -7    0.20    0.20
  -6   0   7    1.20    0.40
  -6   0  -7    0.00    0.20
  -6   0   7    0.60    0.30
  -6   0   7    0.30    0.60
  -7   0   7    0.30    0.40
  -7   0  -7    0.50    0.30
  -7   0   7    0.80    0.40
  -7   0  -7    0.60    0.30
  -7   0  -7    0.30    0.40
   7   0  -7   -0.10    0.50
  -7   0  -7    0.30    0.30
  -8   0  -7    0.10    0.30
  -8   0  -7    0.00    0.30
  -8   0  -7   -0.20    0.30
   8   0  -7   -0.10    0.70
  -8   0  -7    0.60    0.40
  -8   0   7    0.10    0.30
  -9   0   7    0.90    0.40
  -9   0  -7    0.80    0.40
  -9   0  -7    0.20    0.30
   9   0  -7    0.40    0.70
  -9   0  -7    1.10    0.60
  -9   0  -7    0.90    0.40
 -10   0  -7    0.70    0.50
  10   0  -7   -0.10    0.50
 -10   0  -7    0.20    0.30
 -10   0   7    0.80    0.40
   0  -1   7    0.60    0.30
   0   1   7    0.80    0.30
   0   1  -7    0.30    0.20
   0  -1  -7    0.70    0.20
   0   1  -7    1.40    0.40
   0   1   7    0.30    0.20
   0   1   7    0.30    0.20
   0  -1  -7    0.20    0.20
   0  -1   7    0.50    0.20
   1  -1   7 2014.70   64.49
  -1  -1  -7 2183.98   63.19
   1   1  -7 2139.39   63.79
  -1   1   7 2224.88   62.29
   1  -1   7 2200.98   63.89
  -1  -1  -7 2069.69   60.89
  -1   1   7 2084.89   63.59
  -1   1   7 1957.50   62.99
  -1  -1  -7 1894.31   62.29
   1   1  -7 2203.18   64.89
  -1   1   7 2204.48   65.39
  -1   1  -7 2005.40   61.09
   1  -1  -7 2148.29   66.99
  -1   1  -7 2203.28   64.19
  -1  -1   7 2096.19   64.29
  -1  -1   7 1935.11   64.19
  -1   1  -7 2237.78   61.29
  -1  -1   7 1950.30   61.99
   1   1   7 2268.27   63.79
  -1   1  -7 2156.78   61.09
   1  -1  -7 2262.87   65.09
   1   1   7 2032.90   62.19
  -2  -1  -7   97.59    3.30
  -2   1   7   98.49    3.70
  -2  -1  -7   90.39    3.20
  -2   1   7   91.29    3.80
   2   1  -7   95.39    3.40
  -2  -1  -7   89.29    3.20
  -2  -1  -7   99.19    3.30
  -2   1   7   94.59    3.50
  -2   1   7   81.79    3.20
  -2  -1   7   93.29    3.80
  -2   1  -7   95.19    3.60
   2   1   7   98.39    3.10
  -2  -1   7   96.29    3.70
   2   1   7   94.29    3.50
  -2   1  -7   96.49    3.20
   2  -1  -7   91.39    3.00
  -2   1  -7   97.39    3.50
  -2  -1   7   88.09    2.90
  -2   1  -7   94.29    3.70
  -2  -1   7   84.69    3.50
   2  -1  -7   93.09    3.70
  -3   1   7  227.18    7.80
  -3  -1  -7  223.98    7.00
   3   1  -7  221.58    7.70
  -3   1   7  208.38    7.40
  -3  -1  -7  214.98    7.00
  -3  -1  -7  219.88    7.30
  -3   1   7  218.18    7.50
   3   1  -7  207.38    6.90
  -3   1  -7  222.08    7.10
  -3  -1   7  220.28    7.60
  -3  -1   7  222.38    7.70
  -3  -1   7  218.78    6.70
  -3   1  -7  223.58    7.60
   3  -1  -7  208.88    6.70
  -3  -1   7  222.38    7.70
  -3   1  -7  232.18    7.60
   3   1   7  211.08    7.10
  -3   1  -7  217.48    7.00
  -4  -1  -7    6.30    0.80
  -4   1   7    7.40    0.60
  -4   1   7    5.80    0.90
  -4  -1  -7    6.30    0.90
  -4   1   7    6.40    1.00
  -4  -1  -7    6.60    0.80
  -4   1   7    5.90    0.90
  -4   1  -7    6.30    0.80
  -4  -1   7    6.30    1.00
  -4  -1   7    6.40    1.00
  -4  -1   7    5.90    0.60
   4  -1  -7    5.70    0.60
  -4   1  -7    6.00    0.50
  -4  -1   7    5.70    1.00
  -4  -1   7    5.90    0.50
  -4   1  -7    5.80    0.90
  -5   1   7   81.09    4.20
  -5   1   7   83.49    3.10
  -5  -1  -7   80.19    2.80
  -5  -1  -7   83.89    3.60
  -5   1   7   84.89    4.30
  -5  -1  -7   83.29    3.60
  -5  -1  -7   81.19    4.00
  -5   1   7   82.19    4.30
  -5   1  -7   81.89    3.30
  -5  -1   7   86.89    3.10
  -5  -1   7   80.59    4.30
  -5   1  -7   81.49    3.60
  -5   1  -7   84.29    4.20
   5  -1  -7   79.79    3.30
  -5  -1   7   78.99    4.20
  -6   1   7    3.30    0.50
  -6  -1  -7    4.00    0.50
  -6   1   7    3.80    0.60
  -6  -1  -7    3.70    1.40
  -6  -1  -7    3.90    0.80
  -6  -1  -7    6.20    0.70
  -6  -1  -7    3.70    0.50
  -6  -1   7    3.60    0.60
  -6  -1   7    3.40    0.60
  -6   1  -7    3.10    0.60
  -6   1  -7    3.90    0.60
  -6   1  -7    2.50    0.70
  -6  -1   7    3.50    0.70
   6  -1  -7    3.20    0.70
  -6   1  -7    3.00    0.40
  -7   1   7    0.70    0.40
  -7   1   7    0.50    0.30
  -7  -1  -7    2.40    0.50
  -7  -1  -7    0.60    0.30
  -7   1   7    0.00    0.30
  -7  -1  -7    0.20    0.30
  -7   1  -7    1.10    0.40
  -7   1  -7    0.70    0.40
  -7   1  -7    0.20    0.30
  -7  -1   7    3.10    0.60
  -7   1  -7    0.30    0.30
   7  -1  -7   -0.70    0.40
  -7  -1   7    0.10    0.50
  -8  -1  -7  188.98    6.40
  -8  -1  -7  183.08    6.10
  -8  -1  -7  186.68    6.20
  -8   1   7  180.38    6.20
  -8  -1  -7  187.38    6.50
   8   1  -7  187.88    6.60
  -8   1  -7  180.98    6.40
  -8   1  -7  188.78    6.20
  -8   1  -7  188.38    6.20
  -8   1  -7  184.98    6.20
   8  -1  -7  187.28    6.50
  -8  -1   7  192.38    6.20
  -9  -1  -7   61.09    2.70
  -9  -1  -7   57.19    2.60
  -9  -1  -7   60.59    2.50
  -9  -1  -7   60.49    2.40
   9   1  -7   60.29    2.80
  -9   1   7   54.19    2.40
  -9   1  -7   61.69    2.50
  -9   1  -7   56.09    2.70
  -9  -1   7   55.89    2.40
   9  -1  -7   59.49    2.70
  -9   1  -7   60.29    2.60
 -10  -1  -7   77.79    3.10
  10   1  -7   72.69    2.90
 -10   1   7   74.29    2.70
 -10  -1  -7   76.49    2.70
  10  -1  -7   77.99    2.90
 -10  -1   7   74.09    2.80
 -10   1  -7   74.79    2.80
   0   2  -7  466.35   14.50
   0   2   7  517.65   14.40
   0   2  -7  504.05   14.40
   0  -2  -7  505.85   14.60
   0   2   7  461.25   14.40
   0  -2   7  474.55   14.90
   0  -2   7  514.65   14.70
   0  -2   7  450.95   13.90
   0   2  -7  427.16   14.30
  -1  -2  -7 2526.75   75.49
   1  -2   7 2641.24   80.59
   1   2  -7 2681.13   77.99
   1  -2   7 2891.51   79.29
  -1   2   7 2646.34   78.19
   1   2  -7 2729.83   77.99
  -1  -2  -7 2496.05   73.99
  -1   2   7 2756.62   77.29
   1  -2   7 2493.55   74.79
  -1  -2  -7 2636.54  117.69
  -1   2   7 2485.45   78.19
  -1   2   7 2247.08   74.89
  -1   2  -7 2531.25   76.09
   1  -2  -7 2316.57   74.79
   1  -2  -7 2666.43   77.99
  -1  -2   7 2653.33   81.09
   1   2   7 2734.73   78.49
  -1   2  -7 2489.55   80.49
  -1  -2   7 2633.14   74.19
   1   2   7 2560.54   74.79
  -1   2  -7 2637.84   89.19
  -1  -2   7 2291.27   77.29
  -1   2  -7 2750.72   78.59
  -1  -2   7 2452.85   76.79
  -2   2   7   16.60    1.00
   2   2  -7   18.40    1.20
  -2   2   7   17.80    1.30
  -2  -2  -7   17.30    1.20
   2  -2   7   15.80    0.90
  -2   2   7   19.00    1.10
   2   2  -7   16.80    1.30
  -2   2   7   17.30    1.40
  -2  -2  -7   16.60    1.00
  -2  -2  -7   16.20    1.00
   2  -2   7   17.00    1.30
  -2  -2   7   16.50    1.30
  -2  -2   7   17.40    1.40
  -2  -2   7   15.70    1.30
  -2   2  -7   15.50    0.80
  -2   2  -7   16.70    0.80
  -2   2  -7   17.10    1.40
  -2   2  -7   16.10    1.20
  -2  -2   7   15.70    0.80
   2   2   7   15.50    1.10
   2  -2  -7   16.80    1.30
   2  -2  -7   15.60    0.90
  -3   2   7  654.63   20.20
   3   2  -7  641.34   19.40
  -3  -2  -7  696.93   19.70
  -3  -2  -7  676.53   18.70
  -3  -2  -7  635.24   19.50
   3   2  -7  588.64   21.00
  -3   2   7  686.73   19.80
  -3   2   7  722.33   20.20
  -3  -2  -7  650.53   19.30
  -3   2  -7  675.13   20.30
  -3  -2   7  614.44   19.00
   3   2   7  648.44   19.50
  -3   2  -7  633.54   20.10
  -3   2  -7  649.93   19.00
  -3  -2   7  647.74   20.10
  -3   2  -7  576.64   18.80
  -3   2  -7  656.13   19.50
  -3  -2   7  678.73   20.30
  -3   2  -7  639.84   19.30
  -4   2   7   18.20    1.80
  -4   2   7   20.00    1.10
  -4   2   7   20.10    1.70
  -4  -2  -7   18.30    1.50
  -4  -2  -7   18.00    0.90
  -4   2   7   17.60    1.60
  -4  -2  -7   20.20    1.50
  -4  -2  -7   18.00    1.30
  -4   2  -7   19.10    1.80
  -4   2  -7   20.30    1.40
   4  -2  -7   18.90    1.20
  -4  -2   7   19.10    1.70
  -4   2  -7   18.80    1.70
  -4   2  -7   19.00    1.10
  -4  -2   7   19.20    1.80
  -5  -2  -7   24.30    1.70
  -5   2   7   23.10    2.10
  -5  -2  -7   26.50    1.90
  -5   2   7   25.50    1.40
  -5   2   7   24.20    2.20
  -5   2   7   23.60    2.10
  -5  -2  -7   22.70    1.20
  -5   2  -7   25.90    1.70
  -5   2  -7   24.40    1.50
  -5  -2   7   23.30    2.20
   5  -2  -7   24.70    1.50
  -5   2  -7   24.60    2.20
  -5   2  -7   23.40    2.10
  -6   2   7    8.00    0.70
  -6  -2  -7    7.60    0.80
  -6  -2  -7   11.20    0.90
  -6   2   7    8.80    0.90
   6  -2   7    9.00    1.10
  -6  -2  -7    8.10    1.10
  -6  -2  -7    8.40    0.90
  -6   2  -7    8.50    0.70
  -6  -2   7    7.20    0.90
   6  -2  -7    6.70    0.80
  -6  -2   7    8.70    0.80
  -7  -2  -7   58.99    2.50
  -7   2   7   57.79    2.50
  -7   2   7   59.39    2.70
  -7  -2  -7   60.99    2.70
  -7   2   7   59.29    2.50
  -7  -2  -7   63.19    2.50
   7  -2  -7   59.89    2.70
  -7   2  -7   59.29    2.40
  -7   2  -7   57.89    2.50
  -7  -2   7   58.69    2.70
  -7  -2   7   60.69    2.50
   8   2  -7    3.30    0.90
  -8  -2  -7    2.50    0.60
  -8   2   7    2.70    0.60
  -8  -2  -7    2.30    0.50
  -8  -2  -7    2.20    0.60
  -8   2   7    3.10    0.60
  -8  -2  -7    2.00    0.60
  -8   2  -7    2.50    0.60
  -8  -2   7    2.40    0.60
   8  -2  -7    3.00    0.70
  -8   2  -7    1.70    0.50
  -9   2   7   48.00    2.10
  -9  -2  -7   49.90    2.20
   9   2  -7   52.39    2.60
  -9  -2  -7   51.09    2.40
  -9  -2  -7   46.80    2.10
  -9   2  -7   47.70    2.10
  -9  -2   7   47.70    2.20
   9  -2  -7   50.89    2.30
 -10   2   7    3.40    0.50
 -10  -2  -7    3.30    0.70
  10   2  -7    2.10    0.60
 -10  -2   7    5.60    0.60
 -10   2  -7    4.30    0.50
  10  -2  -7    4.20    0.60
   0  -3   7    0.40    0.40
   0  -3  -7    1.00    0.30
   0   3  -7    0.40    0.30
   0  -3  -7    1.60    0.50
   0  -3   7    0.90    0.50
   0   3   7    0.40    0.30
   0  -3   7    0.50    0.20
   0   3  -7    1.90    0.50
  -1  -3  -7 3393.46   97.59
   1  -3   7 3363.46   95.99
   1   3  -7 3554.84   99.79
  -1   3   7 3209.48   97.69
  -1   3   7 3393.56   99.99
  -1  -3  -7 3298.37  100.19
  -1   3   7 3310.57  100.29
   1   3  -7 3080.49  100.39
   1  -3   7 3660.73  100.99
   1   3   7 2968.50   98.09
  -1   3  -7 3365.46  102.19
  -1  -3   7 3266.07  101.39
  -1   3  -7 3024.20   98.59
  -1  -3   7 3289.67  100.79
   1  -3  -7 3223.68   96.39
  -1   3  -7 3398.26   99.09
   1  -3  -7 3341.47   99.79
   1  -3  -7 3410.56   97.09
  -1  -3   7 3196.38   95.59
   2   3  -7  325.47    9.60
   2   3  -7  323.07   10.10
  -2   3   7  310.67   10.40
  -2   3   7  284.87    9.80
  -2  -3  -7  300.87    9.30
  -2  -3  -7  331.07    9.80
   2  -3   7  313.97    9.50
   2  -3   7  316.67   10.40
  -2  -3  -7  318.47   10.20
   2   3  -7  295.77   10.30
  -2   3   7  320.17   10.40
  -2   3  -7  314.57   10.70
  -2  -3   7  315.77   10.60
   2   3   7  289.17   10.00
  -2  -3   7  296.67    9.40
  -2   3  -7  317.67   10.10
   2  -3  -7  317.37    9.70
  -2  -3   7  294.77   10.40
  -2   3  -7  328.57    9.70
  -3   3   7  959.10   28.50
  -3  -3  -7  910.91   27.10
   3  -3   7  965.30   28.70
  -3   3   7  971.10   28.10
  -3   3   7  944.21   28.70
  -3  -3  -7  971.40   28.30
  -3   3   7  890.61   27.20
   3  -3   7  961.70   27.60
   3   3  -7  881.61   27.90
  -3  -3  -7  943.81   27.80
  -3  -3   7  906.71   27.50
   3  -3  -7  952.50   27.60
  -3   3  -7  947.81   28.00
   3   3   7  905.11   28.00
  -3  -3   7  935.61   28.40
  -3   3  -7  947.91   28.50
  -3   3  -7  991.20   29.00
  -3  -3   7  983.10   28.90
  -4  -3  -7  132.99    5.00
  -4   3   7  128.09    5.60
  -4   3   7  118.19    5.30
   4  -3   7  133.49    4.80
   4  -3   7  136.49    5.80
  -4   3   7  127.79    4.40
  -4  -3  -7  137.09    5.40
  -4   3   7  125.29    5.80
  -4  -3  -7  132.09    4.40
  -4   3  -7  136.49    6.00
  -4   3  -7  129.39    5.80
   4  -3  -7  131.79    4.70
   4   3   7  128.49    5.10
  -4  -3   7  131.59    5.90
  -4   3  -7  131.19    4.60
  -5   3   7    6.00    1.70
  -5  -3  -7    7.40    1.00
  -5  -3  -7    6.10    1.00
  -5   3   7    6.70    0.70
   5  -3   7    6.50    0.90
  -5  -3  -7    7.60    0.70
  -5   3   7    6.90    1.20
  -5   3  -7    6.80    0.80
   5  -3  -7    7.50    0.90
  -5   3  -7    6.20    1.30
  -5  -3   7    6.10    1.30
  -5   3  -7    6.60    1.30
  -6   3   7   71.99    3.00
   6   3  -7   73.39    2.70
   6  -3   7   70.19    3.50
  -6  -3  -7   70.89    3.60
  -6  -3  -7   69.39    2.70
  -6  -3  -7   75.09    2.80
  -6  -3  -7   71.99    3.00
  -6  -3  -7   72.59    3.00
  -6   3   7   68.49    2.80
  -6   3   7   71.39    2.70
   6  -3  -7   70.99    2.80
  -6  -3   7   67.49    2.80
  -6  -3   7   67.29    2.90
  -6   3  -7   70.29    2.60
  -6   3  -7   70.29    2.70
  -7  -3  -7    3.10    0.60
  -7  -3  -7    1.20    0.40
  -7  -3  -7    1.70    0.60
  -7   3   7    1.60    0.50
  -7   3   7    1.50    0.50
  -7   3   7    1.20    0.50
  -7  -3   7    0.80    0.60
   7  -3  -7    4.30    0.70
  -7   3  -7    1.80    0.50
  -7  -3   7    2.30    0.60
  -7   3  -7    1.60    0.50
   8   3  -7   29.60    1.90
  -8  -3  -7   27.00    1.50
  -8  -3  -7   27.40    1.70
  -8   3   7   24.80    1.50
  -8   3   7   24.70    1.40
  -8   3  -7   26.00    1.50
  -8   3  -7   27.10    1.50
  -8  -3   7   27.10    1.50
  -9  -3  -7    6.80    0.90
  -9   3   7    5.70    0.70
   9   3  -7    6.00    1.00
  -9   3   7    5.40    0.70
  -9  -3  -7    6.60    0.80
  -9   3  -7    6.80    0.70
  -9  -3   7    6.70    0.80
 -10  -3  -7    7.00    0.80
  10   3  -7    4.30    0.70
 -10  -3  -7    6.70    0.60
 -10  -3   7    6.70    0.60
 -10   3  -7    6.40    0.60
   0  -4   7  356.86   10.70
   0  -4  -7  363.76   11.40
   0  -4   7  321.47   11.80
   0   4  -7  333.07   11.50
   0   4   7  358.76   11.40
   0   4  -7  358.66   11.50
   0  -4   7  363.86   11.80
   0  -4  -7  358.96   11.70
   0   4  -7  347.17   10.50
   0  -4  -7  368.66   10.90
  -1   4   7    2.90    0.70
   1  -4   7    2.80    0.50
   1   4  -7    2.30    0.60
  -1   4   7    2.80    0.60
  -1  -4  -7    2.40    0.40
   1   4  -7    2.90    0.40
  -1  -4  -7    2.60    0.70
  -1  -4   7    2.20    0.40
  -1   4  -7    3.30    0.60
  -1   4  -7    2.80    0.40
  -1  -4   7    2.90    0.70
   1   4   7    2.80    0.70
  -1   4  -7    5.40    1.00
  -1  -4   7    3.50    0.80
   1  -4  -7    3.20    0.60
  -1   4  -7    2.70    0.70
   2   4  -7    5.20    0.90
   2  -4   7    5.20    1.00
   2  -4   7    5.60    0.70
  -2   4   7    5.10    0.90
  -2  -4  -7    7.90    0.80
   2   4  -7    4.80    0.50
  -2  -4  -7    6.20    0.60
  -2   4  -7    5.70    0.80
  -2  -4   7    5.20    0.60
   2   4   7    5.60    0.90
  -2   4  -7    5.50    1.00
  -2  -4   7    6.30    1.10
  -2   4  -7    5.70    0.40
  -2   4  -7    5.20    0.80
  -2  -4   7    5.50    0.90
   2  -4  -7    7.40    0.90
  -3   4   7   92.79    4.60
  -3  -4  -7   97.89    3.90
  -3  -4  -7   96.39    3.40
   3  -4   7   93.19    3.70
   3   4  -7   94.29    4.20
  -3   4   7   95.29    3.40
  -3  -4  -7   97.89    4.50
   3  -4   7   96.49    4.60
  -3   4  -7   98.39    3.90
  -3   4  -7   93.39    4.10
  -3  -4   7  100.69    4.80
   3   4   7   86.99    4.10
  -3   4  -7   87.69    3.00
  -3   4  -7   98.59    4.90
   3  -4  -7   97.69    3.90
   4  -4   7   19.00    1.40
  -4   4   7   17.50    1.90
  -4  -4  -7   17.40    1.70
   4  -4   7   18.10    1.90
  -4  -4  -7   17.00    1.10
  -4  -4  -7   17.50    1.50
   4   4   7   16.40    1.50
  -4   4  -7   18.50    1.40
  -4  -4   7   18.50    2.00
  -4   4  -7   18.90    2.00
   4  -4  -7   18.90    1.50
  -4   4  -7   18.20    0.90
  -5  -4  -7   34.60    1.80
  -5  -4  -7   39.10    2.40
   5  -4   7   32.80    2.10
  -5   4   7   32.80    1.80
  -5  -4  -7   30.20    1.70
  -5   4  -7   35.30    1.60
  -5   4  -7   33.50    1.50
   5  -4  -7   33.00    2.10
  -5  -4   7   34.30    1.60
  -6   4   7  226.88    7.30
  -6  -4  -7  219.68    7.20
  -6  -4  -7  227.58    7.50
  -6   4   7  229.38    7.50
  -6  -4  -7  228.78    7.30
  -6  -4  -7  211.08    7.40
   6   4  -7  229.48    7.20
  -6   4  -7  223.08    7.30
  -6   4  -7  221.58    7.10
  -6  -4   7  231.38    7.30
  -6   4  -7  228.38    7.20
  -7   4   7    5.90    1.10
  -7  -4  -7    7.60    0.80
  -7  -4  -7    8.30    0.90
  -7   4   7    5.90    0.80
  -7  -4  -7    6.20    0.90
  -7  -4  -7    5.80    0.90
   7   4  -7    6.60    0.70
  -7   4  -7    5.70    0.80
  -7   4  -7    7.80    0.80
  -7  -4   7    5.70    0.80
  -7   4  -7    5.50    0.70
  -8  -4  -7   66.69    2.80
  -8   4   7   69.89    3.60
  -8  -4  -7   75.39    3.00
  -8  -4  -7   68.29    3.00
  -8   4   7   69.19    2.80
   8   4   7   65.19    2.60
  -8  -4   7   69.89    2.80
  -8   4  -7   67.79    2.80
  -8   4  -7   68.49    2.80
  -9   4   7    1.80    0.50
  -9  -4  -7    1.20    0.40
  -9  -4  -7    0.70    0.40
  -9  -4   7    1.20    0.40
  -9   4  -7    1.60    0.40
 -10  -4  -7    3.90    0.50
   0   5  -7    0.50    0.40
   0  -5   7    0.20    0.40
   0  -5   7    0.20    0.40
   0   5  -7    0.10    0.30
   0   5  -7    0.30    0.20
   0  -5   7    0.30    0.30
   0  -5  -7    0.00    0.30
   1  -5   7   33.10    2.50
  -1   5   7   31.60    2.10
   1   5  -7   32.40    2.30
   1   5  -7   31.70    2.30
  -1  -5  -7   30.60    1.60
   1  -5   7   33.60    2.40
   1   5  -7   33.00    1.50
   1  -5   7   32.90    1.80
  -1  -5  -7   32.10    1.90
  -1   5  -7   34.80    2.20
  -1   5  -7   32.20    1.50
  -1   5  -7   32.20    2.50
  -1   5  -7   32.50    2.30
  -1  -5   7   32.20    2.40
   1   5   7   34.70    2.30
  -1  -5   7   31.20    2.30
   1  -5  -7   33.20    1.80
  -1  -5   7   29.30    1.70
  -2  -5  -7  103.49    4.20
   2   5  -7  104.59    3.70
  -2   5   7   98.49    4.70
  -2  -5  -7  101.09    4.80
  -2  -5  -7   97.79    3.70
   2   5  -7  105.59    4.70
  -2   5   7  105.99    4.50
   2  -5   7  100.39    5.00
   2  -5   7  101.79    4.10
  -2   5  -7  105.19    5.20
  -2   5  -7  101.79    4.60
   2   5   7  106.59    4.70
   2  -5  -7  103.29    4.10
  -2   5  -7  103.59    4.40
  -2   5  -7  100.69    3.50
  -2  -5   7  103.69    5.10
  -3  -5  -7    4.90    0.80
   3  -5   7    5.30    1.10
   3  -5   7    4.50    0.80
  -3  -5  -7    5.60    1.10
   3   5  -7    4.10    1.00
  -3  -5  -7    4.90    0.60
  -3   5   7    4.30    1.00
  -3   5  -7    4.70    1.10
  -3  -5   7    5.40    1.20
  -3   5  -7    4.40    0.90
  -3   5  -7    4.70    0.80
   3  -5  -7    5.80    1.00
   3   5   7    4.90    1.00
  -3   5  -7    5.20    0.50
  -4  -5  -7   41.30    2.10
  -4  -5  -7   43.40    2.60
   4  -5   7   42.10    2.40
  -4   5   7   43.90    2.10
  -4  -5  -7   41.80    3.00
   4   5   7   40.20    2.70
  -4   5  -7   41.90    1.90
  -4  -5   7   44.00    1.90
   4  -5  -7   44.50    2.60
  -4   5  -7   42.20    1.80
  -5   5   7   18.40    1.20
   5   5  -7   17.70    1.10
  -5  -5  -7   16.70    1.20
  -5  -5  -7   16.90    1.30
  -5   5   7   16.60    1.30
  -5  -5  -7   18.40    1.70
  -5  -5  -7   18.60    1.20
  -5  -5  -7   18.30    1.20
   5  -5   7   16.40    1.50
  -5   5  -7   16.80    1.10
  -5   5  -7   18.50    1.20
   5  -5  -7   18.20    1.80
  -5  -5   7   16.50    1.20
  -5   5  -7   17.00    1.10
  -6  -5  -7  571.54   18.00
   6   5  -7  593.54   17.60
  -6  -5  -7  586.84   17.80
  -6  -5  -7  579.44   17.60
  -6   5   7  596.44   17.70
  -6  -5  -7  594.24   17.60
  -6   5  -7  582.34   17.70
  -6   5  -7  589.74   17.60
  -6   5  -7  604.94   17.70
  -6  -5   7  614.04   17.70
  -7   5   7  230.08    7.60
   7   5  -7  232.78    7.50
  -7  -5  -7  242.18    7.60
  -7  -5  -7  230.08    7.90
  -7   5  -7  239.78    7.60
  -7   5  -7  229.88    7.50
  -7  -5   7  238.68    7.60
  -7   5  -7  230.28    7.60
  -8  -5  -7   31.90    1.60
   8   5  -7   32.90    1.60
  -8   5   7   33.20    1.70
  -8  -5  -7   33.90    1.80
   8   5   7   33.20    1.60
  -8   5  -7   31.60    1.60
  -8  -5   7   33.60    1.70
  -8   5  -7   34.40    1.70
  -9  -5  -7   75.09    3.00
  -9  -5  -7   82.79    2.90
  -9   5   7   83.39    3.00
  -9   5  -7   84.39    3.00
  -9  -5   7   80.99    3.00
   0   6  -7  121.49    5.50
   0  -6   7  114.19    4.50
   0   6  -7  123.19    4.20
   0  -6   7  110.19    5.50
   0  -6  -7  115.29    4.70
   0  -6   7  112.19    5.60
   0   6  -7  126.49    5.40
   0   6   7  117.89    5.30
   1   6  -7  904.21   27.40
  -1  -6  -7  879.81   26.40
   1  -6   7  887.21   26.10
   1   6  -7  912.31   25.70
  -1   6   7  866.31   27.00
   1  -6   7  811.72   27.50
   1  -6   7  866.71   27.90
   1   6   7  902.71   27.30
  -1   6  -7  899.11   25.60
  -1   6  -7  863.91   27.10
  -1   6  -7  869.51   27.30
   1  -6  -7  897.61   26.30
  -1  -6   7  839.32   27.60
  -2  -6  -7  158.78    6.00
   2   6  -7  165.18    6.80
   2  -6   7  156.88    5.90
  -2   6   7  157.48    6.40
  -2   6  -7  159.68    5.30
   2   6   7  152.68    6.60
  -2   6  -7  157.98    6.50
  -2  -6   7  155.18    5.20
   2  -6  -7  154.78    5.90
  -2   6  -7  150.98    5.10
  -2   6  -7  160.38    6.70
   3  -6   7   17.80    1.60
  -3  -6  -7   18.50    1.60
  -3  -6  -7   18.20    1.30
   3   6  -7   20.60    2.00
  -3  -6   7   19.10    1.10
   3  -6  -7   19.50    1.80
  -3   6  -7   19.20    1.10
  -3   6  -7   17.20    1.10
   3   6   7   16.70    1.80
  -4  -6  -7  306.77    9.40
   4   6  -7  305.57    9.30
  -4  -6  -7  295.87   11.00
  -4   6   7  295.77    9.30
   4  -6   7  283.57   10.40
  -4  -6  -7  301.57    9.30
  -4  -6  -7  301.17    9.70
   4  -6  -7  289.67   10.40
  -4   6  -7  301.07    9.40
  -4   6  -7  306.47    9.40
  -4  -6   7  299.47    9.40
  -4   6  -7  320.77    9.50
  -5  -6  -7   19.40    1.30
  -5   6   7   20.90    1.30
  -5  -6  -7   19.50    1.50
   5   6  -7   21.10    1.30
  -5  -6  -7   23.30    1.30
  -5   6  -7   21.50    1.30
  -5   6  -7   21.40    1.30
  -5   6  -7   21.50    1.30
  -5  -6   7   20.30    1.30
   6   6  -7   98.99    3.60
  -6   6   7   93.79    3.60
  -6  -6  -7   90.59    4.00
  -6  -6  -7   94.79    3.60
  -6  -6  -7   92.69    3.60
  -6   6  -7   97.09    3.70
  -6   6  -7  102.39    3.70
  -6  -6   7   96.49    3.70
  -6   6  -7   96.99    3.60
  -7   6   7  164.78    5.60
  -7  -6  -7  157.08    5.40
   7   6  -7  165.68    5.50
  -7  -6   7  163.98    5.60
  -7   6  -7  165.08    5.60
  -7   6  -7  167.68    5.60
   7   6   7  171.18    5.40
  -7   6  -7  155.48    5.60
  -8  -6  -7   16.20    1.00
   8   6  -7   14.50    1.00
  -8   6   7   16.50    1.10
  -8   6  -7   16.70    1.10
  -8   6  -7   15.00    1.00
  -8  -6   7   15.90    1.10
   8   6   7   15.00    1.00
  -9  -6  -7    8.50    0.60
  -9   6   7    8.00    0.70
   9   6   7    8.70    0.60
  -9   6  -7    8.80    0.70
   9  -6  -7    7.50    0.70
  -9  -6   7    7.50    0.60
   0  -7  -7    0.30    0.30
   0   7  -7    0.00    0.30
   0   7  -7    1.70    0.80
   0  -7  -7   -0.10    0.40
   0   7  -7    0.80    0.40
   0   7   7    1.20    0.70
   1   7  -7   83.59    4.70
   1   7  -7   90.59    3.50
   1   7  -7   90.29    3.30
  -1  -7  -7   89.59    3.20
  -1  -7  -7   91.89    4.10
   1  -7   7   88.39    3.90
  -1   7   7   88.89    4.60
  -1   7  -7   89.19    3.40
  -1   7  -7   92.09    3.50
  -1   7  -7   90.79    3.30
   1  -7  -7   85.89    4.00
   1   7   7   83.89    4.60
  -1   7  -7   87.69    4.80
   1  -7  -7   88.49    3.20
  -2   7   7  130.39    7.30
   2   7  -7  128.59    6.30
  -2  -7  -7  140.79    4.60
   2   7  -7  131.39    4.50
   2  -7   7  132.99    5.40
  -2  -7  -7  139.99    5.60
  -2  -7   7  138.69    4.70
   2  -7  -7  133.29    4.60
  -2   7  -7  136.99    4.80
  -2   7  -7  137.89    6.40
   2   7   7  132.99    6.20
  -2   7  -7  137.99    4.60
  -2   7  -7  139.89    4.70
   2  -7  -7  132.59    5.50
  -3  -7  -7  632.74   18.50
   3   7  -7  619.74   18.40
  -3  -7  -7  624.94   18.50
  -3   7  -7  638.74   18.70
  -3  -7   7  610.54   18.50
  -3   7  -7  621.24   18.60
   3  -7  -7  619.24   18.40
  -3   7  -7  625.74   18.50
   4   7  -7   10.50    0.90
  -4  -7  -7    8.40    0.80
  -4   7   7    8.70    0.90
  -4  -7  -7   10.50    0.90
  -4  -7   7    9.80    0.90
   4  -7  -7   10.60    1.00
  -4   7  -7   10.40    0.90
  -4   7  -7    9.90    1.00
  -4   7  -7    9.40    0.90
  -5  -7  -7    0.20    0.40
  -5  -7  -7    0.60    0.40
   5   7  -7    1.40    0.50
  -5   7   7    0.50    0.40
  -5   7  -7    1.20    0.50
   5  -7  -7    1.00    0.50
  -5   7  -7    0.50    0.40
  -5   7  -7    3.30    0.60
  -6   7   7    1.70    0.50
  -6  -7  -7    1.40    0.50
   6   7  -7    1.20    0.40
  -6   7  -7    3.00    0.70
  -6   7  -7    1.00    0.50
   6  -7  -7    2.10    0.60
  -6  -7   7    0.90    0.40
  -6   7  -7    0.90    0.40
   6   7   7    0.70    0.40
  -7   7   7  150.08    5.10
   7   7  -7  151.58    4.90
  -7  -7  -7  147.29    4.90
  -7  -7   7  147.99    5.00
   7   7   7  151.08    4.90
   7  -7  -7  144.39    4.90
  -7   7  -7  146.09    5.00
  -7   7  -7  148.39    5.00
   8   7  -7   18.50    1.00
  -8  -7  -7   17.10    1.00
  -8   7   7   17.50    1.10
   8  -7  -7   16.80    1.00
  -8   7  -7   18.80    1.00
  -8  -7   7   16.80    1.00
  -8   7  -7   19.70    1.10
   8   7   7   16.20    0.90
   0   8  -7  285.87    9.30
   0  -8  -7  293.17    9.00
   0   8  -7  288.67    9.10
  -1  -8  -7  334.27    9.90
  -1   8  -7  309.37    9.90
   1  -8  -7  324.67    9.90
  -1   8  -7  322.87   10.20
  -1   8  -7  314.97   10.00
  -1  -8   7  317.97    9.90
  -2  -8  -7  338.87   10.40
  -2  -8   7  332.97   10.40
   2  -8  -7  339.67   10.40
  -2   8  -7  342.37   10.70
  -2   8  -7  333.17   10.40
  -2   8  -7  333.67   10.40
  -3  -8  -7   58.79    2.50
   3   8  -7   59.49    2.40
   3   8   7   57.09    2.40
  -3   8  -7   60.09    2.60
  -3  -8   7   59.29    2.50
  -3   8  -7   65.49    2.60
  -3   8  -7   61.89    2.80
   3  -8  -7   61.99    2.50
  -4   8   7   13.30    1.00
  -4  -8  -7   12.60    1.00
   4   8  -7   13.10    1.00
   4  -8  -7   11.50    1.00
  -4   8  -7   12.90    1.00
  -4  -8   7   12.20    1.00
  -4   8  -7   12.90    1.10
  -4   8  -7   12.40    1.00
   4   8   7   12.50    0.90
  -5  -8  -7    9.10    0.80
  -5   8   7    9.30    0.90
   5   8  -7    8.30    0.80
   5  -8  -7    8.50    0.90
  -5   8  -7    8.40    0.90
  -5  -8   7    8.20    0.80
  -5   8  -7    7.80    0.90
  -5   8  -7    9.30    0.90
   5   8   7    9.30    0.80
   6   8  -7  157.18    5.20
  -6   8   7  157.38    5.30
  -6  -8  -7  163.98    5.30
   6  -8  -7  160.08    5.30
  -6   8  -7  165.58    5.40
  -6  -8   7  156.38    5.30
   6   8   7  154.98    5.20
  -6   8  -7  164.58    5.40
   7   8  -7   49.20    1.90
  -7   8   7   48.60    2.00
  -7  -8  -7   45.30    1.90
   7   8   7   49.00    1.90
  -7   8  -7   50.79    2.00
   7  -8  -7   50.49    2.00
  -7   8  -7   49.10    2.00
  -7  -8   7   48.80    2.00
   0  -9  -7   -0.60    0.30
   0  -9   7    0.70    0.40
  -1  -9  -7    4.00    0.70
  -1  -9   7    1.80    0.50
  -1   9  -7    2.30    0.50
   1  -9  -7    1.80    0.50
  -2  -9  -7   13.70    1.00
   2  -9  -7   14.20    1.00
  -2   9  -7   13.10    1.00
  -2   9  -7   12.30    1.00
  -2   9  -7   13.00    1.20
  -2  -9   7   13.30    1.00
   3   9  -7   20.60    1.20
  -3  -9  -7   21.40    1.30
   3  -9  -7   22.10    1.30
  -3  -9   7   21.30    1.30
  -3   9  -7   22.40    1.30
  -3   9  -7   22.00    1.30
  -3   9  -7   19.70    1.40
  -4  -9  -7    8.30    0.80
   4  -9  -7    7.50    0.80
  -4   9  -7    8.30    0.80
   4   9   7    7.00    0.70
  -4   9  -7    7.80    0.80
  -4  -9   7    8.00    0.80
  -5  -9  -7   65.29    2.50
  -5   9   7   66.19    2.60
   5   9  -7   66.69    2.50
   5   9   7   66.49    2.50
   5  -9  -7   68.19    2.60
  -5   9  -7   68.39    2.60
  -5   9  -7   70.39    2.70
  -5  -9   7   67.89    2.60
  -6   9   7    0.70    0.30
  -6  -9  -7    0.40    0.30
   6   9  -7    0.30    0.30
  -6   9  -7    0.30    0.30
   6   9   7    0.20    0.20
  -6  -9   7    0.90    0.30
  -6   9  -7    0.10    0.30
   6  -9  -7    0.10    0.30
   0 -10   7   13.40    1.00
   0 -10  -7   13.60    1.00
  -1 -10  -7   50.59    2.10
   1 -10   7   47.10    2.10
   1 -10  -7   50.09    2.10
  -1 -10   7   48.60    2.10
  -2 -10  -7   71.09    2.70
  -2  10  -7   68.79    2.70
  -2 -10   7   71.49    2.80
   2 -10  -7   74.79    2.80
  -3 -10  -7   32.60    1.50
  -3 -10   7   30.70    1.50
  -3  10  -7   31.30    1.50
   3 -10  -7   31.30    1.50
  -3  10  -7   32.20    1.50
  -4 -10  -7   78.19    2.80
   4 -10  -7   80.99    2.90
  -4  10  -7   80.19    2.90
  -4  10  -7   80.59    2.90
  -4 -10   7   77.99    2.90
   5  10  -7    0.80    0.20
  -5 -10  -7    0.60    0.30
  -5 -10   7    0.30    0.30
  -5  10  -7    0.20    0.30
   5 -10  -7    0.60    0.30
  -5  10  -7    1.00    0.30
   0 -11   7    0.20    0.30
   0 -11  -7    0.10    0.30
   1 -11   7    0.80    0.30
  -1 -11  -7    1.30    0.30
   1 -11  -7    1.10    0.30
  -1 -11   7    1.60    0.40
   2 -11   7   14.80    0.90
  -2 -11  -7   14.90    0.90
   2 -11  -7   16.50    0.90
  -2 -11   7   16.10    0.90
  -3 -11  -7   53.69    2.00
   3 -11  -7   52.49    2.00
   0   0  -8  411.76   12.70
   0   0  -8  418.06   12.70
   0   0  -8  449.95   13.00
   0   0   8  424.26   12.50
   0   0   8  438.26   13.10
  -1   0  -8 4568.64  132.89
  -1   0  -8 4825.72  151.78
   1   0   8 5136.79  137.69
   1   0  -8 5070.59  136.99
  -1   0   8 4383.16  138.89
   1   0   8 4755.92  134.49
   1   0  -8 4847.92  196.88
  -1   0   8 4086.59  144.89
  -1   0  -8 4715.33  136.59
  -1   0  -8 3993.40  147.99
  -2   0  -8  805.22   24.30
  -2   0  -8  804.62   24.00
  -2   0  -8  789.32   26.10
  -2   0   8  807.02   24.00
  -2   0   8  779.72   24.40
   2   0  -8  809.42   23.80
   2   0  -8  902.31   24.40
   2   0  -8  792.32   23.20
  -2   0  -8  844.82   23.90
  -2   0  -8  727.53   23.50
   2   0   8  872.71   24.50
  -2   0   8  850.11   24.20
  -3   0  -8   22.30    1.00
   3   0  -8   25.70    1.80
   3   0   8   20.30    1.30
  -3   0   8   24.40    1.80
  -3   0   8   23.80    1.10
  -3   0   8   22.40    1.60
  -3   0  -8   22.80    1.30
  -3   0  -8   22.30    1.00
  -3   0   8   23.00    1.60
  -4   0  -8  261.47    8.10
  -4   0  -8  259.57    9.00
  -4   0   8  244.88    7.90
  -4   0   8  266.97    9.20
  -4   0   8  246.38    9.20
  -4   0  -8  264.37    8.40
  -4   0   8  261.57   10.20
  -5   0   8  129.29    4.40
  -5   0  -8  129.29    5.00
  -5   0  -8  129.29    5.60
  -5   0   8  127.99    5.80
  -5   0  -8  127.09    4.70
  -5   0   8  131.59    5.90
  -6   0   8  443.76   12.70
  -6   0  -8  416.16   12.50
   6   0  -8  434.06   13.00
  -6   0   8  434.56   13.00
  -6   0  -8  413.96   12.60
  -6   0  -8  406.06   13.70
  -6   0  -8  411.36   12.90
  -7   0  -8 1076.99   31.90
   7   0  -8 1119.39   32.10
  -7   0  -8 1092.39   31.60
  -7   0  -8 1112.09   31.70
  -7   0   8 1058.99   31.60
  -8   0  -8    1.30    0.50
  -8   0  -8    1.80    0.60
  -8   0  -8    3.10    0.60
   8   0  -8    2.10    0.80
  -8   0  -8    1.40    0.50
  -8   0   8    2.40    0.60
  -9   0   8   73.19    2.80
  -9   0  -8   68.89    2.70
   9   0  -8   70.39    3.00
  -9   0  -8   65.29    2.80
  -9   0  -8   67.29    2.70
  -9   0  -8   67.19    3.00
 -10   0   8    3.10    0.50
 -10   0  -8    3.20    0.70
  10   0  -8    2.70    0.60
 -10   0  -8    3.50    0.50
   0  -1  -8    0.40    0.20
   0   1  -8    0.40    0.20
   0   1  -8    0.70    0.30
   0   1   8    0.70    0.30
   0  -1  -8    0.50    0.20
   0   1  -8    0.20    0.20
   0   1   8    0.20    0.20
   0  -1   8    0.20    0.20
   1  -1   8  405.46   12.20
  -1  -1  -8  364.16   11.60
   1   1  -8  409.96   11.90
   1  -1   8  372.76   11.80
  -1   1   8  395.66   11.90
  -1  -1  -8  398.56   11.60
   1   1  -8  409.46   12.00
  -1   1   8  388.56   11.40
  -1  -1  -8  385.26   11.40
  -1   1   8  378.86   11.80
  -1   1   8  401.46   12.10
   1   1   8  388.06   11.60
   1  -1  -8  365.96   11.90
  -1   1  -8  363.96   11.30
  -1   1  -8  397.66   11.30
  -1  -1   8  380.86   11.90
  -1  -1   8  353.66   11.70
   1  -1  -8  391.76   11.20
  -1  -1   8  405.86   12.30
  -1   1  -8  406.26   11.90
   1   1   8  388.66   11.90
  -1   1  -8  379.96   11.30
   2   1  -8  424.26   13.10
  -2  -1  -8  417.46   12.50
  -2   1   8  407.36   12.60
  -2  -1  -8  431.76   12.50
   2   1  -8  416.86   12.70
  -2   1   8  398.16   12.70
  -2   1   8  434.86   13.30
   2  -1   8  421.16   12.90
  -2  -1  -8  371.36   12.50
  -2   1   8  428.06   13.10
  -2  -1  -8  399.36   12.40
  -2   1  -8  436.16   12.90
   2  -1  -8  428.46   13.10
  -2  -1   8  417.46   12.90
  -2   1  -8  432.76   13.00
   2  -1  -8  425.06   12.20
  -2  -1   8  420.06   13.10
   2   1   8  450.25   12.90
  -2   1  -8  413.16   13.10
  -2  -1   8  430.36   13.30
   2   1   8  395.26   12.40
  -3   1   8   13.30    1.40
  -3   1   8   14.10    1.30
   3   1  -8   13.40    1.00
   3   1  -8   18.50    1.50
  -3   1   8   13.30    1.20
  -3  -1  -8   14.60    1.00
  -3  -1  -8   17.20    1.00
  -3  -1  -8   16.30    1.20
  -3   1  -8   14.20    1.10
  -3   1  -8   16.60    1.00
  -3  -1   8   13.00    1.30
   3  -1  -8   15.40    0.80
  -3   1  -8   13.00    1.20
  -3  -1   8   14.90    1.40
   3   1   8   12.90    1.00
  -4  -1  -8  359.56   12.30
  -4   1   8  400.46   12.70
  -4   1   8  369.16   12.60
  -4   1   8  374.76   11.40
  -4  -1  -8  407.86   12.00
  -4   1   8  383.26   13.00
  -4  -1  -8  386.36   11.90
  -4  -1   8  395.76   13.00
  -4   1  -8  386.36   11.90
  -4   1  -8  382.26   12.60
  -4   1  -8  380.46   12.70
  -4  -1   8  396.46   12.90
   4  -1  -8  354.26   11.50
  -4   1  -8  378.66   11.30
  -5  -1  -8  134.29    5.00
  -5  -1  -8  126.69    5.50
  -5   1   8  119.09    5.60
  -5  -1  -8  129.49    4.90
  -5  -1  -8  127.49    4.00
  -5   1   8  129.29    4.40
  -5   1   8  125.89    5.90
  -5   1  -8  124.69    5.60
  -5   1  -8  126.09    4.50
  -5   1  -8  128.59    4.90
  -5  -1   8  125.29    5.90
  -5  -1   8  127.79    5.80
  -6  -1  -8   42.70    2.10
  -6  -1  -8   44.00    1.90
  -6  -1  -8   44.60    2.60
  -6  -1  -8   44.30    1.90
  -6   1   8   42.50    1.90
  -6   1   8   45.10    2.10
  -6  -1   8   44.90    1.90
  -6   1  -8   44.00    1.90
   6  -1  -8   45.80    2.20
  -6   1  -8   41.30    2.00
  -6   1  -8   44.00    2.60
  -6  -1   8   47.70    2.20
  -7  -1  -8  418.16   13.30
  -7   1   8  456.35   13.40
  -7  -1  -8  426.76   13.40
  -7  -1  -8  464.15   13.50
   7   1  -8  440.46   13.80
  -7  -1  -8  459.45   13.80
  -7   1   8  470.25   13.40
  -7   1  -8  420.16   13.60
  -7   1  -8  436.56   13.30
  -7   1  -8  435.96   13.30
  -7  -1   8  446.46   13.40
   7  -1  -8  455.25   13.70
  -7   1  -8  430.46   13.40
  -8  -1  -8   81.49    3.30
  -8  -1  -8   78.39    3.30
  -8   1   8   76.49    3.00
  -8  -1  -8   75.49    3.10
   8   1  -8   81.59    3.50
  -8  -1  -8   76.89    3.00
  -8  -1   8   78.39    3.10
  -8   1  -8   73.59    3.20
   8  -1  -8   80.89    3.40
  -8   1  -8   77.99    3.00
  -8   1  -8   72.79    3.00
  -8   1  -8   76.99    3.10
   9   1  -8  207.68    6.90
  -9  -1  -8  205.08    6.90
  -9   1   8  209.68    6.60
  -9  -1  -8  208.98    6.70
  -9  -1  -8  206.08    6.90
  -9  -1  -8  200.78    6.50
  -9  -1   8  201.98    6.60
  -9   1  -8  185.28    7.00
  -9   1  -8  199.58    6.80
   9  -1  -8  205.88    6.80
  -9   1  -8  205.48    6.60
  10   1  -8  177.68    6.10
 -10   1   8  184.98    5.90
 -10  -1  -8  182.28    5.90
 -10  -1  -8  192.48    6.20
 -10  -1   8  194.88    6.00
  10  -1  -8  192.78    6.10
 -10   1  -8  184.68    5.90
   0   2  -8   93.89    3.60
   0   2   8   97.79    4.80
   0   2   8  102.99    3.80
   0   2   8  113.49    3.80
   0  -2   8   96.99    3.20
   0   2  -8  105.99    3.90
   0  -2  -8  101.99    3.40
   0  -2  -8  101.59    3.90
   0  -2   8  105.09    4.20
   0  -2   8  103.29    4.00
   1  -2   8  408.86   12.10
  -1  -2  -8  430.76   12.70
   1   2  -8  420.26   12.80
  -1  -2  -8  422.96   12.30
  -1   2   8  438.26   12.10
  -1   2   8  388.86   12.80
   1  -2   8  435.36   13.00
  -1   2   8  420.86   12.70
   1   2  -8  420.26   12.80
   1  -2   8  404.66   13.20
   1   2   8  403.86   12.20
   1   2   8  431.16   12.80
  -1   2  -8  364.66   12.20
  -1  -2   8  422.96   13.00
   1  -2  -8  413.86   12.20
  -1   2  -8  400.06   12.80
  -1   2  -8  420.76   12.30
  -1  -2   8  429.26   13.20
  -1  -2   8  381.46   11.90
   1  -2  -8  421.16   12.90
   2   2  -8  543.35   16.10
  -2  -2  -8  517.05   15.70
   2   2  -8  529.25   16.40
  -2   2   8  559.44   16.60
   2  -2   8  559.04   16.40
  -2  -2  -8  502.55   15.90
  -2   2   8  522.75   16.30
   2  -2   8  523.25   15.50
  -2   2   8  526.55   15.80
  -2   2   8  495.55   15.80
  -2  -2   8  500.15   16.40
   2  -2  -8  544.45   15.60
  -2   2  -8  537.35   15.30
  -2   2  -8  546.75   16.10
   2  -2  -8  490.45   16.30
   2   2   8  540.45   16.10
  -2   2  -8  550.34   16.70
  -2  -2   8  540.75   16.50
  -2   2  -8  510.55   15.30
   3  -2   8 1187.78   33.90
  -3  -2  -8 1146.29   32.40
  -3  -2  -8 1137.39   33.30
  -3   2   8 1105.49   34.00
  -3   2   8 1173.58   33.90
   3   2  -8 1160.18   33.30
  -3  -2  -8 1127.79   33.10
  -3   2   8 1190.28   33.50
  -3   2  -8 1139.59   33.90
   3  -2  -8 1131.29   32.80
  -3  -2   8 1199.88   34.10
  -3   2  -8 1179.58   39.50
  -3   2  -8 1126.79   33.30
  -3   2  -8 1109.39   33.00
  -3  -2   8 1152.98   34.00
  -3   2  -8 1058.59   35.40
  -3   2  -8 1126.99   34.00
   3   2   8 1017.90   33.20
  -4  -2  -8  292.27    9.60
  -4   2   8  287.47    8.70
  -4   2   8  271.77    9.80
  -4   2   8  284.37   10.30
  -4   2   8  304.47   10.60
  -4  -2  -8  286.37    9.30
  -4  -2  -8  277.67    8.50
  -4   2  -8  290.47   10.20
  -4   2  -8  288.17    9.20
   4   2   8  281.77   10.20
  -4   2  -8  290.17    8.70
  -4  -2   8  276.27   10.20
  -4  -2   8  280.67   10.10
  -4   2  -8  277.37   10.10
  -5   2   8  122.49    4.30
  -5   2   8  125.59    5.70
  -5  -2  -8  123.39    4.10
  -5  -2  -8  127.49    4.90
  -5  -2  -8  125.69    5.20
  -5   2   8  121.39    5.90
  -5  -2   8  121.09    5.90
  -5   2  -8  124.59    4.40
  -5   2  -8  120.69    5.70
  -5   2  -8  118.99    5.70
  -5  -2   8  128.59    5.80
  -5   2  -8  124.89    4.90
  -6  -2  -8  408.26   12.30
  -6  -2  -8  402.76   13.40
   6  -2   8  413.46   13.30
  -6   2   8  384.16   12.20
  -6  -2  -8  414.46   12.60
  -6  -2  -8  427.66   12.50
  -6   2   8  408.76   12.60
  -6   2   8  398.36   12.50
   6  -2  -8  426.66   12.50
  -6   2  -8  379.06   13.30
  -6   2  -8  417.36   12.30
  -6  -2   8  410.56   12.40
  -6  -2   8  414.86   12.50
  -7  -2  -8  332.37   10.70
  -7  -2  -8  333.37   10.40
  -7   2   8  316.37   10.20
   7   2  -8  339.97   10.70
  -7   2   8  331.47   10.40
  -7  -2  -8  350.46   10.60
  -7  -2   8  347.27   10.40
  -7   2  -8  323.47   10.20
  -7   2  -8  327.97   10.30
   7  -2  -8  342.97   10.50
  -8   2   8  132.59    4.70
  -8  -2  -8  135.99    5.00
  -8  -2  -8  133.59    4.70
  -8  -2  -8  138.49    4.70
  -8   2   8  126.19    4.70
   8   2  -8  142.99    5.10
  -8  -2  -8  136.29    5.00
  -8   2  -8  132.49    4.70
  -8   2  -8  127.59    4.70
  -8  -2   8  142.79    4.80
   8  -2  -8  142.19    4.90
  -9  -2  -8  184.98    6.20
  -9   2   8  172.98    5.80
  -9  -2  -8  178.18    5.90
   9   2  -8  176.08    6.10
  -9  -2   8  174.08    5.90
   9  -2  -8  175.78    6.00
  -9   2  -8  180.28    5.80
 -10  -2  -8   86.09    3.20
  10   2  -8   75.79    3.00
 -10   2   8   76.89    2.80
 -10   2  -8   81.09    2.90
 -10  -2   8   84.19    2.90
  10  -2  -8   81.99    3.00
   0  -3  -8    0.50    0.30
   0   3  -8    0.30    0.30
   0  -3   8    0.10    0.30
   0   3  -8    0.80    0.40
   0   3   8    0.10    0.30
   0  -3  -8    0.60    0.40
   0  -3   8    1.20    0.30
   1   3  -8   75.69    3.30
   1  -3   8   78.49    3.50
  -1   3   8   66.99    3.20
   1   3  -8   81.99    3.40
  -1  -3  -8   73.99    2.90
   1  -3   8   76.09    3.70
   1   3  -8   73.29    2.60
  -1   3   8   78.29    3.20
   1  -3   8   75.09    2.70
  -1  -3  -8   74.89    3.30
  -1  -3  -8   73.49    2.60
  -1  -3   8   79.99    3.60
  -1   3  -8   79.39    3.40
  -1   3  -8   75.69    3.70
   1   3   8   75.39    3.30
  -1   3  -8   79.49    3.00
  -1  -3   8   69.69    2.60
   1  -3  -8   74.69    3.40
  -1  -3   8   74.69    3.60
   1  -3  -8   77.79    2.80
   2   3  -8  234.78    8.50
   2   3  -8  234.28    7.40
   2  -3   8  239.88    7.60
  -2  -3  -8  238.38    7.80
   2   3  -8  241.58    8.30
  -2  -3  -8  241.98    7.40
   2  -3   8  249.58    8.60
  -2   3   8  264.67    8.70
  -2  -3  -8  254.57    8.30
   2   3   8  251.77    8.30
  -2   3  -8  242.08    8.20
  -2   3  -8  229.98    8.70
   2  -3  -8  260.67    7.80
  -2   3  -8  244.78    7.70
  -2  -3   8  233.88    8.60
  -2  -3   8  237.38    8.60
   3   3  -8  382.36   13.00
  -3   3   8  405.26   12.30
   3  -3   8  417.06   12.60
  -3  -3  -8  419.36   12.80
   3  -3   8  415.96   13.70
  -3   3   8  391.96   13.00
  -3  -3  -8  418.46   13.30
  -3   3   8  401.76   13.70
  -3  -3  -8  418.76   12.20
   3   3   8  420.96   13.10
  -3  -3   8  394.46   13.50
  -3   3  -8  423.26   12.50
   3  -3  -8  422.76   12.70
  -3   3  -8  431.86   14.00
  -3  -3   8  423.96   13.90
  -4   3   8  581.24   18.90
  -4  -3  -8  577.84   17.00
  -4   3   8  557.44   17.00
  -4  -3  -8  582.74   17.70
  -4   3   8  624.14   19.30
   4  -3   8  603.04   18.80
   4  -3   8  593.94   17.50
  -4  -3  -8  599.24   18.30
  -4   3  -8  553.84   17.20
  -4  -3   8  548.95   18.40
   4   3   8  520.35   17.70
   4  -3  -8  574.54   17.40
  -4  -3   8  562.64   18.90
  -4   3  -8  595.04   19.00
   5  -3   8  374.26   11.80
  -5  -3  -8  349.77   11.00
  -5  -3  -8  369.76   12.50
  -5   3   8  360.26   11.10
  -5  -3  -8  365.16   11.10
  -5  -3  -8  358.66   11.90
  -5  -3   8  362.86   11.10
   5  -3  -8  359.26   11.50
  -5   3  -8  355.36   13.10
  -5   3  -8  361.56   11.10
  -5   3  -8  359.96   11.30
   6   3  -8  134.99    4.70
   6  -3   8  142.99    5.70
  -6  -3  -8  147.79    5.00
  -6  -3  -8  146.99    4.90
  -6  -3  -8  141.69    5.10
  -6   3   8  139.69    4.90
  -6  -3  -8  141.39    5.90
  -6   3   8  145.19    5.10
  -6  -3  -8  133.29    4.80
  -6  -3   8  142.29    5.00
  -6  -3   8  140.29    4.90
   6  -3  -8  144.69    4.90
  -6   3  -8  141.79    4.80
  -7  -3  -8    3.90    0.70
  -7   3   8    3.90    0.70
  -7  -3  -8    6.70    0.80
  -7  -3  -8    3.10    0.60
  -7  -3  -8    4.20    0.70
   7   3  -8   10.10    1.20
  -7  -3   8    4.30    0.70
  -7   3  -8    4.40    0.70
  -7   3  -8    3.90    0.60
   7  -3  -8    6.30    0.80
  -8   3   8  159.28    5.60
  -8   3   8  161.18    5.50
  -8  -3  -8  169.48    5.90
   8   3  -8  163.98    5.90
  -8  -3  -8  176.78    6.00
  -8  -3  -8  174.58    5.70
   8  -3  -8  162.98    5.70
  -8   3  -8  159.58    5.60
  -8   3  -8  168.58    5.60
  -8  -3   8  176.18    5.70
   9   3  -8    8.10    1.10
  -9  -3  -8    9.70    1.00
  -9  -3  -8    8.80    0.80
  -9   3   8    9.80    0.80
   9  -3  -8   10.90    0.90
  -9   3  -8    9.30    0.80
  -9  -3   8    8.40    0.80
 -10  -3  -8  165.88    5.20
 -10  -3  -8  159.58    5.30
 -10   3  -8  154.98    5.10
 -10  -3   8  166.48    5.20
   0  -4  -8   99.09    3.50
   0   4  -8  101.29    3.40
   0  -4   8  102.29    4.70
   0   4  -8  106.99    4.30
   0   4  -8  101.19    4.40
   0  -4   8  100.09    4.50
   0  -4  -8  102.79    3.80
   0  -4  -8  108.89    4.60
   0   4   8  103.09    4.30
   0  -4   8  106.19    3.60
   1  -4   8  522.95   16.90
   1   4  -8  525.15   15.50
   1  -4   8  521.85   17.20
  -1  -4  -8  519.65   15.90
   1   4  -8  526.65   16.60
  -1  -4  -8  545.15   15.60
   1  -4   8  506.75   15.80
  -1  -4  -8  534.45   16.70
   1   4  -8  543.25   16.70
  -1   4   8  526.25   16.40
  -1   4  -8  536.15   16.30
  -1   4  -8  542.95   16.70
   1  -4  -8  492.95   15.80
  -1  -4   8  531.05   15.80
   1   4   8  558.24   16.60
  -1  -4   8  527.75   16.90
  -1   4  -8  537.75   17.20
  -1  -4   8  483.85   16.80
  -1   4  -8  524.05   15.30
  -2   4   8  485.35   16.30
   2  -4   8  530.05   16.60
   2   4  -8  499.65   16.30
  -2  -4  -8  521.45   15.50
  -2   4   8  527.75   15.80
   2   4  -8  492.95   16.10
  -2  -4  -8  504.75   15.00
  -2  -4  -8  495.55   16.20
   2   4  -8  512.85   15.00
   2  -4   8  505.95   15.30
  -2   4  -8  488.95   14.60
  -2   4  -8  511.05   16.10
   2   4   8  520.65   16.10
  -2  -4   8  504.95   16.40
  -2   4  -8  476.75   16.70
  -2   4  -8  543.95   15.70
   2  -4  -8  513.85   15.40
  -2  -4   8  484.45   16.60
  -3  -4  -8  766.82   21.90
   3   4  -8  698.43   22.90
  -3  -4  -8  800.62   22.60
   3  -4   8  756.42   23.60
   3  -4   8  762.52   22.20
  -3   4   8  673.53   23.50
  -3  -4  -8  778.62   23.30
  -3  -4   8  685.93   23.20
   3   4   8  776.12   23.10
  -3   4  -8  752.32   22.40
   3  -4  -8  723.33   22.40
  -3  -4   8  788.72   23.90
  -3   4  -8  751.12   22.90
  -3   4  -8  756.82   23.90
   4  -4   8  198.08    8.20
  -4   4   8  197.98    6.50
  -4  -4  -8  201.98    6.50
  -4  -4  -8  201.68    7.80
  -4  -4  -8  200.98    7.10
  -4   4   8  208.08    8.40
   4  -4   8  198.48    6.90
  -4   4  -8  198.58    6.90
  -4   4  -8  192.28    8.30
  -4  -4   8  195.78    8.30
   4  -4  -8  195.98    7.00
   4   4   8  179.58    7.20
  -5  -4  -8   70.69    3.60
  -5   4   8   72.99    3.00
  -5  -4  -8   73.49    3.00
  -5   4   8   70.59    3.00
  -5  -4  -8   80.99    3.00
   5  -4   8   73.39    3.50
  -5  -4  -8   73.29    2.90
   5  -4  -8   73.59    3.50
   5  -4  -8   71.69    2.70
  -5  -4   8   72.19    2.80
  -5   4  -8   72.29    2.80
  -5   4  -8   71.29    2.60
  -6  -4  -8  625.64   18.70
  -6  -4  -8  631.14   19.00
   6   4  -8  659.63   18.60
  -6  -4  -8  627.74   18.90
  -6   4   8  626.54   18.70
  -6  -4  -8  644.64   18.70
  -6  -4   8  638.94   18.80
   6  -4  -8  595.74   18.60
  -6   4  -8  654.63   18.70
  -6   4  -8  622.34   18.50
  -6   4  -8  605.24   18.70
  -7  -4  -8    5.00    0.80
  -7  -4  -8    6.20    0.80
   7   4  -8    5.00    0.70
  -7  -4  -8    7.00    0.90
  -7   4   8    5.20    0.70
  -7   4  -8    5.20    0.70
  -7   4  -8    6.70    0.80
  -7  -4   8    5.30    0.80
  -7   4  -8    5.50    0.70
  -8  -4  -8  192.18    6.30
  -8  -4  -8  180.88    6.40
  -8  -4  -8  183.08    6.00
  -8   4   8  181.58    6.10
  -8   4  -8  183.68    6.00
  -8   4  -8  179.38    6.00
   8   4   8  178.08    5.90
  -8  -4   8  177.68    6.10
  -9  -4  -8   27.80    1.60
  -9   4   8   29.80    1.50
  -9  -4  -8   29.10    1.50
  -9  -4   8   27.50    1.50
  -9   4  -8   28.90    1.40
 -10  -4  -8    1.20    0.30
   0  -5   8    1.30    0.70
   0  -5  -8    0.10    0.30
   0   5  -8    0.40    0.20
   0  -5   8    0.70    0.30
   0   5  -8    1.70    0.70
   0  -5   8    0.30    0.40
   0   5  -8    0.50    0.40
   0   5   8    1.00    0.50
   1   5  -8  297.07   10.30
  -1  -5  -8  293.07    9.00
  -1  -5  -8  282.27    9.40
   1   5  -8  296.07    9.00
   1  -5   8  295.77   10.90
   1  -5   8  284.47   10.50
   1   5  -8  287.57   10.20
  -1   5   8  277.47    9.90
   1  -5   8  289.37    9.30
  -1   5  -8  288.97   10.20
  -1   5  -8  308.77   10.00
   1  -5  -8  282.27    9.30
  -1  -5   8  292.27   10.60
  -1  -5   8  279.17   10.40
   1   5   8  286.47   10.10
  -1   5  -8  293.47    8.80
  -2   5   8  200.28    7.40
   2  -5   8  198.58    8.10
   2  -5   8  201.38    7.00
  -2  -5  -8  200.38    7.90
  -2  -5  -8  201.88    6.60
  -2   5   8  196.58    7.70
  -2  -5  -8  201.38    7.10
   2   5  -8  201.38    6.50
   2   5  -8  200.28    7.70
   2   5   8  211.08    7.70
   2  -5  -8  208.18    7.00
  -2   5  -8  202.68    7.70
  -2  -5   8  203.98    8.20
  -2  -5   8  194.48    7.80
  -2   5  -8  190.18    6.20
  -2   5  -8  208.48    7.40
  -2   5  -8  199.98    8.30
  -3  -5  -8  380.26   11.40
  -3   5   8  354.16   13.00
   3  -5   8  374.26   13.20
  -3  -5  -8  385.96   12.00
   3   5  -8  363.66   12.60
   3  -5   8  364.96   11.80
  -3  -5  -8  354.16   12.80
   3  -5  -8  372.06   11.90
  -3   5  -8  362.26   12.40
  -3   5  -8  346.87   13.30
  -3   5  -8  357.26   10.90
   3   5   8  376.06   12.50
  -3  -5   8  367.66   13.30
  -3   5  -8  361.56   12.00
  -4  -5  -8   15.30    2.70
  -4  -5  -8   15.30    1.50
  -4  -5  -8   17.50    1.20
   4  -5   8   15.50    1.40
  -4  -5  -8   14.90    1.00
  -4  -5   8   18.30    1.10
  -4   5  -8   16.50    1.00
   4  -5  -8   18.00    1.70
   4   5   8   15.80    1.70
  -4   5  -8   14.70    1.00
  -5  -5  -8   88.39    3.30
  -5  -5  -8   79.39    3.30
  -5   5   8   89.79    3.30
   5   5  -8   89.29    3.20
   5  -5   8   87.49    4.20
  -5  -5  -8   90.59    3.30
  -5  -5  -8   91.79    3.60
   5  -5  -8   83.09    4.20
  -5   5  -8   85.89    3.20
  -5  -5   8   85.79    3.30
  -5   5  -8   87.19    3.30
  -5   5  -8   85.79    3.30
  -6   5   8   21.90    1.40
  -6  -5  -8   22.20    1.30
  -6  -5  -8   21.40    1.30
   6   5  -8   21.60    1.30
  -6  -5  -8   21.20    1.40
  -6  -5  -8   22.40    1.60
  -6   5  -8   22.20    1.30
  -6   5  -8   21.60    1.40
  -6  -5   8   24.80    1.40
  -6   5  -8   21.80    1.30
  -7  -5  -8   13.80    1.10
  -7  -5  -8   13.90    1.10
  -7   5   8   14.20    1.10
   7   5  -8   14.30    1.00
  -7  -5  -8   13.90    1.20
  -7  -5  -8   14.00    1.20
  -7   5  -8   13.90    1.10
  -7   5  -8   14.10    1.10
  -7  -5   8   13.30    1.10
  -7   5  -8   16.60    1.10
   8   5  -8  225.58    7.00
  -8   5   8  222.18    7.20
  -8  -5  -8  217.28    7.10
  -8  -5  -8  220.88    7.30
  -8   5  -8  221.68    7.10
   8   5   8  219.18    7.00
  -8   5  -8  226.98    7.20
  -8  -5   8  228.48    7.20
  -9  -5  -8    0.90    0.40
  -9  -5  -8    0.60    0.40
  -9   5   8    1.10    0.40
  -9  -5   8    0.90    0.40
  -9   5  -8    0.70    0.30
   0  -6   8  435.36   15.50
   0   6  -8  459.75   15.10
   0  -6   8  449.46   15.60
   0   6  -8  459.15   13.60
   0   6   8  446.46   15.00
   0   6  -8  449.95   15.20
   0  -6  -8  444.46   14.20
   1   6  -8 1275.07   38.90
   1  -6   8 1324.47   37.60
  -1   6   8 1301.17   38.60
   1  -6   8 1153.78   39.30
   1   6  -8 1241.18   37.10
  -1  -6  -8 1313.87   37.90
   1   6  -8 1308.87   37.10
   1  -6  -8 1296.27   37.80
  -1   6  -8 1239.48   37.10
  -1   6  -8 1372.66   37.10
  -1   6  -8 1274.77   38.90
  -1   6  -8 1275.67   38.60
   1   6   8 1297.37   38.80
   2  -6   8   61.59    3.00
   2   6  -8   62.09    3.70
  -2   6   8   56.19    3.30
  -2  -6  -8   61.39    3.10
   2   6   8   63.39    3.70
  -2   6  -8   64.39    2.50
  -2   6  -8   65.99    3.80
   2  -6  -8   62.89    3.10
  -2  -6   8   63.79    2.50
  -2   6  -8   64.29    2.50
   3  -6   8  232.28    8.30
  -3  -6  -8  234.68    7.30
  -3  -6  -8  241.78    7.70
   3   6  -8  221.38    7.20
   3   6  -8  222.28    9.00
  -3  -6  -8  229.88    8.30
   3  -6  -8  221.98    7.20
  -3   6  -8  235.08    7.30
  -3  -6   8  243.68    7.40
   3   6   8  220.68    8.80
  -3   6  -8  227.98    7.40
   3  -6  -8  227.88    8.20
  -3   6  -8  234.18    7.40
   4   6  -8  814.32   23.60
  -4  -6  -8  794.72   23.60
  -4   6   8  826.82   23.70
   4  -6   8  769.62   25.10
  -4  -6  -8  817.72   24.10
  -4  -6  -8  827.82   23.70
  -4   6  -8  821.22   23.80
  -4   6  -8  839.62   23.70
   4  -6  -8  770.12   25.30
  -4   6  -8  792.92   23.70
  -4  -6   8  810.62   23.70
  -5  -6  -8   15.80    1.20
  -5  -6  -8   16.60    1.40
   5   6  -8   19.20    1.20
  -5   6   8   16.60    1.20
  -5  -6  -8   18.10    1.20
  -5   6  -8   15.10    1.20
  -5   6  -8   18.50    1.20
  -5  -6   8   23.00    1.40
  -5   6  -8   17.60    1.20
  -6  -6  -8   81.39    3.10
   6   6  -8   83.79    3.00
  -6  -6  -8   75.99    3.00
  -6   6   8   72.89    3.00
  -6  -6  -8   70.79    3.30
  -6  -6   8   74.99    3.10
  -6   6  -8   72.99    3.00
  -6   6  -8   77.89    3.10
  -6   6  -8   76.59    3.10
  -7   6   8    3.50    0.70
  -7  -6  -8    3.20    0.60
   7   6  -8    3.10    0.60
   7   6   8    3.30    0.60
  -7  -6   8    3.30    0.60
  -7   6  -8    3.60    0.60
  -7   6  -8    3.70    0.70
  -7   6  -8    4.30    0.70
  -8  -6  -8    2.70    0.50
  -8   6   8    2.40    0.50
   8   6  -8    2.30    0.40
  -8   6  -8    2.30    0.50
  -8  -6   8    2.60    0.50
   8   6   8    2.40    0.50
  -8   6  -8    2.30    0.50
  -9  -6  -8   47.30    1.80
  -9   6   8   45.90    1.80
   9  -6  -8   46.70    1.80
   0  -7  -8    0.50    0.30
   0   7  -8    1.10    0.40
   0  -7  -8    0.30    0.40
   0   7  -8    0.70    0.60
   0   7   8    1.00    0.70
   0   7  -8    2.30    0.50
   1   7  -8   23.20    2.30
  -1  -7  -8   21.10    1.80
  -1  -7  -8   22.90    1.30
   1   7  -8   23.00    1.40
  -1   7   8   22.00    2.10
  -1   7  -8   22.90    1.30
   1  -7  -8   23.00    1.30
   1   7   8   24.10    2.30
  -1   7  -8   22.50    1.30
  -1   7  -8   21.60    2.20
  -1  -7   8   23.90    1.30
  -1   7  -8   27.10    1.50
   1  -7  -8   22.00    1.80
   2   7  -8   45.60    1.90
   2   7  -8   46.30    4.10
  -2  -7  -8   45.30    2.00
  -2   7  -8   48.10    2.10
  -2   7  -8   46.00    2.10
  -2   7  -8   45.20    2.20
  -2   7  -8   47.70    3.30
   2  -7  -8   42.90    1.90
   2  -7  -8   44.30    2.80
  -2  -7   8   45.20    2.00
  -3  -7  -8    0.50    0.30
  -3  -7  -8    0.40    0.30
   3   7  -8    0.90    0.30
  -3   7  -8    1.10    0.40
  -3  -7   8    0.70    0.40
   3  -7  -8    0.60    0.40
  -3   7  -8    0.70    0.40
  -3   7  -8    0.70    0.40
   4   7  -8   31.90    1.60
  -4  -7  -8   31.20    1.60
  -4   7   8   30.20    1.60
  -4  -7  -8   29.30    1.60
  -4   7  -8   31.80    1.70
  -4   7  -8   31.40    1.70
  -4   7  -8   29.70    1.70
   4  -7  -8   31.90    1.60
  -4  -7   8   30.50    1.60
   5   7  -8   28.80    1.60
  -5  -7  -8   29.50    1.60
  -5   7   8   28.90    1.60
  -5  -7  -8   29.90    1.60
  -5  -7   8   31.90    1.70
   5  -7  -8   29.80    1.60
  -5   7  -8   31.60    1.70
  -5   7  -8   30.50    1.70
  -5   7  -8   29.50    1.60
  -6   7   8  274.07    8.50
   6   7  -8  271.87    8.40
  -6  -7  -8  268.37    8.40
   6   7   8  268.27    8.30
  -6  -7   8  267.27    8.50
  -6   7  -8  261.37    8.40
  -6   7  -8  252.87    8.60
   6  -7  -8  263.67    8.30
  -6   7  -8  272.07    8.50
   7   7  -8   42.20    1.80
  -7   7   8   41.20    1.90
  -7  -7  -8   40.90    1.80
  -7   7  -8   41.60    1.90
   7  -7  -8   41.30    1.90
  -7   7  -8   40.10    1.90
   7   7   8   39.90    1.80
  -7  -7   8   40.60    1.90
  -8   7   8    1.00    0.40
   8   7  -8    1.40    0.30
  -8  -7  -8    1.50    0.40
  -8   7  -8    1.40    0.40
  -8  -7   8    1.40    0.40
   8  -7  -8    1.60    0.40
  -8   7  -8    1.00    0.30
   8   7   8    0.90    0.30
   0   8  -8  145.59    4.90
   0   8  -8  134.29    5.00
   0  -8  -8  143.89    4.80
  -1  -8  -8  639.24   19.60
  -1   8  -8  669.33   20.00
  -1   8  -8  651.03   19.60
   1  -8  -8  674.53   19.60
  -1  -8   8  665.23   19.70
  -1   8  -8  685.93   19.70
  -2  -8  -8   15.30    1.10
  -2  -8   8   18.30    1.20
  -2   8  -8   13.80    1.10
   2  -8  -8   14.20    1.10
  -2   8  -8   17.00    1.10
  -2   8  -8   15.20    1.20
   3   8  -8   16.10    1.00
  -3  -8  -8   16.50    1.10
  -3   8  -8   15.40    1.10
  -3  -8   8   15.60    1.10
   3   8   8   16.00    1.00
   3  -8  -8   13.80    1.10
  -3   8  -8   14.60    1.20
  -3   8  -8   16.20    1.20
   4   8  -8  187.38    6.10
  -4   8   8  182.68    6.20
  -4  -8  -8  187.08    6.10
  -4   8  -8  190.38    6.20
  -4  -8   8  187.48    6.20
  -4   8  -8  184.48    6.40
   4   8   8  185.48    6.10
  -4   8  -8  191.58    6.30
   4  -8  -8  187.98    6.10
   5   8  -8  186.98    6.20
  -5   8   8  189.68    6.30
  -5  -8  -8  198.08    6.30
   5  -8  -8  191.88    6.30
  -5   8  -8  193.88    6.40
  -5   8  -8  193.48    6.30
   5   8   8  192.08    6.20
  -5   8  -8  188.48    6.50
  -5  -8   8  194.88    6.30
   6   8  -8   10.40    0.80
  -6   8   8   11.10    0.90
  -6  -8  -8   12.20    0.90
  -6   8  -8   11.90    0.90
  -6  -8   8   11.60    0.90
   6  -8  -8   10.60    0.90
   6   8   8   10.70    0.80
  -6   8  -8   11.10    0.90
  -7   8   8   25.70    1.30
  -7  -8  -8   24.70    1.20
   7   8  -8   25.10    1.20
   7  -8  -8   24.80    1.20
  -7  -8   8   25.30    1.30
  -7   8  -8   26.20    1.30
  -7   8  -8   24.70    1.20
   7   8   8   26.20    1.20
   0  -9   8    0.30    0.30
   0  -9  -8    0.60    0.40
  -1  -9  -8   23.40    1.40
   1  -9  -8   24.20    1.40
  -1   9  -8   24.70    1.40
  -1  -9   8   23.30    1.40
  -2  -9  -8   49.50    2.10
  -2  -9   8   46.00    2.10
  -2   9  -8   43.80    2.30
  -2   9  -8   47.70    2.10
  -2   9  -8   48.10    2.10
   2  -9  -8   47.60    2.10
   3   9  -8   27.40    1.40
  -3  -9  -8   28.70    1.50
  -3   9  -8   26.50    1.60
   3  -9  -8   28.00    1.50
  -3  -9   8   29.10    1.50
  -3   9  -8   29.30    1.60
  -3   9  -8   27.40    1.50
  -4  -9  -8  134.09    4.60
   4   9  -8  133.69    4.50
  -4   9  -8  139.99    4.60
  -4   9  -8  133.59    4.60
   4   9   8  130.29    4.40
   4  -9  -8  137.49    4.60
  -4  -9   8  132.79    4.60
  -5  -9  -8   19.50    1.10
  -5   9   8   20.40    1.30
   5   9  -8   20.60    1.10
  -5   9  -8   22.00    1.20
  -5  -9   8   20.50    1.20
   5  -9  -8   20.70    1.20
  -5   9  -8   20.90    1.20
   5   9   8   20.20    1.10
  -6   9   8   92.69    3.20
  -6  -9  -8   96.59    3.20
   6   9  -8   91.59    3.20
  -6  -9   8   90.99    3.30
   6  -9  -8   99.59    3.30
   6   9   8   95.99    3.20
  -6   9  -8   95.49    3.30
  -6   9  -8   96.39    3.30
   0 -10  -8  121.89    4.20
   0 -10   8  120.19    4.20
   1 -10   8  106.69    3.70
  -1 -10  -8  105.89    3.70
  -1 -10   8  101.49    3.70
   1 -10  -8   99.89    3.60
  -2 -10  -8   35.90    1.60
  -2 -10   8   33.80    1.70
   2 -10  -8   34.50    1.60
  -3 -10  -8  124.29    4.20
  -3  10  -8  125.59    4.20
   3 -10  -8  126.69    4.20
  -3  10  -8  123.19    4.20
  -3 -10   8  125.79    4.20
  -4 -10  -8   83.39    2.80
  -4 -10   8   76.99    2.90
  -4  10  -8   78.49    2.90
  -4  10  -8   80.29    2.90
   4 -10  -8   82.29    2.90
  -5 -10  -8  157.88    4.90
   5  10  -8  158.28    4.90
  -5  10  -8  158.78    5.00
   5 -10  -8  162.98    5.00
   0 -11  -8    0.30    0.30
   0 -11   8    0.30    0.30
  -1 -11  -8  140.39    4.50
   1 -11   8  140.19    4.60
  -1 -11   8  142.89    4.60
   1 -11  -8  146.29    4.60
   2 -11   8    9.60    0.70
  -2 -11  -8    9.80    0.70
   2 -11  -8   10.30    0.70
  -2 -11   8    9.80    0.70
   3 -11  -8    6.60    0.60
   0   0   9    0.30    0.20
   0   0   9    0.20    0.30
   0   0  -9    0.10    0.20
   0   0  -9    0.40    0.20
   0   0  -9    0.20    0.30
  -1   0   9    0.50    0.30
  -1   0   9    0.60    0.30
  -1   0  -9    1.30    0.40
  -1   0  -9    0.50    0.20
  -1   0  -9    0.90    0.20
  -1   0   9    1.50    0.40
   1   0   9    0.40    0.30
   1   0  -9    0.40    0.30
  -1   0  -9    0.60    0.20
   1   0  -9    0.40    0.30
  -2   0   9    0.90    0.40
   2   0  -9    0.40    0.30
  -2   0  -9    0.90    0.30
   2   0  -9    1.20    0.50
  -2   0  -9    0.70    0.30
  -2   0   9    0.60    0.30
  -2   0   9    2.00    0.60
  -2   0  -9    1.50    0.30
  -2   0  -9    1.60    0.20
  -2   0  -9    0.90    0.20
   2   0   9    0.90    0.40
   3   0   9    1.30    0.40
  -3   0  -9    0.20    0.20
  -3   0   9    0.10    0.30
  -3   0  -9    0.40    0.20
   3   0  -9    0.40    0.50
  -3   0   9    0.30    0.30
  -3   0  -9    0.90    0.20
   3   0   9    0.20    0.30
  -4   0  -9    1.60    0.60
  -4   0   9    0.30    0.40
  -4   0  -9    1.10    0.40
  -4   0   9    2.70    0.70
  -5   0  -9    0.20    0.20
  -5   0   9    0.70    0.50
  -5   0   9   -0.10    0.30
  -5   0  -9    0.50    0.40
  -5   0  -9    0.60    0.50
  -6   0  -9    1.00    0.40
   6   0  -9   -0.50    0.40
  -6   0   9    0.70    0.30
  -6   0  -9    0.30    0.30
  -6   0  -9    0.50    0.40
  -7   0   9    1.00    0.40
  -7   0  -9    0.90    0.40
  -7   0  -9    1.10    0.40
   7   0  -9    0.80    0.60
  -7   0  -9    1.00    0.50
  -8   0  -9    0.50    0.40
  -8   0   9    0.50    0.40
  -8   0  -9    2.10    0.60
  -8   0  -9    0.40    0.40
  -8   0  -9    0.10    0.30
   8   0  -9    0.40    0.70
  -9   0   9    0.30    0.30
   9   0  -9    0.50    0.60
  -9   0  -9    0.50    0.40
  -9   0  -9    0.70    0.50
  -9   0  -9    0.60    0.40
  10   0  -9   -0.40    0.30
 -10   0  -9    1.00    0.50
 -10   0   9    0.70    0.30
 -10   0  -9    0.30    0.30
   0   1   9    0.60    0.30
   0   1  -9    0.90    0.40
   0   1   9    1.00    0.40
   0  -1   9    0.60    0.40
   0   1  -9    0.60    0.30
   0  -1   9    0.70    0.30
   0  -1  -9    1.40    0.40
  -1   1   9  575.24   17.40
  -1  -1  -9  541.85   16.90
   1   1  -9  587.74   17.50
   1   1  -9  604.14   17.50
  -1   1   9  583.24   17.70
  -1   1   9  567.44   16.90
  -1   1   9  590.24   17.50
   1  -1   9  635.34   17.90
   1  -1   9  602.44   17.40
  -1  -1  -9  542.95   17.20
  -1  -1  -9  607.64   17.20
   1  -1  -9  607.64   17.60
  -1   1  -9  531.45   16.80
  -1  -1   9  556.44   17.40
   1  -1  -9  592.74   16.70
  -1   1  -9  610.94   17.60
  -1  -1   9  613.94   17.90
   1   1   9  600.54   17.30
  -1   1  -9  508.05   16.80
   1   1   9  581.24   17.50
  -1   1  -9  603.44   17.50
  -2   1   9  157.58    5.60
  -2  -1  -9  160.38    5.40
  -2  -1  -9  172.38    5.50
   2   1  -9  166.08    5.70
  -2   1   9  185.18    6.40
   2  -1   9  176.48    6.20
  -2  -1  -9  159.58    5.40
  -2   1   9  140.29    5.80
  -2   1   9  182.88    5.70
   2   1  -9  172.48    6.10
   2  -1   9  169.28    5.80
   2  -1  -9  167.88    5.20
   2   1   9  167.48    5.40
  -2  -1   9  168.98    6.30
   2  -1  -9  190.38    6.20
   2   1   9  174.88    5.90
  -2  -1   9  167.98    6.00
  -2   1  -9  158.98    5.30
  -2   1  -9  169.98    5.90
  -3   1   9  321.07   10.30
   3   1  -9  295.97   10.60
   3   1  -9  311.67    9.90
  -3   1   9  313.67   10.80
  -3  -1  -9  323.97   10.10
  -3  -1  -9  311.17    9.80
  -3  -1  -9  325.37    9.90
  -3   1  -9  310.37    9.80
   3   1   9  342.57   10.20
  -3  -1   9  309.97   10.60
  -3   1  -9  307.27   10.50
  -3   1  -9  326.07   10.50
  -3  -1   9  321.77   10.90
  -4  -1  -9  126.99    4.50
  -4  -1  -9  118.09    4.50
  -4   1   9  119.89    5.40
  -4   1   9  119.69    5.10
  -4  -1   9  119.89    5.30
  -4   1  -9  118.09    5.00
  -4   1  -9  121.29    4.50
  -4  -1   9  121.59    5.40
  -4   1  -9  118.39    3.90
  -4   1  -9  122.09    5.10
  -5  -1  -9  211.38    6.50
  -5  -1  -9  212.18    7.40
  -5   1   9  209.68    8.30
  -5  -1  -9  214.88    7.40
  -5   1   9  206.88    8.50
  -5  -1   9  208.78    8.40
  -5   1  -9  216.98    7.40
  -5   1  -9  208.38    8.30
  -5  -1   9  211.58    8.50
  -5   1  -9  214.28    6.80
   6   1  -9  150.38    5.30
  -6  -1  -9  148.09    5.90
  -6  -1  -9  142.99    5.20
  -6  -1  -9  148.99    5.00
  -6  -1  -9  146.19    5.90
  -6   1   9  161.08    5.00
  -6   1  -9  150.38    6.00
  -6  -1   9  160.18    5.10
   6  -1  -9  150.48    5.20
  -6   1  -9  151.58    5.00
  -6   1  -9  144.39    5.10
  -7   1   9    1.50    0.50
  -7  -1  -9    0.90    0.40
  -7  -1  -9    3.70    0.70
   7   1  -9    2.10    0.80
  -7  -1  -9    2.10    0.50
  -7  -1  -9    1.10    0.50
  -7   1   9    1.60    0.50
  -7  -1   9    1.50    0.50
  -7   1  -9    1.80    0.50
  -7   1  -9    1.40    0.40
   7  -1  -9    1.20    0.60
  -7   1  -9    3.00    0.60
  -7   1  -9    1.70    0.50
  -8  -1  -9   20.80    1.40
  -8  -1  -9   21.70    1.50
  -8  -1  -9   21.40    1.30
  -8   1   9   23.00    1.40
  -8  -1  -9   22.70    1.40
  -8   1   9   22.40    1.30
   8   1  -9   24.00    1.80
   8  -1  -9   25.50    1.70
  -8   1  -9   20.90    1.30
  -8  -1   9   19.10    1.30
  -8   1  -9   22.60    1.30
  -8   1  -9   18.90    1.40
  -8   1  -9   19.70    1.30
  -9   1   9   62.09    2.60
  -9  -1  -9   67.79    2.70
  -9  -1  -9   67.89    2.60
  -9  -1  -9   67.89    2.90
   9   1  -9   63.59    2.90
   9  -1  -9   66.69    2.90
  -9  -1   9   66.49    2.70
  -9   1  -9   64.99    2.80
  -9   1  -9   67.39    2.60
  10   1  -9    9.70    0.90
 -10   1   9   10.80    0.80
 -10  -1  -9   12.10    1.00
 -10  -1   9   10.10    0.80
 -10   1  -9   11.80    0.80
  10  -1  -9   11.10    0.90
   0   2  -9    9.60    1.00
   0  -2  -9    9.10    0.60
   0  -2   9   10.00    1.00
   0   2  -9    9.00    0.80
   0   2   9    9.50    0.90
   0   2   9   10.10    0.90
   0  -2   9    7.70    0.60
   0  -2   9    9.10    1.10
   0  -2  -9   10.10    0.90
   1   2  -9  936.21   26.40
   1  -2   9  888.31   26.90
  -1   2   9  824.72   26.20
   1  -2   9  883.31   25.60
  -1  -2  -9  891.01   26.80
   1  -2   9  897.01   26.50
  -1   2   9  875.61   26.50
   1   2  -9  948.41   27.20
   1  -2  -9  885.21   25.70
  -1  -2   9  934.71   26.90
  -1   2  -9  851.81   26.00
  -1   2  -9  853.31   26.40
  -1  -2   9  936.21   26.60
   1   2   9  923.21   26.40
   1   2   9  869.21   26.10
  -1   2  -9  910.21   26.50
   1  -2  -9  861.31   26.50
   2   2  -9    2.00    0.30
  -2   2   9    1.60    0.60
  -2   2   9    1.20    0.40
  -2  -2  -9    1.00    0.30
   2   2  -9    1.60    0.60
  -2  -2  -9    1.40    0.40
   2  -2   9    1.30    0.30
  -2   2   9    1.10    0.40
   2  -2   9    2.90    0.60
   2   2  -9    1.00    0.40
  -2   2  -9    0.70    0.40
  -2   2  -9    1.30    0.30
   2   2   9    0.90    0.40
  -2  -2   9    1.10    0.50
   2  -2  -9    2.10    0.60
  -2  -2   9    0.80    0.40
  -3  -2  -9   89.39    3.00
  -3   2   9   97.89    4.40
   3  -2   9   94.59    4.20
  -3  -2  -9   98.39    3.80
  -3  -2  -9   94.79    3.60
  -3   2   9   88.99    3.80
   3   2  -9   91.69    3.80
   3  -2   9   94.09    3.50
  -3   2  -9   97.79    3.00
  -3  -2   9   95.29    4.30
   3  -2  -9   94.79    3.40
  -3  -2   9   91.49    4.30
   3   2   9   98.19    3.90
  -3   2  -9   94.99    3.10
  -3   2  -9   96.29    4.40
  -4   2   9  465.15   14.60
  -4   2   9  465.95   15.60
  -4  -2  -9  470.65   14.40
  -4  -2  -9  472.95   14.70
  -4  -2  -9  477.45   13.60
  -4   2   9  495.95   15.20
  -4   2  -9  466.75   15.40
  -4  -2   9  463.25   15.50
   4   2   9  459.15   14.60
  -4   2  -9  461.75   13.70
  -4  -2   9  450.45   15.50
  -4   2  -9  453.05   15.40
  -4   2  -9  453.55   14.40
  -5  -2  -9    1.00    0.30
  -5  -2  -9    0.70    0.40
  -5   2   9    0.70    0.30
  -5   2   9    1.80    0.80
  -5   2   9    0.60    0.50
  -5  -2  -9    0.50    0.40
  -5  -2   9    0.70    0.60
  -5   2  -9    0.80    0.30
   6  -2   9  168.08    6.40
  -6  -2  -9  168.38    5.60
   6   2  -9  169.48    5.80
  -6   2   9  162.98    5.50
  -6  -2  -9  163.28    5.50
  -6  -2  -9  160.38    6.40
  -6  -2  -9  164.48    5.80
  -6   2  -9  162.88    5.40
   6  -2  -9  169.58    5.60
  -6  -2   9  179.38    5.60
  -6   2  -9  167.48    5.50
   7   2  -9   17.60    1.50
  -7   2   9   16.40    1.10
  -7  -2  -9   18.40    1.40
  -7  -2  -9   17.20    1.20
  -7  -2  -9   16.90    1.20
  -7   2   9   16.80    1.20
  -7  -2   9   19.10    1.20
  -7   2  -9   17.80    1.20
   7  -2  -9   19.70    1.40
  -7   2  -9   16.80    1.00
  -8  -2  -9  632.34   19.00
  -8   2   9  608.74   18.90
  -8  -2  -9  667.63   19.40
  -8  -2  -9  668.33   19.30
  -8   2   9  637.74   18.90
   8   2  -9  623.94   19.20
   8  -2  -9  639.94   19.10
  -8   2  -9  630.74   18.90
  -8  -2   9  656.63   19.00
  -8   2  -9  613.94   18.90
  -9   2   9    0.50    0.60
   9   2  -9    0.30    0.70
  -9  -2  -9    0.60    0.40
  -9  -2  -9    0.70    0.40
  -9   2   9    1.10    0.40
   9  -2  -9    0.60    0.40
  -9   2  -9    1.00    0.40
  -9  -2   9    0.40    0.40
 -10  -2  -9    1.70    0.50
  10   2  -9    0.50    0.40
  10  -2  -9    1.40    0.40
 -10  -2   9    1.60    0.40
 -10   2  -9    1.40    0.40
  -1  -3  -9    2.40    0.50
   1   3  -9    2.00    0.60
  -1   3   9    2.20    0.60
   1  -3   9    1.70    0.70
  -1   3   9    1.40    0.50
  -1  -3  -9    1.60    0.30
  -1  -3  -9    1.70    0.60
   1  -3   9    1.70    0.40
  -1   3  -9    1.70    0.50
   1  -3  -9    1.70    0.40
  -1  -3   9    1.40    0.60
   1  -3  -9    1.30    0.50
  -1  -3   9    2.10    0.70
   1   3   9    1.30    0.50
   2   3  -9  532.05   16.90
  -2  -3  -9  544.15   16.10
  -2   3   9  526.05   16.90
  -2  -3  -9  539.85   16.60
   2  -3   9  532.55   16.90
   2   3  -9  529.95   15.70
   2  -3   9  545.85   15.80
  -2   3   9  491.65   16.20
   2   3  -9  509.95   16.60
  -2  -3  -9  545.15   15.60
   2   3   9  516.45   16.50
  -2  -3   9  571.74   17.20
  -2   3  -9  502.85   17.10
  -2   3  -9  558.04   16.70
  -2  -3   9  530.55   17.10
  -2   3  -9  572.74   16.00
   3  -3   9   37.90    2.50
  -3   3   9   37.50    2.50
   3   3  -9   34.30    2.10
   3  -3   9   37.10    1.80
  -3  -3  -9   34.30    1.50
  -3  -3  -9   35.50    1.90
  -3  -3  -9   37.40    2.20
  -3   3  -9   35.90    2.10
  -3  -3   9   36.70    2.60
   3   3   9   36.00    2.20
  -3   3  -9   34.60    2.50
  -3   3  -9   38.10    1.70
  -3  -3   9   33.60    2.40
  -4  -3  -9    2.30    0.60
   4  -3   9    1.00    0.60
  -4  -3  -9    1.20    0.30
   4  -3   9    1.90    0.50
  -4   3   9    2.00    0.80
  -4  -3  -9    1.00    0.50
   4   3   9    1.20    0.50
  -4  -3   9    1.60    0.70
   4  -3  -9    2.90    0.70
  -4  -3   9    2.70    0.80
  -4   3  -9    1.70    0.40
  -4   3  -9    1.40    0.70
   5  -3   9   69.39    3.20
  -5  -3  -9   68.59    2.80
  -5  -3  -9   65.59    3.30
  -5  -3  -9   68.99    2.70
  -5   3  -9   66.49    2.80
  -5  -3   9   66.19    2.60
  -5   3  -9   65.49    5.00
   5  -3  -9   71.09    2.60
  -5   3  -9   65.39    2.60
  -6  -3  -9   60.59    3.70
  -6   3   9   63.19    2.60
  -6  -3  -9   63.19    2.60
   6   3  -9   64.29    2.80
  -6  -3  -9   61.99    2.80
   6  -3   9   61.29    3.20
   6   3  -9   61.79    2.50
  -6  -3  -9   67.19    2.80
  -6  -3  -9   61.89    2.60
   6  -3  -9   65.69    2.60
  -6   3  -9   62.99    2.50
  -6  -3   9   69.59    2.70
   7   3  -9  263.27    8.80
  -7   3   9  272.87    8.60
  -7  -3  -9  282.47    8.90
  -7  -3  -9  257.17    8.50
  -7  -3  -9  273.87    8.60
  -7  -3  -9  275.57    8.90
   7  -3  -9  278.97    8.70
  -7   3  -9  264.57    8.40
  -7   3  -9  274.67    8.50
  -7  -3   9  262.07    8.60
  -8  -3  -9    2.80    0.70
   8   3  -9    3.20    0.90
  -8   3   9    2.80    0.60
  -8  -3  -9    3.40    0.70
  -8  -3  -9    3.50    0.70
  -8   3  -9    2.40    0.50
  -8  -3   9    2.90    0.60
  -8   3  -9    3.50    0.60
   8  -3  -9    4.20    0.70
   9   3  -9    5.30    0.80
  -9  -3  -9    7.10    0.80
  -9  -3  -9    7.10    0.90
  -9   3   9    8.30    0.80
  -9   3  -9    5.90    0.70
   9  -3  -9    7.60    0.70
  -9  -3   9    6.50    0.70
 -10  -3  -9   40.70    1.80
 -10  -3  -9   40.70    1.60
 -10  -3   9   36.60    2.00
   0  -4  -9  603.74   19.10
   0   4   9  654.73   20.10
   0   4  -9  652.43   20.30
   0  -4  -9  670.83   20.40
   0   4  -9  658.43   20.00
   0   4  -9  654.83   18.90
   0  -4  -9  639.84   19.40
   0  -4   9  659.53   20.70
   0  -4   9  675.93   20.50
   1   4  -9  397.46   12.90
  -1  -4  -9  403.56   11.80
   1  -4   9  385.06   12.00
   1  -4   9  405.36   13.20
  -1  -4  -9  395.36   12.10
   1  -4   9  406.36   13.50
   1   4  -9  395.46   11.70
  -1   4   9  374.06   12.60
  -1  -4  -9  384.36   12.90
   1   4  -9  400.46   12.90
  -1   4   9  380.46   12.70
  -1   4  -9  377.56   11.50
  -1  -4   9  393.26   13.30
  -1   4  -9  383.66   12.80
   1  -4  -9  392.46   12.00
  -1   4  -9  397.06   12.50
   1   4   9  398.36   12.80
  -1  -4   9  382.06   13.10
   2   4  -9   10.10    1.20
   2   4  -9    9.70    0.80
   2  -4   9   10.90    1.30
  -2   4   9    9.40    1.10
  -2   4   9   10.10    1.30
  -2  -4  -9   10.00    1.00
  -2  -4  -9    9.80    1.20
   2   4  -9   10.70    1.30
   2  -4   9   11.10    0.90
  -2  -4  -9   10.00    0.80
  -2   4  -9    9.90    1.20
  -2  -4   9   10.30    1.30
   2   4   9    9.80    1.20
  -2  -4   9   10.10    1.30
  -2   4  -9   10.60    0.60
  -2   4  -9   11.80    1.50
   2  -4  -9   10.00    1.00
  -2   4  -9   11.10    1.00
  -3  -4  -9  116.79    4.10
   3   4  -9  121.39    5.10
   3  -4   9  119.99    5.50
  -3  -4  -9  124.19    4.70
  -3  -4  -9  113.89    5.10
  -3   4   9  115.79    5.50
   3  -4   9  113.09    4.30
  -3   4  -9  122.39    5.80
   3  -4  -9  122.99    4.60
  -3   4  -9  118.49    4.50
  -3   4  -9  125.69    5.10
  -3  -4   9  111.49    5.50
   3   4   9  117.69    5.00
  -3  -4   9  108.49    5.20
  -4  -4  -9    2.40    0.80
  -4  -4  -9    0.50    0.30
   4  -4   9    3.20    0.70
   4  -4   9    0.20    0.50
  -4   4   9    0.30    0.50
  -4   4  -9    2.40    0.50
   4   4   9    1.40    0.60
  -4  -4   9    0.30    0.60
  -4   4  -9    0.20    0.50
   4  -4  -9    2.30    0.70
  -5  -4  -9  182.28    5.80
   5  -4   9  179.98    6.60
  -5  -4  -9  180.48    5.80
  -5  -4  -9  181.48    6.10
  -5  -4  -9  176.98    6.80
  -5   4   9  177.08    5.90
  -5  -4  -9  180.18    6.00
  -5  -4   9  183.48    5.90
  -5   4  -9  168.68    5.90
  -5   4  -9  180.28    5.80
   5  -4  -9  166.48    5.70
  -6  -4  -9  327.37   10.30
  -6  -4  -9  343.27   10.60
  -6   4   9  334.97   10.30
  -6  -4  -9  332.97   10.30
  -6  -4  -9  326.67   10.50
   6   4  -9  343.67   10.20
  -6  -4   9  334.17   10.40
   6  -4  -9  334.57   10.30
  -6   4  -9  333.67   10.30
  -6   4  -9  315.57   10.20
  -6   4  -9  327.77   10.10
  -7  -4  -9  423.96   13.00
  -7  -4  -9  399.36   12.70
  -7   4   9  424.36   12.80
   7   4  -9  422.56   12.60
  -7  -4  -9  413.86   13.10
  -7  -4  -9  443.06   12.80
  -7   4  -9  410.56   12.60
  -7   4  -9  420.56   12.70
  -7  -4   9  397.36   12.70
  -8   4   9    3.20    0.60
  -8  -4  -9    4.40    0.80
  -8  -4  -9    4.10    0.70
  -8  -4  -9    3.00    0.60
  -8   4  -9    3.70    0.60
  -8  -4   9    4.10    0.70
  -8   4  -9    3.30    0.60
   8   4   9    3.70    0.60
  -9  -4  -9   17.90    1.10
  -9   4   9   17.40    1.10
  -9  -4  -9   18.10    1.20
  -9  -4   9   18.50    1.10
  -9   4  -9   18.00    1.10
   0  -5  -9    1.00    0.40
   0   5   9    0.60    0.50
   0  -5   9    0.20    0.40
   0   5  -9    0.80    0.50
   0  -5   9    0.80    0.60
   0   5  -9    1.30    0.60
   0   5  -9    0.30    0.20
   1  -5   9   16.80    1.90
   1   5  -9   15.80    1.60
   1  -5   9   15.20    1.20
   1   5  -9   14.40    1.60
   1  -5   9   16.30    1.70
  -1   5   9   15.60    1.50
  -1  -5  -9   16.00    1.10
  -1  -5  -9   15.20    1.30
   1   5  -9   15.60    1.00
   1  -5  -9   15.40    1.20
  -1   5  -9   15.90    1.50
  -1   5  -9   15.60    1.60
   1   5   9   17.10    1.60
  -1  -5   9   16.50    1.80
  -1  -5   9   16.10    1.80
  -1   5  -9   15.40    0.90
  -2  -5  -9    0.90    0.40
  -2  -5  -9    1.00    0.40
  -2   5   9    1.40    0.70
   2  -5   9    0.70    0.60
   2   5  -9    0.50    0.50
   2   5  -9    0.70    0.30
  -2   5   9    0.70    0.50
   2  -5   9    1.20    0.50
  -2  -5  -9    0.90    0.60
   2  -5   9    0.70    0.60
  -2  -5   9    0.80    0.60
  -2   5  -9    0.90    0.50
  -2   5  -9    0.90    0.30
   2   5   9    1.00    0.60
  -2   5  -9    2.80    0.70
  -2   5  -9    0.80    0.60
   2  -5  -9    0.20    0.50
  -2  -5   9    0.60    0.50
   3   5  -9   90.19    4.60
   3  -5   9   94.99    4.00
  -3  -5  -9   93.49    3.60
  -3  -5  -9   92.59    4.80
  -3   5   9   93.49    4.90
  -3  -5  -9   98.59    4.20
  -3   5  -9   93.89    4.50
  -3  -5   9  101.89    3.50
  -3   5  -9   88.89    3.70
  -3   5  -9   98.99    4.20
   3   5   9   96.49    4.60
  -3   5  -9   94.39    3.20
   3  -5  -9   92.39    4.00
  -4  -5  -9   19.10    1.10
   4  -5   9   17.00    1.50
  -4  -5  -9   16.90    1.10
  -4  -5  -9   19.70    1.70
  -4  -5  -9   23.70    1.40
  -4  -5   9   18.80    1.20
   4   5   9   16.60    1.80
  -4   5  -9   18.60    1.00
   4  -5  -9   20.00    1.80
  -4   5  -9   18.50    1.20
  -4   5  -9   19.50    1.20
  -5   5   9   36.00    1.80
   5   5  -9   35.60    1.70
  -5  -5  -9   34.90    1.90
  -5  -5  -9   34.60    1.80
  -5  -5   9   34.60    1.80
  -5   5  -9   33.90    1.70
  -5   5  -9   33.90    1.70
  -5   5  -9   34.80    1.60
  -6  -5  -9    8.40    0.90
  -6   5   9    8.30    0.90
  -6  -5  -9    8.80    0.90
   6   5  -9    6.70    0.80
  -6  -5  -9    7.90    0.90
  -6  -5  -9    8.90    0.90
  -6   5  -9    7.20    0.80
  -6   5  -9    7.10    0.80
  -6   5  -9    7.80    0.80
  -6  -5   9    9.30    0.90
  -7  -5  -9   13.10    1.20
   7   5  -9   14.40    1.00
  -7  -5  -9   15.70    1.10
  -7  -5  -9   14.90    1.10
  -7  -5  -9   13.00    1.10
  -7   5   9   13.90    1.10
  -7  -5   9   14.30    1.10
  -7   5  -9   14.30    1.10
  -7   5  -9   14.00    1.10
  -7   5  -9   13.30    1.00
  -8  -5  -9    6.30    0.80
  -8   5   9    5.50    0.70
   8   5  -9    6.00    0.70
  -8  -5  -9    5.70    0.70
  -8   5  -9    5.50    0.70
  -8  -5   9    5.60    0.70
   8   5   9    6.20    0.70
  -9  -5  -9    0.40    0.30
  -9  -5  -9   -0.10    0.30
  -9   5   9    0.50    0.30
  -9  -5   9    0.60    0.30
  -9   5  -9    0.50    0.30
   0  -6   9  409.66   14.80
   0   6  -9  410.26   12.60
   0  -6  -9  414.46   13.40
   0   6  -9  413.66   14.40
   0   6  -9  443.26   12.80
   0   6   9  426.76   14.30
   0   6  -9  416.26   14.30
   1   6  -9  362.46   15.00
   1   6  -9  405.26   14.30
  -1  -6  -9  425.06   13.30
   1   6  -9  404.66   12.40
  -1   6   9  427.96   14.10
   1   6  -9  428.06   12.60
   1  -6  -9  415.76   13.20
  -1   6  -9  434.06   14.40
   1   6   9  412.36   14.20
  -1  -6   9  398.96   14.50
  -1   6  -9  429.66   12.60
  -1   6  -9  413.06   13.90
  -1   6  -9  410.26   12.40
  -2  -6  -9   45.00    2.60
   2   6  -9   43.70    2.80
  -2   6   9   42.00    2.80
   2   6  -9   43.40    3.10
  -2  -6   9   44.60    1.90
  -2   6  -9   45.80    2.00
  -2   6  -9   45.10    3.10
  -2   6  -9   44.60    1.90
   2   6   9   43.50    3.00
   2  -6  -9   43.50    2.50
   3   6  -9  285.57   10.60
   3  -6   9  275.67    9.60
  -3  -6  -9  257.37    9.50
   3   6  -9  269.97    8.50
  -3  -6  -9  264.17    8.60
  -3  -6  -9  272.57    8.90
  -3  -6  -9  270.57    8.60
   3   6   9  268.77   10.30
  -3   6  -9  287.97    8.70
  -3  -6   9  277.47    8.60
   3  -6  -9  270.77    9.40
  -3   6  -9  289.07    8.70
   3  -6  -9  280.87    8.50
  -3   6  -9  283.77    8.70
  -4  -6  -9   38.90    2.10
  -4  -6  -9   37.20    1.80
  -4  -6  -9   41.00    1.90
  -4   6   9   38.20    1.90
   4   6  -9   39.30    1.80
  -4  -6   9   38.20    1.90
  -4   6  -9   40.80    1.90
   4  -6  -9   34.60    1.80
  -4   6  -9   38.60    1.90
  -4   6  -9   39.40    1.90
  -5  -6  -9    1.10    0.50
   5   6  -9    0.70    0.40
  -5   6   9    0.50    0.40
  -5  -6  -9    1.30    0.50
  -5  -6  -9    1.00    0.40
  -5   6  -9    0.50    0.40
  -5  -6   9    0.60    0.40
  -5   6  -9    0.60    0.40
  -5   6  -9    0.50    0.40
  -6  -6  -9   69.29    2.80
  -6  -6  -9   71.09    2.80
  -6   6   9   71.49    2.90
   6   6  -9   70.39    2.80
  -6  -6   9   70.39    2.90
  -6   6  -9   64.29    2.80
  -6   6  -9   68.09    2.80
  -6   6  -9   70.69    2.90
  -7   6   9  117.59    4.30
   7   6  -9  118.79    4.20
  -7  -6  -9  120.69    4.20
  -7   6  -9  115.79    4.40
  -7   6  -9  120.69    4.30
  -7   6  -9  124.49    4.30
  -7  -6   9  126.49    4.40
   7   6   9  120.79    4.20
  -8   6   9   79.59    3.00
   8   6  -9   78.09    2.80
  -8  -6  -9   80.69    2.90
  -8   6  -9   81.49    3.00
  -8  -6   9   80.59    3.00
  -8   6  -9   76.89    2.90
   8   6   9   82.59    2.90
   8  -6  -9   81.89    2.90
  -9   6   9    6.30    0.60
  -9  -6  -9    6.30    0.50
   0   7   9    0.30    0.50
   0   7  -9   -0.20    0.20
   0  -7  -9    0.20    0.40
   0   7  -9    0.40    0.50
   0  -7  -9    0.40    0.30
   0   7  -9    1.20    0.40
   0   7  -9   -0.10    0.20
   1   7  -9  126.99    4.60
   1   7  -9  126.79    6.10
  -1  -7  -9  122.39    5.20
  -1  -7  -9  124.89    4.30
  -1   7   9  114.39    5.70
   1  -7  -9  124.29    5.20
  -1   7  -9  126.99    4.30
   1  -7  -9  126.89    4.30
  -1   7  -9  125.79    4.50
  -1   7  -9  123.89    6.10
  -1   7  -9  124.09    4.30
  -1  -7   9  127.29    4.30
   1   7   9  125.39    6.00
  -2  -7  -9    3.50    0.60
   2   7  -9    4.10    0.60
  -2   7  -9    3.70    0.60
  -2   7  -9    4.40    0.70
   2  -7  -9    3.00    0.50
  -2   7  -9    3.30    0.60
  -2  -7   9    4.10    0.70
  -3  -7  -9   24.30    1.40
  -3  -7  -9   23.60    1.40
   3   7  -9   23.10    1.30
  -3   7  -9   25.10    1.50
  -3  -7   9   25.40    1.40
   3  -7  -9   26.80    1.40
  -3   7  -9   24.10    1.40
  -3   7  -9   24.10    1.50
  -4  -7  -9   32.60    1.70
  -4   7   9   33.80    1.70
  -4  -7  -9   32.10    1.70
   4   7  -9   29.90    1.60
   4  -7  -9   32.40    1.60
  -4  -7   9   32.40    1.70
  -4   7  -9   29.60    1.60
  -4   7  -9   31.80    1.70
  -4   7  -9   30.50    1.70
   5   7  -9    2.30    0.50
  -5   7   9    2.70    0.60
  -5  -7  -9    1.50    0.50
  -5  -7  -9    2.40    0.60
   5  -7  -9    2.40    0.60
  -5   7  -9    2.80    0.60
  -5  -7   9    2.60    0.60
  -5   7  -9    3.30    0.60
  -5   7  -9    2.90    0.60
  -6  -7  -9  162.78    5.40
   6   7  -9  166.28    5.40
  -6   7   9  161.18    5.50
  -6   7  -9  156.18    5.60
  -6   7  -9  164.28    5.50
   6  -7  -9  154.08    5.30
  -6  -7   9  166.58    5.50
  -6   7  -9  160.18    5.50
   6   7   9  166.28    5.40
  -7  -7  -9    3.40    0.60
  -7   7   9    3.50    0.60
   7   7  -9    2.60    0.50
  -7   7  -9    3.30    0.60
  -7   7  -9    3.40    0.60
   7   7   9    3.20    0.50
   7  -7  -9    3.30    0.60
  -7  -7   9    2.50    0.50
   8   7  -9   11.70    0.70
  -8   7   9   11.50    0.80
  -8  -7  -9   12.80    0.80
  -8   7  -9   11.80    0.80
   8   7   9   12.70    0.80
  -8   7  -9   12.50    0.80
   8  -7  -9   12.40    0.80
  -8  -7   9   12.00    0.80
   0  -8  -9   27.00    1.50
   0   8  -9   26.80    1.50
   0   8  -9   26.50    1.60
  -1  -8  -9  944.61   27.20
  -1   8  -9  922.31   27.50
  -1   8  -9  932.11   27.20
  -1   8  -9  889.81   27.20
  -1  -8   9  965.40   27.20
   1  -8  -9  936.91   27.20
  -2  -8  -9   30.80    1.60
   2  -8  -9   32.30    1.60
  -2   8  -9   31.10    1.60
  -2   8  -9   30.50    1.80
  -2   8  -9   32.10    1.70
  -2  -8   9   31.00    1.70
  -3  -8  -9   36.40    1.80
  -3  -8  -9   36.20    1.80
   3   8  -9   34.80    1.70
  -3  -8   9   36.70    1.80
  -3   8  -9   35.50    1.90
  -3   8  -9   35.90    1.80
  -3   8  -9   36.20    1.80
   3  -8  -9   34.60    1.70
   4   8  -9   48.60    2.10
  -4  -8  -9   48.40    2.20
  -4   8  -9   52.09    2.30
   4  -8  -9   48.70    2.10
  -4  -8   9   49.20    2.20
  -4   8  -9   52.19    2.30
  -4   8  -9   47.70    2.30
   4   8   9   46.70    2.10
  -5   8   9    1.50    0.50
   5   8  -9    1.50    0.40
  -5  -8  -9    1.10    0.40
  -5  -8   9    1.20    0.50
  -5   8  -9    1.30    0.50
   5  -8  -9    0.40    0.40
  -5   8  -9    1.20    0.50
  -5   8  -9    1.40    0.50
   5   8   9    1.20    0.40
  -6  -8  -9   16.10    1.00
  -6   8   9   16.40    1.10
   6   8  -9   15.00    1.00
   6  -8  -9   14.10    1.00
  -6  -8   9   15.40    1.10
   6   8   9   14.70    1.00
  -6   8  -9   14.60    1.00
  -6   8  -9   14.80    1.00
  -7  -8  -9   11.10    0.80
  -7   8   9   11.50    0.80
   7   8  -9   11.20    0.70
   7  -8  -9   12.00    0.80
  -7  -8   9   10.70    0.80
  -7   8  -9   11.80    0.80
   7   8   9   12.80    0.80
  -7   8  -9   11.50    0.80
   0  -9  -9    0.70    0.40
   0  -9   9    0.00    0.30
  -1  -9  -9    3.90    0.70
  -1   9  -9    3.50    0.60
   1  -9  -9    4.20    0.70
  -1   9  -9    3.70    0.80
  -1  -9   9    2.80    0.60
  -2  -9  -9   18.40    1.20
  -2   9  -9   18.00    1.30
  -2   9  -9   16.60    1.10
  -2   9  -9   17.30    1.20
   2  -9  -9   20.70    1.20
  -2  -9   9   19.30    1.20
   3   9  -9   35.60    1.60
  -3  -9  -9   34.70    1.70
  -3   9  -9   33.90    1.90
   3  -9  -9   37.10    1.70
  -3   9  -9   35.00    1.70
  -3   9  -9   36.60    1.80
  -3  -9   9   35.40    1.80
  -4  -9  -9   35.10    1.60
   4   9  -9   33.60    1.50
   4  -9  -9   32.00    1.60
  -4   9  -9   32.30    1.60
  -4  -9   9   33.70    1.70
  -4   9  -9   34.00    1.70
   4   9   9   32.70    1.50
   5   9  -9   26.50    1.30
  -5  -9  -9   28.30    1.40
  -5  -9   9   28.70    1.40
  -5   9  -9   29.20    1.40
  -5   9  -9   29.20    1.40
   5  -9  -9   26.50    1.40
   5   9   9   27.90    1.30
   6   9  -9    7.50    0.60
  -6   9   9    7.20    0.60
  -6  -9  -9    6.90    0.60
   6  -9  -9    7.70    0.60
  -6  -9   9    7.00    0.60
   6   9   9    7.90    0.60
  -6   9  -9    8.00    0.70
  -6   9  -9    8.10    0.70
   0 -10   9   60.09    2.40
   0 -10  -9   59.69    2.40
  -1 -10  -9   48.00    2.10
   1 -10   9   47.80    2.10
  -1 -10   9   48.20    2.10
   1 -10  -9   49.40    2.10
   2 -10   9  123.19    4.30
  -2 -10  -9  123.79    4.20
  -2 -10   9  126.19    4.30
   2 -10  -9  127.89    4.30
  -3 -10  -9  166.68    5.30
  -3 -10   9  159.78    5.30
  -3  10  -9  168.68    5.30
   3 -10  -9  165.78    5.30
  -3  10  -9  156.08    5.20
  -4 -10  -9   14.90    0.90
  -4  10  -9   15.10    0.90
  -4 -10   9   15.10    0.90
   4 -10  -9   16.50    0.90
  -4  10  -9   14.40    0.90
  -5 -10  -9    7.80    0.60
   5  10  -9    7.70    0.80
  -5  10  -9    9.10    0.60
   5 -10  -9    8.20    0.60
   0 -11  -9    0.00    0.30
   0 -11   9    0.00    0.20
  -1 -11  -9    0.70    0.30
   1 -11   9    0.90    0.30
   1 -11  -9    0.70    0.30
  -1 -11   9    0.70    0.30
  -2 -11  -9   12.70    0.80
   2 -11   9   13.10    0.80
  -2 -11   9   11.80    0.80
   2 -11  -9   13.50    0.80
   3 -11  -9    4.50    0.50
   0   0 -10  998.10   31.50
   0   0  10 1000.50   31.70
   0   0  10 1031.20   29.80
   0   0 -10 1021.10   29.70
  -1   0  10  372.76   12.00
  -1   0 -10  372.36   10.90
   1   0 -10  373.86   11.70
   1   0  10  384.76   11.20
  -1   0 -10  369.66   11.20
  -1   0 -10  352.36   11.20
  -1   0 -10  383.16   11.80
   1   0 -10  399.56   11.80
  -1   0  10  348.77   11.30
   1   0  10  390.26   11.80
   2   0  10  597.34   17.90
  -2   0 -10  609.74   17.50
  -2   0 -10  583.04   18.30
  -2   0  10  618.24   18.80
  -2   0 -10  575.14   17.50
   2   0 -10  610.94   18.60
  -2   0 -10  585.74   17.60
  -2   0  10  621.24   18.20
   2   0  10  610.74   18.30
   2   0 -10  632.44   18.20
  -3   0 -10   50.29    2.20
  -3   0 -10   49.60    2.00
  -3   0  10   51.49    2.90
  -3   0 -10   51.59    1.90
   3   0  10   50.89    2.50
  -3   0 -10   51.09    2.50
   3   0  10   50.29    2.50
  -3   0  10   49.60    2.60
  -4   0  10    5.90    1.10
  -4   0 -10    6.00    0.80
  -4   0 -10   11.00    1.20
  -4   0  10    8.60    1.20
  -4   0 -10    9.00    0.70
  -5   0 -10  190.58    6.60
  -5   0  10  177.18    7.60
  -5   0 -10  183.38    6.10
  -5   0  10  170.98    7.40
   6   0 -10 1089.29   30.40
  -6   0 -10 1026.00   30.10
  -6   0 -10 1048.80   31.20
  -6   0  10  948.21   30.00
  -6   0 -10 1078.89   30.40
  -7   0 -10  397.96   11.90
  -7   0  10  397.56   12.00
  -7   0 -10  382.06   12.00
  -7   0 -10  394.96   11.90
  -7   0  10  385.06   11.90
  -7   0 -10  389.16   12.30
   7   0 -10  404.56   12.30
  -8   0 -10  364.36   11.40
   8   0 -10  362.26   11.40
  -8   0 -10  348.47   11.10
  -8   0 -10  353.16   11.00
  -8   0 -10  358.66   11.10
  -8   0  10  371.96   11.10
  -9   0  10    5.90    0.70
  -9   0 -10    7.10    0.90
  -9   0 -10    7.20    0.80
   9   0 -10    4.80    0.90
  -9   0 -10    5.60    0.70
  10   0 -10  158.08    5.30
 -10   0 -10  160.28    5.30
 -10   0  10  161.28    5.10
   0  -1 -10    1.10    0.40
   0  -1  10    2.20    0.60
   0  -1  10    0.70    0.30
   0   1  10    0.50    0.30
   0   1 -10    0.50    0.30
   0   1 -10    0.70    0.30
   1  -1  10   13.40    1.00
  -1  -1 -10   14.80    1.00
  -1   1  10   13.60    1.20
  -1   1  10   13.90    1.10
   1   1 -10   13.20    1.10
  -1   1  10   13.00    0.70
   1   1 -10   14.20    1.10
  -1  -1 -10   14.60    0.80
   1  -1  10   13.80    1.20
  -1   1 -10   13.60    0.80
  -1   1 -10   13.30    0.80
   1  -1 -10   13.20    1.10
  -1   1 -10   11.50    1.10
  -1  -1  10   15.50    1.30
  -1  -1  10   14.90    1.10
   1   1  10   14.20    1.00
   1   1  10   16.70    1.20
   2   1 -10 2408.16   70.29
   2   1 -10 2617.94  115.69
   2  -1  10 2433.36   74.99
  -2   1  10 2612.44   72.39
   2   1 -10 2411.16   72.79
  -2   1  10 2499.15   73.59
  -2  -1 -10 2375.66   71.39
   2  -1  10 2341.87   71.89
  -2   1  10 2313.87   70.89
   2   1  10 2381.26   70.69
   2   1  10 2426.86   70.89
  -2  -1  10 2310.67   73.69
  -2   1 -10 2319.97  106.29
  -2  -1  10 2467.05   72.39
   2  -1 -10 2273.77   70.49
  -2   1 -10 2196.28   69.49
  -3  -1 -10   20.70    1.30
  -3   1  10   20.50    1.80
   3   1 -10   25.70    1.90
   3   1 -10   21.20    1.40
   3  -1  10   20.90    1.60
  -3   1  10   25.60    1.60
  -3  -1 -10   21.70    1.20
  -3   1 -10   18.30    1.50
  -3   1 -10   20.40    1.50
  -3  -1  10   22.60    1.90
   3   1  10   21.50    1.50
  -3  -1  10   19.10    1.60
  -3   1 -10   19.00    1.20
  -4   1  10  679.63   21.60
  -4  -1 -10  660.43   20.30
  -4   1  10  608.04   20.90
  -4  -1 -10  698.03   20.20
  -4   1 -10  671.63   21.10
   4   1  10  725.93   21.80
  -4  -1  10  687.53   21.40
  -4  -1  10  675.13   21.60
  -4   1 -10  681.03   20.30
  -5   1  10  105.39    5.40
  -5  -1 -10  109.79    4.30
  -5   1  10  107.89    5.20
  -5  -1 -10  106.39    4.40
  -5   1 -10  104.59    5.00
  -5   1 -10  106.49    3.70
  -5  -1  10  105.39    5.30
  -5   1 -10  111.59    4.40
  -5  -1  10  104.99    5.30
  -6  -1 -10  298.97   10.60
  -6  -1 -10  315.77    9.90
  -6  -1 -10  324.17    9.50
   6   1 -10  331.07   10.00
  -6  -1 -10  296.57    9.60
  -6   1  10  301.37    9.60
  -6  -1  10  339.17    9.70
  -6   1 -10  313.57    9.60
   6  -1 -10  325.17    9.90
  -6   1 -10  290.47    9.70
  -6   1 -10  313.07   10.70
  -6   1 -10  302.67    9.50
  -7   1  10  283.57    9.10
  -7   1  10  279.97    9.00
  -7  -1 -10  294.67    9.40
   7   1 -10  293.77    9.40
  -7  -1 -10  293.07    9.10
  -7  -1 -10  283.37    9.00
  -7   1 -10  305.07    9.10
  -7   1 -10  289.07    9.10
  -7  -1  10  280.87    9.00
  -7   1 -10  271.27    9.20
  -7   1 -10  290.57    9.00
   7  -1 -10  302.07    9.30
  -8  -1 -10  104.89    4.10
  -8  -1 -10  109.69    3.90
   8   1 -10  111.49    4.20
  -8   1  10   91.79    3.70
  -8  -1 -10  102.29    3.90
  -8   1  10  107.29    3.80
  -8  -1  10   99.29    3.80
   8  -1 -10  113.39    4.10
  -8   1 -10  102.39    3.80
  -8   1 -10  104.39    3.80
  -8   1 -10  105.19    3.80
  -8   1 -10  102.09    4.00
  -9  -1 -10  105.29    4.00
  -9   1  10  100.89    3.70
  -9  -1 -10  106.39    3.80
   9   1 -10  102.89    3.90
   9  -1 -10  107.19    3.90
  -9  -1  10  106.79    3.70
  -9   1 -10  103.89    3.70
  -9   1 -10  100.69    3.90
 -10  -1 -10  335.57   10.20
  10   1 -10  335.57   10.10
  10  -1 -10  336.27   10.10
 -10  -1  10  327.77   10.00
 -10   1 -10  329.17   10.00
   0   2 -10  164.18    5.80
   0  -2 -10  165.38    5.10
   0  -2  10  165.88    5.80
   0   2  10  157.78    5.70
   0   2  10  161.18    5.60
   0  -2 -10  151.48    5.20
   0  -2 -10  158.38    5.70
   0   2 -10  161.88    5.50
   0  -2  10  161.48    6.10
  -1  -2 -10  154.88    5.20
   1  -2  10  172.68    6.50
   1  -2  10  163.78    5.20
  -1   2  10  146.99    6.00
  -1  -2 -10  163.38    5.40
   1  -2  10  173.88    6.10
   1   2 -10  159.98    5.20
  -1   2  10  178.48    6.00
  -1  -2 -10  173.88    5.90
   1   2 -10  180.58    6.10
   1   2 -10  165.88    6.00
  -1   2 -10  173.38    6.10
   1  -2 -10  164.68    6.10
  -1  -2  10  175.08    6.50
   1  -2 -10  168.18    5.30
   1   2  10  166.88    6.00
  -1   2 -10  176.78    5.50
  -1  -2  10  181.08    6.20
   1   2  10  173.88    5.50
  -2  -2 -10  893.01   26.60
   2   2 -10  888.11   25.80
   2   2 -10  880.11   26.70
   2  -2  10  914.81   26.90
   2  -2  10  904.11   25.90
  -2   2  10  843.02   27.00
   2  -2  10  953.10   27.40
  -2  -2 -10  929.01   25.60
   2   2 -10  903.91   27.00
  -2  -2 -10  884.91   26.10
   2   2  10  938.91   26.80
  -2  -2  10  893.51   27.30
   2  -2 -10  868.31   27.00
   2  -2 -10  867.11   26.00
  -2  -2  10  930.71   27.10
  -2   2 -10  895.01   26.20
  -2   2 -10  917.81   26.80
  -2   2 -10  842.72   25.90
  -3  -2 -10   61.69    2.80
   3   2 -10   59.89    2.30
  -3   2  10   60.29    3.40
   3  -2  10   61.99    3.20
   3   2 -10   61.39    2.80
  -3  -2 -10   59.59    2.60
  -3  -2 -10   61.39    2.10
   3  -2  10   61.39    2.50
  -3  -2  10   58.29    3.30
  -3   2 -10   60.09    3.30
   3   2  10   60.09    2.90
  -3   2 -10   63.19    3.00
  -3  -2  10   57.39    3.20
   4  -2  10  380.16   12.80
  -4   2  10  363.56   13.00
  -4  -2 -10  375.36   11.90
  -4  -2 -10  388.46   12.10
  -4  -2 -10  354.86   11.00
  -4   2 -10  375.46   12.90
  -4  -2  10  353.16   12.90
  -4  -2  10  380.76   13.10
   4   2  10  380.46   12.10
  -4   2 -10  386.66   12.90
  -5  -2 -10   45.50    2.10
  -5  -2 -10   45.80    1.90
  -5  -2 -10   46.90    2.60
  -5  -2 -10   48.00    2.70
   5  -2  10   47.30    2.50
  -5   2 -10   44.60    3.10
  -5  -2  10   45.90    3.50
  -5  -2  10   44.70    3.20
   5  -2 -10   48.50    2.20
  -5   2 -10   48.30    1.90
  -6  -2 -10  464.55   13.30
   6   2 -10  423.66   13.40
  -6  -2 -10  440.86   13.50
   6  -2  10  431.26   14.10
  -6  -2 -10  445.66   13.20
  -6   2  10  429.56   13.20
  -6  -2 -10  415.06   13.20
  -6  -2 -10  421.76   14.30
  -6   2 -10  428.76   13.10
  -6   2 -10  438.46   13.20
  -6  -2  10  477.65   13.30
   6  -2 -10  441.86   13.30
  -7   2  10    3.90    0.70
  -7  -2 -10    8.30    0.80
  -7  -2 -10    5.30    0.80
   7   2 -10    4.40    0.90
  -7  -2 -10    4.30    0.70
   7  -2 -10    6.40    0.90
  -7   2 -10    6.80    0.70
  -7  -2  10    3.40    0.70
  -8   2  10  231.28    7.60
  -8  -2 -10  251.17    8.00
  -8  -2 -10  241.68    7.60
  -8  -2 -10  243.08    7.80
   8   2 -10  234.98    7.80
  -8   2 -10  227.58    7.50
   8  -2 -10  242.38    7.80
  -8   2 -10  234.68    7.50
  -8  -2  10  222.78    7.60
   9   2 -10   29.30    1.70
  -9  -2 -10   31.90    1.80
  -9  -2 -10   32.00    1.60
  -9   2  10   28.60    1.50
  -9   2 -10   30.90    1.50
  -9  -2  10   30.90    1.60
   9  -2 -10   31.80    1.70
 -10  -2 -10    8.80    0.90
  10   2 -10    7.30    0.70
 -10  -2  10    8.80    0.70
  10  -2 -10   10.20    0.70
   0   3  10    2.00    0.60
   0   3 -10    0.30    0.20
   0   3 -10    0.50    0.40
   0   3 -10    0.70    0.40
   0  -3 -10    0.10    0.10
   0  -3 -10    0.50    0.40
   0  -3  10    2.10    0.60
   0   3  10    1.30    0.40
   0  -3 -10    0.30    0.20
   0  -3  10    1.80    0.70
  -1   3  10 1480.85   42.50
  -1  -3 -10 1464.65   42.10
  -1  -3 -10 1424.66   40.30
   1   3 -10 1452.35   43.10
   1  -3  10 1233.18   41.50
   1  -3  10 1374.46   41.30
   1  -3  10 1374.96   40.60
  -1  -3 -10 1417.46   40.30
  -1   3  10 1458.55   42.40
   1   3 -10 1375.36   40.90
   1   3 -10 1426.36   41.90
   1  -3 -10 1323.07   41.20
  -1   3 -10 1425.26   41.10
   1  -3 -10 1459.45   40.20
   1   3  10 1422.26   41.10
  -1  -3  10 1334.07   41.30
  -1  -3  10 1331.27   41.60
  -1   3 -10 1411.06   43.10
   2  -3  10  199.58    7.70
  -2   3  10  197.78    7.30
  -2  -3 -10  185.18    6.90
  -2  -3 -10  188.88    6.10
   2   3 -10  197.18    6.10
  -2   3  10  204.98    6.80
   2  -3  10  199.28    6.30
   2   3 -10  193.78    7.10
   2  -3  10  192.78    7.30
   2   3 -10  193.78    7.30
  -2  -3 -10  191.88    6.50
  -2   3 -10  204.58    7.10
  -2  -3  10  189.38    7.50
   2  -3 -10  186.48    6.30
  -2   3 -10  196.38    6.40
   2   3  10  203.68    7.10
  -2   3 -10  189.58    7.60
  -2  -3  10  190.38    7.40
   3  -3  10  329.27   10.00
  -3  -3 -10  337.17   10.30
  -3   3  10  325.37   11.40
   3   3 -10  334.67   10.80
   3   3 -10  292.87    9.70
  -3  -3 -10  319.97    9.70
  -3  -3 -10  321.97   10.70
   3  -3  10  335.17   11.30
  -3   3 -10  321.17   11.50
  -3   3 -10  323.27    9.90
   3  -3 -10  301.77   10.30
  -3   3 -10  317.07   10.70
   3   3  10  340.87   10.90
  -3  -3  10  303.07   11.30
  -3  -3  10  308.87   11.30
  -4  -3 -10  303.87    9.50
   4  -3  10  314.97   10.00
  -4  -3 -10  318.17   10.30
   4  -3  10  323.67   11.30
  -4  -3 -10  316.17   10.70
  -4   3  10  293.97   11.40
  -4   3 -10  311.47    9.60
  -4  -3  10  312.47   11.50
  -4   3 -10  324.17   11.60
   4   3  10  311.87   10.50
  -4  -3  10  288.17   11.20
   5  -3  10    2.30    0.70
  -5  -3 -10    1.60    0.40
  -5  -3 -10    1.40    0.60
  -5  -3 -10    1.20    0.40
  -5   3 -10    1.40    0.40
   5  -3 -10    3.90    0.50
  -5  -3  10    1.60    0.40
  -6  -3 -10  297.57    9.20
   6   3 -10  301.87    9.10
   6   3 -10  276.77    9.40
  -6   3  10  305.77    9.30
  -6  -3 -10  288.57    9.40
  -6  -3 -10  307.67    9.40
  -6  -3 -10  290.17    9.10
  -6   3 -10  280.27    9.10
  -6  -3  10  299.57    9.20
   6  -3 -10  290.67    9.20
  -7  -3 -10   96.39    3.60
  -7  -3 -10  100.29    3.90
  -7  -3 -10  100.29    3.70
  -7   3  10   96.59    3.70
  -7  -3 -10  108.49    4.00
   7   3 -10   95.59    3.90
   7  -3 -10  104.49    3.80
  -7   3 -10  100.19    3.70
  -7  -3  10   99.59    3.80
  -8  -3 -10   65.39    2.90
  -8  -3 -10   65.59    2.70
   8   3 -10   63.39    2.80
  -8  -3 -10   69.99    3.00
  -8   3  10   65.09    2.70
   8  -3 -10   70.39    2.80
  -8  -3  10   64.79    2.70
  -8   3 -10   65.99    2.70
  -8   3 -10   62.79    2.60
   9   3 -10    1.30    0.60
  -9   3  10    2.10    0.50
  -9  -3 -10    2.60    0.60
  -9  -3 -10    2.40    0.60
   9  -3 -10    3.90    0.60
  -9  -3  10    2.40    0.50
  -9   3 -10    5.00    0.60
 -10  -3 -10  293.07    8.80
   0  -4 -10   87.19    3.30
   0   4 -10   91.69    4.00
   0   4  10   93.49    4.10
   0   4 -10   91.49    4.20
   0  -4 -10   93.09    4.30
   0  -4  10   93.99    4.40
   0   4 -10   85.59    3.10
   0  -4 -10   91.39    3.50
   0  -4  10  107.69    4.80
   1  -4  10  395.26   13.30
   1  -4  10  390.96   12.90
   1   4 -10  371.86   12.60
  -1  -4 -10  369.36   11.40
  -1  -4 -10  368.16   11.70
  -1   4  10  388.76   12.40
   1   4 -10  374.86   11.30
   1   4 -10  371.86   12.50
  -1  -4 -10  373.36   12.60
  -1   4  10  357.76   12.20
  -1   4 -10  376.96   12.60
  -1  -4  10  388.06   12.90
   1   4  10  389.16   12.50
   1  -4 -10  375.56   11.70
  -1   4 -10  370.16   11.10
  -1   4 -10  390.36   12.10
  -1  -4  10  369.66   13.00
  -2  -4 -10  159.48    6.50
   2  -4  10  164.08    7.10
  -2  -4 -10  164.88    5.80
  -2   4  10  169.28    6.60
   2  -4  10  168.88    6.80
   2   4 -10  170.98    6.50
   2  -4  10  160.38    5.60
  -2   4  10  173.18    6.20
   2   4 -10  161.78    5.40
   2   4 -10  159.18    6.60
  -2  -4 -10  169.98    5.40
  -2  -4  10  168.98    6.90
  -2   4 -10  159.98    6.40
  -2  -4  10  166.68    6.90
  -2   4 -10  165.48    7.10
  -2   4 -10  169.48    5.90
  -2   4 -10  154.58    5.00
   2  -4 -10  156.68    5.60
   2   4  10  160.38    6.40
   3  -4  10   23.60    1.50
   3   4 -10   22.80    1.90
   3  -4  10   22.40    2.10
  -3  -4 -10   24.00    1.30
  -3   4  10   23.20    2.10
  -3  -4 -10   22.20    1.90
  -3  -4 -10   22.80    1.60
  -3   4 -10   21.30    1.80
   3  -4 -10   21.80    1.60
  -3   4 -10   22.30    1.50
  -3   4 -10   22.90    2.20
  -3  -4  10   24.30    2.20
   3   4  10   22.80    1.80
  -4  -4 -10 1041.00   31.80
  -4  -4 -10 1150.08   30.30
   4  -4  10 1026.20   30.60
  -4  -4 -10 1033.80   31.00
  -4  -4 -10 1031.30   30.20
  -4  -4  10 1028.80   30.00
  -4   4 -10 1038.60   30.50
   4   4  10  952.70   31.20
  -4   4 -10 1017.60   29.90
  -5  -4 -10  964.10   28.20
  -5  -4 -10  973.30   28.50
  -5  -4 -10 1013.50   28.20
  -5  -4 -10  956.90   29.40
   5   4 -10  960.00   28.10
  -5   4  10  955.30   28.30
  -5  -4 -10 1006.60   28.40
   5  -4  10  969.60   29.10
   5  -4 -10  929.81   28.10
  -5   4 -10  985.60   28.20
  -5  -4  10  978.80   28.30
  -5   4 -10  951.50   28.20
   6   4 -10  252.07    8.10
  -6  -4 -10  265.87    8.50
  -6  -4 -10  246.38    8.10
  -6   4  10  251.07    8.20
  -6  -4 -10  266.17    8.20
  -6  -4 -10  258.07    8.40
  -6   4 -10  250.27    8.10
   6  -4 -10  258.97    8.20
  -6  -4  10  251.47    8.20
  -6   4 -10  257.07    8.10
  -7  -4 -10  353.76   10.60
  -7  -4 -10  340.37   10.90
  -7  -4 -10  322.87   10.50
   7   4 -10  345.77   10.50
  -7  -4 -10  350.16   10.90
  -7   4  10  336.17   10.60
  -7  -4  10  348.77   10.70
  -7   4 -10  329.27   10.40
  -7   4 -10  341.57   10.50
  -8  -4 -10    1.80    0.50
  -8  -4 -10    1.50    0.50
  -8  -4 -10    2.10    0.50
  -8   4  10    1.40    0.50
  -8   4 -10    1.00    0.40
  -8  -4  10    2.30    0.60
   8   4  10    3.60    0.60
  -9  -4 -10   45.40    1.90
  -9   4  10   42.60    1.90
  -9  -4 -10   43.60    2.00
  -9  -4  10   43.10    1.90
  -9   4 -10   43.90    1.90
   0   5 -10    0.60    0.50
   0   5 -10    1.90    0.70
   0  -5 -10    1.80    0.50
   0   5  10    0.50    0.50
   0  -5  10    0.70    0.60
   0   5 -10    0.80    0.30
   0  -5  10    0.40    0.50
  -1   5  10   12.60    1.40
   1   5 -10   11.70    1.40
   1   5 -10   11.30    0.90
   1  -5  10   12.60    1.60
  -1  -5 -10   11.00    0.90
  -1  -5 -10   10.70    1.10
   1  -5  10   11.50    1.60
   1   5 -10   12.10    1.50
  -1   5 -10   12.20    1.50
   1  -5 -10   11.10    1.10
  -1   5 -10   11.00    1.20
   1   5  10   12.20    1.40
  -1  -5  10   11.80    1.60
  -1  -5  10   11.30    1.50
  -1   5 -10   10.30    0.80
   2   5 -10   50.89    3.20
  -2   5  10   50.39    2.90
  -2  -5 -10   48.70    2.60
  -2  -5 -10   48.90    2.20
   2  -5  10   50.19    3.30
  -2  -5 -10   48.00    3.10
   2  -5  10   48.90    3.50
   2   5 -10   49.60    2.20
  -2  -5  10   51.69    3.40
   2  -5 -10   49.00    2.50
  -2   5 -10   50.39    2.70
   2   5  10   48.20    3.00
  -2   5 -10   50.19    2.00
  -2   5 -10   49.99    3.10
  -2  -5  10   47.30    3.20
  -3  -5 -10    5.60    0.70
   3  -5  10    9.20    1.10
  -3  -5 -10    6.80    1.00
  -3  -5 -10    5.70    1.10
  -3   5  10    9.40    1.40
   3   5 -10    6.30    1.20
   3  -5 -10    6.30    1.10
  -3  -5  10    6.20    0.60
  -3   5 -10    7.10    0.70
   3   5  10    9.50    1.30
  -3   5 -10    7.70    1.20
  -3   5 -10    7.30    0.60
  -4  -5 -10    3.20    0.60
  -4   5  10    2.10    0.50
   4   5 -10    2.20    0.50
  -4  -5 -10    2.70    0.60
  -4  -5 -10    3.00    0.60
   4  -5  10    2.10    0.70
  -4  -5 -10    1.40    0.40
  -4  -5 -10    1.80    0.70
  -4   5 -10    1.60    0.50
   4   5  10    2.00    0.80
  -4  -5  10    1.90    0.50
  -4   5 -10    1.40    0.50
  -4   5 -10    1.80    0.40
  -5  -5 -10  188.48    6.40
   5   5 -10  182.18    6.00
  -5  -5 -10  180.48    6.20
  -5   5  10  189.78    6.10
  -5  -5  10  184.58    6.10
  -5   5 -10  181.18    5.90
  -5   5 -10  177.98    6.10
  -5   5 -10  179.48    6.00
  -6  -5 -10  390.76   12.20
  -6   5  10  409.36   12.30
   6   5 -10  400.86   12.10
  -6  -5 -10  409.66   12.60
  -6  -5 -10  392.96   12.20
  -6  -5 -10  405.36   12.40
  -6   5 -10  411.06   12.20
  -6   5 -10  398.26   12.00
  -6   5 -10  374.46   12.20
  -6  -5  10  390.26   12.20
  -7   5  10  117.99    4.20
  -7  -5 -10  118.39    4.20
  -7  -5 -10  123.29    4.20
   7   5 -10  116.09    4.10
  -7  -5 -10  114.59    4.50
  -7  -5 -10  116.69    4.40
  -7  -5  10  123.19    4.30
  -7   5 -10  117.59    4.20
  -7   5 -10  113.39    4.10
  -7   5 -10  115.49    4.20
  -8   5  10  216.38    7.00
   8   5 -10  205.78    6.70
  -8  -5 -10  212.48    7.00
  -8  -5 -10  224.38    6.90
  -8  -5  10  208.58    6.90
   8   5  10  218.18    6.80
  -8   5 -10  219.88    6.90
  -9  -5 -10   19.60    1.20
  -9  -5 -10   21.70    1.10
  -9   5  10   20.40    1.10
  -9   5 -10   21.00    1.10
  -9  -5  10   20.20    1.10
   0   6  10  176.08    7.20
   0   6 -10  185.08    5.90
   0   6 -10  175.68    7.20
   0  -6 -10  176.88    6.40
   0   6 -10  169.98    5.70
   0   6 -10  164.88    7.30
   1   6 -10   38.80    2.90
   1   6 -10   38.60    1.80
  -1  -6 -10   40.40    2.40
  -1   6  10   40.40    2.80
   1   6 -10   40.90    3.00
   1   6 -10   42.20    2.00
   1   6  10   41.90    2.90
  -1   6 -10   39.00    1.80
  -1   6 -10   43.40    1.90
   1  -6 -10   37.70    2.30
  -1   6 -10   39.40    2.90
  -2  -6 -10  635.14   19.60
   2   6 -10  651.33   18.90
  -2  -6 -10  648.04   19.10
  -2  -6 -10  644.54   19.70
   2   6 -10  604.04   20.70
  -2   6  10  629.84   20.20
  -2   6 -10  659.03   18.80
   2  -6 -10  630.34   19.50
   2   6  10  626.64   20.60
  -2   6 -10  640.14   18.70
  -2   6 -10  585.94   20.50
  -2  -6  10  638.84   18.70
  -3  -6 -10  381.86   11.90
   3   6 -10  354.66   13.40
  -3  -6 -10  356.96   11.40
  -3  -6 -10  383.16   12.60
  -3  -6 -10  392.56   11.50
   3   6 -10  387.96   11.40
  -3   6 -10  393.36   11.60
  -3   6 -10  389.76   11.50
  -3  -6  10  382.26   11.50
   3  -6 -10  372.26   12.30
  -3   6 -10  379.06   11.50
   3  -6 -10  366.16   11.40
   3   6  10  353.96   13.20
  -4  -6 -10  305.47    9.90
  -4   6  10  292.57    9.40
  -4  -6 -10  303.57    9.40
   4   6 -10  307.07    9.40
  -4  -6 -10  310.17    9.40
  -4  -6  10  302.67    9.50
  -4   6 -10  297.17    9.40
  -4   6 -10  307.27    9.40
  -4   6 -10  292.17    9.50
   4  -6 -10  305.67    9.40
  -5  -6 -10   56.19    2.80
  -5   6  10   62.79    2.60
   5   6 -10   59.19    2.50
  -5  -6 -10   61.19    2.50
  -5  -6 -10   59.99    2.50
  -5   6 -10   59.89    2.50
   5  -6 -10   58.59    2.50
  -5   6 -10   58.19    2.50
  -5   6 -10   56.59    2.50
  -5  -6  10   58.59    2.60
  -6  -6 -10  128.29    5.00
  -6  -6 -10  135.69    4.70
   6   6 -10  135.69    4.70
  -6  -6 -10  134.39    4.80
  -6   6  10  142.99    4.80
  -6   6 -10  128.89    4.70
  -6   6 -10  131.69    4.70
  -6  -6  10  143.09    4.80
  -6   6 -10  138.59    4.80
  -7   6  10   39.40    1.90
  -7  -6 -10   42.70    1.90
   7   6 -10   38.00    1.80
   7  -6 -10   41.10    1.90
   7   6  10   37.70    1.80
  -7   6 -10   39.50    1.90
  -7  -6  10   40.30    1.90
  -7   6 -10   41.50    1.90
   8   6 -10   16.20    0.90
  -8   6  10   16.00    1.10
  -8  -6 -10   15.30    1.00
  -8  -6  10   14.90    1.00
   8   6  10   15.60    0.90
  -8   6 -10   17.70    1.00
   8  -6 -10   16.10    1.00
  -8   6 -10   14.40    0.90
  -9   6  10   50.79    2.00
   0   7 -10    0.50    0.40
   0   7 -10    0.20    0.30
   0   7 -10    0.70    0.40
   0   7  10    0.30    0.60
   0  -7 -10    0.10    0.40
   0  -7 -10    1.40    0.40
   1   7 -10  428.06   13.00
  -1  -7 -10  421.76   12.70
  -1   7  10  413.16   15.90
   1  -7 -10  426.96   12.70
   1  -7 -10  421.86   14.20
  -1   7 -10  433.66   12.80
  -1  -7  10  427.16   12.80
  -1   7 -10  395.96   12.70
  -1   7 -10  421.56   13.00
  -2  -7 -10   12.30    1.00
   2   7 -10   12.60    0.90
   2  -7 -10   13.30    1.00
  -2   7 -10   13.30    1.10
  -2  -7  10   13.00    1.00
  -2   7 -10   13.90    1.00
  -2   7 -10   14.10    1.00
   3   7 -10    2.50    0.50
  -3  -7 -10    2.80    0.60
  -3  -7 -10    2.20    0.50
  -3   7 -10    2.80    0.60
  -3   7 -10    2.20    0.50
   3  -7 -10    1.40    0.50
  -3  -7  10    2.30    0.50
  -3   7 -10    2.10    0.60
  -4   7  10   97.59    3.70
  -4  -7 -10   96.29    3.60
  -4  -7 -10   98.59    3.70
   4   7 -10   99.69    3.60
  -4  -7  10  102.39    3.70
  -4   7 -10  101.69    3.80
  -4   7 -10   96.99    3.80
   4  -7 -10   97.79    3.60
  -4   7 -10  102.79    3.80
  -5  -7 -10   32.20    1.70
  -5   7  10   32.80    1.70
  -5  -7 -10   32.70    1.70
   5   7 -10   32.20    1.60
   5  -7 -10   31.30    1.60
  -5   7 -10   31.30    1.70
  -5   7 -10   31.10    1.70
  -5   7 -10   31.10    1.70
  -5  -7  10   30.30    1.70
   6   7 -10   17.00    1.10
  -6  -7 -10   15.70    1.10
  -6   7  10   17.40    1.20
   6  -7 -10   16.60    1.20
  -6   7 -10   15.70    1.20
   6   7  10   16.60    1.10
  -6  -7  10   16.50    1.20
  -6   7 -10   17.80    1.20
  -6   7 -10   16.40    1.10
  -7   7  10    5.20    0.70
   7   7 -10    4.40    0.60
  -7  -7 -10    5.20    0.60
  -7   7 -10    4.90    0.60
   7   7  10    4.70    0.60
   7  -7 -10    4.20    0.60
  -7  -7  10    4.90    0.70
  -7   7 -10    4.60    0.60
   8   7 -10  351.86   10.60
  -8   7  10  360.66   10.80
  -8  -7 -10  357.26   10.70
  -8   7 -10  355.66   10.70
  -8   7 -10  357.36   10.70
  -8  -7  10  368.96   10.70
   8  -7 -10  357.86   10.60
   8   7  10  368.66   10.60
   0   8 -10  600.14   17.40
   0  -8 -10  574.14   17.20
   0   8 -10  566.04   17.50
  -1  -8 -10  527.65   15.60
  -1   8 -10  518.95   15.60
  -1   8 -10  517.05   15.90
  -1   8 -10  515.45   15.60
   1  -8 -10  526.55   15.60
  -2  -8 -10   98.39    3.60
  -2   8 -10   96.39    3.60
   2  -8 -10   95.39    3.50
  -2   8 -10   97.09    3.60
  -2  -8  10  100.09    3.60
  -2   8 -10   93.49    3.80
   3   8 -10    3.80    0.60
  -3  -8 -10    3.40    0.60
  -3  -8 -10    3.20    0.60
  -3  -8  10    2.70    0.60
  -3   8 -10    3.40    0.60
  -3   8 -10    3.70    0.70
   3  -8 -10    5.80    0.70
  -3   8 -10    5.70    0.80
  -4  -8 -10  338.07   10.20
  -4  -8 -10  325.57   10.20
   4   8 -10  321.47   10.10
  -4   8 -10  324.67   10.30
   4  -8 -10  328.87   10.20
  -4   8 -10  349.47   10.40
  -4  -8  10  335.67   10.30
  -4   8 -10  324.87   10.50
   5   8 -10    0.50    0.30
  -5   8  10    0.30    0.40
  -5  -8 -10    0.90    0.40
  -5   8 -10    0.80    0.40
  -5  -8  10    0.20    0.40
   5   8  10    1.10    0.40
   5  -8 -10    1.10    0.40
  -5   8 -10    1.40    0.40
  -6   8  10   60.69    2.40
  -6  -8 -10   60.99    2.40
   6   8 -10   61.69    2.40
  -6   8 -10   62.09    2.40
   6   8  10   60.89    2.30
  -6  -8  10   64.59    2.50
  -6   8 -10   60.59    2.50
   6  -8 -10   61.99    2.40
  -7  -8 -10    0.20    0.30
   7   8 -10    1.50    0.30
  -7   8  10    0.60    0.30
   7  -8 -10    0.50    0.30
  -7  -8  10    0.50    0.30
   7   8  10    0.40    0.20
  -7   8 -10    0.30    0.30
  -7   8 -10    0.30    0.30
   0  -9  10    0.10    0.30
   0  -9 -10    0.20    0.40
  -1  -9 -10   24.60    1.40
  -1  -9  10   21.90    1.40
  -1   9 -10   24.70    1.40
  -1   9 -10   23.10    1.30
  -1   9 -10   22.30    1.50
   1  -9 -10   23.40    1.40
  -2  -9 -10  132.69    4.40
  -2   9 -10  126.39    4.40
  -2  -9  10  126.39    4.40
   2  -9 -10  129.09    4.40
  -2   9 -10  117.79    4.60
  -2   9 -10  124.79    4.40
   3   9 -10  113.89    3.90
  -3  -9 -10  121.29    4.10
  -3  -9  10  119.59    4.20
  -3   9 -10  116.29    4.20
  -3   9 -10  115.29    4.20
   3  -9 -10  118.49    4.10
  -4  -9 -10   42.60    1.90
   4   9 -10   43.10    1.80
  -4  -9  10   43.10    1.90
  -4   9 -10   42.20    1.90
   4   9  10   43.20    1.80
   4  -9 -10   44.90    1.90
  -4   9 -10   41.90    1.90
  -5  -9 -10    0.30    0.30
   5   9 -10    0.50    0.30
  -5   9 -10    1.00    0.40
   5  -9 -10    0.60    0.40
  -5  -9  10    0.60    0.40
   5   9  10    0.30    0.30
  -5   9 -10    0.40    0.30
  -6   9  10   10.70    0.70
  -6  -9 -10   10.60    0.70
   6   9 -10   10.80    0.70
   6  -9 -10   11.30    0.70
  -6  -9  10   12.70    0.80
  -6   9 -10   11.00    0.70
  -6   9 -10   11.80    0.80
   6   9  10   12.40    0.70
   0 -10 -10  320.67    9.70
   0 -10  10  308.77    9.70
  -1 -10 -10    1.10    0.40
   1 -10  10    0.80    0.40
   1 -10 -10    1.50    0.40
  -1 -10  10    0.70    0.40
   2 -10  10   26.20    1.40
  -2 -10 -10   24.30    1.30
   2 -10 -10   24.20    1.30
  -2 -10  10   25.20    1.40
  -2  10 -10   26.10    1.40
  -3 -10 -10   31.30    1.40
   3 -10 -10   31.10    1.40
  -3 -10  10   29.50    1.50
  -3  10 -10   30.80    1.50
  -3  10 -10   29.60    1.40
  -4 -10 -10   91.99    3.10
  -4  10 -10   92.49    3.20
  -4  10 -10   93.19    3.20
   4 -10 -10   93.89    3.20
  -4 -10  10   93.89    3.20
  -5  10 -10   48.80    1.90
   5 -10 -10   50.39    1.80
   0 -11 -10    0.60    0.30
   0 -11  10    0.20    0.20
   1 -11  10    0.30    0.30
  -1 -11 -10    0.30    0.30
  -1 -11  10    0.50    0.30
   1 -11 -10    0.30    0.30
  -2 -11 -10   17.10    0.90
   2 -11 -10   17.90    0.90
   3 -11 -10   33.10    1.60
   0   0 -11    1.90    0.50
   0   0  11    0.60    0.20
   0   0 -11    0.30    0.20
   0   0  11    0.30    0.30
   1   0 -11    1.10    0.40
  -1   0 -11    0.60    0.30
  -1   0  11    1.70    0.60
   1   0  11    1.30    0.50
  -1   0 -11    0.80    0.40
   1   0  11    1.50    0.30
  -1   0  11    0.90    0.30
   1   0 -11    1.00    0.40
   2   0 -11    0.30    0.30
   2   0  11    1.00    0.40
   2   0 -11    0.40    0.20
   2   0 -11    0.40    0.40
  -2   0 -11    1.10    0.50
  -2   0 -11    0.30    0.20
  -2   0 -11    0.70    0.20
   2   0  11    1.50    0.40
  -2   0 -11    0.70    0.30
  -2   0  11    0.50    0.40
  -2   0  11    0.40    0.30
  -3   0 -11    0.50    0.30
  -3   0  11    0.80    0.40
   3   0  11    0.20    0.30
  -4   0  11    0.10    0.40
  -4   0 -11    0.40    0.30
  -4   0  11    0.60    0.50
  -5   0 -11    0.20    0.20
  -5   0 -11    0.30    0.40
  -5   0  11    0.50    0.50
  -5   0  11    0.40    0.50
  -6   0 -11    1.80    0.70
  -6   0 -11    0.60    0.30
   6   0 -11    0.50    0.50
  -6   0 -11    0.80    0.40
  -6   0  11    1.10    0.40
  -7   0  11    0.80    0.40
  -7   0  11    1.10    0.40
  -7   0 -11    0.60    0.40
  -7   0 -11    0.80    0.40
   7   0 -11    0.30    0.60
  -7   0 -11    0.50    0.30
  -8   0  11    0.60    0.40
  -8   0 -11    1.00    0.40
  -8   0 -11    1.20    0.40
  -8   0 -11    2.10    0.60
   8   0 -11    1.20    0.70
   9   0 -11   -0.30    0.50
  -9   0  11    0.30    0.30
  -9   0 -11    0.90    0.50
 -10   0 -11   -0.10    0.40
  10   0 -11    0.30    0.30
   0   1 -11    0.60    0.40
   0  -1  11    0.20    0.20
   0  -1  11    0.40    0.40
   0   1  11    0.40    0.30
   0   1 -11    0.50    0.30
   0   1  11    1.00    0.40
   0  -1 -11    0.90    0.40
  -1   1  11 1700.83   49.99
  -1   1  11 1672.53   50.19
  -1  -1 -11 1709.03   50.79
   1   1 -11 1482.05   47.90
   1  -1  11 1696.03   52.59
   1   1 -11 1607.74   48.10
   1  -1  11 1861.11   49.90
   1   1 -11 1698.83   52.49
  -1  -1 -11 1598.84   47.70
  -1  -1  11 1777.02   54.09
  -1  -1  11 1415.66   47.80
  -1   1 -11 1718.63   49.30
  -1   1 -11 1646.14   50.79
   1  -1 -11 1612.94   48.00
   1   1  11 1697.63   49.80
   1   1  11 1637.34   50.69
   1  -1 -11 1665.93   51.09
   2   1 -11  640.44   19.00
  -2  -1 -11  597.24   18.30
   2  -1  11  614.44   19.30
   2   1 -11  611.14   18.10
  -2   1  11  622.14   19.50
   2  -1  11  642.24   18.90
  -2  -1 -11  641.34   18.50
  -2  -1  11  596.54   19.00
  -2  -1  11  637.44   19.60
   2  -1 -11  616.84   19.30
  -2   1 -11  634.24   18.00
   2   1  11  636.74   19.00
   2  -1 -11  602.24   18.10
  -2   1 -11  614.24   18.20
  -2   1 -11  654.53   19.10
  -3  -1 -11  515.75   15.40
   3  -1  11  514.25   16.00
   3   1 -11  558.94   18.20
   3  -1  11  516.55   16.30
  -3   1  11  514.75   16.70
  -3  -1 -11  521.55   15.50
  -3   1  11  528.65   16.00
   3   1 -11  493.15   16.00
   3   1 -11  502.35   15.10
  -3   1 -11  498.85   15.90
   3   1  11  490.55   15.90
  -3  -1  11  476.45   16.20
  -3  -1  11  542.35   16.90
  -4  -1 -11    1.90    0.50
  -4  -1 -11    1.30    0.40
  -4   1  11    1.80    0.70
  -4   1  11    2.20    0.90
   4   1  11    2.00    0.60
  -4  -1  11    1.80    0.80
  -4   1 -11    2.70    0.70
  -4   1 -11    1.10    0.40
  -4  -1  11    1.70    0.70
  -5  -1 -11    5.60    0.90
  -5  -1 -11    5.20    0.70
  -5  -1  11    4.10    1.00
  -5   1 -11    4.30    0.80
   5  -1 -11    5.40    0.70
  -5  -1  11    5.30    1.10
  -6   1  11  197.58    6.40
  -6  -1 -11  191.38    7.20
  -6  -1 -11  192.08    6.60
   6   1 -11  202.68    6.60
  -6  -1 -11  194.58    6.30
  -6  -1 -11  199.38    6.20
  -6  -1  11  192.28    6.40
   6  -1 -11  198.38    6.50
  -6   1 -11  188.68    6.40
  -6   1 -11  195.58    7.30
  -6  -1  11  184.68    6.20
  -6   1 -11  194.28    6.20
  -7  -1 -11   57.79    2.50
  -7  -1 -11   60.49    2.70
  -7  -1 -11   58.59    2.50
  -7   1  11   59.79    2.50
   7   1 -11   61.39    2.80
  -7  -1  11   58.09    2.50
  -7   1 -11   55.49    2.60
  -7   1 -11   58.19    2.40
   7  -1 -11   65.69    2.80
  -7   1 -11   56.49    2.40
  -8  -1 -11   19.10    1.40
   8   1 -11   18.90    1.60
  -8  -1 -11   19.00    1.30
  -8  -1 -11   20.10    1.30
  -8   1  11   17.40    1.20
  -8  -1  11   19.40    1.20
  -8   1 -11   18.60    1.30
  -8   1 -11   17.90    1.20
  -8   1 -11   22.20    1.30
  -8   1 -11   20.60    1.20
   8  -1 -11   23.10    1.60
   9   1 -11   -0.20    0.50
  -9  -1 -11    0.40    0.40
  -9  -1 -11    0.00    0.30
  -9  -1  11    1.40    0.40
  -9   1 -11    0.10    0.30
   9  -1 -11    0.50    0.50
  10   1 -11    0.20    0.30
 -10  -1 -11    0.50    0.40
   0  -2  11    6.80    0.90
   0   2 -11    5.50    0.80
   0  -2 -11    6.40    0.50
   0   2  11    6.00    0.80
   0  -2 -11    5.50    0.50
   0  -2  11    6.00    1.00
   0   2 -11    6.10    0.70
   0   2  11    8.80    1.00
   1   2 -11 1072.09   30.40
   1  -2  11  973.40   30.20
   1   2 -11 1044.30   30.20
   1  -2  11  952.00   30.60
  -1   2  11  999.50   30.10
   1   2 -11 1006.60   29.20
  -1  -2 -11  976.00   29.10
  -1   2  11 1087.59   30.40
  -1  -2 -11 1018.00   30.10
  -1  -2 -11  977.70   29.40
  -1   2 -11  994.00   30.40
  -1  -2  11  951.80   30.20
   1   2  11 1074.49   30.30
  -1  -2  11 1082.59   30.90
   1  -2 -11 1042.40   30.40
  -1   2 -11 1060.69   30.40
   2  -2  11   82.39    2.90
   2   2 -11   77.19    3.50
  -2   2  11   80.99    3.90
  -2  -2 -11   82.79    3.40
  -2  -2 -11   80.79    3.00
   2  -2  11   83.29    4.00
  -2  -2 -11   80.29    2.60
   2   2 -11   81.19    2.80
   2   2 -11   83.19    3.80
  -2   2  11   69.09    3.20
   2  -2  11   83.09    3.60
  -2  -2  11   81.59    3.80
  -2   2 -11   81.79    3.60
  -2   2 -11   84.89    2.80
   2   2  11   79.89    3.60
   2  -2 -11   73.49    2.80
  -2  -2  11   79.79    3.90
   2  -2 -11   81.69    3.80
   3  -2  11   27.50    1.40
   3  -2  11   27.50    2.00
   3  -2  11   26.00    2.10
  -3  -2 -11   25.60    1.10
   3   2 -11   25.10    1.70
  -3  -2 -11   24.00    1.60
  -3  -2 -11   26.60    1.50
  -3   2  11   26.50    2.10
   3   2 -11   25.70    1.30
  -3   2 -11   27.00    2.10
  -3   2 -11   24.60    1.80
  -3  -2  11   25.70    2.00
  -3  -2  11   25.20    2.10
   3   2  11   27.10    1.80
   4  -2  11  280.67    9.00
   4  -2  11  282.27   10.00
  -4  -2 -11  275.87    8.30
  -4   2  11  267.97   10.30
  -4  -2 -11  281.47    9.20
  -4  -2 -11  283.47    9.40
  -4  -2  11  267.97   10.20
  -4   2 -11  276.77   10.20
  -4  -2  11  270.17   10.30
   4   2  11  277.37    9.50
  -5  -2 -11  421.26   12.80
   5  -2  11  446.96   13.60
   5  -2  11  429.16   15.00
  -5  -2 -11  439.76   13.90
  -5  -2 -11  433.06   13.10
  -5   2 -11  421.36   14.90
  -5  -2  11  412.46   15.40
   5  -2 -11  431.56   13.00
  -6  -2 -11    1.20    0.40
   6  -2  11    0.70    0.50
   6   2 -11    1.50    0.70
  -6  -2 -11    1.70    0.50
  -6  -2 -11    0.50    0.40
  -6   2  11    0.60    0.40
  -6  -2 -11    1.60    0.50
  -6  -2 -11    0.40    0.30
  -6   2 -11    0.50    0.30
  -6  -2  11    3.70    0.60
  -6   2 -11    0.70    0.30
   7   2 -11  499.25   16.00
  -7  -2 -11  520.45   15.90
  -7  -2 -11  539.35   16.30
  -7   2  11  525.45   16.00
  -7  -2 -11  546.35   16.10
  -7  -2  11  538.05   15.90
  -7   2 -11  528.45   15.80
   7  -2 -11  548.75   16.10
  -8  -2 -11   26.60    1.60
  -8  -2 -11   24.70    1.40
   8   2 -11   23.00    1.70
  -8   2  11   23.90    1.40
  -8  -2 -11   25.70    1.70
   8  -2 -11   26.50    1.60
  -8   2 -11   26.30    1.40
  -8  -2  11   23.10    1.40
  -8   2 -11   23.40    1.30
   9   2 -11    0.00    0.50
  -9  -2 -11    0.80    0.40
  -9   2  11    0.70    0.40
  -9  -2 -11    0.80    0.40
  -9  -2  11    0.50    0.30
   9  -2 -11    0.70    0.40
  -9   2 -11    1.10    0.40
 -10  -2 -11    5.30    0.80
  10  -2 -11    3.40    0.70
   0   3 -11    0.30    0.40
   0   3 -11    1.00    0.40
   0  -3 -11    0.20    0.20
   0   3  11    1.10    0.50
   1   3 -11  664.93   19.00
   1  -3  11  638.34   20.70
  -1  -3 -11  669.93   19.30
   1   3 -11  678.23   20.20
  -1   3  11  660.33   20.00
  -1  -3 -11  672.63   20.10
   1  -3  11  654.73   20.30
  -1   3  11  635.04   20.00
   1   3 -11  652.03   20.10
  -1  -3 -11  668.03   19.00
  -1  -3  11  607.54   20.20
  -1   3 -11  647.54   19.50
   1  -3 -11  649.04   19.20
   1  -3 -11  616.14   19.00
   1  -3 -11  615.04   20.20
  -1  -3  11  683.33   20.80
  -1   3 -11  667.93   20.20
  -2   3  11   22.80    1.90
  -2  -3 -11   22.30    1.20
   2   3 -11   22.70    1.90
  -2  -3 -11   23.40    1.40
   2  -3  11   24.50    2.10
  -2  -3 -11   23.50    1.70
  -2   3  11   24.60    1.70
   2   3 -11   22.80    1.80
   2   3 -11   22.80    1.20
   2  -3  11   25.50    2.00
   2   3  11   24.60    1.80
  -2  -3  11   24.80    2.00
  -2   3 -11   25.10    1.40
  -2  -3  11   22.40    1.90
  -2   3 -11   24.50    1.80
  -3   3  11  106.89    5.10
  -3  -3 -11  110.39    4.20
  -3  -3 -11  104.89    4.60
   3   3 -11  104.89    3.80
   3   3 -11  108.69    4.70
   3  -3  11  107.89    4.00
  -3  -3 -11  105.99    3.70
   3  -3  11  111.29    5.30
   3  -3  11  109.39    5.00
   3   3  11  113.09    4.70
  -3   3 -11  112.19    3.80
  -3  -3  11  108.29    5.20
  -3   3 -11  110.89    4.70
  -3   3 -11  106.49    5.20
  -3  -3  11  106.49    5.10
   4  -3  11   63.59    3.70
  -4  -3 -11   67.69    2.40
  -4  -3 -11   62.99    3.30
  -4  -3 -11   59.29    2.90
  -4   3  11   60.39    3.80
   4  -3  11   60.59    2.80
  -4  -3  11   56.09    3.70
  -4  -3  11   56.69    3.70
   4   3  11   56.59    3.10
  -4   3 -11   60.89    3.80
  -4   3 -11   59.69    2.40
   5  -3  11  242.48    8.50
  -5  -3 -11  244.38    8.70
  -5  -3 -11  260.17    7.90
  -5   3  11  247.08    8.00
  -5  -3 -11  246.78    8.00
   5  -3 -11  241.58    7.80
  -5  -3  11  255.17    7.80
  -5   3 -11  240.98    7.70
  -6  -3 -11  604.24   17.80
   6   3 -11  594.74   17.40
  -6  -3 -11  623.44   17.70
  -6  -3 -11  571.34   17.40
  -6  -3 -11  583.44   17.40
  -6   3  11  587.04   17.50
  -6  -3  11  538.95   17.40
   6  -3 -11  588.34   17.50
  -6   3 -11  587.14   17.40
  -7  -3 -11    4.00    0.70
   7   3 -11    3.60    0.80
  -7  -3 -11    3.90    0.70
  -7  -3 -11    4.60    0.70
  -7   3  11    3.00    0.60
  -7  -3 -11    5.60    0.70
   7  -3 -11    5.90    0.80
  -7  -3  11    4.00    0.70
  -7   3 -11    3.50    0.60
  -8   3  11   11.50    0.90
  -8  -3 -11   10.60    0.90
  -8  -3 -11   10.00    1.00
   8   3 -11    8.60    1.10
  -8  -3 -11   11.00    1.10
  -8   3 -11   10.80    0.90
   8  -3 -11   12.00    1.00
  -8  -3  11   10.80    0.90
  -8   3 -11    9.70    0.80
   9   3 -11   43.60    2.00
  -9  -3 -11   50.39    2.10
  -9  -3 -11   50.79    2.30
  -9   3  11   47.60    2.00
  -9  -3  11   49.80    2.10
   9  -3 -11   49.99    2.10
  -9   3 -11   48.80    2.00
 -10  -3 -11    1.00    0.30
   0   4  11   44.50    2.60
   0  -4 -11   47.40    2.00
   0   4 -11   46.60    2.80
   0  -4 -11   45.00    2.80
   0   4 -11   45.30    1.80
   0   4 -11   42.10    2.50
   0  -4  11   44.10    3.00
   0  -4 -11   44.40    2.10
   0  -4  11   43.30    2.80
  -1  -4 -11  378.06   11.30
   1  -4  11  373.26   12.70
   1   4 -11  369.76   11.20
   1   4 -11  364.56   12.40
  -1  -4 -11  375.86   12.50
   1   4 -11  363.66   12.50
   1  -4  11  377.56   13.20
  -1  -4 -11  370.16   11.60
  -1   4  11  375.46   12.30
  -1   4 -11  367.86   11.90
   1  -4 -11  351.36   11.40
  -1  -4  11  385.26   12.80
  -1   4 -11  379.36   12.50
   1   4  11  393.76   12.50
  -1  -4  11  336.07   12.80
  -1   4 -11  365.66   10.90
   1  -4 -11  366.66   11.50
  -2   4  11    6.90    1.10
   2   4 -11    6.40    1.10
   2  -4  11    7.30    1.20
  -2  -4 -11    8.90    0.70
  -2   4  11    6.40    1.00
   2   4 -11    5.50    1.00
   2   4 -11    6.60    0.70
   2  -4  11    7.40    1.30
  -2  -4 -11    8.10    1.10
  -2  -4 -11    6.80    0.90
  -2  -4  11    7.20    1.20
   2   4  11    6.80    1.10
  -2   4 -11    5.80    0.40
  -2   4 -11    7.20    0.90
  -2   4 -11    7.00    1.10
  -2  -4  11    7.70    1.30
  -3  -4 -11  194.48    6.20
   3   4 -11  184.98    7.30
  -3  -4 -11  187.58    7.40
  -3   4  11  189.88    7.80
  -3  -4 -11  196.28    6.80
   3  -4  11  196.18    8.20
   3  -4  11  193.58    7.90
  -3   4 -11  184.38    8.10
  -3  -4  11  176.18    7.70
  -3  -4  11  184.58    7.90
  -3   4 -11  192.88    7.40
   3   4  11  196.28    7.40
  -3   4 -11  196.28    6.60
  -4  -4 -11    8.70    0.80
   4  -4  11    9.10    1.00
  -4  -4 -11    9.60    0.90
  -4  -4 -11    9.70    1.20
   4   4  11    9.40    1.30
  -4  -4  11   11.00    0.80
   4  -4 -11   13.50    0.80
  -4   4 -11   10.70    0.80
  -5   4  11   12.00    1.00
  -5  -4 -11   12.90    0.90
   5  -4  11   12.30    1.30
  -5  -4 -11   11.80    1.40
  -5  -4 -11   12.60    1.00
  -5  -4 -11   12.50    1.10
   5   4 -11   12.10    0.90
  -5  -4 -11   11.00    0.90
  -5   4 -11   10.90    0.90
  -5   4 -11   13.00    1.00
   5  -4 -11   15.30    0.90
  -5  -4  11   11.90    1.00
  -6   4  11   63.19    2.70
  -6  -4 -11   63.99    2.60
  -6  -4 -11   63.39    2.80
   6   4 -11   63.79    2.60
  -6  -4 -11   65.29    2.60
  -6  -4 -11   64.69    2.90
  -6  -4  11   61.49    2.60
   6  -4 -11   61.99    2.60
  -6   4 -11   60.89    2.60
  -6   4 -11   60.99    2.60
  -7   4  11   14.30    1.10
  -7  -4 -11   12.80    1.20
  -7  -4 -11   12.90    1.20
  -7  -4 -11   14.20    1.10
  -7  -4 -11   13.60    1.00
   7   4 -11   13.80    1.00
  -7   4 -11   12.80    1.00
  -7   4 -11   12.50    0.90
  -7  -4  11   13.10    1.10
  -8  -4 -11    0.40    0.40
  -8   4  11    1.70    0.50
  -8  -4 -11    0.50    0.40
  -8   4 -11    0.60    0.40
  -8  -4  11    0.30    0.30
  -9  -4 -11   27.90    1.40
  -9  -4 -11   27.30    1.50
  -9   4  11   24.70    1.30
  -9   4 -11   24.10    1.30
  -9  -4  11   28.80    1.40
   0  -5  11    0.00    0.40
   0   5 -11    0.50    0.50
   0   5 -11    0.50    0.40
   0  -5  11    0.60    0.60
   0   5 -11    0.20    0.20
   0   5  11    0.30    0.50
   0  -5 -11    0.30    0.40
   1  -5  11   62.29    4.00
   1   5 -11   68.69    3.70
   1   5 -11   62.89    3.60
   1  -5  11   63.79    3.70
  -1  -5 -11   64.29    3.00
   1   5 -11   63.19    2.50
  -1   5  11   62.09    3.40
  -1  -5 -11   62.39    2.60
  -1   5 -11   62.99    2.40
  -1  -5  11   62.39    3.90
  -1   5 -11   59.09    3.50
  -1  -5  11   66.09    3.90
   1   5  11   63.59    3.60
   1  -5 -11   62.99    2.90
  -1   5 -11   61.09    3.20
   2   5 -11    6.60    0.70
  -2  -5 -11    3.70    0.60
   2  -5  11    3.70    1.00
   2  -5  11    3.20    1.20
  -2   5  11    5.20    1.00
  -2  -5 -11    3.90    0.80
  -2  -5 -11    3.90    1.00
   2   5 -11    4.90    1.00
  -2  -5  11    5.70    1.20
   2  -5 -11    3.70    0.80
   2   5  11    3.40    0.90
  -2   5 -11    3.60    0.50
  -2  -5  11    3.40    1.00
  -2   5 -11    3.70    0.70
  -2   5 -11    4.20    1.00
  -3  -5 -11  125.59    4.50
   3   5 -11  120.49    5.60
  -3  -5 -11  116.59    4.90
  -3  -5 -11  115.29    5.70
  -3  -5 -11  120.69    4.20
  -3  -5  11  125.49    4.20
  -3   5 -11  116.69    4.00
   3   5  11  122.79    5.50
  -3   5 -11  119.49    5.50
  -3   5 -11  118.89    4.10
  -4  -5 -11   91.59    3.30
  -4  -5 -11   93.39    3.40
  -4  -5 -11   90.49    4.20
  -4  -5 -11   88.39    3.40
  -4   5  11   89.39    3.40
  -4  -5 -11   96.59    3.70
  -4   5 -11   92.89    3.20
  -4   5 -11   92.89    3.40
  -4  -5  11   91.19    3.40
  -4   5 -11   88.19    3.40
   4   5  11   85.89    4.50
  -5   5  11  263.17    8.40
  -5  -5 -11  263.37    8.50
  -5  -5 -11  277.37    8.70
   5   5 -11  266.17    8.30
  -5  -5 -11  257.77    8.30
  -5  -5 -11  264.77    8.40
  -5   5 -11  260.77    8.10
  -5   5 -11  264.77    8.30
  -5   5 -11  256.37    8.40
  -5  -5  11  259.57    8.40
  -6  -5 -11    3.70    0.70
  -6  -5 -11    3.90    0.80
   6   5 -11    3.80    0.60
  -6  -5 -11    4.10    0.80
  -6  -5 -11    4.70    0.70
  -6   5  11    4.40    0.70
  -6  -5  11    3.00    0.60
  -6   5 -11    4.70    0.70
  -6   5 -11    3.00    0.60
  -6   5 -11    4.10    0.60
  -7  -5 -11    9.70    1.00
  -7   5  11   11.70    1.00
   7   5 -11   11.50    0.90
  -7  -5 -11   11.80    1.00
  -7  -5 -11   10.30    1.00
  -7   5 -11   11.20    1.00
  -7  -5  11   11.40    1.00
  -7   5 -11   11.80    0.90
  -7   5 -11   11.30    0.90
  -8  -5 -11   22.10    1.20
   8   5 -11   19.00    1.10
  -8   5  11   23.30    1.30
  -8  -5 -11   19.20    1.30
  -8   5 -11   20.80    1.20
   8   5  11   18.80    1.10
  -8  -5  11   20.70    1.20
  -9   5  11    5.90    0.60
  -9  -5 -11    5.70    0.60
  -9  -5 -11    5.70    0.70
  -9   5 -11    6.20    0.60
  -9  -5  11    6.00    0.60
   0   6 -11   49.30    3.40
   0   6 -11   56.99    2.40
   0  -6 -11   53.59    2.80
   0   6 -11   65.79    2.40
   0   6  11   53.89    3.40
   1   6 -11  100.19    3.60
  -1   6  11   96.79    4.90
   1   6 -11  105.09    3.80
   1   6 -11  101.59    5.20
  -1  -6 -11  100.29    4.30
   1   6  11  101.89    5.10
  -1   6 -11  109.79    3.80
  -1   6 -11  100.19    5.20
  -1   6 -11  101.59    3.60
   1  -6 -11   96.69    4.20
  -2  -6 -11  122.79    5.10
  -2  -6 -11  122.39    4.60
   2   6 -11  126.69    4.20
   2   6 -11  117.59    5.90
  -2   6  11  116.39    6.30
   2   6 -11  129.29    4.50
  -2   6 -11  128.29    4.40
   2  -6 -11  119.29    4.10
  -2   6 -11  122.89    4.30
  -2   6 -11  122.59    4.20
  -2  -6  11  128.39    4.30
  -2   6 -11  123.89    5.90
   2  -6 -11  123.99    4.90
   2   6  11  114.19    5.70
  -3  -6 -11   35.30    1.70
  -3  -6 -11   38.90    2.50
  -3  -6 -11   37.50    2.10
   3   6 -11   36.90    1.70
   3   6 -11   35.90    2.90
  -3  -6 -11   36.60    1.80
  -3   6 -11   37.80    1.90
  -3   6 -11   39.30    1.80
   3  -6 -11   39.20    1.70
  -3   6 -11   38.90    1.80
  -3  -6  11   36.20    1.80
   3   6  11   35.70    2.80
  -4  -6 -11   35.50    2.00
  -4   6  11   39.10    1.80
  -4  -6 -11   34.70    1.80
  -4  -6 -11   36.70    1.80
   4   6 -11   38.00    1.80
   4  -6 -11   35.40    1.70
  -4   6 -11   37.30    1.80
  -4  -6  11   38.30    1.90
  -4   6 -11   36.20    1.90
  -4   6 -11   37.00    1.80
  -5   6  11    3.10    0.60
   5   6 -11    3.40    0.60
  -5  -6 -11    2.40    0.60
  -5  -6 -11    2.40    0.70
  -5  -6 -11    2.00    0.50
  -5   6 -11    2.20    0.60
  -5   6 -11    3.90    0.60
  -5  -6  11    2.60    0.60
  -5   6 -11    3.30    0.60
   5  -6 -11    3.10    0.70
  -6  -6 -11   48.60    2.50
  -6   6  11   46.70    2.20
   6   6 -11   50.49    2.20
  -6  -6 -11   52.89    2.20
  -6  -6 -11   50.89    2.30
  -6   6 -11   48.90    2.20
  -6   6 -11   47.70    2.20
  -6  -6  11   49.00    2.30
   6  -6 -11   47.80    2.20
  -6   6 -11   50.49    2.20
  -7  -6 -11    0.70    0.40
   7   6 -11    0.10    0.30
  -7   6  11    0.60    0.40
  -7   6 -11    1.50    0.40
   7  -6 -11    0.50    0.50
  -7   6 -11    0.80    0.40
  -7  -6  11    0.20    0.40
  -8  -6 -11  124.29    4.10
  -8  -6 -11  115.99    4.10
   8   6 -11  123.49    4.00
  -8   6  11  121.59    4.20
   8   6  11  125.69    4.00
  -8   6 -11  121.89    4.10
  -8  -6  11  122.19    4.10
   0  -7 -11    1.20    0.40
   0   7 -11    0.10    0.30
   0   7 -11    0.20    0.30
   0   7 -11    0.00    0.30
   1   7 -11    7.60    0.90
  -1  -7 -11    8.90    0.80
   1  -7 -11    8.60    0.80
  -1   7 -11    6.70    0.80
  -1  -7  11    9.80    0.80
  -1   7 -11    8.70    0.80
  -1   7 -11    7.20    0.80
   2   7 -11    3.20    0.60
  -2  -7 -11    3.90    0.70
  -2   7 -11    4.00    0.60
   2  -7 -11    3.60    0.60
  -2   7 -11    2.60    0.60
  -2  -7  11    3.90    0.70
  -2   7 -11    3.20    0.60
  -3  -7 -11    5.50    0.70
   3   7 -11    7.40    0.70
  -3  -7 -11    4.50    0.70
  -3   7 -11    5.60    0.80
  -3  -7  11    6.40    0.80
  -3   7 -11    6.90    0.80
  -3   7 -11    7.10    0.80
   3  -7 -11    5.90    0.70
   4   7 -11  126.59    4.50
  -4  -7 -11  134.89    4.60
  -4   7  11  123.49    4.60
  -4  -7 -11  134.29    4.60
  -4   7 -11  136.39    4.70
   4  -7 -11  133.19    4.60
  -4   7 -11  131.59    4.70
  -4  -7  11  134.09    4.70
  -4   7 -11  132.69    4.70
  -5  -7 -11  150.98    5.10
   5   7 -11  151.48    5.00
  -5   7  11  145.49    5.10
  -5  -7 -11  150.58    5.10
  -5   7 -11  143.49    5.10
  -5   7 -11  147.89    5.20
  -5   7 -11  152.68    5.10
   5  -7 -11  146.39    5.00
  -5  -7  11  149.79    5.10
  -6  -7 -11    7.60    0.80
  -6   7  11    7.60    0.80
  -6  -7 -11    7.70    0.80
   6   7 -11    7.50    0.80
  -6   7 -11    7.60    0.80
  -6  -7  11    7.00    0.80
   6  -7 -11    7.70    0.80
  -6   7 -11    7.90    0.80
  -7   7  11    1.50    0.40
  -7  -7 -11    2.40    0.50
   7   7 -11    0.80    0.30
  -7   7 -11    1.20    0.40
  -7   7 -11    1.60    0.40
  -7  -7  11    1.40    0.40
   7   7  11    1.40    0.40
   7  -7 -11    1.00    0.40
   8   7 -11    9.70    0.60
  -8  -7 -11   10.10    0.70
  -8   7  11   10.50    0.80
   8   7  11   10.00    0.70
   0   8 -11  451.35   13.90
   0   8 -11  442.06   13.60
   0   8 -11  450.35   13.70
   0  -8 -11  459.35   13.60
  -1  -8 -11   10.60    1.00
  -1  -8  11    9.40    0.90
  -1   8 -11   10.60    1.00
   1  -8 -11   10.00    0.90
  -1   8 -11   12.50    1.00
  -1   8 -11   10.40    0.90
   2   8 -11    1.70    0.40
  -2  -8 -11    1.30    0.50
  -2   8 -11    1.00    0.40
   2  -8 -11    1.00    0.40
  -2   8 -11    1.20    0.50
  -2   8 -11    1.10    0.40
  -2  -8  11    4.90    0.80
  -3  -8 -11  115.99    4.10
   3   8 -11  117.29    4.00
  -3  -8 -11  114.49    4.10
  -3  -8  11  118.09    4.20
  -3   8 -11  118.39    4.20
   3  -8 -11  114.19    4.10
  -3   8 -11  111.09    4.30
  -3   8 -11  113.49    4.10
   4   8 -11    4.90    0.60
  -4  -8 -11    4.30    0.70
  -4  -8 -11    4.50    0.70
  -4   8 -11    4.20    0.70
  -4   8 -11    3.60    0.70
  -4   8 -11    4.20    0.70
  -4  -8  11    4.50    0.70
   4  -8 -11    3.40    0.60
   5   8 -11   22.10    1.20
  -5  -8 -11   24.00    1.30
  -5   8  11   22.00    1.30
   5  -8 -11   21.10    1.20
  -5  -8  11   22.20    1.30
   5   8  11   19.90    1.20
  -5   8 -11   20.60    1.30
  -5   8 -11   22.00    1.30
  -6  -8 -11    1.60    0.40
  -6   8  11    1.30    0.40
   6   8 -11    1.00    0.30
  -6  -8  11    1.00    0.40
   6  -8 -11    1.60    0.40
  -6   8 -11    1.40    0.40
  -6   8 -11    2.30    0.50
   6   8  11    0.90    0.30
   7   8 -11   54.59    1.90
  -7  -8 -11   49.99    1.90
  -7   8  11   53.49    2.00
  -7   8 -11   49.50    2.00
  -7   8 -11   52.09    2.00
  -7  -8  11   52.39    2.00
   7   8  11   50.19    1.90
   7  -8 -11   49.99    1.90
   0  -9 -11   -0.20    0.30
   0  -9  11    1.40    0.50
  -1  -9 -11   11.30    1.00
  -1   9 -11   11.10    1.00
   1  -9 -11   12.30    1.00
  -1  -9  11   12.50    1.00
  -1   9 -11   10.80    0.90
  -1   9 -11   12.60    1.00
  -2  -9 -11    5.50    0.70
   2  -9 -11    5.20    0.70
  -2   9 -11    4.60    0.70
  -2   9 -11    4.40    0.70
  -2  -9  11    4.70    0.70
  -2   9 -11    4.60    0.70
   3   9 -11   33.10    1.50
  -3  -9 -11   35.40    1.70
   3  -9 -11   36.20    1.70
  -3  -9  11   36.00    1.70
  -3   9 -11   33.20    1.70
  -3   9 -11   35.00    1.70
  -4  -9 -11   16.70    1.10
   4   9 -11   15.30    1.00
  -4   9 -11   15.90    1.10
  -4   9 -11   17.60    1.10
   4  -9 -11   15.70    1.00
  -4  -9  11   15.30    1.10
   4   9  11   16.90    1.00
   5   9 -11   12.70    0.80
  -5  -9 -11   12.90    0.90
   5  -9 -11   13.70    0.90
   5   9  11   12.30    0.80
  -5  -9  11   12.00    0.90
  -5   9 -11   12.90    0.90
  -5   9 -11   13.40    0.90
  -6  -9 -11    9.40    0.70
   6   9 -11    9.90    0.60
   6   9  11    9.20    0.60
   6  -9 -11    9.30    0.60
  -6   9 -11    9.30    0.70
   0 -10  11   11.90    1.00
   0 -10 -11   10.80    0.90
   1 -10  11  928.41   27.00
  -1 -10 -11  941.61   27.00
  -1 -10  11  936.11   27.00
   1 -10 -11  914.31   26.90
   2 -10  11   78.19    2.90
  -2 -10 -11   79.89    2.90
  -2 -10  11   80.59    3.00
  -2  10 -11   79.49    2.90
   2 -10 -11   83.29    2.90
  -3 -10 -11  113.79    3.80
  -3  10 -11  109.59    3.70
   3 -10 -11  112.19    3.80
  -3 -10  11  107.69    3.80
  -3  10 -11  111.59    3.80
  -4 -10 -11    1.70    0.40
  -4  10 -11    2.10    0.40
  -4  10 -11    1.20    0.30
  -4 -10  11    1.90    0.40
   4 -10 -11    2.10    0.40
   0 -11 -11    0.10    0.20
   0 -11  11    0.10    0.20
  -1 -11 -11   14.60    0.80
   1 -11  11   16.10    1.10
  -1 -11  11   13.50    1.10
   1 -11 -11   13.90    0.80
  -2 -11 -11    2.20    0.40
   2 -11 -11    2.60    0.40
   0   0 -12  767.72   22.90
   0   0 -12  736.83   22.60
   0   0  12  781.62   23.10
  -1   0 -12  107.49    4.40
   1   0  12  114.59    4.50
  -1   0  12  102.79    4.10
   1   0 -12  109.29    4.40
   1   0 -12  116.19    4.40
  -1   0  12  117.69    4.70
   1   0 -12  104.49    3.60
  -1   0 -12  118.19    4.00
  -2   0  12  399.46   13.60
   2   0 -12  433.06   14.20
  -2   0 -12  442.56   13.20
   2   0 -12  435.36   13.10
  -2   0 -12  462.65   14.10
   2   0  12  469.55   14.00
  -2   0 -12  438.46   13.20
  -2   0  12  457.15   14.60
   2   0 -12  452.95   13.90
  -3   0  12 1271.87   37.50
  -3   0 -12 1257.17   36.90
   3   0  12 1302.77   37.50
  -3   0  12 1321.67   38.40
   3   0 -12 1200.18   36.50
  -4   0 -12 1120.89   31.60
  -4   0  12 1013.30   33.50
  -4   0 -12 1149.08   32.20
  -4   0  12 1091.49   33.10
  -5   0 -12  901.31   27.10
   5   0 -12  942.01   27.10
  -5   0 -12  947.61   27.90
  -6   0 -12  135.39    5.60
  -6   0  12  142.39    4.80
  -6   0 -12  142.09    5.00
  -6   0 -12  139.89    4.70
   6   0 -12  142.49    5.00
  -7   0 -12 1379.36   38.90
   7   0 -12 1374.76   38.80
  -7   0 -12 1290.77   38.50
  -7   0  12 1317.17   38.60
  -7   0 -12 1318.07   38.60
  -8   0 -12  980.70   29.00
  -8   0 -12  965.10   29.30
   8   0 -12 1015.30   29.30
  -8   0  12 1016.90   30.00
  -8   0 -12 1004.80   29.00
  -9   0 -12   71.89    2.90
   9   0 -12   70.29    2.90
  10   0 -12    4.20    0.60
   1  -1  12 1086.49   32.70
  -1  -1 -12 1095.49   33.40
  -1   1  12 1135.79   32.80
   1   1 -12 1061.49   31.30
   1   1 -12 1081.29   49.10
   1   1 -12 1039.70   32.30
  -1   1  12 1055.09   32.20
   1  -1  12 1038.60   32.00
  -1  -1  12 1131.49   32.90
   1  -1 -12 1118.09   32.50
  -1   1 -12 1133.89   33.20
   1   1  12 1101.59   32.40
  -1   1 -12 1087.69   32.40
   1   1  12 1123.59   32.20
   1  -1 -12 1123.29   31.40
  -1  -1  12 1111.89   32.20
   2   1 -12  773.02   22.10
  -2  -1 -12  777.72   22.30
   2  -1  12  796.52   22.90
  -2   1  12  689.83   22.80
  -2  -1 -12  757.02   22.50
  -2   1  12  768.32   23.60
   2   1 -12  785.72   23.40
   2   1 -12  745.83   23.00
   2  -1  12  765.02   23.40
   2  -1 -12  760.82   23.40
   2  -1 -12  759.52   22.20
   2   1  12  765.42   23.10
  -2  -1  12  751.42   23.10
  -2  -1  12  782.02   23.80
  -2   1 -12  765.22   23.20
  -2   1 -12  780.52   22.00
   3  -1  12  799.72   24.50
   3   1 -12  780.32   23.60
   3  -1  12  869.31   25.00
  -3  -1 -12  785.52   23.90
  -3   1  12  816.42   25.30
  -3  -1 -12  800.82   23.90
  -3  -1  12  788.82   24.80
  -3   1 -12  807.52   23.80
   3   1  12  842.82   24.50
  -3   1 -12  820.12   24.60
  -3  -1  12  814.32   25.50
  -4   1  12  286.57   10.70
  -4  -1 -12  274.67    9.20
  -4  -1 -12  289.67    9.20
   4   1  12  288.37    9.60
  -4  -1  12  284.77   10.30
  -4  -1  12  281.47   10.70
  -4   1 -12  279.17    9.20
   5   1 -12  104.79    3.80
  -5  -1 -12  102.29    4.20
  -5  -1 -12  103.19    4.30
  -5  -1 -12  102.59    3.80
  -5  -1  12  101.19    5.30
   5  -1 -12  106.09    3.70
  -5   1 -12  105.69    4.30
   6   1 -12   34.40    1.90
  -6  -1 -12   33.30    2.30
  -6  -1 -12   36.90    1.90
  -6   1  12   38.20    1.80
  -6  -1 -12   38.10    1.70
  -6  -1 -12   37.80    1.60
  -6   1 -12   34.00    1.70
  -6  -1  12   33.70    1.70
   6  -1 -12   38.10    1.90
  -6  -1  12   36.40    1.80
  -6   1 -12   34.50    1.80
  -6   1 -12   36.40    2.40
  -7  -1 -12   74.49    3.10
  -7  -1 -12   73.29    2.80
   7   1 -12   70.99    3.10
  -7   1  12   65.09    2.80
  -7  -1 -12   70.19    2.80
  -7   1 -12   67.79    2.90
   7  -1 -12   76.19    3.10
  -7   1 -12   69.09    2.80
  -7  -1  12   69.79    2.80
  -8   1  12    4.60    0.70
  -8  -1 -12    4.90    0.70
  -8  -1 -12    5.20    0.80
   8   1 -12    4.80    0.90
  -8  -1 -12    7.00    0.80
   8  -1 -12    6.10    0.90
  -8   1 -12    5.50    0.70
  -8   1 -12    5.10    0.80
  -8   1 -12    4.80    0.60
  -8  -1  12    4.60    0.70
  -9  -1 -12    2.50    0.60
   9   1 -12    1.10    0.60
  -9  -1 -12    3.70    0.60
   9  -1 -12    2.30    0.60
  -9  -1  12    2.60    0.50
  10   1 -12  113.09    4.00
  10  -1 -12  125.39    4.00
   0  -2  12 2617.04   76.09
   0  -2 -12 2605.44   78.49
   0   2  12 2522.65   75.69
   0  -2  12 2549.15   76.59
   0   2 -12 2571.44   75.09
   0  -2 -12 2560.84   74.29
   0   2  12 2519.95   77.39
   0   2 -12 2420.26   73.59
   0   2 -12 2634.34   78.29
  -1  -2 -12  770.72   23.00
   1   2 -12  796.22   24.20
   1   2 -12  757.52   23.10
  -1  -2 -12  806.52   23.30
  -1   2  12  788.12   24.10
  -1   2  12  852.71   24.40
   1  -2  12  800.72   24.70
   1  -2  12  802.82   24.10
  -1  -2 -12  802.02   24.00
   1   2 -12  807.62   24.20
  -1  -2  12  817.52   24.30
  -1   2 -12  775.52   24.20
   1  -2 -12  756.02   23.10
   1   2  12  836.82   24.30
  -1  -2  12  834.42   24.80
  -1   2 -12  783.52   23.40
   1  -2 -12  816.02   24.30
   2  -2  12  356.56   11.80
  -2  -2 -12  329.37   10.00
   2   2 -12  361.86   11.30
   2  -2  12  343.47   11.30
   2   2 -12  324.27   11.40
  -2   2  12  345.57   11.00
  -2  -2 -12  343.77   10.90
  -2   2  12  344.37   11.60
   2   2 -12  339.57   10.20
   2  -2 -12  347.77   11.60
  -2  -2  12  338.47   11.40
   2  -2 -12  308.97   10.20
  -2   2 -12  345.27   11.30
  -2  -2  12  333.47   11.70
   2   2  12  324.57   11.10
  -2   2 -12  344.87   10.20
   3  -2  12  424.36   13.70
  -3  -2 -12  390.66   13.10
   3   2 -12  405.66   13.30
  -3  -2 -12  416.86   12.80
   3  -2  12  417.26   12.60
   3  -2  12  421.36   14.10
  -3   2  12  411.76   14.20
   3   2 -12  406.46   12.40
  -3  -2 -12  410.96   12.10
   3   2  12  425.16   13.50
  -3  -2  12  436.66   14.00
  -3  -2  12  427.16   14.30
  -3   2 -12  410.96   13.40
  -4  -2 -12  361.36   11.00
   4  -2  12  377.76   11.70
  -4  -2 -12  387.56   12.20
  -4  -2 -12  370.06   11.90
   4  -2  12  378.46   13.10
  -4   2  12  360.06   13.30
   4  -2  12  363.86   12.80
  -4  -2  12  366.16   13.30
  -4  -2  12  381.76   13.20
   4   2  12  376.66   12.30
  -5  -2 -12  473.35   14.20
   5   2 -12  449.06   14.00
  -5  -2 -12  484.55   13.80
   5  -2  12  470.85   14.70
  -5  -2 -12  470.85   14.90
   5  -2 -12  476.05   14.00
  -5  -2  12  433.66   13.80
  -6  -2 -12  425.06   13.00
  -6  -2 -12  432.96   13.30
  -6  -2 -12  428.16   13.00
  -6  -2 -12  428.46   13.00
   6   2 -12  420.36   13.10
  -6   2  12  428.96   13.10
  -6   2 -12  419.46   12.90
  -6  -2  12  448.66   13.10
   6  -2 -12  441.86   13.20
  -6   2 -12  438.36   13.00
  -7  -2 -12  502.85   15.10
  -7  -2 -12  504.55   14.90
   7   2 -12  485.25   14.90
  -7  -2 -12  464.65   14.70
  -7   2  12  481.05   14.80
   7  -2 -12  499.45   14.90
  -7   2 -12  482.05   14.60
  -7  -2  12  488.65   14.70
  -8  -2 -12   32.60    1.80
  -8   2  12   30.90    1.70
  -8  -2 -12   35.60    1.70
   8   2 -12   30.80    1.90
  -8  -2 -12   33.10    1.90
   8  -2 -12   33.30    1.80
  -8  -2  12   33.30    1.70
  -8   2 -12   32.70    1.60
  -9  -2 -12   11.10    1.00
  -9   2  12    9.90    0.80
   9   2 -12    8.20    0.90
  -9  -2 -12   10.30    0.80
   9  -2 -12   10.10    0.90
  -9   2 -12   10.50    0.80
  -9  -2  12    9.90    0.80
   0   3  12    1.40    0.60
   0  -3  12    0.40    0.40
   0  -3  12    1.30    0.70
   1   3 -12  101.89    3.60
   1   3 -12  104.79    4.60
   1   3 -12  107.09    4.60
   1  -3  12  111.79    4.70
  -1  -3 -12  109.29    4.60
   1  -3  12  103.99    5.00
  -1   3  12   93.69    4.40
  -1  -3 -12  105.99    3.60
  -1   3  12  108.79    4.50
  -1  -3  12  113.19    5.10
  -1   3 -12   99.29    3.30
  -1   3 -12  113.39    4.10
  -1  -3  12  113.29    4.80
   1  -3 -12  104.89    4.70
   1   3  12  105.49    4.50
   1  -3 -12  102.49    3.70
  -1   3 -12  111.79    4.70
  -2   3  12    2.20    0.60
  -2  -3 -12    0.40    0.20
   2   3 -12    0.80    0.50
   2   3 -12    0.30    0.20
  -2  -3 -12    0.50    0.30
  -2   3  12    0.40    0.50
   2   3 -12    0.10    0.30
  -2  -3 -12    0.10    0.30
   2  -3  12    0.10    0.30
  -2   3 -12    1.10    0.50
  -2   3 -12    0.80    0.30
   2   3  12    1.20    0.50
   3  -3  12   12.50    1.50
   3   3 -12   13.00    0.90
  -3  -3 -12   12.00    0.80
  -3   3  12   12.50    1.50
  -3  -3 -12   12.50    1.10
   3  -3  12   13.10    1.60
  -3  -3 -12   12.70    1.30
   3   3 -12   13.00    1.40
  -3   3 -12   12.50    0.90
  -3   3 -12   11.90    1.30
  -3  -3  12   11.90    1.60
   3   3  12   12.20    1.30
  -3  -3  12   13.00    1.60
  -4  -3 -12    1.70    0.40
   4  -3  12    1.70    0.50
   4  -3  12    3.50    0.90
  -4  -3 -12    1.70    0.60
  -4  -3 -12    2.10    0.50
   4  -3  12    1.40    0.70
  -4  -3 -12    1.20    0.50
  -4  -3  12    1.50    0.80
  -4   3 -12    2.60    0.40
   4   3  12    1.20    0.60
  -4   3 -12    1.60    0.80
  -4  -3  12    1.40    0.70
  -5  -3 -12   52.69    2.20
  -5  -3 -12   53.79    2.30
  -5  -3 -12   51.09    2.90
   5   3 -12   49.50    2.10
  -5   3  12   54.19    2.30
  -5  -3 -12   54.69    2.40
   5  -3  12   52.39    2.70
  -5  -3 -12   51.19    2.20
   5  -3 -12   52.19    2.20
  -5   3 -12   52.49    2.20
  -5  -3  12   50.19    2.20
  -6  -3 -12  434.16   13.10
  -6  -3 -12  445.66   13.30
  -6  -3 -12  402.66   13.00
   6   3 -12  419.86   12.90
  -6  -3 -12  454.35   13.40
  -6   3  12  427.76   13.10
  -6  -3  12  417.66   13.10
  -6   3 -12  425.86   13.00
   6  -3 -12  446.46   13.20
  -7  -3 -12   11.20    0.90
  -7   3  12    9.60    0.90
   7   3 -12    7.20    1.00
  -7  -3 -12    8.90    0.90
  -7  -3 -12   10.00    1.00
  -7  -3 -12    9.90    1.10
  -7   3 -12    9.10    0.80
  -7  -3  12    9.60    0.90
   7  -3 -12   10.90    1.00
  -8  -3 -12  161.28    5.50
  -8   3  12  151.78    5.20
   8   3 -12  143.29    5.20
  -8  -3 -12  150.18    5.40
  -8  -3 -12  163.58    5.20
  -8   3 -12  152.88    5.10
  -8  -3  12  153.28    5.20
   8  -3 -12  152.88    5.30
  -9  -3 -12    9.20    0.90
  -9   3  12    8.50    0.80
   9   3 -12    7.20    0.70
  -9  -3 -12    8.00    0.70
  -9   3 -12    7.70    0.70
  -9  -3  12    8.10    0.70
   9  -3 -12    8.90    0.80
   0  -4 -12    8.40    0.80
   0  -4 -12    5.20    0.60
   0   4 -12    5.60    0.50
   0   4  12    6.10    1.00
   0  -4 -12    5.60    1.10
   0  -4  12    5.50    1.10
   0  -4  12    5.40    1.00
   0   4 -12    5.50    1.00
   1  -4  12    5.50    1.10
  -1   4  12    6.00    1.00
   1   4 -12    5.00    0.90
  -1  -4 -12    6.00    0.60
   1  -4  12    5.70    1.00
   1   4 -12    6.00    1.00
  -1  -4 -12    5.80    0.80
  -1  -4 -12    5.20    1.00
   1   4 -12    5.30    0.60
   1  -4 -12    5.50    0.80
   1   4  12    6.50    1.10
  -1  -4  12    5.90    1.00
  -1   4 -12    7.60    0.90
   1  -4 -12    6.80    0.70
  -1   4 -12    6.00    0.50
  -1   4 -12    5.60    1.00
  -1  -4  12    5.70    1.10
   2   4 -12  831.82   23.00
  -2   4  12  733.33   24.40
  -2  -4 -12  806.02   23.10
  -2  -4 -12  785.62   23.50
   2   4 -12  794.52   24.50
  -2  -4 -12  782.22   24.40
   2  -4  12  818.02   24.90
  -2   4  12  803.72   24.10
   2   4 -12  737.53   24.60
   2  -4  12  844.12   25.60
  -2  -4  12  689.63   24.70
  -2   4 -12  820.82   24.60
  -2   4 -12  753.42   22.50
  -2  -4  12  770.42   25.00
  -2   4 -12  821.82   23.60
   2   4  12  785.82   24.30
  -3   4  12  653.73   20.50
  -3  -4 -12  629.74   19.00
   3  -4  12  641.74   20.50
   3   4 -12  586.14   19.70
   3  -4  12  639.44   20.90
  -3  -4 -12  626.04   18.40
  -3  -4 -12  596.74   19.80
  -3   4 -12  632.64   18.80
  -3  -4  12  633.14   20.70
   3   4  12  610.64   19.70
  -3   4 -12  636.54   19.80
  -3  -4  12  556.04   20.20
  -4  -4 -12  580.14   16.70
  -4  -4 -12  573.54   16.70
  -4  -4 -12  555.04   17.50
   4  -4 -12  561.84   16.40
  -4  -4  12  555.84   16.40
   4   4  12  502.35   17.80
  -5   4  12  193.98    6.50
  -5  -4 -12  201.88    6.50
  -5  -4 -12  203.58    6.70
   5   4 -12  199.18    6.40
  -5  -4 -12  192.78    6.40
  -5  -4 -12  212.68    6.80
  -5  -4  12  207.28    6.50
  -5   4 -12  189.98    6.50
   5  -4 -12  195.28    6.50
  -5   4 -12  195.18    6.40
   6   4 -12  120.19    4.20
  -6  -4 -12  125.49    4.60
  -6  -4 -12  119.59    4.30
  -6  -4 -12  127.69    4.60
  -6   4  12  124.29    4.40
  -6  -4 -12  119.69    4.30
  -6   4 -12  123.19    4.30
  -6  -4  12  122.59    4.40
  -6   4 -12  112.09    4.20
   6  -4 -12  115.19    4.30
  -7  -4 -12   44.70    2.10
  -7  -4 -12   46.70    2.10
  -7  -4 -12   43.00    2.20
  -7   4  12   43.90    2.10
  -7  -4 -12   43.40    2.20
   7   4 -12   42.70    1.90
  -7   4 -12   46.00    2.00
  -7  -4  12   45.90    2.10
  -8  -4 -12   10.30    0.90
  -8  -4 -12   10.80    1.00
  -8  -4 -12   10.40    0.90
  -8   4  12   10.40    0.90
  -8  -4  12    9.60    0.90
  -8   4 -12   10.20    0.90
  -9   4  12    0.90    0.30
  -9  -4 -12    1.40    0.40
  -9  -4 -12    0.20    0.30
  -9   4 -12    0.50    0.30
  -9  -4  12    0.60    0.30
   0  -5  12    0.30    0.40
   0  -5 -12    0.60    0.30
   0  -5  12    0.80    0.60
   0   5 -12    1.10    0.40
   0  -5 -12    0.80    0.40
   0   5  12    0.00    0.40
   0   5 -12    0.80    0.60
   0   5 -12    1.50    0.70
   1   5 -12   10.50    1.40
   1  -5  12    8.70    1.30
   1   5 -12    9.30    0.80
  -1  -5 -12    8.50    1.00
  -1   5  12   10.20    1.30
  -1  -5 -12    9.40    0.90
   1   5 -12   10.20    1.40
   1  -5  12    8.80    1.50
  -1  -5  12   10.30    1.50
  -1  -5  12    8.90    1.40
  -1   5 -12    8.60    0.70
  -1   5 -12    8.50    1.30
   1   5  12   12.70    1.50
  -1   5 -12    9.10    1.10
   1  -5 -12    8.80    1.00
  -2   5  12    0.40    0.50
  -2  -5 -12    0.80    0.60
  -2  -5 -12    0.90    0.50
   2   5 -12    0.10    0.30
  -2  -5 -12    0.30    0.30
  -2   5 -12    1.10    0.60
  -2  -5  12    0.10    0.40
   2   5  12    1.00    0.60
  -2  -5  12    0.40    0.30
  -2   5 -12    0.80    0.40
  -2   5 -12    1.30    0.30
  -2   5 -12    0.60    0.50
  -3  -5 -12    1.20    0.40
  -3  -5 -12    1.10    0.60
  -3  -5 -12    1.80    0.80
   3   5 -12    2.30    0.60
   3   5 -12    1.20    0.70
  -3  -5 -12    1.50    0.50
  -3   5 -12    2.00    0.50
  -3   5 -12    1.30    0.30
  -3  -5  12    3.10    0.60
  -3   5 -12    2.40    0.90
  -3   5 -12    0.80    0.60
   3   5  12    2.20    0.80
  -4  -5 -12  182.18    6.20
  -4  -5 -12  182.88    6.00
  -4   5  12  174.08    5.80
  -4  -5 -12  177.08    5.80
  -4  -5 -12  172.88    6.80
   4   5 -12  182.18    5.80
  -4  -5 -12  178.48    5.80
  -4  -5  12  172.98    5.80
  -4   5 -12  176.68    5.60
  -4   5 -12  172.48    5.90
   4   5  12  164.78    7.20
   4  -5 -12  172.68    5.70
  -4   5 -12  181.18    5.80
  -5  -5 -12  115.69    4.30
  -5  -5 -12  116.59    4.20
   5   5 -12  120.09    4.20
  -5   5  12  125.69    4.30
  -5  -5 -12  117.49    4.50
  -5  -5 -12  115.09    4.10
  -5   5 -12  113.19    3.90
  -5   5 -12  113.59    4.20
  -5   5 -12  112.39    4.20
  -5  -5  12  122.09    4.30
  -6   5  12  149.19    5.10
   6   5 -12  138.39    4.90
  -6  -5 -12  150.78    5.20
  -6  -5 -12  144.59    5.00
  -6  -5 -12  140.19    5.30
  -6  -5 -12  143.29    5.00
  -6  -5  12  140.79    5.00
  -6   5 -12  148.09    5.00
  -6   5 -12  141.99    4.80
  -6   5 -12  139.09    5.00
  -7  -5 -12   13.70    1.20
  -7  -5 -12   13.60    1.10
  -7   5  12   14.10    1.10
  -7  -5 -12   15.20    1.10
   7   5 -12   12.80    1.00
  -7   5 -12   12.80    0.90
  -7   5 -12   13.00    1.00
  -7  -5  12   13.60    1.10
  -7   5 -12   13.90    1.00
  -8   5  12  104.79    3.80
   8   5 -12  105.19    3.60
  -8  -5 -12  106.69    3.70
  -8  -5 -12  107.99    3.90
  -8   5 -12  106.19    3.70
   8   5  12  107.19    3.70
  -8  -5  12  112.19    3.80
  -9  -5 -12    1.60    0.40
  -9   5  12    0.90    0.30
   0   6  12  271.27   10.20
   0   6 -12  278.87    8.60
   0   6 -12  263.87   10.40
   0   6 -12  268.57    8.40
   0  -6 -12  282.57    9.30
   0  -6 -12  257.07    9.20
  -1  -6 -12    3.20    0.80
   1   6 -12    2.80    0.60
  -1  -6 -12    2.50    0.50
   1   6 -12    2.50    0.90
  -1   6  12    3.30    1.00
  -1   6 -12    3.60    0.60
   1   6  12    3.70    1.00
  -1  -6  12    4.00    0.60
  -1   6 -12    5.90    0.60
  -1   6 -12    4.10    1.10
   1  -6 -12    3.10    0.60
  -1   6 -12    3.00    0.60
   1  -6 -12    3.50    0.80
  -2  -6 -12  106.29    4.70
  -2  -6 -12  102.19    3.80
   2   6 -12  112.09    3.80
  -2  -6 -12  109.09    4.20
  -2  -6 -12  104.69    3.80
   2   6 -12  105.99    4.00
   2   6 -12  104.09    5.50
   2  -6 -12  109.09    3.80
  -2  -6  12  111.09    3.90
  -2   6 -12  111.49    3.90
   2   6  12  106.89    5.40
  -2   6 -12  113.09    4.00
  -2   6 -12  111.19    5.60
  -2   6 -12  112.79    3.90
  -3  -6 -12  434.16   13.30
   3   6 -12  436.06   12.80
  -3  -6 -12  421.26   12.80
  -3  -6 -12  412.16   12.80
   3  -6 -12  408.56   12.70
  -3   6 -12  413.86   12.80
  -3  -6  12  415.16   12.80
  -3   6 -12  421.26   12.80
  -3   6 -12  445.96   13.00
  -4   6  12  528.45   15.70
  -4  -6 -12  524.65   16.10
   4   6 -12  516.25   15.60
  -4  -6 -12  516.95   15.70
  -4  -6 -12  520.65   15.70
  -4   6 -12  514.25   15.80
  -4   6 -12  531.45   15.70
   4  -6 -12  516.05   15.50
  -4   6 -12  525.75   15.70
  -4  -6  12  535.15   15.70
  -5  -6 -12  741.13   21.90
  -5  -6 -12  756.42   22.00
   5   6 -12  774.12   21.90
  -5   6  12  766.02   22.00
  -5  -6 -12  729.63   22.40
  -5   6 -12  758.82   22.00
  -5   6 -12  710.93   21.80
   5  -6 -12  734.33   21.80
  -5  -6  12  750.52   22.00
  -5   6 -12  722.63   22.00
  -6  -6 -12  341.97   10.20
   6   6 -12  324.47   10.10
  -6  -6 -12  314.57   10.50
  -6  -6 -12  349.07   10.30
  -6   6  12  337.47   10.30
   6  -6 -12  321.27   10.10
  -6   6 -12  322.97   10.10
  -6   6 -12  321.97   10.20
  -6   6 -12  327.37   10.20
  -6  -6  12  330.97   10.30
  -7  -6 -12   10.20    0.90
  -7   6  12    8.90    0.90
  -7  -6 -12    9.60    0.90
   7   6 -12    8.60    0.80
   7  -6 -12    8.60    0.80
  -7   6 -12    8.60    0.80
  -7   6 -12    9.50    0.80
  -7  -6  12    8.80    0.80
  -8   6  12  136.19    4.40
  -8  -6 -12  127.69    4.50
  -8  -6 -12  134.19    4.30
   8   6 -12  128.69    4.20
  -8   6 -12  127.59    4.30
  -8  -6  12  133.39    4.30
   8   6  12  129.79    4.20
   0   7 -12    0.60    0.40
   0   7 -12    0.50    0.40
   0   7 -12    1.10    0.40
   0  -7 -12    0.00    0.30
   1   7 -12   19.60    1.40
   1   7 -12   19.70    1.20
  -1  -7 -12   19.20    1.20
  -1  -7  12   19.70    1.20
  -1   7 -12   20.60    1.40
  -1   7 -12   20.50    1.30
   1  -7 -12   19.00    1.20
  -1   7 -12   20.00    1.30
   2   7 -12   17.50    1.10
  -2  -7 -12   17.90    1.20
  -2   7 -12   16.90    1.20
  -2  -7  12   17.10    1.20
   2  -7 -12   18.50    1.20
  -2   7 -12   18.00    1.20
  -2   7 -12   18.10    1.20
  -3  -7 -12    0.90    0.40
   3   7 -12    1.30    0.40
  -3  -7 -12    4.90    0.70
  -3   7 -12    1.60    0.50
  -3  -7  12    2.30    0.60
  -3   7 -12    0.90    0.40
  -3   7 -12    0.50    0.40
   3  -7 -12    1.40    0.50
  -4   7  12    2.40    0.50
  -4  -7 -12    1.70    0.50
   4   7 -12    1.60    0.50
  -4  -7 -12    1.70    0.50
  -4  -7  12    1.90    0.50
  -4   7 -12    1.40    0.50
   4  -7 -12    1.60    0.50
  -4   7 -12    1.70    0.50
  -4   7 -12    2.40    0.60
  -5  -7 -12    2.50    0.60
  -5   7  12    1.60    0.50
  -5  -7 -12    0.90    0.40
   5   7 -12    1.80    0.40
  -5  -7  12    0.90    0.50
  -5   7 -12    4.50    0.70
   5  -7 -12    1.30    0.50
  -5   7 -12    2.20    0.50
  -5   7 -12    1.60    0.50
  -6  -7 -12    1.30    0.40
  -6  -7 -12    1.10    0.40
   6   7 -12    1.00    0.40
  -6   7  12    0.90    0.40
  -6   7 -12    1.30    0.40
   6  -7 -12    1.20    0.40
  -6  -7  12    0.80    0.40
  -6   7 -12    1.10    0.40
  -7   7  12   16.70    1.10
  -7  -7 -12   14.70    1.00
   7   7 -12   16.50    1.00
  -7  -7  12   16.70    1.00
  -7   7 -12   15.40    1.00
   7  -7 -12   16.00    0.90
   7   7  12   17.40    1.00
  -7   7 -12   17.10    1.00
  -8   7  12  110.09    3.60
  -8  -7 -12  105.59    3.50
   8   7  12  107.89    3.50
   0  -8  12  179.48    5.90
   0   8 -12  171.58    6.10
   0   8 -12  172.68    5.80
   0  -8 -12  178.48    5.80
  -1  -8 -12  559.34   17.20
  -1   8 -12  587.94   17.50
   1  -8 -12  584.14   17.20
  -1   8 -12  571.34   17.30
  -1   8 -12  585.54   17.30
  -1  -8  12  583.74   17.30
  -2  -8 -12  773.52   22.20
   2   8 -12  729.93   21.90
   2  -8 -12  730.83   22.10
  -2   8 -12  761.02   22.40
  -2   8 -12  741.23   22.20
  -2  -8  12  752.02   22.20
  -2   8 -12  779.82   22.20
  -3  -8 -12  366.46   11.00
   3   8 -12  350.86   10.80
  -3  -8 -12  347.07   10.90
  -3   8 -12  367.46   11.00
   3  -8 -12  363.96   10.90
  -3   8 -12  340.37   11.10
  -3   8 -12  355.76   11.00
  -4  -8 -12   40.90    1.90
  -4  -8 -12   39.20    1.80
   4   8 -12   42.00    1.80
  -4   8 -12   40.70    1.90
  -4   8 -12   38.60    1.90
  -4  -8  12   42.20    1.90
   4  -8 -12   39.00    1.80
  -4   8 -12   38.80    2.00
  -5  -8 -12  133.49    4.60
  -5   8  12  133.29    4.60
   5   8 -12  138.79    4.60
   5   8  12  137.09    4.60
  -5  -8  12  138.99    4.70
  -5   8 -12  137.89    4.70
   5  -8 -12  140.29    4.60
  -5   8 -12  136.79    4.70
  -6  -8 -12  152.18    4.90
  -6   8  12  145.29    4.90
   6   8 -12  142.69    4.80
   6   8  12  145.19    4.80
  -6   8 -12  150.58    4.90
  -6   8 -12  154.28    4.90
   6  -8 -12  150.88    4.80
  -6  -8  12  147.39    4.90
  -7   8  12   18.00    1.00
   7   8 -12   18.70    0.90
  -7  -8 -12   19.70    1.00
   7  -8 -12   17.80    1.10
  -7   8 -12   17.20    0.90
   7   8  12   18.40    0.90
   0  -9  12    0.10    0.40
   0  -9 -12    2.60    0.60
   1  -9  12    9.70    0.90
  -1  -9 -12   10.10    0.90
  -1   9 -12    8.70    0.90
  -1   9 -12    9.90    0.90
  -1  -9  12    9.30    0.90
   1  -9 -12    8.30    0.80
  -2  -9 -12   76.69    2.90
  -2   9 -12   77.29    2.90
   2  -9 -12   73.09    2.90
  -2   9 -12   71.69    2.90
  -2  -9  12   75.29    2.90
  -2   9 -12   76.99    4.20
  -3  -9 -12   42.00    1.90
   3   9 -12   39.10    1.70
   3  -9 -12   41.30    1.80
  -3   9 -12   42.30    1.90
  -3   9 -12   39.10    1.80
  -3  -9  12   38.80    1.90
   4   9 -12   23.90    1.20
  -4  -9 -12   27.20    1.40
  -4   9 -12   25.60    1.40
  -4  -9  12   25.50    1.40
   4  -9 -12   26.70    1.30
   4   9  12   24.70    1.20
  -4   9 -12   27.40    1.40
   5   9 -12   46.50    1.80
  -5  -9 -12   46.70    1.90
   5  -9 -12   47.80    1.90
   5   9  12   44.30    1.80
  -5   9 -12   47.40    1.90
  -5  -9  12   46.20    1.90
  -5   9 -12   47.70    1.90
   6   9 -12   46.70    1.70
  -6  -9 -12   46.30    1.70
   6  -9 -12   47.00    1.80
  -6   9 -12   46.70    1.80
   6   9  12   45.20    1.70
   0 -10 -12  114.89    4.00
   0 -10  12  116.39    4.00
  -1 -10 -12  390.76   11.60
   1 -10  12  388.96   11.60
   1 -10 -12  380.66   11.60
  -1 -10  12  382.96   11.60
  -2 -10 -12  120.69    4.00
   2 -10  12  121.69    4.10
  -2  10 -12  117.39    4.00
  -2 -10  12  121.89    4.10
   2 -10 -12  119.89    4.00
  -3 -10 -12    8.40    0.70
   3 -10  12    7.70    0.70
  -3 -10  12    7.10    0.70
  -3  10 -12    7.90    0.70
   3 -10 -12    8.60    0.70
  -4 -10 -12   49.30    1.80
  -4  10 -12   47.50    1.80
   4 -10 -12   46.70    1.80
  -4 -10  12   48.30    1.90
  -4  10 -12   45.90    1.80
   0 -11 -12    0.20    0.20
  -1 -11 -12   57.59    2.10
   1 -11 -12   58.39    2.10
  -2 -11 -12   98.49    3.60
   2 -11 -12  104.39    3.40
   0   0  13    2.00    0.60
   0   0 -13    1.90    0.50
   0   0 -13    1.60    0.20
   0   0 -13    1.50    0.50
  -1   0 -13    1.20    0.40
   1   0  13    0.60    0.40
   1   0 -13    0.60    0.40
  -1   0 -13    0.20    0.30
  -1   0  13    0.30    0.40
   1   0 -13    0.30    0.30
   1   0 -13    0.90    0.20
   2   0 -13    0.00    0.30
  -2   0  13    0.20    0.40
   2   0 -13    0.00    0.30
  -2   0 -13    0.60    0.30
   2   0  13    0.10    0.30
   2   0 -13    0.30    0.20
   3   0 -13    0.20    0.20
  -3   0  13    1.20    0.60
   3   0  13    0.10    0.30
  -3   0 -13    0.70    0.30
  -3   0 -13    0.40    0.30
  -4   0  13    0.40    0.50
  -4   0 -13    0.40    0.30
  -4   0 -13    1.40    0.30
  -5   0 -13    0.30    0.30
  -5   0 -13    0.50    0.30
   5   0 -13    0.60    0.40
  -5   0 -13    1.10    0.50
  -6   0 -13    1.20    0.60
  -6   0 -13    1.70    0.50
   6   0 -13    0.30    0.40
  -6   0 -13    0.30    0.30
  -6   0  13    0.30    0.30
  -7   0 -13    1.40    0.50
  -7   0  13    2.10    0.50
   7   0 -13    1.90    0.70
  -7   0 -13    1.70    0.50
   8   0 -13   -0.30    0.50
  -8   0 -13    0.50    0.30
  -8   0 -13    1.10    0.50
  -8   0  13    0.60    0.40
  -8   0 -13    0.10    0.20
  -9   0 -13    0.60    0.40
   9   0 -13   -0.40    0.30
  10   0 -13    0.20    0.30
   0  -1 -13    1.80    0.50
   0   1  13    1.70    0.60
   0  -1  13    1.70    0.50
   1   1 -13   75.29    2.80
   1   1 -13   83.99    3.70
  -1   1  13   82.19    3.90
  -1   1  13   84.69    3.60
  -1  -1 -13   76.39    2.60
   1  -1  13   84.19    3.40
  -1  -1 -13   85.79    3.40
   1  -1  13   82.59    3.90
   1   1 -13   84.19    3.70
   1  -1 -13   79.99    2.80
  -1   1 -13   77.79    3.10
  -1  -1  13   88.19    4.10
   1   1  13   86.49    3.70
  -1  -1  13   81.79    3.40
   1   1  13   88.39    3.60
   1  -1 -13   81.39    3.70
  -1   1 -13   84.19    3.70
   2   1 -13  282.77    8.70
  -2  -1 -13  305.57    9.20
  -2   1  13  284.17    9.50
  -2   1  13  296.17   10.30
   2   1 -13  283.07    9.60
   2  -1  13  280.97    9.90
   2   1 -13  282.77   10.00
  -2   1 -13  277.37    8.70
   2   1  13  286.47    9.70
   2  -1 -13  287.97    8.80
   2  -1 -13  287.47   10.00
  -2   1 -13  303.07    9.90
  -2  -1  13  281.57   10.30
  -2  -1  13  289.27    9.70
   3  -1  13   32.70    2.20
  -3  -1 -13   33.30    1.70
  -3   1  13   31.90    2.40
   3   1 -13   29.00    1.50
  -3  -1  13   29.20    2.10
   3   1  13   31.40    2.10
  -3  -1  13   31.20    2.50
  -3   1 -13   29.90    2.10
  -4  -1 -13  142.19    5.10
  -4  -1 -13  145.49    5.20
  -4   1  13  137.79    6.40
  -4  -1  13  142.79    6.20
  -4  -1  13  139.29    6.50
   4   1  13  135.89    5.50
  -4   1 -13  137.09    5.30
  -5  -1 -13    0.20    0.30
   5   1 -13    3.40    0.60
  -5   1 -13    0.40    0.40
   5  -1 -13    0.90    0.40
  -6  -1 -13   37.10    1.60
   6   1 -13   32.20    1.80
  -6  -1 -13   32.10    1.60
  -6   1  13   31.60    1.70
  -6  -1 -13   33.80    1.80
  -6  -1  13   30.80    1.70
  -6   1 -13   31.20    3.20
  -6   1 -13   32.50    1.60
   6  -1 -13   33.80    1.80
  -7  -1 -13   34.90    1.70
  -7   1  13   33.10    1.80
  -7  -1 -13   32.00    1.70
  -7  -1 -13   37.30    2.00
   7   1 -13   35.50    2.00
  -7  -1  13   29.30    1.70
   7  -1 -13   36.10    1.90
  -7   1 -13   32.60    1.70
  -7   1 -13   32.50    2.40
  -8  -1 -13   45.20    2.20
  -8   1  13   41.90    2.00
   8   1 -13   39.80    2.10
  -8  -1 -13   42.60    2.00
  -8  -1 -13   42.50    2.00
  -8  -1  13   41.70    1.90
   8  -1 -13   45.90    2.20
  -9  -1 -13   22.50    1.40
  -9  -1 -13   23.00    1.20
   9   1 -13   19.50    1.30
   9  -1 -13   20.90    1.30
   0  -2  13  939.41   28.40
   0   2  13  932.01   27.60
   0   2 -13  942.31   27.90
   0   2  13  926.61   27.80
   0   2 -13  891.21   26.50
   0  -2 -13  899.11   26.60
   0   2 -13  960.20   27.50
   0  -2 -13  878.41   27.60
   0  -2  13  949.71   27.70
   1   2 -13  809.22   25.30
   1   2 -13  804.22   25.20
  -1  -2 -13  878.21   25.20
   1  -2  13  845.52   25.20
  -1   2  13  792.62   25.40
   1   2 -13  827.72   24.10
  -1   2  13  828.32   25.20
  -1  -2 -13  825.62   24.10
   1  -2  13  827.22   25.80
  -1  -2  13  884.61   26.10
   1  -2 -13  811.82   24.20
  -1   2 -13  837.32   24.60
  -1   2 -13  831.12   25.40
  -1  -2  13  920.01   25.50
   1   2  13  834.42   25.40
   1  -2 -13  832.02   25.50
  -2  -2 -13   92.29    3.80
  -2   2  13   96.19    4.00
   2   2 -13   87.79    4.00
   2  -2  13   97.29    4.50
   2  -2  13   91.99    4.10
  -2  -2 -13   95.99    3.00
   2   2 -13   89.69    3.20
   2   2 -13   91.69    4.30
  -2   2  13   88.49    4.30
  -2  -2 -13   85.89    3.40
  -2   2 -13   92.39    3.20
  -2  -2  13   92.19    4.60
   2  -2 -13   94.69    3.30
   2  -2 -13   90.69    4.30
  -2   2 -13   90.39    4.10
   2   2  13   92.69    4.10
  -2  -2  13   80.69    4.10
  -3  -2 -13  175.68    6.30
  -3   2  13  180.78    7.60
   3  -2  13  185.28    7.20
   3   2 -13  190.78    6.10
  -3  -2 -13  186.78    5.70
   3  -2  13  185.08    7.50
  -3  -2 -13  189.88    6.70
   3   2 -13  189.88    7.10
   3   2  13  182.28    7.00
  -3   2 -13  191.78    7.10
  -3  -2  13  187.48    7.80
  -3  -2  13  196.38    7.50
  -4  -2 -13   64.09    2.40
  -4   2  13   64.99    4.00
  -4  -2 -13   65.59    3.20
  -4  -2 -13   64.59    3.00
  -4  -2  13   63.99    3.90
   4   2  13   69.09    3.50
  -4  -2  13   67.89    4.10
   5   2 -13    5.30    0.80
  -5  -2 -13    3.10    0.60
  -5  -2 -13    3.80    0.50
  -5   2  13    3.50    0.60
  -5  -2 -13    3.10    0.70
  -5  -2  13    4.00    0.60
   5  -2 -13    6.30    0.70
   6   2 -13 1293.57   39.80
  -6  -2 -13 1379.86   40.10
  -6  -2 -13 1410.86   39.70
  -6   2  13 1364.66   39.80
  -6  -2 -13 1353.16   39.80
  -6  -2 -13 1425.26   39.70
  -6  -2  13 1381.36   39.70
   6  -2 -13 1454.05   39.90
  -6   2 -13 1345.17   39.70
  -7  -2 -13    5.20    0.70
  -7  -2 -13    4.90    0.70
   7   2 -13    3.10    0.70
  -7   2  13    5.40    0.80
  -7  -2 -13    6.60    0.90
  -7   2 -13    4.80    0.70
   7  -2 -13    7.30    0.90
  -7  -2  13    4.70    0.70
  -8  -2 -13   45.60    2.00
   8   2 -13   41.10    2.10
  -8  -2 -13   46.50    2.30
  -8   2  13   43.90    2.00
  -8  -2 -13   43.70    2.10
  -8  -2  13   44.50    2.00
  -8   2 -13   42.70    2.00
   8  -2 -13   45.60    2.20
   9   2 -13   14.20    1.00
  -9  -2 -13   15.60    1.20
  -9   2  13   15.90    1.00
  -9  -2 -13   17.70    1.10
   9  -2 -13   15.80    1.10
  -9  -2  13   14.70    1.00
   0  -3  13    0.20    0.40
   0  -3 -13    0.20    0.40
   0   3 -13    2.10    0.70
   0  -3  13    0.30    0.50
   0  -3 -13    1.00    0.30
   0   3  13    0.30    0.30
   0   3 -13    2.30    0.40
   1  -3  13  300.77   10.90
   1  -3  13  287.97   10.20
  -1  -3 -13  303.77    9.40
   1   3 -13  303.07   10.20
  -1   3  13  277.07   10.10
  -1   3  13  295.87   10.10
  -1  -3 -13  300.47   10.20
   1   3 -13  297.37   10.30
   1   3 -13  285.17    8.90
  -1  -3 -13  291.17    9.00
   1  -3 -13  299.17   10.40
   1   3  13  299.27   10.20
  -1  -3  13  304.77   10.80
  -1   3 -13  310.57   10.40
  -1   3 -13  281.37    8.70
  -1   3 -13  310.67    9.60
   1  -3 -13  276.87    9.10
  -1  -3  13  279.77   10.30
   2   3 -13  196.28    7.30
   2   3 -13  185.38    7.40
  -2  -3 -13  191.88    6.40
  -2   3  13  186.38    7.40
  -2  -3 -13  185.28    7.10
   2  -3  13  210.58    8.00
   2  -3  13  192.38    7.40
  -2   3  13  183.48    6.90
   2   3 -13  192.58    6.10
  -2  -3 -13  189.98    6.00
  -2   3 -13  192.78    7.30
  -2  -3  13  184.08    7.50
   2   3  13  193.28    7.30
  -2  -3  13  186.28    7.70
  -2   3 -13  176.98    6.30
  -3   3  13  112.79    5.60
   3   3 -13  112.09    5.10
  -3  -3 -13  121.09    4.60
   3   3 -13  119.39    4.20
  -3  -3 -13  119.79    4.10
   3  -3  13  128.19    6.00
  -3  -3 -13  125.79    5.20
   3  -3  13  124.99    5.60
  -3   3 -13  118.59    4.10
  -3  -3  13  116.79    5.80
  -3   3 -13  123.79    5.30
  -3  -3  13  122.29    5.70
   3   3  13  118.89    5.20
   4  -3  13    1.90    0.80
   4  -3  13    2.50    1.50
  -4  -3 -13    2.90    0.70
  -4  -3 -13    1.50    0.40
  -4  -3 -13    2.20    0.40
   4  -3 -13    4.10    0.40
   4   3  13    2.60    0.80
  -5  -3 -13   45.60    2.00
  -5   3  13   44.30    2.00
   5   3 -13   47.30    2.00
  -5  -3 -13   42.60    2.10
  -5  -3 -13   45.90    2.70
  -5  -3 -13   42.20    1.90
  -5  -3 -13   44.70    2.00
  -5  -3  13   44.90    2.00
  -5   3 -13   41.90    1.90
   5  -3 -13   46.20    2.00
   6   3 -13   15.70    1.10
  -6  -3 -13   15.00    1.10
  -6  -3 -13   19.80    1.30
  -6  -3 -13   17.30    1.30
  -6   3  13   17.70    1.20
  -6  -3 -13   15.50    1.10
   6  -3 -13   19.30    1.30
  -6  -3  13   18.10    1.20
  -6   3 -13   17.80    1.10
  -7  -3 -13   27.70    1.50
  -7  -3 -13   25.40    1.70
  -7  -3 -13   26.90    1.60
  -7  -3 -13   25.90    1.50
  -7   3  13   27.60    1.60
  -7  -3  13   26.60    1.50
   7  -3 -13   27.80    1.60
  -7   3 -13   25.10    1.40
  -8  -3 -13   98.49    3.50
   8   3 -13   85.89    3.60
  -8  -3 -13  102.29    3.80
  -8   3  13   98.39    3.60
  -8   3 -13   94.09    3.40
   8  -3 -13   95.99    3.60
  -8  -3  13   90.19    3.50
  -9   3  13   14.00    1.00
  -9  -3 -13   17.20    1.00
  -9  -3 -13   15.10    1.10
  -9   3 -13   15.00    0.90
   9  -3 -13   14.90    1.00
  -9  -3  13   13.80    0.90
   0  -4  13   44.80    2.90
   0   4 -13   41.10    2.60
   0   4 -13   46.70    3.00
   0  -4 -13   46.70    3.00
   0  -4 -13   49.99    2.10
   0   4 -13   47.20    1.90
   0   4  13   46.80    2.80
   0  -4  13   43.40    3.20
  -1   4  13   35.80    2.40
  -1  -4 -13   36.60    1.70
   1   4 -13   36.90    1.70
   1   4 -13   33.20    2.40
  -1  -4 -13   35.90    2.50
  -1  -4 -13   35.30    1.90
   1  -4  13   37.40    2.60
   1   4 -13   33.00    2.50
   1  -4  13   34.70    2.80
  -1   4 -13   36.90    1.50
  -1  -4  13   37.40    2.80
   1  -4 -13   32.90    1.70
  -1   4 -13   37.50    2.20
  -1   4 -13   37.40    2.60
  -1  -4  13   32.70    2.50
   1   4  13   34.70    2.50
  -2  -4 -13  203.08    7.20
   2  -4  13  207.28    8.30
  -2   4  13  211.58    7.80
   2  -4  13  216.28    8.90
   2   4 -13  204.98    8.30
   2   4 -13  202.18    8.10
  -2  -4 -13  213.78    8.10
  -2   4  13  204.78    8.40
  -2  -4 -13  222.98    6.90
   2   4 -13  210.18    6.80
  -2   4 -13  220.18    7.30
  -2   4 -13  207.98    6.40
  -2   4 -13  202.58    8.10
  -2  -4  13  213.38    8.60
   2   4  13  226.28    8.20
  -2  -4  13  204.88    8.50
  -3  -4 -13   55.59    3.30
   3  -4  13   53.19    4.20
  -3  -4 -13   52.79    2.80
  -3   4  13   53.49    3.50
   3   4 -13   55.69    2.40
  -3  -4 -13   53.69    2.40
  -3  -4 -13   59.99    2.40
   3   4 -13   52.79    3.30
  -3   4 -13   55.79    3.30
  -3  -4  13   62.49    4.10
   3   4  13   53.69    3.20
  -3   4 -13   56.49    2.60
  -4  -4 -13    1.20    0.40
  -4  -4 -13    1.10    0.40
   4   4 -13    0.70    0.30
  -4  -4 -13    1.80    0.50
  -4  -4 -13    0.30    0.30
  -4   4  13    0.80    0.40
  -4  -4 -13    1.40    0.60
   4  -4 -13    2.50    0.40
   4   4  13    1.40    0.70
  -4   4 -13    0.90    0.40
  -4  -4  13    0.50    0.30
  -4   4 -13    0.30    0.30
  -5  -4 -13   61.49    2.70
   5   4 -13   64.39    2.50
  -5  -4 -13   61.49    2.70
  -5   4  13   63.99    2.60
  -5  -4 -13   60.49    2.50
  -5  -4 -13   62.69    2.50
  -5   4 -13   59.59    2.50
   5  -4 -13   55.89    2.50
  -5  -4  13   64.89    2.60
  -5   4 -13   62.59    2.60
  -6  -4 -13   60.69    2.50
  -6  -4 -13   58.99    2.50
  -6  -4 -13   59.39    2.70
  -6   4  13   59.99    2.60
  -6  -4 -13   58.59    2.70
   6   4 -13   58.39    2.50
  -6   4 -13   61.19    2.50
   6  -4 -13   60.79    2.60
  -6  -4  13   64.79    2.60
   7   4 -13    8.90    0.80
  -7  -4 -13    9.10    1.00
  -7  -4 -13    8.70    0.90
  -7   4  13    7.80    0.90
  -7  -4 -13    8.50    0.90
  -7  -4 -13    9.50    0.90
  -7  -4  13    9.30    0.90
  -7   4 -13    8.60    0.80
  -8  -4 -13   85.89    3.10
  -8  -4 -13   77.19    3.00
  -8   4  13   80.19    3.10
  -8  -4 -13   83.89    3.30
  -8  -4  13   78.29    3.00
  -8   4 -13   77.69    3.00
   8  -4 -13   84.19    3.60
  -9  -4 -13   32.80    1.40
  -9  -4 -13   30.90    1.60
  -9   4  13   31.90    1.50
  -9   4 -13   30.70    1.40
  -9  -4  13   30.00    1.40
   0  -5 -13    0.20    0.40
   0   5 -13    0.30    0.40
   0   5  13    0.30    0.50
   0  -5 -13    0.40    0.30
   0   5 -13    0.30    0.30
   0   5 -13    0.60    0.50
   0  -5  13    2.20    0.90
  -1   5  13   22.30    2.00
   1   5 -13   23.50    1.40
  -1  -5 -13   24.00    1.70
  -1  -5 -13   23.60    1.40
   1   5 -13   24.50    2.20
   1   5 -13   23.60    2.10
  -1   5 -13   23.60    1.30
  -1   5 -13   23.90    2.20
   1   5  13   23.60    2.10
  -1   5 -13   27.50    2.00
   2   5 -13    1.70    0.80
  -2  -5 -13    3.40    0.60
  -2   5  13    2.50    0.80
  -2  -5 -13    1.80    0.50
   2   5 -13    1.90    0.50
  -2  -5 -13    3.50    0.80
  -2  -5 -13    2.90    1.00
   2   5  13    1.90    0.80
  -2  -5  13    2.00    0.50
  -2   5 -13    1.70    0.40
  -2   5 -13    2.00    0.40
  -2   5 -13    2.10    0.80
   2  -5 -13    3.90    0.40
  -3  -5 -13    2.90    0.60
   3   5 -13    2.40    0.90
   3   5 -13    2.80    0.50
  -3  -5 -13    2.30    0.70
  -3  -5 -13    3.20    0.60
  -3  -5 -13    2.20    0.50
  -3  -5 -13    2.60    0.60
  -3   5 -13    3.30    0.50
  -3   5 -13    2.20    0.90
  -3   5 -13    4.20    0.60
  -3   5 -13    2.60    0.50
   3   5  13    3.40    1.00
   3  -5 -13    5.60    0.50
  -3  -5  13    2.80    0.60
  -4   5  13   50.19    2.20
  -4  -5 -13   47.70    2.30
  -4  -5 -13   51.09    2.20
  -4  -5 -13   50.59    2.20
  -4  -5 -13   53.39    2.50
   4   5 -13   50.79    2.20
  -4  -5  13   50.89    2.20
   4  -5 -13   49.80    2.10
  -4   5 -13   49.30    2.00
  -4   5 -13   48.80    2.20
  -4   5 -13   53.09    2.30
   4  -5 -13   53.49    2.30
  -5  -5 -13   68.79    2.80
  -5  -5 -13   70.59    3.00
  -5  -5 -13   71.89    3.10
  -5  -5 -13   69.09    2.80
  -5   5  13   69.59    2.90
   5   5 -13   70.49    2.80
  -5   5 -13   68.99    2.90
  -5   5 -13   68.69    2.80
  -5  -5  13   71.39    2.90
  -6  -5 -13  143.89    5.00
  -6   5  13  142.69    5.10
  -6  -5 -13  141.59    5.30
   6   5 -13  146.29    5.00
  -6  -5 -13  145.99    5.00
  -6  -5 -13  151.98    5.30
  -6   5 -13  151.48    5.10
  -6  -5  13  150.58    5.10
  -6   5 -13  143.79    5.00
  -7  -5 -13   22.30    1.50
   7   5 -13   22.30    1.30
  -7  -5 -13   24.00    1.50
  -7  -5 -13   21.40    1.30
  -7  -5 -13   22.40    1.30
  -7   5  13   22.70    1.40
  -7   5 -13   19.80    1.60
  -7   5 -13   22.60    1.30
  -7  -5  13   20.90    1.30
  -8  -5 -13   12.90    1.00
   8   5 -13   14.00    0.80
  -8  -5 -13   14.00    0.90
  -8   5  13   13.00    1.00
  -8  -5  13   12.40    0.90
   8   5  13   13.10    0.90
  -8   5 -13   14.30    0.90
  -9   5  13    6.00    0.60
  -9  -5 -13    5.90    0.50
   0   6 -13    1.20    0.70
   0   6  13    2.30    0.90
   0   6 -13    4.00    0.60
   0  -6 -13    2.10    0.50
   0   6 -13    1.80    0.50
  -1  -6 -13    9.50    0.80
   1   6 -13    8.60    1.40
  -1   6  13    8.50    1.40
   1   6 -13    9.60    0.80
  -1  -6 -13    8.10    1.10
   1   6 -13   10.50    0.90
   1   6 -13    9.50    0.80
   1  -6 -13    9.40    0.80
  -1   6 -13    8.40    1.40
  -1   6 -13    8.90    0.80
  -1   6 -13   10.20    0.80
   1   6  13    9.10    1.40
  -1   6 -13    8.90    0.80
  -1  -6  13    8.30    0.80
   2   6 -13   32.20    2.80
   2   6 -13   34.10    1.60
  -2  -6 -13   36.20    2.00
   2   6 -13   35.70    1.90
  -2  -6 -13   33.90    1.60
   2   6 -13   34.50    1.70
  -2  -6 -13   32.30    2.20
   2   6  13   33.40    3.40
  -2   6 -13   33.30    2.80
  -2   6 -13   34.80    1.70
  -2  -6  13   36.50    1.70
   2  -6 -13   34.40    1.60
  -2   6 -13   34.90    1.80
  -2   6 -13   31.80    1.60
   3   6 -13  110.49    3.90
  -3  -6 -13  112.49    4.30
  -3  -6 -13  109.09    3.90
  -3  -6 -13  100.99    4.00
  -3  -6 -13  112.29    3.90
  -3   6 -13  110.59    4.00
  -3   6 -13  113.29    4.00
  -3  -6  13  111.29    4.00
   3  -6 -13  105.39    3.80
  -3   6 -13  111.99    4.00
  -4   6  13   48.20    2.20
  -4  -6 -13   49.80    2.50
  -4  -6 -13   50.89    2.20
  -4  -6 -13   49.40    2.20
   4   6 -13   49.40    2.20
  -4   6 -13   48.00    2.10
  -4  -6  13   50.89    2.20
  -4   6 -13   49.80    2.20
  -4   6 -13   49.30    2.30
   4  -6 -13   45.90    2.10
  -5  -6 -13   45.30    2.10
  -5  -6 -13   46.00    2.10
   5   6 -13   46.20    2.10
  -5  -6 -13   43.20    2.30
  -5   6  13   44.00    2.10
   5  -6 -13   48.80    2.00
  -5  -6  13   45.20    2.10
  -5   6 -13   45.70    2.10
  -5   6 -13   44.50    2.10
  -5   6 -13   43.60    2.10
  -6   6  13   11.30    1.00
   6   6 -13   10.40    0.90
  -6  -6 -13   11.80    1.00
  -6  -6 -13   10.00    1.00
  -6  -6 -13   11.60    1.00
  -6   6 -13   12.20    1.00
   6  -6 -13   10.60    0.90
  -6   6 -13   13.40    1.00
  -6   6 -13   10.30    0.90
  -6  -6  13   11.70    1.00
  -7  -6 -13   -0.10    0.30
   7   6 -13    1.30    0.40
  -7   6  13    2.10    0.50
  -7  -6 -13    0.10    0.30
  -7  -6 -13    0.70    0.40
  -7   6 -13    0.80    0.40
  -7   6 -13    0.20    0.30
  -7  -6  13    0.90    0.40
  -8   6  13    2.10    0.50
  -8  -6 -13    2.10    0.40
  -8  -6 -13    2.00    0.40
   8   6 -13    1.80    0.30
  -8   6 -13    2.60    0.40
  -8  -6  13    1.90    0.40
   8   6  13    1.40    0.30
   0   7 -13    0.10    0.30
   0  -7 -13    0.10    0.30
   0   7 -13    0.00    0.30
   0   7 -13    0.20    0.30
   1   7 -13   27.20    1.60
   1   7 -13   27.40    1.50
  -1  -7 -13   31.40    1.50
   1  -7 -13   25.90    1.50
  -1   7 -13   28.30    1.50
  -1  -7  13   27.30    1.50
  -1   7 -13   28.80    1.70
  -1   7 -13   25.70    1.50
  -2  -7 -13    5.40    0.70
   2   7 -13    6.40    0.70
  -2   7 -13    6.10    0.80
  -2   7 -13    6.20    0.80
   2  -7 -13    5.10    0.70
  -2  -7  13    5.80    0.70
  -2   7 -13    5.40    0.70
   3   7 -13   93.99    3.50
  -3  -7 -13   94.79    3.50
  -3  -7 -13   96.39    3.50
   3  -7 -13   94.39    3.50
  -3  -7  13   96.19    3.60
  -3   7 -13   95.19    3.60
  -3   7 -13   98.59    3.70
  -3   7 -13   91.89    3.60
  -4  -7 -13  251.17    8.10
  -4  -7 -13  255.47    8.10
   4   7 -13  245.78    8.00
  -4   7 -13  254.67    8.20
   4  -7 -13  250.17    8.00
  -4   7 -13  265.97    8.20
  -4   7 -13  252.77    8.10
  -4  -7  13  258.47    8.10
   5   7 -13    5.80    0.70
  -5   7  13    5.80    0.70
  -5  -7 -13    5.70    0.70
  -5  -7 -13    5.50    0.70
  -5  -7  13    6.30    0.80
  -5   7 -13    4.90    0.70
  -5   7 -13    5.60    0.70
  -5   7 -13    5.80    0.70
   5  -7 -13    5.50    0.70
  -6  -7 -13   45.10    2.00
  -6   7  13   44.00    2.00
  -6  -7 -13   43.10    2.00
   6   7 -13   41.50    1.90
   6  -7 -13   44.20    1.90
  -6  -7  13   47.60    2.00
  -6   7 -13   46.10    2.00
  -6   7 -13   44.00    2.00
  -7   7  13    4.60    0.60
   7   7 -13    3.90    0.50
  -7  -7 -13    4.40    0.60
  -7   7 -13    4.30    0.60
  -7   7 -13    4.20    0.50
  -7  -7  13    4.40    0.60
   7   7  13    3.80    0.50
   0  -8  13    4.70    0.70
   0   8 -13    4.70    0.80
   0   8 -13    6.30    0.70
   0  -8 -13    6.20    0.80
  -1  -8 -13   68.89    2.70
  -1  -8  13   65.29    2.70
  -1   8 -13   64.09    2.90
  -1   8 -13   66.89    2.70
  -1   8 -13   67.99    2.80
   1  -8 -13   69.29    2.70
   2   8 -13  452.85   13.70
  -2  -8 -13  461.65   13.90
   2  -8 -13  463.55   13.90
  -2   8 -13  469.75   14.00
  -2   8 -13  459.45   14.20
  -2  -8  13  457.05   13.90
  -2   8 -13  459.95   14.00
   3   8 -13    2.80    0.50
  -3  -8 -13    3.60    0.70
  -3  -8 -13    2.90    0.60
  -3   8 -13    3.60    0.70
  -3   8 -13    2.90    0.60
   3  -8 -13    2.40    0.60
  -3   8 -13    2.70    0.60
  -3  -8  13    4.20    0.70
   4   8 -13    1.20    0.40
  -4  -8 -13    1.50    0.50
  -4  -8 -13    1.00    0.40
  -4   8 -13    1.00    0.40
   4  -8 -13    1.50    0.50
  -4   8 -13    1.30    0.50
  -4  -8  13    0.80    0.40
  -4   8 -13    1.10    0.40
  -5  -8 -13   55.49    2.30
   5   8 -13   54.89    2.20
   5   8  13   55.59    2.20
  -5  -8  13   55.89    2.30
   5  -8 -13   55.89    2.20
  -5   8 -13   56.99    2.30
  -5   8 -13   56.49    2.30
  -6   8  13    6.00    0.70
  -6  -8 -13    7.20    0.70
   6   8 -13    6.50    0.60
  -6  -8  13    7.00    0.70
  -6   8 -13    7.30    0.70
   6  -8 -13    7.60    0.60
  -6   8 -13    7.60    0.70
   6   8  13    7.50    0.60
   7   8 -13   20.30    0.90
  -7  -8 -13   19.30    0.90
   7   8  13   18.70    0.90
  -7   8 -13   19.50    1.30
   0  -9 -13    0.80    0.40
   0  -9  13    0.20    0.30
  -1  -9 -13    4.80    0.70
   1  -9  13    5.00    0.70
   1  -9 -13    5.80    0.70
  -1  -9  13    5.50    0.70
  -1   9 -13    4.90    0.70
  -2  -9 -13    0.90    0.40
   2  -9 -13    0.40    0.40
  -2   9 -13    0.40    0.30
  -2  -9  13    0.30    0.40
  -2   9 -13    0.70    0.40
  -3  -9 -13   10.30    0.90
   3   9 -13   11.40    0.80
  -3  -9  13   11.00    0.90
  -3   9 -13   10.90    0.90
   3  -9 -13   10.40    0.90
  -3   9 -13   12.20    0.90
   4   9 -13    4.90    0.50
  -4  -9 -13    4.90    0.60
  -4  -9  13    4.40    0.60
  -4   9 -13    4.90    0.60
  -4   9 -13    4.60    0.60
   4  -9 -13    4.60    0.60
  -5  -9 -13    2.10    0.40
   5   9 -13    1.90    0.40
  -5  -9  13    3.10    0.50
   5   9  13    2.40    0.40
  -5   9 -13    2.70    0.50
  -5   9 -13    2.40    0.40
   5  -9 -13    3.20    0.50
  -6   9 -13   33.80    1.70
   0 -10  13 1795.42   51.09
   0 -10 -13 1779.82   51.09
   1 -10  13   21.50    1.20
  -1 -10 -13   20.30    1.20
   1 -10 -13   22.30    1.20
  -1 -10  13   21.70    1.20
   2 -10  13  161.48    5.20
  -2 -10 -13  167.18    5.20
  -2  10 -13  159.08    5.20
  -2 -10  13  161.98    5.20
   2 -10 -13  158.78    5.20
   3 -10  13   22.70    1.20
  -3 -10 -13   22.90    1.10
  -3  10 -13   22.80    1.10
   3 -10 -13   24.20    1.20
  -3 -10  13   23.20    1.20
  -4 -10 -13   51.49    1.90
   4 -10 -13   52.59    1.90
  -4  10 -13   53.49    2.00
   0 -11 -13   -0.10    0.20
  -1 -11 -13    3.10    0.40
   1 -11 -13    3.30    0.40
   0   0 -14    2.10    0.60
   0   0 -14    3.60    0.60
   0   0  14    2.00    0.60
   1   0 -14  355.36   11.80
   1   0 -14  345.97   10.60
   1   0 -14  354.56   11.80
  -1   0  14  372.36   12.20
  -1   0 -14  358.46   11.20
  -1   0 -14  358.46   11.90
   1   0  14  366.16   11.80
  -2   0  14   62.19    3.60
   2   0  14   59.89    3.10
   2   0 -14   74.79    3.60
   2   0  14   59.09    3.00
  -2   0 -14   64.19    2.60
   2   0 -14   58.69    2.40
   3   0  14  562.54   17.50
  -3   0  14  548.55   18.30
   3   0 -14  536.95   16.40
  -3   0 -14  562.44   16.40
  -4   0  14   25.70    2.50
  -4   0 -14   28.20    1.40
   4   0  14   28.90    2.40
   5   0 -14 1073.49   31.00
  -5   0 -14 1062.29   31.10
  -6   0 -14   11.30    0.90
   6   0 -14   11.60    1.10
  -6   0  14   10.10    0.90
  -6   0 -14   12.20    1.00
  -7   0  14 1282.47   38.80
  -7   0 -14 1346.67   39.00
   7   0 -14 1394.36   39.00
  -7   0 -14 1342.47   38.70
  -8   0 -14   12.50    1.10
  -8   0 -14   12.70    0.90
  -8   0  14   14.00    1.10
  -8   0 -14   13.30    1.00
   8   0 -14   12.00    1.20
  -9   0 -14   61.39    2.50
   9   0 -14   58.39    2.50
   0  -1 -14    0.60    0.20
   0   1  14    1.00    0.50
   0   1 -14    0.60    0.40
   0   1 -14    0.50    0.20
   0   1 -14    1.50    0.50
   0  -1 -14    1.10    0.50
  -1   1  14  455.25   15.20
  -1  -1 -14  478.55   14.90
   1   1 -14  459.75   15.20
   1   1 -14  482.95   15.30
   1   1 -14  488.45   14.10
  -1   1  14  513.65   15.80
   1  -1  14  515.85   15.70
  -1  -1 -14  450.65   13.90
  -1   1 -14  478.35   15.40
  -1  -1  14  496.25   15.80
  -1   1 -14  478.85   14.60
   1   1  14  464.15   15.00
   1  -1 -14  494.45   15.40
   1  -1 -14  480.35   14.20
   1   1  14  491.95   15.40
   2   1 -14  987.90   30.30
  -2  -1 -14  982.50   29.40
  -2   1  14  968.50   29.80
   2   1 -14  995.60   30.00
   2   1 -14  994.60   28.90
  -2   1  14  980.50   30.60
   2  -1  14 1064.69   30.40
   2   1  14  988.00   30.00
  -2  -1  14 1060.89   30.90
   2  -1 -14  980.30   28.90
   2  -1 -14 1042.60   30.50
  -2   1 -14 1020.70   30.20
  -2   1 -14  943.81   28.90
  -3  -1 -14 1022.60   29.50
   3   1 -14  994.80   29.10
  -3   1  14  992.90   31.10
  -3   1 -14 1025.80   30.40
  -3  -1  14  925.11   31.10
   3   1  14 1053.19   30.30
  -4   1  14   21.70    2.20
  -4  -1 -14   23.00    1.90
  -4  -1 -14   22.80    1.50
   4   1  14   20.50    1.80
  -4  -1  14   20.60    2.20
  -5   1  14  189.68    6.30
   5   1 -14  192.48    6.30
  -5  -1 -14  195.08    6.40
  -5  -1 -14  193.78    7.00
   5  -1 -14  193.88    6.30
  -6  -1 -14   11.00    0.90
   6   1 -14   12.00    1.10
  -6  -1 -14   11.80    1.10
  -6   1  14   11.30    1.00
   6  -1 -14   12.80    1.10
  -6   1 -14    9.80    0.80
  -6  -1  14   10.50    0.90
  -7   1  14  262.47    8.70
  -7  -1 -14  282.47    8.70
  -7  -1 -14  278.67    8.70
   7   1 -14  275.67    8.90
  -7  -1 -14  287.17    9.00
  -7   1 -14  270.67    8.60
   7  -1 -14  287.57    8.90
  -7  -1  14  262.97    8.70
  -8  -1 -14   25.20    1.60
  -8  -1 -14   23.80    1.40
  -8   1  14   24.90    1.40
   8   1 -14   22.30    1.50
  -8  -1 -14   25.50    1.40
   8  -1 -14   26.20    1.60
  -9  -1 -14  218.38    7.10
  -9  -1 -14  229.38    7.00
   9   1 -14  214.28    7.00
   9  -1 -14  217.88    7.10
   0  -2 -14   11.30    0.80
   0  -2 -14   11.40    1.20
   0   2 -14   10.70    0.70
   0  -2  14   10.90    1.40
   0  -2  14   13.50    1.30
   0   2 -14   11.70    1.10
   0   2 -14   15.30    1.40
   0   2  14   12.30    1.20
   0   2  14   10.80    1.20
  -1  -2 -14  143.29    4.70
   1  -2  14  148.29    5.60
   1   2 -14  140.79    4.70
   1   2 -14  155.98    5.90
   1   2 -14  173.08    6.10
  -1   2  14  134.49    5.80
   1  -2  14  142.09    6.20
  -1  -2 -14  149.88    5.60
  -1   2  14  139.89    5.70
  -1   2 -14  144.79    5.90
  -1   2 -14  144.29    5.20
   1  -2 -14  146.89    5.90
   1  -2 -14  140.69    4.80
  -1  -2  14  164.38    5.90
  -1  -2  14  139.49    6.20
   1   2  14  139.99    5.70
  -2   2  14  136.09    5.30
   2  -2  14  142.49    5.90
   2   2 -14  133.99    5.60
  -2   2  14  137.09    5.80
   2  -2  14  140.49    6.30
  -2  -2 -14  135.19    4.20
  -2  -2 -14  128.89    5.10
   2   2 -14  127.89    4.40
   2   2 -14  124.69    5.40
   2   2  14  131.89    5.40
  -2  -2  14  126.59    5.90
   2  -2 -14  123.69    5.70
  -2   2 -14  121.49    5.40
  -2   2 -14  131.79    4.50
  -2  -2  14  134.59    5.50
   2  -2 -14  120.49    4.40
  -3  -2 -14  976.20   27.50
   3   2 -14  941.81   26.70
  -3  -2 -14  855.81   26.20
  -3   2  14  869.81   28.60
   3  -2  14  928.61   28.50
  -3  -2  14  929.71   28.30
  -3   2 -14  921.11   27.90
   3   2  14  926.81   27.80
  -3  -2  14  871.11   28.80
  -4  -2 -14  766.62   22.20
  -4  -2 -14  737.53   21.60
  -4  -2 -14  738.73   22.40
  -4  -2 -14  722.73   21.20
   4  -2 -14  747.43   21.40
   4   2  14  735.03   22.80
  -4  -2  14  671.73   23.40
  -5  -2 -14  686.23   19.80
  -5  -2 -14  718.03   19.60
  -5  -2 -14  654.83   20.50
   5   2 -14  638.74   19.50
  -5  -2 -14  651.73   19.40
  -5   2  14  654.93   19.60
  -5  -2 -14  695.13   19.40
   5   2 -14  632.94   19.40
   5  -2 -14  659.63   19.60
  -5  -2  14  634.64   19.60
  -6   2  14   18.80    1.30
  -6  -2 -14   17.60    1.20
  -6  -2 -14   17.90    1.40
   6   2 -14   16.40    1.30
  -6  -2 -14   18.00    1.10
  -6  -2 -14   17.70    1.10
   6  -2 -14   19.70    1.30
  -6  -2  14   17.00    1.20
  -6  -2  14   11.60    1.50
  -7   2  14  789.82   23.70
  -7  -2 -14  809.02   23.60
   7   2 -14  758.42   23.70
  -7  -2 -14  838.42   24.00
  -7  -2 -14  798.72   23.70
  -7  -2  14  815.52   23.60
   7  -2 -14  830.22   23.90
  -8  -2 -14   94.19    3.70
  -8   2  14   88.99    3.40
  -8  -2 -14   90.39    3.50
   8   2 -14   88.39    3.50
  -8  -2 -14   92.79    3.40
   8  -2 -14   90.79    3.50
  -8  -2  14   94.89    3.40
  -9  -2 -14    3.40    0.50
  -9   2  14    3.60    0.60
  -9  -2 -14    3.40    0.60
   9   2 -14    3.40    0.50
   9  -2 -14    4.00    0.60
   0   3 -14    0.10    0.20
   0   3 -14    0.20    0.40
   0  -3  14    0.30    0.40
   0   3  14    0.20    0.30
   0  -3 -14    1.00    0.30
   0   3 -14    0.90    0.50
   0  -3  14    0.60    0.40
   0  -3 -14    0.20    0.40
   1   3 -14   17.90    1.00
  -1   3  14   17.90    1.60
   1  -3  14   17.00    1.60
  -1   3  14   18.30    2.00
   1   3 -14   17.20    1.70
  -1  -3 -14   19.30    1.70
   1  -3  14   17.10    1.80
  -1  -3 -14   17.20    1.00
   1   3 -14   17.10    1.60
  -1   3 -14   15.30    0.80
  -1  -3  14   17.10    1.70
  -1  -3  14   18.20    1.90
   1  -3 -14   17.40    1.70
  -1   3 -14   18.10    1.70
   1  -3 -14   17.70    1.10
   1   3  14   16.20    1.60
  -1   3 -14   16.40    1.30
   2   3 -14  103.49    3.60
  -2  -3 -14  105.89    4.60
   2   3 -14  101.29    4.90
   2   3 -14   99.79    4.70
   2  -3  14   97.79    4.70
  -2   3  14  100.39    4.40
  -2   3  14  104.69    4.90
   2  -3  14  102.49    5.20
  -2  -3 -14  103.29    3.50
  -2   3 -14   99.29    3.80
  -2  -3  14   97.59    4.80
   2   3  14   97.59    4.60
  -2   3 -14  100.39    4.70
  -2  -3  14  100.29    5.10
  -3   3  14  433.56   15.40
  -3  -3 -14  462.65   14.00
  -3  -3 -14  458.35   14.70
   3  -3  14  437.86   15.10
   3  -3  14  443.46   15.60
   3   3 -14  472.25   16.00
  -3  -3 -14  455.95   13.40
   3   3 -14  449.76   13.50
  -3   3 -14  464.25   15.00
  -3  -3  14  428.46   15.60
  -3  -3  14  432.16   15.40
  -3   3 -14  440.26   13.40
   3   3  14  435.46   14.80
  -4  -3 -14   26.10    1.50
  -4  -3 -14   27.40    1.90
  -4  -3 -14   31.30    1.50
   4   3  14   26.50    2.20
   4  -3 -14   26.60    1.40
  -4  -3  14   24.30    1.30
  -5  -3 -14   44.90    2.00
  -5   3  14   45.70    2.10
  -5  -3 -14   44.20    2.00
  -5  -3 -14   46.30    2.10
  -5  -3 -14   46.00    2.20
   5   3 -14   46.90    2.00
  -5  -3 -14   43.80    2.70
  -5  -3  14   49.90    2.10
   5  -3 -14   44.00    2.00
  -6   3  14    2.60    0.60
  -6  -3 -14    1.60    0.50
  -6  -3 -14    1.60    0.50
  -6  -3 -14    3.30    0.60
  -6  -3 -14    2.10    0.50
   6   3 -14    3.20    0.60
  -6   3 -14    1.60    0.50
   6  -3 -14    1.60    0.50
  -6  -3  14    3.30    0.60
  -7   3  14    1.90    0.50
  -7  -3 -14    1.70    0.50
  -7  -3 -14    1.80    0.50
  -7  -3 -14    2.80    0.60
  -7  -3 -14    1.50    0.50
  -7  -3  14    2.20    0.50
   7  -3 -14    2.00    0.50
  -7   3 -14    1.40    0.40
  -8  -3 -14    2.70    0.60
  -8   3  14    2.50    0.50
  -8  -3 -14    2.30    0.60
  -8  -3  14    1.90    0.50
   8  -3 -14    1.90    0.50
  -8   3 -14    1.50    0.40
  -9  -3 -14   26.40    1.40
  -9  -3 -14   26.30    1.30
  -9   3  14   26.50    1.30
  -9  -3  14   24.00    1.20
   9  -3 -14   27.00    1.40
   0  -4 -14 3143.19   95.29
   0  -4  14 3130.39   95.89
   0  -4 -14 3315.37   95.59
   0  -4  14 3488.45   95.49
   0   4 -14 3371.06   95.99
   0   4 -14 2971.70   95.19
   0   4  14 3490.55   99.09
   0   4 -14 3413.36   99.99
  -1  -4 -14   31.30    1.60
   1   4 -14   33.90    2.50
  -1  -4 -14   31.80    2.40
  -1   4  14   31.80    2.30
   1  -4  14   30.60    2.40
   1   4 -14   29.70    2.30
   1   4 -14   32.20    1.60
   1  -4  14   31.10    2.70
  -1  -4  14   33.60    2.60
   1  -4 -14   31.90    1.70
  -1  -4  14   30.00    2.60
  -1   4 -14   30.30    2.40
  -1   4 -14   32.60    1.40
  -1   4 -14   33.00    2.10
   1   4  14   34.50    2.50
   2   4 -14  123.79    5.90
   2  -4  14  131.89    5.90
  -2  -4 -14  129.19    4.40
   2   4 -14  126.69    4.40
  -2   4  14  108.39    5.10
   2  -4  14  127.39    6.50
   2   4 -14  119.29    5.60
  -2  -4 -14  131.49    5.50
  -2  -4 -14  118.79    5.50
  -2   4 -14  121.69    5.60
  -2   4 -14  122.09    3.90
  -2  -4  14  122.79    6.10
  -2   4 -14  129.09    4.80
   2   4  14  128.59    5.60
  -2  -4  14  114.39    5.80
  -3  -4 -14  927.31   26.80
   3   4 -14  896.91   30.00
  -3  -4 -14  950.40   26.80
  -3  -4 -14  931.91   27.50
   3   4 -14  935.41   26.90
   3  -4 -14  906.21   26.60
  -3   4 -14  936.81   28.50
  -3   4 -14  865.41   26.50
   3   4  14  879.91   28.30
  -3  -4  14  914.01   26.50
   4   4 -14  284.87    9.10
  -4  -4 -14  316.87    9.50
  -4  -4 -14  289.87    9.20
  -4  -4 -14  317.57    9.50
  -4   4  14  294.37    9.30
   4   4 -14  300.47    9.40
  -4  -4 -14  302.37    9.20
  -4  -4 -14  289.37   10.10
   4   4  14  288.67   10.80
   4  -4 -14  287.37    9.20
  -4  -4  14  309.17    9.30
  -4   4 -14  292.57    9.20
  -4   4 -14  294.87    9.30
   5   4 -14  348.07   10.00
  -5  -4 -14  316.07   10.20
  -5  -4 -14  337.17   10.30
  -5  -4 -14  325.27    9.90
  -5   4  14  320.17   10.00
  -5  -4 -14  331.37   10.00
  -5   4 -14  302.77    9.90
  -5  -4  14  310.07   10.00
   5  -4 -14  325.77   10.00
  -5   4 -14  297.07    9.90
   6   4 -14  524.85   16.30
  -6  -4 -14  567.74   16.80
  -6  -4 -14  556.64   16.50
  -6  -4 -14  538.55   16.70
  -6  -4 -14  544.35   16.40
  -6   4  14  546.05   16.60
   6  -4 -14  549.35   16.50
  -6  -4  14  601.84   16.60
  -6   4 -14  528.15   16.40
  -7  -4 -14   34.70    1.90
  -7  -4 -14   39.40    1.80
  -7  -4 -14   35.70    2.00
  -7   4  14   36.20    1.80
   7   4 -14   38.80    1.70
  -7  -4 -14   38.00    1.80
   7  -4 -14   38.30    1.90
  -7   4 -14   35.50    1.70
  -7  -4  14   34.70    1.80
  -8   4  14   48.60    2.10
  -8  -4 -14   46.20    2.20
  -8  -4 -14   50.99    2.10
  -8  -4 -14   49.20    2.00
   8  -4 -14   46.50    2.10
  -8  -4  14   46.20    2.00
  -8   4 -14   47.70    2.00
  -9   4  14   25.40    1.20
  -9  -4 -14   25.00    1.20
  -9  -4 -14   24.20    1.30
   0   5 -14    1.20    0.40
   0  -5 -14    3.70    0.60
   0   5 -14    0.60    0.30
   0  -5 -14    0.60    0.40
   0   5  14    0.20    0.40
  -1  -5 -14   16.00    1.20
  -1   5  14   15.40    1.70
   1   5 -14   17.40    1.10
   1   5 -14   17.70    2.20
  -1  -5 -14   15.00    1.10
   1   5 -14   16.60    1.90
   1  -5 -14   16.40    1.00
  -1   5 -14   16.40    1.90
  -1   5 -14   16.20    1.00
  -1  -5  14   15.40    1.00
  -1   5 -14   18.40    1.10
   1   5  14   16.50    1.80
  -2  -5 -14  268.37    9.60
  -2   5  14  282.67   11.50
  -2  -5 -14  299.57    9.10
  -2  -5 -14  280.57    8.90
   2   5 -14  324.77    9.80
   2   5 -14  277.77   10.70
   2   5 -14  290.77    9.00
  -2   5 -14  283.77    8.60
  -2   5 -14  269.77    8.60
   2  -5 -14  262.67    8.70
  -2  -5  14  280.47    8.70
   2   5  14  278.17   10.50
  -2   5 -14  275.57    8.80
  -2   5 -14  264.77   10.50
   3   5 -14    4.80    0.60
  -3  -5 -14    0.70    0.50
  -3  -5 -14    0.70    0.30
  -3   5  14    0.40    0.40
  -3  -5 -14    2.50    0.60
  -3  -5 -14    0.90    0.40
   3   5 -14    4.70    0.60
  -3   5 -14    3.20    1.00
  -3   5 -14    4.60    0.60
  -3  -5  14    0.70    0.40
   4   5 -14    8.50    0.80
  -4  -5 -14    9.00    0.90
  -4   5  14    9.10    0.80
  -4  -5 -14    8.90    1.00
  -4  -5 -14    8.20    0.80
  -4  -5 -14    9.30    0.80
  -4   5 -14    8.50    0.90
  -4   5 -14    8.70    0.90
   4  -5 -14    9.70    0.80
  -4  -5  14    9.10    0.90
  -4   5 -14    9.00    0.80
  -5  -5 -14  152.38    5.20
  -5  -5 -14  151.38    5.30
  -5  -5 -14  151.58    5.40
  -5  -5 -14  160.48    5.60
   5   5 -14  163.88    5.30
  -5   5  14  155.18    5.30
  -5  -5  14  159.38    5.30
  -5   5 -14  149.39    5.20
  -5   5 -14  147.19    5.30
  -6  -5 -14    6.10    0.80
  -6   5  14    5.80    0.80
  -6  -5 -14    7.40    0.90
   6   5 -14    5.50    0.70
  -6  -5 -14    8.10    0.90
  -6  -5 -14    5.80    0.80
  -6  -5  14    8.00    0.90
  -6   5 -14    6.60    0.80
  -6   5 -14    6.40    0.80
  -7  -5 -14    1.10    0.50
  -7  -5 -14    0.50    0.40
  -7  -5 -14    1.40    0.50
  -7   5  14    1.50    0.50
   7   5 -14    1.30    0.40
  -7  -5  14    0.90    0.40
  -7   5 -14    1.20    0.40
   8   5 -14   16.50    0.90
  -8  -5 -14   16.70    1.00
  -8  -5 -14   16.60    1.10
  -8   5  14   18.30    1.10
   8   5  14   17.80    1.00
  -8  -5  14   15.80    1.00
  -8   5 -14   19.20    1.00
  -9  -5 -14    6.00    0.50
   0   6 -14  390.06   11.80
   0   6  14  388.96   13.90
   0   6 -14  402.56   12.10
   0   6 -14  387.96   14.20
   0  -6 -14  396.36   11.80
   0   6 -14  371.86   11.90
   1   6 -14  351.26   14.90
  -1  -6 -14  342.97   10.60
  -1   6  14  334.07   12.50
   1   6 -14  349.96   10.50
   1   6 -14  344.47   10.70
   1   6 -14  356.06   10.90
  -1   6 -14  350.86   10.70
  -1  -6  14  350.46   10.60
  -1   6 -14  347.67   10.80
   1  -6 -14  348.47   10.60
  -1   6 -14  349.96   10.70
   1   6  14  348.77   14.30
  -1   6 -14  340.77   13.20
   2   6 -14  675.23   20.50
  -2  -6 -14  681.63   20.50
   2   6 -14  678.63   20.80
  -2  -6 -14  685.43   20.50
   2   6 -14  734.13   20.50
  -2  -6 -14  668.93   21.10
  -2  -6 -14  687.63   21.00
   2  -6 -14  689.63   20.40
  -2   6 -14  722.13   20.60
  -2   6 -14  699.73   20.50
  -2  -6  14  704.33   20.50
  -2   6 -14  733.03   20.70
  -3  -6 -14  308.07   10.10
  -3  -6 -14  312.47    9.70
  -3  -6 -14  315.27    9.70
   3   6 -14  321.37    9.70
   3  -6 -14  314.97    9.60
  -3   6 -14  296.27    9.70
  -3   6 -14  312.27    9.70
  -3  -6  14  317.97    9.80
  -3   6 -14  319.27    9.90
   4   6 -14   14.10    1.00
  -4  -6 -14   13.10    1.20
  -4   6  14   12.60    1.00
  -4  -6 -14   12.90    1.00
  -4  -6 -14   15.10    1.10
  -4  -6  14   14.10    1.10
  -4   6 -14   14.20    1.10
  -4   6 -14   14.70    1.00
  -4   6 -14   12.90    1.10
   4  -6 -14   12.80    1.00
  -5  -6 -14  319.77   10.50
  -5  -6 -14  332.67   10.10
  -5   6  14  339.47   10.20
  -5  -6 -14  328.87   10.10
   5   6 -14  348.37   10.10
  -5   6 -14  308.87   10.00
   5  -6 -14  315.67   10.00
  -5  -6  14  321.47   10.20
  -5   6 -14  312.77   10.10
  -5   6 -14  334.87   10.10
  -6  -6 -14   25.10    1.60
  -6  -6 -14   28.20    1.50
   6   6 -14   27.30    1.40
  -6  -6 -14   27.20    1.50
  -6   6  14   27.20    1.50
  -6  -6  14   28.10    1.50
  -6   6 -14   25.20    1.50
  -6   6 -14   26.10    1.40
  -6   6 -14   24.70    1.40
  -7  -6 -14    6.00    0.70
  -7  -6 -14    6.40    0.70
   7   6 -14    6.50    0.70
  -7  -6 -14    6.50    0.70
  -7   6  14    7.20    0.80
  -7   6 -14    6.90    0.70
  -7   6 -14    6.30    0.70
  -7  -6  14    6.10    0.70
  -8   6  14  117.59    3.90
  -8  -6 -14  117.79    3.80
   8   6 -14  110.29    3.70
   8   6  14  116.99    3.70
  -8  -6  14  111.59    4.00
   0   7 -14    0.90    0.40
   0  -7 -14    0.50    0.40
   0   7 -14    0.00    0.30
   0   7 -14    0.60    0.40
   1   7 -14   94.09    3.50
  -1  -7 -14   92.69    3.50
   1   7 -14   93.69    3.70
   1  -7 -14   89.29    3.40
  -1   7 -14   97.29    3.60
  -1   7 -14   96.09    3.70
  -1   7 -14   97.59    3.60
  -1  -7  14   96.99    3.50
  -2  -7 -14    4.70    0.70
   2   7 -14    4.70    0.60
  -2   7 -14    4.60    0.70
  -2  -7  14    4.50    0.70
  -2   7 -14    4.70    0.70
  -2   7 -14    4.40    0.70
   2  -7 -14    5.00    0.70
   3   7 -14   15.90    1.00
  -3  -7 -14   14.80    1.10
  -3  -7 -14   14.00    1.00
  -3  -7  14   12.60    1.00
  -3   7 -14   14.50    1.10
   3  -7 -14   14.40    1.00
  -3   7 -14   13.90    1.10
  -3   7 -14   12.80    1.10
  -4  -7 -14  125.89    4.40
  -4  -7 -14  126.19    4.40
   4   7 -14  123.99    4.40
   4  -7 -14  123.89    4.30
  -4   7 -14  132.19    4.60
  -4  -7  14  127.59    4.50
  -4   7 -14  128.79    4.50
  -4   7 -14  123.59    4.50
  -5   7  14   69.39    2.70
  -5  -7 -14   70.19    2.80
   5   7 -14   67.79    2.70
  -5  -7 -14   68.79    2.70
  -5   7 -14   67.29    2.70
  -5  -7  14   68.99    2.80
  -5   7 -14   64.19    2.70
   5  -7 -14   65.69    2.60
  -5   7 -14   71.59    2.80
  -6  -7 -14   24.00    1.30
  -6  -7 -14   24.10    1.30
   6   7 -14   21.60    1.20
  -6   7  14   22.70    1.30
   6  -7 -14   23.60    1.20
  -6  -7  14   24.50    1.30
  -6   7 -14   23.90    1.30
  -6   7 -14   22.50    1.30
  -7   7  14  134.89    4.60
  -7  -7 -14  142.29    4.50
   7   7 -14  130.99    4.50
  -7   7 -14  141.49    4.50
   7   7  14  139.89    4.50
  -7   7 -14  139.89    4.50
  -7  -7  14  150.68    4.60
   0   8 -14  103.69    3.90
   0   8 -14  105.39    4.10
   0  -8  14  112.79    4.00
   0  -8 -14  112.99    3.90
  -1  -8 -14  495.55   14.80
  -1   8 -14  482.25   15.10
  -1   8 -14  502.45   14.90
  -1  -8  14  493.65   14.90
   1  -8 -14  490.15   14.80
  -1   8 -14  500.75   14.90
   2   8 -14    5.20    0.60
  -2  -8 -14    6.30    0.80
  -2   8 -14    5.10    0.70
  -2  -8  14    7.60    0.80
  -2   8 -14    4.20    0.70
  -2   8 -14    4.80    0.80
   2  -8 -14    4.50    0.70
  -3  -8 -14  173.48    5.60
  -3  -8 -14  168.08    5.60
   3   8 -14  166.88    5.50
   3  -8 -14  169.78    5.60
  -3   8 -14  161.48    5.80
  -3   8 -14  178.58    5.80
  -3   8 -14  165.18    5.70
  -3  -8  14  172.88    5.70
  -4  -8 -14   37.00    1.70
  -4  -8 -14   40.20    1.80
   4   8 -14   35.10    1.70
  -4  -8  14   37.70    1.80
   4  -8 -14   36.10    1.70
  -4   8 -14   38.00    1.80
  -4   8 -14   37.60    1.80
   5   8 -14  458.45   13.90
  -5  -8 -14  474.65   14.00
   5   8  14  468.45   13.90
  -5  -8  14  482.55   14.00
  -5   8 -14  478.95   14.00
  -5   8 -14  462.25   14.00
   5  -8 -14  457.95   13.90
  -6  -8 -14   15.70    0.90
   6   8 -14   14.80    0.90
  -6   8  14   15.30    0.90
   6   8  14   16.30    0.90
  -6   8 -14   16.00    0.90
   6  -8 -14   14.90    0.90
  -6   8 -14   15.60    0.90
   0  -9  14    0.30    0.30
   0  -9 -14    1.60    0.50
   0   9 -14    0.10    0.40
   1  -9  14   69.69    2.70
  -1  -9 -14   70.89    2.70
   1  -9 -14   70.79    2.70
  -1   9 -14   67.89    2.70
  -1  -9  14   68.09    2.70
  -2  -9 -14   12.50    1.00
   2  -9 -14   12.40    0.90
  -2  -9  14   12.50    1.00
  -2   9 -14   11.90    0.90
  -2   9 -14   12.60    1.00
  -3  -9 -14  139.09    4.70
   3   9 -14  136.89    4.50
  -3  -9  14  142.19    4.70
  -3   9 -14  143.79    4.70
   3  -9 -14  142.29    4.70
  -3   9 -14  139.39    4.70
   4   9 -14    1.70    0.40
  -4  -9 -14    2.90    0.50
   4  -9 -14    2.20    0.40
  -4   9 -14    3.40    0.50
  -4  -9  14    2.50    0.50
  -4   9 -14    2.40    0.50
  -5  -9 -14   55.29    2.00
   5   9 -14   53.49    1.90
  -5   9 -14   52.29    2.00
   5   9  14   51.89    1.90
  -5   9 -14   51.59    2.00
  -5  -9  14   53.09    2.00
   5  -9 -14   50.99    1.90
   0 -10  14  100.39    3.50
   0 -10 -14  100.49    3.50
  -1 -10 -14  194.38    6.00
   1 -10  14  194.98    6.10
  -1 -10  14  186.68    6.10
   1 -10 -14  190.78    6.00
  -2 -10 -14    9.30    0.70
   2 -10  14    9.20    0.70
   2 -10 -14    9.60    0.70
  -2 -10  14    8.70    0.70
  -2  10 -14    9.50    0.70
   3 -10  14   95.19    3.20
  -3 -10 -14   90.89    3.10
  -3 -10  14   95.19    3.20
  -3  10 -14   89.59    3.10
   3 -10 -14   91.59    3.10
  -4 -10 -14   62.89    2.20
   0   0 -15    0.50    0.20
   0   0  15    0.50    0.40
   0   0 -15    0.20    0.30
  -1   0  15    0.60    0.50
   1   0 -15    0.50    0.40
  -1   0 -15    0.40    0.20
  -1   0 -15    0.20    0.40
   1   0 -15    1.50    0.30
   1   0  15    0.10    0.30
  -1   0 -15    0.30    0.30
   1   0 -15    0.20    0.40
   2   0 -15    0.60    0.30
  -2   0  15    0.40    0.40
  -2   0 -15    1.10    0.40
   2   0 -15    0.40    0.50
  -2   0  15    1.10    0.70
   2   0  15    0.40    0.40
   3   0  15    1.00    0.50
   3   0 -15    0.10    0.20
  -3   0  15    2.70    1.00
  -3   0 -15    1.00    0.30
   4   0  15    0.20    0.40
   4   0 -15    0.80    0.30
  -4   0 -15    1.00    0.30
   5   0 -15    4.50    0.70
  -5   0  15    3.00    0.60
  -6   0 -15    0.30    0.30
  -6   0 -15    0.60    0.40
   6   0 -15    0.40    0.40
  -6   0  15    0.40    0.40
  -7   0 -15    0.50    0.30
  -7   0 -15    2.00    0.60
   7   0 -15    3.20    0.70
  -7   0  15    0.70    0.40
  -8   0 -15    0.40    0.40
   8   0 -15    0.40    0.50
  -8   0 -15    0.20    0.30
  -8   0  15    0.90    0.40
   9   0 -15   -0.10    0.30
  -9   0 -15    0.30    0.40
   0   1 -15    0.40    0.20
   0  -1 -15    0.60    0.40
   0  -1  15    0.30    0.40
   0   1 -15    0.40    0.40
   0   1  15    0.80    0.50
   0   1 -15    0.60    0.40
   0  -1 -15    0.40    0.20
   0   1  15    0.60    0.40
  -1  -1 -15    6.80    0.90
  -1   1  15    8.90    1.10
  -1   1  15    7.30    1.10
   1   1 -15    7.60    0.60
   1   1 -15    6.70    1.00
   1  -1  15    8.80    1.20
  -1  -1 -15    6.80    0.50
   1   1 -15    7.20    1.00
   1  -1 -15    7.10    0.60
  -1   1 -15    9.40    1.20
   1  -1 -15    8.20    1.10
   1   1  15    6.90    1.00
  -1  -1  15    6.70    1.10
  -1   1 -15    6.40    0.80
  -2  -1 -15  582.94   17.20
  -2   1  15  557.04   18.60
   2  -1  15  578.44   19.10
   2   1 -15  584.14   19.10
  -2  -1 -15  639.14   18.30
   2   1 -15  623.44   17.70
   2   1 -15  558.84   18.70
  -2   1  15  595.74   19.50
   2  -1 -15  600.34   17.70
  -2   1 -15  638.64   17.80
  -2  -1  15  619.44   19.70
  -2   1 -15  605.14   19.00
   2   1  15  601.94   18.90
   2  -1 -15  609.34   19.20
  -3   1  15   22.30    2.20
  -3  -1 -15   23.10    1.50
   3   1 -15   21.90    1.30
  -3   1 -15   22.30    1.90
  -3   1 -15   23.40    1.10
  -3  -1  15   22.50    2.20
   3   1  15   22.20    1.80
  -4  -1 -15   11.50    1.00
  -4  -1 -15   11.70    1.00
   4  -1 -15   12.70    0.90
   4   1  15   10.90    1.30
  -5  -1 -15   28.80    1.50
  -5   1  15   29.80    1.60
  -5  -1 -15   31.20    1.70
   5   1 -15   29.30    1.60
  -5  -1 -15   26.20    1.40
   5  -1 -15   35.20    1.70
  -5  -1  15   27.90    1.60
  -6   1  15    1.30    0.50
   6   1 -15    1.60    0.50
  -6  -1 -15    3.00    0.60
  -6  -1 -15    1.50    0.50
   6  -1 -15    1.40    0.50
  -6  -1  15    1.80    0.50
  -7  -1 -15  116.19    4.20
  -7   1  15  123.89    4.40
  -7  -1 -15  118.49    4.50
  -7  -1 -15  119.69    4.20
   7   1 -15  125.59    4.50
  -7   1 -15  115.79    4.20
   7  -1 -15  124.89    4.50
  -7  -1  15  119.99    4.30
  -8  -1 -15   11.10    0.90
  -8  -1 -15   10.20    1.00
   8   1 -15    9.30    1.00
  -8   1  15    9.60    0.90
   8  -1 -15    9.20    1.00
  -9   1  15    2.70    0.80
  -9  -1 -15    4.10    0.60
   9   1 -15    2.80    0.50
  -9  -1 -15    4.00    0.70
   9  -1 -15    3.10    0.60
   0  -2  15  424.56   14.00
   0  -2 -15  410.06   13.30
   0   2 -15  406.46   13.50
   0   2 -15  398.96   13.00
   0   2 -15  390.36   11.90
   0   2  15  402.26   13.40
   0  -2 -15  407.16   12.10
   1   2 -15   49.60    2.90
   1   2 -15   49.80    2.80
  -1   2  15   56.29    3.10
   1   2 -15   49.90    2.00
   1  -2  15   51.69    3.20
  -1  -2 -15   52.99    2.00
  -1  -2 -15   50.79    2.70
  -1   2  15   50.99    2.90
  -1   2 -15   50.69    3.00
   1  -2 -15   53.79    2.10
  -1   2 -15   49.40    2.40
  -1  -2  15   50.39    3.20
   1   2  15   50.09    2.90
   1  -2 -15   48.90    2.90
  -2  -2 -15   46.70    1.80
   2   2 -15   48.00    3.00
  -2   2  15   48.80    3.10
   2   2 -15   44.80    2.00
  -2  -2 -15   46.50    2.60
  -2   2  15   48.10    2.70
   2   2 -15   47.80    2.90
   2  -2  15   46.10    3.00
   2   2  15   48.20    2.80
  -2  -2  15   46.00    3.20
   2  -2 -15   45.50    2.00
  -2   2 -15   47.60    2.10
  -2   2 -15   45.10    2.80
  -3  -2 -15    0.40    0.30
  -3  -2 -15    0.40    0.20
   3   2 -15    0.70    0.30
  -3   2  15    0.40    0.50
   3  -2  15    0.50    0.60
  -3   2 -15    0.10    0.40
  -3  -2  15    2.80    1.00
  -4  -2 -15    1.00    0.40
  -4  -2 -15    0.90    0.30
   4   2  15    0.80    0.60
   4  -2 -15    1.80    0.40
  -5  -2 -15   60.19    2.40
  -5  -2 -15   62.09    2.40
  -5  -2 -15   61.39    2.40
   5   2 -15   56.59    2.40
   5   2 -15   53.79    2.30
  -5  -2 -15   59.79    2.60
  -5   2  15   59.59    2.50
   5  -2 -15   61.29    2.50
  -5  -2  15   56.79    2.50
  -6  -2 -15   56.89    2.40
  -6  -2 -15   58.19    2.50
  -6   2  15   58.39    2.60
   6   2 -15   55.69    2.50
  -6  -2 -15   61.69    2.70
  -6  -2 -15   55.19    2.40
  -6  -2  15   58.19    2.50
   6  -2 -15   65.79    2.70
  -7  -2 -15  186.88    6.20
  -7  -2 -15  196.08    6.60
  -7  -2 -15  193.78    6.30
  -7   2  15  189.68    6.30
   7   2 -15  181.48    6.30
   7  -2 -15  187.18    6.40
  -8  -2 -15   13.10    1.00
  -8   2  15   11.30    1.00
  -8  -2 -15   11.90    1.10
   8   2 -15   10.10    1.00
   8  -2 -15   12.00    1.00
  -9  -2 -15    0.40    0.30
   9   2 -15    0.10    0.20
  -9   2  15    0.50    0.30
  -9  -2 -15    0.50    0.30
   9  -2 -15    0.30    0.30
   0  -3 -15    1.00    0.50
  -1   3  15  232.48    8.60
   1   3 -15  244.08    8.90
   1  -3  15  238.98    9.40
   1   3 -15  232.98    8.70
  -1  -3 -15  236.18    8.70
   1  -3  15  233.38    8.70
   1   3 -15  243.28    7.40
  -1  -3 -15  232.18    7.40
   1  -3 -15  233.58    7.50
   1   3  15  223.58    8.60
  -1   3 -15  234.38    7.10
  -1   3 -15  244.08    8.90
  -1   3 -15  232.08    8.00
   1  -3 -15  235.88    8.90
  -1  -3  15  230.68    8.80
  -1  -3  15  244.58    9.50
   2  -3  15   38.00    3.70
  -2   3  15   39.70    2.50
  -2  -3 -15   36.60    2.40
   2   3 -15   39.50    1.80
  -2  -3 -15   38.80    1.70
  -2   3  15   33.40    2.60
   2   3 -15   37.00    2.60
   2   3 -15   36.50    2.70
   2  -3  15   36.00    2.90
  -2  -3  15   36.40    2.70
  -2   3 -15   34.30    1.90
   2   3  15   38.20    2.60
  -2   3 -15   39.00    2.70
  -2  -3  15   36.90    2.90
   3   3 -15    6.70    0.70
  -3  -3 -15    6.10    0.60
  -3   3  15    6.70    1.50
  -3  -3 -15    5.60    0.90
   3  -3  15    7.80    1.40
  -3  -3 -15    6.60    0.70
  -3   3 -15    6.30    0.60
   3  -3 -15    6.60    0.60
  -3  -3  15    5.90    1.20
   3   3  15    5.80    1.10
  -3   3 -15    6.90    1.20
  -4   3  15    0.60    0.30
  -4  -3 -15    0.50    0.40
  -4  -3 -15    0.40    0.30
  -4  -3 -15    0.50    0.50
   4   3 -15    2.80    0.50
  -4  -3 -15    1.00    0.40
   4  -3 -15    0.50    0.30
   4   3  15    1.40    0.70
   5   3 -15  239.28    7.80
  -5   3  15  251.87    8.10
  -5  -3 -15  254.37    8.20
  -5  -3 -15  250.77    7.90
  -5  -3 -15  249.97    7.90
  -5  -3 -15  256.17    8.10
  -5  -3  15  263.87    8.80
   5  -3 -15  245.08    8.00
  -5  -3  15  246.48    8.00
  -6   3  15   18.00    1.20
  -6  -3 -15   17.10    1.20
  -6  -3 -15   17.50    1.10
   6   3 -15   17.20    1.10
  -6  -3 -15   17.30    1.20
  -6  -3 -15   20.00    1.40
   6  -3 -15   17.30    1.20
  -6  -3  15   16.20    1.10
  -7  -3 -15    2.90    0.60
  -7  -3 -15    3.10    0.70
  -7  -3 -15    2.50    0.60
  -7  -3 -15    3.20    0.60
  -7   3  15    3.40    0.70
  -7  -3  15    2.90    0.60
   7  -3 -15    3.10    0.60
  -8  -3 -15   22.60    1.50
  -8  -3 -15   25.70    1.40
  -8   3  15   23.60    1.40
   8  -3 -15   24.60    1.40
  -8  -3  15   23.20    1.30
  -9  -3 -15    0.90    0.30
  -9   3  15    1.40    0.40
  -9  -3 -15    1.50    0.40
   9  -3 -15    1.30    0.40
   0  -4 -15  176.18    7.30
   0  -4  15  165.98    7.10
   0   4 -15  163.38    6.70
   0   4 -15  178.28    5.60
   0  -4 -15  163.38    5.70
   0   4 -15  172.18    7.20
   0   4  15  176.08    7.10
   0  -4  15  171.38    7.70
   1   4 -15   21.90    2.10
   1  -4  15   21.30    2.90
  -1  -4 -15   20.50    1.30
  -1   4  15   21.20    1.90
   1   4 -15   19.80    1.90
   1  -4  15   18.40    1.90
   1   4 -15   21.40    1.20
  -1  -4 -15   20.30    1.90
   1  -4 -15   23.20    1.40
   1   4  15   25.80    2.20
  -1   4 -15   20.80    1.70
  -1   4 -15   20.40    1.10
  -1  -4  15   20.50    2.00
  -1  -4  15   21.80    2.40
  -2  -4 -15   23.50    2.10
  -2  -4 -15   23.10    1.40
   2  -4  15   22.50    2.20
   2   4 -15   24.00    2.20
   2   4 -15   25.60    1.40
  -2   4  15   23.50    2.00
  -2  -4 -15   24.80    1.40
   2   4 -15   20.80    2.10
   2   4  15   23.70    2.10
  -2   4 -15   23.30    2.20
  -2   4 -15   23.60    1.10
   2  -4 -15   23.80    1.30
   3   4 -15    4.00    0.60
  -3  -4 -15    4.70    0.70
  -3  -4 -15    6.90    0.80
  -3  -4 -15    5.00    0.70
   3   4 -15    3.80    0.60
  -3  -4  15    4.40    0.60
  -3   4 -15    8.30    1.40
   3  -4 -15    4.30    0.60
   3   4  15    4.40    1.00
  -3   4 -15    3.60    1.00
  -4   4  15    0.70    0.40
   4   4 -15    1.60    0.40
  -4  -4 -15    0.50    0.40
  -4  -4 -15    1.70    0.50
   4   4 -15    1.30    0.40
  -4  -4 -15    0.60    0.40
  -4   4 -15    1.20    0.40
   4  -4 -15    1.20    0.40
   4   4  15    1.30    0.70
  -4   4 -15    1.50    0.50
  -4  -4  15    0.60    0.40
  -5   4  15   14.90    1.10
  -5  -4 -15   13.60    1.00
  -5  -4 -15   14.50    1.20
   5   4 -15   13.50    1.00
  -5  -4 -15   13.40    1.10
  -5  -4 -15   16.20    1.20
  -5   4 -15   13.20    1.00
  -5  -4  15   14.80    1.10
   5  -4 -15   15.50    1.10
  -5   4 -15   12.50    1.00
   6   4 -15  228.58    7.00
  -6  -4 -15  219.38    7.30
  -6  -4 -15  222.98    7.10
  -6   4  15  222.68    7.20
  -6  -4 -15  215.98    7.30
  -6  -4 -15  220.18    7.00
  -6  -4  15  208.58    7.00
  -6   4 -15  209.38    7.00
   6  -4 -15  207.38    7.10
  -7  -4 -15    1.20    0.40
  -7   4  15    2.10    0.50
   7   4 -15    1.50    0.40
  -7  -4 -15    1.50    0.50
  -7  -4 -15    1.60    0.50
  -7  -4 -15    1.80    0.60
  -7   4 -15    1.60    0.50
  -7  -4  15    1.00    0.40
   7  -4 -15    1.20    0.40
  -8  -4 -15    4.30    0.70
  -8  -4 -15    4.70    0.60
  -8  -4 -15    4.90    0.60
  -8   4  15    5.10    0.70
  -8  -4  15    4.60    0.60
   8  -4 -15    5.20    0.60
  -9  -4 -15    1.60    0.40
  -9   4  15    1.30    0.30
   0  -5 -15    0.50    0.30
   0   5 -15    0.70    0.60
   0   5 -15    1.30    0.40
   0   5 -15    0.10    0.20
   0   5  15    0.40    0.50
   0  -5 -15    2.00    0.50
  -1   5  15  339.97   12.00
  -1  -5 -15  332.97   10.50
  -1  -5 -15  327.07   10.30
   1   5 -15  316.47   12.20
   1   5 -15  349.37   10.40
  -1   5 -15  335.17   12.30
   1   5  15  331.37   12.00
  -1   5 -15  330.27   10.30
  -1   5 -15  346.77   10.20
  -1   5 -15  311.27   10.10
   1  -5 -15  330.47   10.20
  -1  -5  15  328.57   10.10
   2   5 -15    5.20    0.60
  -2  -5 -15    5.30    0.60
  -2  -5 -15    6.10    0.80
  -2  -5 -15    5.40    0.70
   2   5 -15    5.30    0.60
   2   5 -15    5.60    1.30
  -2  -5 -15    5.70    0.70
   2   5 -15    6.00    0.70
  -2   5 -15    5.00    0.70
   2  -5 -15    6.20    0.70
  -2   5 -15    5.90    0.60
  -2   5 -15    5.00    0.60
  -2  -5  15    5.50    0.60
  -2   5 -15    6.60    1.30
   2   5  15    5.40    1.10
  -3  -5 -15   18.60    1.30
  -3  -5 -15   18.00    1.10
   3   5 -15   17.90    1.10
  -3  -5 -15   19.00    1.20
  -3  -5 -15   18.20    1.30
   3   5 -15   17.60    1.20
  -3  -5  15   19.70    1.20
   3  -5 -15   17.20    1.10
  -3   5 -15   18.50    1.10
  -3   5 -15   18.40    1.20
  -3   5 -15   17.10    2.00
  -3   5 -15   18.00    1.10
  -4  -5 -15   59.49    2.50
   4   5 -15   58.89    2.40
  -4   5  15   61.19    2.50
  -4  -5 -15   64.29    2.80
  -4  -5 -15   60.29    2.70
  -4  -5 -15   58.09    2.50
   4  -5 -15   60.19    2.90
  -4   5 -15   60.69    2.60
  -4   5 -15   58.89    2.50
  -4  -5  15   57.29    2.50
  -5  -5 -15   19.00    1.20
  -5  -5 -15   19.50    1.40
   5   5 -15   20.40    1.20
  -5   5  15   21.60    1.30
  -5  -5 -15   19.40    1.30
  -5  -5 -15   18.30    1.40
  -5   5 -15   18.10    1.20
  -5  -5  15   19.30    1.30
  -5   5 -15   19.60    1.30
  -6  -5 -15    0.70    0.40
  -6  -5 -15    0.70    0.40
  -6  -5 -15    0.70    0.40
  -6   5  15    1.70    0.50
  -6  -5 -15    0.00    0.40
   6   5 -15    0.50    0.40
  -6   5 -15    0.60    0.40
  -6  -5  15    0.40    0.40
  -6   5 -15    0.70    0.40
  -7  -5 -15   58.29    2.60
  -7  -5 -15   65.09    2.50
   7   5 -15   61.19    2.40
  -7  -5 -15   61.69    2.50
  -7   5  15   64.09    2.60
  -7  -5  15   56.19    2.40
  -7   5 -15   58.29    2.40
  -8  -5 -15   73.79    2.60
  -8  -5 -15   70.49    2.80
  -8   5  15   75.59    2.70
  -8   5 -15   70.49    2.60
   8   5  15   73.59    2.60
  -8  -5  15   68.39    2.60
   0  -6 -15  677.73   20.50
   0   6 -15  729.33   20.80
   0   6 -15  708.23   20.70
   0   6 -15  679.73   20.60
  -1  -6 -15    3.20    0.60
   1   6 -15    3.40    0.60
   1   6 -15    3.40    0.60
   1   6 -15    5.20    0.70
  -1  -6 -15    3.50    0.70
  -1  -6  15    3.30    0.60
  -1   6 -15    3.80    0.70
  -1   6 -15    2.50    0.50
   1  -6 -15    3.60    0.60
  -1   6 -15    4.40    0.70
   2   6 -15  451.55   13.80
  -2  -6 -15  462.15   14.00
  -2  -6 -15  435.66   13.40
   2   6 -15  453.65   13.50
  -2  -6 -15  425.26   13.40
   2   6 -15  453.05   13.40
  -2  -6 -15  441.06   13.60
  -2   6 -15  427.06   13.40
  -2  -6  15  457.35   13.50
  -2   6 -15  442.76   13.50
   2  -6 -15  428.56   13.30
  -2   6 -15  472.45   13.60
  -3  -6 -15   28.90    1.80
   3   6 -15   27.00    1.50
  -3  -6 -15   29.00    1.50
  -3  -6 -15   27.70    1.50
  -3  -6  15   34.20    1.60
  -3   6 -15   27.00    1.50
   3  -6 -15   26.60    1.40
  -3   6 -15   28.70    1.50
  -3   6 -15   29.40    1.60
  -4  -6 -15   30.90    1.70
  -4   6  15   35.00    1.70
  -4  -6 -15   32.50    2.00
  -4  -6 -15   33.30    2.00
   4   6 -15   35.50    1.70
  -4  -6 -15   32.80    1.70
  -4   6 -15   33.70    1.70
  -4   6 -15   34.90    1.80
  -4   6 -15   31.90    1.60
   4  -6 -15   32.60    1.60
  -4  -6  15   32.90    1.70
  -5  -6 -15   38.50    1.90
  -5  -6 -15   36.90    2.10
  -5  -6 -15   39.80    1.90
   5   6 -15   41.60    1.90
  -5   6  15   39.00    1.90
  -5   6 -15   34.80    1.70
  -5  -6  15   39.10    1.90
  -5   6 -15   36.70    1.80
  -5   6 -15   38.60    1.90
  -6  -6 -15   66.89    2.60
  -6   6  15   60.89    2.60
  -6  -6 -15   64.39    2.60
  -6  -6 -15   62.69    2.70
   6   6 -15   68.09    2.60
  -6   6 -15   64.89    2.60
  -6  -6  15   62.49    2.60
  -6   6 -15   67.29    2.60
  -7  -6 -15    2.80    0.50
   7   6 -15    2.90    0.50
  -7   6  15    3.10    0.60
  -7  -6 -15    1.70    0.40
  -7  -6 -15    2.00    0.50
  -7  -6  15    2.50    0.50
  -7   6 -15    2.50    0.50
  -7   6 -15    2.60    0.50
   8   6 -15   21.60    1.30
  -8   6  15   27.10    1.30
  -8  -6 -15   25.50    1.20
   8   6  15   26.60    1.10
   0  -7  15    0.00    0.30
   0  -7 -15    1.10    0.40
   0   7 -15    0.60    0.40
   0   7 -15    0.60    0.40
   1   7 -15    1.50    0.50
  -1  -7 -15    1.10    0.40
   1   7 -15    1.00    0.50
   1   7 -15    1.40    0.50
  -1   7 -15    1.90    0.50
   1  -7 -15    0.80    0.40
  -1   7 -15    0.80    0.40
  -1   7 -15    1.60    0.50
  -1  -7  15    1.00    0.40
   2   7 -15    0.90    0.40
  -2  -7 -15    0.60    0.40
  -2   7 -15    0.90    0.40
  -2   7 -15    1.60    0.50
  -2  -7  15    0.90    0.40
   2  -7 -15    1.00    0.40
  -2   7 -15    1.40    0.50
  -3  -7 -15   42.10    2.00
   3   7 -15   46.20    2.00
  -3  -7 -15   45.10    2.00
  -3  -7  15   43.50    2.10
  -3   7 -15   49.20    2.20
  -3   7 -15   43.40    2.00
  -3   7 -15   44.20    2.10
   3  -7 -15   41.80    2.00
   4   7 -15   24.70    1.40
  -4  -7 -15   26.30    1.40
  -4  -7 -15   26.60    1.50
  -4  -7  15   28.10    1.50
  -4   7 -15   23.70    1.40
   4  -7 -15   25.50    1.40
  -4   7 -15   26.20    1.50
  -4   7 -15   23.70    1.40
  -5  -7 -15   29.30    1.50
  -5   7  15   28.80    1.50
  -5  -7 -15   27.90    1.50
   5   7 -15   32.60    1.50
   5  -7 -15   27.60    1.40
  -5  -7  15   29.80    1.60
  -5   7 -15   30.50    1.60
  -5   7 -15   28.70    1.50
  -6  -7 -15   65.59    2.50
  -6   7  15   66.19    2.60
   6   7 -15   64.69    2.50
  -6  -7 -15   67.29    2.50
  -6   7 -15   62.29    2.50
  -6  -7  15   63.49    2.50
  -6   7 -15   63.49    2.50
  -7   7  15   11.00    0.80
   7   7 -15   10.50    0.70
  -7  -7 -15   11.10    0.80
   7   7  15   11.40    0.70
  -7   7 -15   11.40    0.80
  -7   7 -15   11.20    0.80
  -7  -7  15   11.20    0.80
   0  -8 -15  994.50   28.80
   0  -8  15 1007.80   28.90
   0   8 -15 1007.40   28.90
   0   8 -15  954.80   29.10
   1   8 -15    5.80    0.70
  -1  -8 -15    5.70    0.80
  -1  -8  15    6.40    0.80
   1  -8 -15    5.40    0.70
  -1   8 -15    5.90    0.80
  -1   8 -15    6.60    0.80
  -1   8 -15    5.60    0.70
  -2  -8 -15  249.78    7.90
   2   8 -15  250.17    7.80
  -2  -8  15  260.17    8.00
  -2   8 -15  245.28    7.90
   2  -8 -15  244.88    7.90
  -2   8 -15  253.77    8.00
  -2   8 -15  245.28    8.10
  -3  -8 -15   26.10    1.40
   3   8 -15   23.50    1.30
  -3  -8 -15   24.60    1.40
  -3   8 -15   27.60    1.50
  -3  -8  15   26.00    1.40
  -3   8 -15   24.40    1.40
   3  -8 -15   26.50    1.40
  -3   8 -15   24.20    1.40
  -4  -8 -15   95.29    3.40
  -4  -8 -15   93.79    3.40
   4   8 -15   90.79    3.30
  -4   8 -15   95.89    3.40
   4  -8 -15   93.09    3.40
  -4  -8  15   95.79    3.50
  -4   8 -15   98.19    3.50
  -5  -8 -15   58.49    2.20
   5   8 -15   52.99    2.10
  -5   8 -15   56.99    2.30
  -5   8 -15   53.89    2.20
   5  -8 -15   52.79    2.10
  -5  -8  15   56.39    2.20
  -6   8  15    3.20    0.70
  -6  -8 -15    2.30    0.40
   6   8 -15    2.50    0.40
   6   8  15    2.00    0.40
  -6   8 -15    2.80    0.50
  -6  -8  15    2.70    0.40
  -6   8 -15    2.80    0.50
   0   9 -15    0.20    0.30
   0  -9 -15    0.20    0.30
   0  -9  15    0.70    0.40
  -1  -9 -15   17.20    1.10
   1  -9  15   16.90    1.10
  -1   9 -15   18.00    1.10
  -1  -9  15   17.00    1.10
   1  -9 -15   16.80    1.10
  -2  -9 -15    3.50    0.60
   2  -9 -15    3.80    0.60
  -2   9 -15    4.10    0.60
  -2  -9  15    4.40    0.70
   3   9 -15   27.20    1.30
  -3  -9 -15   28.00    1.40
  -3  -9  15   29.80    1.50
  -3   9 -15   30.30    1.50
  -3   9 -15   27.70    1.40
   3  -9 -15   27.70    1.40
  -4  -9 -15   68.09    2.40
   4   9 -15   63.69    2.30
  -4   9 -15   69.29    2.50
  -4  -9  15   65.79    2.50
  -4   9 -15   64.69    2.50
   4  -9 -15   63.59    2.40
  -5  -9 -15   12.20    0.80
   5   9 -15   12.00    0.70
   5   9  15   11.90    0.70
   5  -9 -15   11.70    0.70
  -5   9 -15   13.60    0.80
   0 -10 -15    1.50    0.40
   0 -10  15    1.40    0.40
  -1 -10 -15   35.60    1.60
   1 -10  15   37.70    1.60
  -1 -10  15   37.80    1.60
   1 -10 -15   36.30    1.60
   2 -10  15  120.09    3.90
  -2 -10 -15  119.59    3.90
  -2  10 -15  115.09    3.90
   2 -10 -15  121.49    3.90
  -2 -10  15  120.69    4.00
  -3 -10 -15    0.50    0.30
  -3  10 -15    0.60    0.30
   3 -10 -15    0.60    0.30
   0   0 -16  352.96   10.50
   0   0 -16  354.46   12.00
   0   0  16  338.87   12.00
   0   0 -16  360.26   11.60
  -1   0  16  333.07   11.60
  -1   0  16  335.67   11.20
   1   0  16  321.57   11.20
  -1   0 -16  316.77    9.60
   1   0 -16  335.17   11.20
   1   0 -16  317.17    9.90
  -1   0 -16  331.57   10.60
   1   0  16  323.77   11.20
   2   0 -16    5.30    0.60
  -2   0 -16    5.90    0.70
   2   0  16    5.70    1.00
  -2   0  16    5.30    0.90
  -2   0  16    7.40    1.30
   3   0 -16  602.54   18.20
  -3   0  16  607.24   20.40
  -3   0 -16  615.04   18.20
   3   0  16  620.84   19.50
   4   0 -16   68.89    2.70
   4   0  16   73.39    4.50
  -4   0 -16   62.29    2.70
   5   0 -16  808.62   24.10
  -5   0  16  826.92   24.10
  -5   0 -16  824.92   24.20
  -6   0 -16   24.90    1.50
  -6   0  16   24.50    1.50
   6   0 -16   24.70    1.50
  -7   0 -16    1.90    0.60
   7   0 -16    3.50    0.70
  -7   0 -16    2.30    0.50
  -7   0  16    1.80    0.50
   8   0 -16   19.90    1.30
  -8   0  16   17.80    1.20
  -8   0 -16   19.00    1.30
  -8   0 -16   19.20    1.20
   9   0 -16   96.99    3.50
   0   1  16    1.10    0.50
   0  -1  16    1.70    0.70
   0  -1 -16    0.40    0.40
  -1   1  16   10.70    1.40
  -1  -1 -16   10.80    1.10
   1   1 -16   10.70    0.80
   1   1 -16   11.60    1.30
   1  -1  16   11.50    1.40
  -1   1  16   11.70    1.30
  -1  -1 -16   11.10    0.70
   1  -1 -16   11.40    0.80
  -1   1 -16   11.30    1.00
  -1  -1  16   11.20    1.50
   1   1  16   11.40    1.30
  -1   1 -16   10.90    0.60
   1  -1 -16   11.40    1.30
  -1   1 -16   11.70    1.40
  -2   1  16  829.82   26.10
   2   1 -16  851.41   24.10
   2   1 -16  814.62   25.60
  -2   1  16  836.62   25.20
  -2  -1 -16  804.22   23.60
   2  -1  16  720.93   25.30
  -2  -1 -16  817.12   24.70
   2   1 -16  808.02   25.30
  -2  -1  16  865.81   26.40
  -2   1 -16  836.32   24.30
  -2   1 -16  864.81   25.60
   2  -1 -16  834.82   24.10
   2   1  16  864.51   25.50
   2  -1 -16  792.42   25.60
   3  -1  16  454.05   15.00
  -3  -1 -16  445.96   14.10
  -3   1  16  445.56   15.80
   3   1 -16  454.25   13.70
  -3   1 -16  452.95   13.40
  -3  -1  16  450.85   16.00
   3   1  16  468.25   15.00
  -4  -1 -16  104.29    3.90
   4   1 -16  106.09    3.70
   4   1  16  101.79    4.80
   4  -1 -16  104.59    3.70
  -5  -1 -16  124.29    4.60
  -5   1  16  128.19    4.60
   5   1 -16  125.89    4.50
  -5  -1 -16  131.99    4.40
  -5  -1  16  129.59    4.60
   5  -1 -16  134.09    4.60
   6   1 -16  163.28    5.60
  -6  -1 -16  157.98    5.40
  -6   1  16  162.08    5.60
  -6  -1 -16  167.68    5.80
   6  -1 -16  168.58    5.70
  -6  -1  16  168.18    5.60
  -7  -1 -16  225.58    7.20
   7   1 -16  225.18    7.40
  -7  -1 -16  220.28    7.50
  -7  -1 -16  228.18    7.20
  -7   1  16  225.68    7.40
  -7  -1  16  219.78    7.30
   7  -1 -16  236.88    7.50
  -8  -1 -16    9.90    1.00
  -8  -1 -16   10.90    0.90
   8   1 -16    8.20    0.90
  -8   1  16    9.80    0.90
   8  -1 -16    8.60    0.90
  -9  -1 -16   70.59    2.70
   9   1 -16   66.29    2.60
  -9   1  16   67.99    2.60
   9  -1 -16   73.59    2.70
   0   2 -16    2.10    0.40
   0  -2  16    0.90    0.60
   0   2 -16    0.90    0.50
   0   2  16    2.00    0.70
   0  -2 -16    1.20    0.60
   0   2 -16    0.50    0.50
   0  -2 -16    2.90    0.50
   1  -2  16  113.19    5.30
  -1  -2 -16  100.89    3.60
  -1   2  16  113.59    5.00
  -1  -2 -16  107.59    4.60
   1   2 -16  104.49    4.90
   1   2 -16  110.99    4.80
  -1   2  16  109.69    4.80
   1   2 -16  105.19    3.70
   1  -2 -16  105.39    4.90
  -1   2 -16  105.09    4.20
  -1   2 -16  117.79    5.10
  -1  -2  16  103.79    5.20
  -1   2 -16   97.59    3.40
   1  -2 -16  102.29    3.80
   1   2  16  104.89    4.80
  -2   2  16   13.20    1.40
   2  -2  16   13.20    1.60
   2   2 -16   13.10    1.60
  -2  -2 -16   12.50    0.80
   2   2 -16   16.90    1.00
  -2   2  16   12.50    1.60
   2   2 -16   12.40    1.40
  -2  -2 -16   13.50    1.30
   2  -2 -16   12.10    1.00
  -2  -2  16   11.40    1.60
  -2   2 -16   12.10    1.50
   2   2  16   12.40    1.50
  -2   2 -16   13.30    1.00
  -3  -2 -16  534.35   16.30
  -3   2  16  546.95   18.60
   3   2 -16  548.05   16.40
   3  -2  16  511.05   18.10
  -3  -2 -16  552.34   16.00
  -3  -2 -16  559.54   17.20
   3   2  16  535.75   17.70
   3  -2 -16  571.24   16.20
  -3   2 -16  556.34   17.90
  -4  -2 -16   10.60    0.90
  -4  -2 -16   10.90    0.80
   4   2 -16   10.50    1.30
  -4   2  16   10.10    0.90
  -4  -2 -16   11.80    1.00
   4  -2 -16   10.70    0.90
   4   2  16   10.70    1.40
  -5  -2 -16  536.65   16.40
  -5   2  16  547.65   16.60
   5   2 -16  520.15   16.70
  -5  -2 -16  554.74   16.80
   5   2 -16  553.94   16.40
  -5  -2 -16  583.64   16.50
  -5  -2 -16  573.54   16.50
  -5  -2  16  544.15   16.60
   5  -2 -16  570.84   16.70
  -6  -2 -16   12.00    1.00
  -6  -2 -16   13.00    1.20
  -6  -2 -16   13.10    1.00
  -6   2  16   14.10    1.10
  -6  -2 -16   13.20    1.00
   6   2 -16   12.60    1.00
   6  -2 -16   13.30    1.10
  -6  -2  16   12.70    1.10
  -7  -2 -16   43.70    2.20
   7   2 -16   38.30    2.00
  -7  -2 -16   42.60    2.00
  -7   2  16   41.80    2.00
  -7  -2 -16   46.60    2.00
   7  -2 -16   43.20    2.10
  -8  -2 -16   91.09    3.60
  -8  -2 -16   93.09    3.30
  -8   2  16   95.09    3.40
   8   2 -16   83.69    3.30
   8  -2 -16   94.79    3.50
   9   2 -16  134.69    4.60
  -9  -2 -16  154.08    4.90
  -9   2  16  140.09    4.70
  -9  -2 -16  148.69    4.70
   9  -2 -16  146.59    4.80
   0  -3  16    0.80    0.60
   0   3 -16    1.40    0.30
   0   3 -16    0.50    0.40
   0   3  16    0.20    0.40
   0   3 -16    0.20    0.50
   0  -3 -16    0.50    0.30
   1   3 -16   67.69    3.80
  -1   3  16   69.29    3.60
   1   3 -16   65.19    3.60
   1  -3  16   68.29    4.20
  -1  -3 -16   66.49    2.60
   1   3 -16   69.59    2.60
  -1  -3 -16   66.29    3.60
   1   3  16   64.49    3.60
  -1   3 -16   66.59    3.20
  -1   3 -16   71.29    3.90
   1  -3 -16   62.99    3.70
   1  -3 -16   66.29    2.70
  -1  -3  16   67.09    4.10
  -1   3 -16   67.59    2.40
  -2   3  16   85.69    4.70
  -2  -3 -16   98.99    4.50
  -2  -3 -16   96.89    4.10
  -2  -3 -16   95.89    3.50
   2   3 -16   91.29    4.80
   2  -3  16   98.29    5.20
   2   3 -16   94.69    4.70
   2   3 -16   98.89    3.50
  -2   3  16   91.59    4.40
  -2   3 -16   96.89    3.80
  -2   3 -16   96.29    4.80
  -2  -3  16   95.99    7.30
   2   3  16   94.29    4.60
  -3  -3 -16  486.45   14.30
   3   3 -16  477.45   14.50
  -3  -3 -16  467.75   14.40
   3   3  16  483.45   16.00
  -3   3 -16  475.35   16.00
   3  -3 -16  466.75   14.30
  -4  -3 -16   38.50    2.00
  -4  -3 -16   38.20    1.70
  -4   3  16   41.50    1.90
   4   3 -16   39.20    1.90
  -4  -3 -16   38.70    1.80
  -4  -3 -16   40.90    1.90
   4   3 -16   38.90    1.80
   4  -3 -16   39.60    1.90
   4   3  16   38.30    2.80
  -5  -3 -16  410.26   12.40
  -5  -3 -16  432.46   12.80
  -5   3  16  405.76   12.50
  -5  -3 -16  426.96   12.60
  -5  -3 -16  399.76   12.40
   5   3 -16  388.36   12.30
  -5  -3  16  406.06   12.50
   5  -3 -16  397.06   12.50
  -6  -3 -16   15.40    1.10
  -6  -3 -16   14.80    1.10
   6   3 -16   15.90    1.10
  -6  -3 -16   15.60    1.30
  -6  -3 -16   15.40    1.10
  -6   3  16   16.40    1.20
   6  -3 -16   16.30    1.20
  -7  -3 -16   30.00    1.50
  -7  -3 -16   28.20    1.50
  -7  -3 -16   27.00    1.60
  -7  -3 -16   29.80    1.70
  -7   3  16   27.30    1.60
   7  -3 -16   30.10    1.60
  -8  -3 -16   13.90    1.10
  -8   3  16   12.30    1.00
  -8  -3 -16   14.20    1.00
   8  -3 -16   12.60    1.00
  -9   3  16  214.98    6.90
  -9  -3 -16  233.68    6.90
  -9  -3 -16  230.88    7.10
   9  -3 -16  222.78    7.00
   0  -4  16   19.30    1.90
   0   4 -16   14.40    1.00
   0   4 -16   19.10    2.00
   0   4 -16   13.00    1.50
   0   4  16   14.80    1.70
   0  -4 -16   14.80    1.10
   0  -4 -16   13.10    1.70
   0  -4 -16   14.30    1.00
   1   4 -16  136.09    6.30
  -1  -4 -16  138.79    4.80
  -1   4  16  139.09    6.10
   1   4 -16  142.99    4.80
   1   4 -16  139.49    6.30
  -1  -4 -16  140.79    4.90
  -1  -4 -16  135.49    6.20
   1  -4  16  142.39    6.50
   1  -4 -16  164.28    5.10
  -1  -4  16  127.09    6.30
   1  -4 -16  137.79    4.70
  -1   4 -16  134.69    6.30
  -1   4 -16  138.29    4.60
   1   4  16  142.19    6.30
  -2  -4 -16   16.60    1.20
  -2  -4 -16   15.50    1.20
  -2   4  16   14.60    1.70
   2   4 -16   17.90    1.90
   2   4 -16   17.00    1.20
   2  -4 -16   17.00    1.10
   2   4  16   16.90    1.90
  -2   4 -16   14.90    1.80
  -2   4 -16   16.40    0.90
  -3  -4 -16  151.58    5.10
  -3  -4 -16  145.59    4.80
   3   4 -16  153.88    4.80
   3   4 -16  146.09    5.10
   3   4 -16  142.39    4.90
  -3  -4 -16  150.28    5.10
  -3   4  16  129.79    4.80
  -3  -4 -16  139.69    4.80
   3   4  16  132.39    6.20
  -3   4 -16  141.49    6.50
  -3   4 -16  140.39    4.90
   3  -4 -16  147.19    4.90
   4   4 -16  231.08    7.50
  -4  -4 -16  226.48    7.40
  -4   4  16  231.48    7.50
   4   4 -16  241.08    7.40
  -4  -4 -16  233.18    7.40
  -4  -4 -16  231.78    7.70
  -4  -4 -16  240.48    7.70
   4  -4 -16  233.68    7.50
  -4   4 -16  231.38    7.50
  -4  -4  16  227.88    7.40
  -5  -4 -16  310.17    9.60
  -5  -4 -16  326.07    9.90
  -5  -4 -16  310.57    9.70
  -5   4  16  314.77    9.70
  -5  -4 -16  320.07   10.00
   5   4 -16  298.67    9.50
  -5   4 -16  301.17    9.60
   5  -4 -16  305.57    9.70
  -5  -4  16  294.17    9.60
  -6  -4 -16   31.00    1.60
  -6   4  16   32.60    1.70
  -6  -4 -16   32.00    1.70
  -6  -4 -16   32.40    1.80
  -6  -4 -16   33.70    1.90
   6   4 -16   31.10    1.60
  -6  -4  16   32.10    1.70
   6  -4 -16   34.70    1.80
  -7   4  16  533.25   15.50
  -7  -4 -16  508.65   15.30
   7   4 -16  518.35   15.20
  -7  -4 -16  513.55   15.30
  -7  -4 -16  519.45   15.60
   7  -4 -16  523.75   15.40
  -7  -4  16  473.55   15.20
  -8  -4 -16    0.50    0.30
  -8  -4 -16    0.50    0.40
  -8  -4 -16    0.50    0.30
  -8   4  16    0.60    0.40
   8  -4 -16    0.60    0.30
  -8  -4  16    0.30    0.30
  -9   4  16  108.09    3.60
  -9  -4 -16  112.39    3.60
   0  -5 -16    0.10    0.30
   0   5 -16    0.20    0.30
   0   5 -16    0.20    0.30
   0   5 -16    0.00    0.40
   0  -5 -16    0.70    0.40
   0   5 -16    0.10    0.30
   0   5  16    2.10    0.90
   0   5 -16    0.80    0.40
  -1  -5 -16  105.59    3.70
  -1   5  16  109.69    5.30
  -1  -5 -16  108.69    4.00
   1   5 -16  106.49    3.90
  -1  -5 -16  103.89    3.80
   1   5 -16  104.49    3.70
  -1  -5 -16  110.99    4.20
   1   5 -16  108.19    5.60
   1   5 -16  112.39    4.00
  -1   5 -16  111.49    4.00
  -1   5 -16  106.89    5.60
   1   5  16  106.39    5.30
  -1   5 -16  101.99    3.80
  -1   5 -16  111.79    3.90
   1  -5 -16  108.09    3.90
  -1  -5  16  108.49    3.80
  -2  -5 -16  405.16   12.20
  -2  -5 -16  409.26   12.20
  -2  -5 -16  412.06   12.50
  -2  -5 -16  417.06   12.70
   2   5 -16  430.16   12.60
   2   5 -16  406.56   12.40
   2   5 -16  379.96   14.40
   2   5 -16  420.66   12.20
   2   5  16  408.16   14.60
  -2  -5  16  402.36   12.20
  -2   5 -16  404.86   12.20
  -2   5 -16  386.16   12.40
   2  -5 -16  399.26   12.30
  -2   5 -16  393.96   14.40
  -2   5 -16  403.46   12.20
   3   5 -16  342.57   10.50
  -3  -5 -16  360.26   10.60
  -3  -5 -16  333.97   10.70
   3   5 -16  343.67   10.60
  -3  -5 -16  356.06   11.00
  -3  -5 -16  343.67   10.50
  -3   5 -16  339.67   10.40
  -3  -5  16  343.07   10.50
   3  -5 -16  330.07   10.60
  -3   5 -16  331.67   10.50
  -3   5 -16  346.77   10.70
  -4  -5 -16   96.29    3.80
  -4   5  16   93.79    3.50
   4   5 -16   97.29    3.50
  -4  -5 -16   93.79    3.50
  -4  -5 -16   91.19    3.70
  -4  -5 -16   90.79    3.50
  -4   5 -16   92.69    3.50
  -4  -5  16   87.09    3.40
  -4   5 -16   93.59    3.50
   4  -5 -16   96.79    3.60
  -5   5  16    5.20    0.70
  -5  -5 -16    1.50    0.50
  -5  -5 -16    3.90    0.70
  -5  -5 -16    1.90    0.50
  -5  -5 -16    0.90    0.50
   5   5 -16    1.70    0.50
  -5   5 -16    1.40    0.50
  -5   5 -16    1.10    0.40
  -5  -5  16    3.90    0.70
  -6  -5 -16   33.30    1.70
   6   5 -16   38.00    1.70
  -6   5  16   35.70    1.80
  -6  -5 -16   35.70    1.90
  -6  -5 -16   34.80    1.70
  -6  -5 -16   32.20    1.90
  -6  -5  16   32.00    1.70
  -6   5 -16   33.00    1.70
  -6   5 -16   34.30    1.70
  -7  -5 -16   69.19    2.70
  -7   5  16   70.79    2.80
  -7  -5 -16   68.59    2.70
  -7  -5 -16   67.99    2.80
   7   5 -16   72.09    2.60
  -7  -5  16   67.99    2.70
  -7   5 -16   66.49    2.60
  -8  -5 -16   53.69    2.10
  -8  -5 -16   51.49    2.20
  -8   5  16   53.39    2.10
  -8  -5  16   55.09    2.20
   8   5  16   53.09    2.00
   0   6 -16   37.30    1.80
   0   6 -16   41.30    1.90
   0   6 -16   40.70    2.00
   0  -6 -16   40.70    1.90
   0  -6 -16   36.20    1.80
   1   6 -16   59.39    2.60
   1   6 -16   57.79    2.50
  -1  -6 -16   58.19    2.40
  -1  -6 -16   56.89    2.50
   1   6 -16   56.59    2.30
  -1   6 -16   58.99    2.50
   1  -6 -16   56.29    2.30
  -1  -6  16   58.29    2.40
  -1   6 -16   53.49    2.40
  -1   6 -16   64.59    2.60
  -2  -6 -16  222.08    7.10
   2   6 -16  216.98    7.40
  -2  -6 -16  219.18    7.60
  -2  -6 -16  223.28    7.20
   2   6 -16  225.28    7.20
   2   6 -16  225.78    7.10
   2  -6 -16  213.48    7.10
  -2   6 -16  223.18    7.20
  -2  -6  16  227.48    7.20
  -2   6 -16  232.68    7.30
  -2   6 -16  233.98    7.40
   3   6 -16  220.08    7.00
   3   6 -16  210.28    6.90
  -3  -6 -16  218.08    6.90
  -3  -6 -16  213.98    7.40
  -3  -6 -16  211.08    6.90
  -3  -6 -16  214.88    7.10
  -3   6 -16  223.68    7.10
  -3  -6  16  218.18    7.00
  -3   6 -16  206.78    6.90
  -3   6 -16  216.28    7.00
  -4  -6 -16   77.19    2.90
  -4  -6 -16   73.09    3.30
   4   6 -16   79.89    2.90
  -4   6  16   75.59    2.90
  -4  -6 -16   71.69    2.90
  -4   6 -16   78.39    2.90
  -4   6 -16   68.69    2.80
  -4  -6  16   75.39    3.00
  -4   6 -16   71.39    3.00
  -5  -6 -16  321.87   10.90
   5   6 -16  357.46   10.50
  -5   6  16  340.67   10.50
  -5  -6 -16  356.06   10.60
  -5  -6 -16  345.47   10.50
  -5   6 -16  330.17   10.40
  -5  -6  16  338.77   10.50
  -5   6 -16  340.77   10.60
  -5   6 -16  336.37   10.50
  -6   6  16   28.30    1.50
  -6  -6 -16   27.50    1.40
  -6  -6 -16   24.90    1.50
   6   6 -16   27.00    1.40
  -6  -6 -16   27.70    1.50
  -6  -6  16   29.60    1.50
  -6   6 -16   27.10    1.40
  -6   6 -16   27.20    1.40
  -7  -6 -16  135.79    4.70
  -7  -6 -16  142.59    4.60
   7   6 -16  136.09    4.50
  -7   6  16  142.39    4.70
  -7  -6 -16  140.09    4.60
  -7  -6  16  140.99    4.60
  -7   6 -16  136.09    4.50
  -8  -6 -16   43.00    1.60
  -8   6  16   41.50    1.70
   0   7 -16    0.00    0.30
   0  -7  16    1.20    0.40
   0  -7 -16    0.20    0.30
   0   7 -16    0.40    0.30
  -1  -7 -16   37.60    1.80
   1   7 -16   38.00    2.00
   1   7 -16   38.80    1.90
   1   7 -16   36.70    1.70
  -1   7 -16   39.30    2.00
  -1   7 -16   36.00    1.80
  -1   7 -16   38.40    1.90
   1  -7 -16   35.00    1.70
  -1  -7  16   37.10    1.80
   2   7 -16  175.58    6.00
   2   7 -16  186.08    5.90
  -2  -7 -16  184.88    6.00
   2  -7 -16  179.78    6.00
  -2  -7  16  180.18    6.00
  -2   7 -16  182.78    6.20
  -2   7 -16  179.68    6.00
  -2   7 -16  192.38    6.30
  -3  -7 -16   56.99    2.40
   3   7 -16   60.39    2.40
  -3  -7 -16   55.59    2.40
   3  -7 -16   56.19    2.30
  -3   7 -16   57.19    2.40
  -3   7 -16   54.89    2.50
  -3   7 -16   56.89    2.50
  -3  -7  16   59.99    2.50
  -4  -7 -16    0.30    0.30
  -4  -7 -16    0.50    0.40
   4   7 -16    0.70    0.30
  -4   7 -16    2.10    0.50
  -4  -7  16    0.10    0.30
   4  -7 -16    0.40    0.40
  -4   7 -16    0.60    0.30
  -4   7 -16    0.60    0.40
  -5   7  16   99.69    3.60
   5   7 -16  106.19    3.60
  -5  -7 -16   97.89    3.60
  -5  -7 -16  102.79    3.60
  -5  -7  16  102.29    3.70
  -5   7 -16  100.19    3.60
  -5   7 -16  103.79    3.70
   6   7 -16    1.00    0.30
  -6  -7 -16    0.80    0.40
  -6   7  16    1.70    0.50
  -6  -7 -16    1.50    0.40
  -6   7 -16    1.40    0.40
  -6   7 -16    1.00    0.40
  -6  -7  16    1.60    0.40
  -7  -7 -16   79.19    2.70
   7   7 -16   82.99    2.70
  -7   7  16   79.39    2.80
   7   7  16   79.39    2.70
  -7   7 -16   74.19    2.70
   0   8 -16   22.20    1.30
   0  -8 -16   24.10    1.40
   0  -8  16   23.80    1.40
   0   8 -16   20.60    1.40
   1   8 -16   19.30    1.20
  -1  -8 -16   18.60    1.20
   1  -8  16   18.60    1.20
  -1  -8  16   18.10    1.20
  -1   8 -16   19.20    1.30
   1  -8 -16   19.70    1.20
  -1   8 -16   18.70    1.30
   2   8 -16    0.60    0.30
  -2  -8 -16    0.80    0.40
   2  -8 -16    3.40    0.60
  -2   8 -16    0.50    0.40
  -2   8 -16    0.50    0.30
  -2  -8  16    0.60    0.40
  -2   8 -16    0.40    0.40
  -3  -8 -16   84.59    3.20
   3   8 -16   86.69    3.10
  -3  -8 -16   87.89    3.20
  -3   8 -16   85.69    3.20
  -3   8 -16   87.69    3.30
  -3  -8  16   84.79    3.20
   3  -8 -16   85.49    3.10
  -4  -8 -16   15.40    1.00
  -4  -8 -16   14.40    1.00
   4   8 -16   14.70    0.90
  -4  -8  16   14.20    1.00
  -4   8 -16   14.10    1.00
  -4   8 -16   13.40    1.00
   4  -8 -16   15.90    1.00
  -5  -8 -16  188.08    5.80
   5   8 -16  181.18    5.70
  -5  -8  16  182.58    5.80
  -5   8 -16  181.28    5.80
   5  -8 -16  179.48    6.30
  -5   8 -16  178.18    5.80
  -6  -8 -16   15.10    0.80
   6   8 -16   15.70    0.80
   6   8  16   14.90    0.80
  -6   8 -16   14.60    0.90
   0   9 -16    0.30    0.30
   0  -9 -16    0.10    0.30
   0  -9  16    0.10    0.30
   1  -9  16   60.29    2.40
  -1  -9 -16   60.49    2.40
   1  -9 -16   59.59    2.40
  -1   9 -16   58.09    2.40
  -1  -9  16   60.79    2.40
  -2  -9 -16  114.79    3.90
   2  -9  16  113.49    3.90
   2  -9 -16  114.59    3.90
  -2  -9  16  111.49    3.90
  -2   9 -16  114.79    4.00
   3   9 -16   19.70    1.00
  -3  -9 -16   20.10    1.10
  -3   9 -16   19.20    1.10
   3  -9 -16   19.30    1.10
  -3   9 -16   18.00    1.10
  -3  -9  16   20.60    1.10
  -4  -9 -16   48.00    1.90
   4   9 -16   44.80    1.80
   4  -9 -16   47.00    1.80
  -4   9 -16   47.90    1.90
  -4   9 -16   48.00    1.90
  -4  -9  16   44.90    1.90
   5   9 -16  173.18    5.40
  -5  -9 -16  178.98    5.40
  -5   9 -16  168.68    5.40
   0 -10  16  106.39    3.60
   0 -10 -16  107.09    3.60
   1 -10  16   38.00    1.60
  -1 -10 -16   36.50    1.50
   1 -10 -16   34.40    1.50
  -1 -10  16   37.60    1.60
  -2 -10 -16    8.00    0.60
   2 -10  16    8.60    0.60
  -2  10 -16    8.00    0.60
   2 -10 -16    8.10    0.60
  -2 -10  16    8.10    0.60
  -3 -10 -16  153.98    4.80
   0   0  17    0.40    0.50
   0   0 -17    0.20    0.30
   0   0  17    0.70    0.50
   0   0 -17    0.50    0.20
  -1   0 -17    0.70    0.40
   1   0  17    0.30    0.40
  -1   0 -17    1.60    0.30
  -1   0  17    0.20    0.40
  -1   0  17    1.00    0.60
   1   0 -17    0.50    0.30
   1   0  17    0.80    0.50
   1   0 -17    0.00    0.30
  -2   0  17    0.70    0.50
  -2   0  17    1.00    0.70
   2   0 -17    0.70    0.60
  -2   0 -17    0.70    0.40
   2   0  17    0.20    0.40
   3   0  17    0.00    0.40
   3   0 -17    1.50    0.50
  -3   0 -17    0.20    0.30
   4   0 -17    2.10    0.50
  -4   0  17    1.20    0.40
  -4   0 -17    0.50    0.30
   5   0 -17    4.10    0.60
  -5   0  17    1.00    0.40
  -5   0 -17    0.60    0.40
   6   0 -17    4.90    0.80
  -6   0 -17    0.90    0.40
  -6   0  17    0.30    0.40
   7   0 -17   -0.30    0.30
  -7   0  17    0.90    0.40
  -7   0 -17    0.10    0.30
  -7   0 -17    0.20    0.40
  -8   0 -17    0.20    0.30
  -8   0 -17    0.30    0.30
   8   0 -17    0.50    0.40
  -8   0  17    0.00    0.30
   9   0 -17   -0.10    0.20
   0   1 -17    0.50    0.20
   0   1 -17    0.60    0.40
   0  -1 -17    0.50    0.40
   0  -1 -17    0.60    0.20
   0   1 -17    0.50    0.50
   0   1  17    0.80    0.50
   0  -1  17    0.70    0.60
   0   1  17    0.10    0.30
   1   1 -17    2.80    0.40
   1  -1  17    3.00    0.80
  -1  -1 -17    2.50    0.40
   1   1 -17    2.60    0.70
  -1   1  17    2.80    0.80
   1   1 -17    2.70    0.80
  -1  -1 -17    3.10    0.70
   1  -1 -17    3.00    0.80
   1   1  17    4.50    0.90
  -1   1 -17    3.00    0.80
  -1   1 -17    2.90    0.60
  -1   1 -17    3.50    0.40
  -1  -1  17    2.60    0.90
  -2  -1 -17   78.29    2.70
   2   1 -17   81.69    3.00
  -2   1  17   78.49    3.90
   2   1 -17   75.19    4.00
  -2  -1 -17   81.89    3.50
   2  -1  17   81.49    4.70
   2   1 -17   76.39    4.10
  -2   1  17   73.79    4.30
   2  -1 -17   79.59    3.00
   2   1  17   79.19    4.00
  -2   1 -17   77.59    3.20
  -2  -1  17   73.29    4.40
   2  -1 -17   75.79    4.20
  -2   1 -17   82.39    4.20
   3   1 -17  219.58    7.10
  -3  -1 -17  214.18    7.50
  -3  -1 -17  221.68    7.10
   3  -1  17  215.48    8.30
   3  -1 -17  203.18    6.80
   3   1  17  207.38    8.20
  -3   1 -17  220.68    6.80
   4   1 -17    1.80    0.40
  -4   1  17    1.00    0.40
  -4  -1 -17    1.90    0.50
   4   1  17    3.40    0.90
  -4  -1  17    1.10    0.40
  -5  -1 -17   87.19    3.50
  -5  -1 -17   89.59    3.30
  -5   1  17   87.09    3.40
   5   1 -17   89.19    3.40
   5  -1 -17   92.39    3.40
  -5  -1  17   88.79    3.40
  -6   1  17   27.80    1.60
  -6  -1 -17   26.40    1.60
   6   1 -17   23.20    1.50
  -6  -1 -17   25.00    1.40
   6  -1 -17   26.10    1.60
  -6  -1  17   27.70    1.60
  -7  -1 -17    1.60    0.50
  -7  -1 -17    1.70    0.40
  -7   1  17    1.60    0.50
  -7  -1 -17    2.00    0.50
   7   1 -17    2.60    0.60
  -7  -1  17    2.40    0.60
   7  -1 -17    1.90    0.60
  -8  -1 -17  147.09    5.00
   8   1 -17  137.49    4.90
  -8   1  17  138.49    4.80
  -8  -1 -17  144.09    4.70
   8  -1 -17  143.39    4.90
  -9   1  17    1.10    0.30
  -9  -1 -17    0.30    0.30
   9   1 -17    0.80    0.30
   9  -1 -17    0.90    0.30
   0  -2 -17   25.30    1.40
   0   2  17   24.90    2.10
   0   2 -17   26.00    1.20
   0  -2 -17   27.90    2.10
   0  -2  17   27.00    2.40
   0   2 -17   22.90    1.80
   0   2 -17   24.70    2.10
   1   2 -17   43.50    2.90
  -1  -2 -17   42.00    1.80
   1   2 -17   43.60    1.90
   1  -2  17   44.00    3.10
   1   2 -17   40.10    2.70
  -1   2  17   40.50    2.80
  -1  -2 -17   42.40    2.60
   1  -2 -17   46.60    2.90
  -1   2 -17   41.10    1.60
  -1   2 -17   41.70    2.30
  -1  -2  17   43.60    3.10
   1  -2 -17   42.60    1.90
   1   2  17   43.00    2.80
  -1   2 -17   42.50    2.90
  -2  -2 -17   45.30    1.90
   2  -2  17   46.20    3.20
  -2   2  17   41.60    3.10
  -2   2  17   42.40    2.70
  -2  -2 -17   46.30    2.70
   2   2 -17   44.10    3.10
   2   2 -17   46.10    2.10
   2   2 -17   45.30    3.00
  -2   2 -17   45.60    2.20
   2   2  17   49.70    3.00
  -2  -2  17   46.20    3.40
  -2   2 -17   49.60    3.10
   2  -2 -17   46.70    2.10
  -3  -2 -17  105.59    3.80
   3   2 -17  105.39    3.80
  -3  -2 -17  100.09    3.40
  -3   2 -17   97.49    4.90
   3  -2 -17   96.69    3.60
   3   2  17   95.69    4.80
  -4   2  17   29.30    1.60
  -4  -2 -17   29.80    1.70
   4   2 -17   30.60    1.60
  -4  -2 -17   30.10    1.40
   4   2 -17   28.20    1.40
  -4  -2 -17   31.50    1.50
   4  -2 -17   29.60    1.60
   4   2  17   30.00    2.40
  -5  -2 -17  259.87    8.20
  -5  -2 -17  262.07    8.30
   5   2 -17  267.07    8.20
  -5  -2 -17  258.37    8.60
  -5   2  17  262.47    8.40
  -5  -2 -17  259.97    8.20
  -5  -2  17  266.87    8.50
   5  -2 -17  269.67    8.40
  -6  -2 -17  400.46   12.60
   6   2 -17  374.46   12.20
  -6  -2 -17  400.96   12.20
  -6  -2 -17  404.76   12.30
  -6   2  17  402.66   12.40
  -6  -2 -17  402.66   12.30
   6  -2 -17  419.46   12.50
  -6  -2  17  418.86   12.40
  -7  -2 -17   68.89    3.00
  -7  -2 -17   64.29    2.70
  -7  -2 -17   66.39    2.60
  -7   2  17   70.19    2.80
   7   2 -17   66.09    2.70
   7  -2 -17   72.19    2.90
  -7  -2  17   64.39    2.70
  -8  -2 -17   19.30    1.30
   8   2 -17   16.90    1.10
  -8   2  17   18.30    1.20
  -8  -2 -17   18.60    1.10
   8  -2 -17   17.90    1.20
  -9   2  17   37.20    1.60
  -9  -2 -17   40.60    1.60
  -9  -2 -17   39.50    1.80
   9  -2 -17   38.70    1.70
   0  -3  17    0.30    0.50
   0   3  17    0.10    0.40
   0   3 -17    0.40    0.40
   0  -3 -17    0.10    0.30
   0   3 -17    0.50    0.60
   0  -3 -17    0.30    0.50
   0   3 -17    1.00    0.30
   1   3 -17   16.30    1.70
  -1   3  17   18.30    1.80
  -1  -3 -17   16.20    1.10
   1  -3  17   16.90    2.60
  -1  -3 -17   17.40    1.70
  -1  -3 -17   18.70    1.20
   1   3 -17   18.10    1.10
   1   3 -17   18.30    1.90
   1   3  17   16.90    1.80
   1  -3 -17   15.40    2.50
  -1   3 -17   17.90    1.50
   1  -3 -17   18.30    1.20
  -1   3 -17   17.60    1.90
   1  -3 -17   16.30    1.20
  -1   3 -17   18.00    1.00
  -2   3  17  132.19    5.90
   2   3 -17  141.19    6.30
  -2  -3 -17  141.49    4.90
  -2  -3 -17  145.99    4.80
   2   3 -17  143.19    4.90
   2   3 -17  138.49    6.40
   2  -3 -17  135.39    4.80
  -2   3 -17  149.49    6.40
   2   3  17  142.29    6.20
  -3  -3 -17   26.40    1.50
   3   3 -17   26.20    1.40
  -3  -3 -17   26.50    1.40
   3   3 -17   26.40    1.30
  -3  -3 -17   28.30    1.50
   3   3 -17   26.50    1.60
   3   3  17   27.10    2.30
   3  -3 -17   25.60    1.40
  -3   3 -17   23.90    2.20
  -4   3  17    9.20    0.90
   4   3 -17    6.60    0.80
  -4  -3 -17    7.50    0.80
  -4  -3 -17    8.40    0.90
  -4  -3 -17    6.50    0.70
  -4  -3 -17    7.20    0.80
   4   3 -17    8.10    0.70
   4  -3 -17    6.80    0.80
   4   3  17    7.00    1.30
  -5   3  17  117.09    4.30
  -5  -3 -17  118.19    4.20
   5   3 -17  122.39    4.20
  -5  -3 -17  127.09    4.50
  -5  -3 -17  112.39    4.30
  -5  -3 -17  124.59    4.30
  -5  -3  17  116.59    4.30
   5  -3 -17  119.29    4.30
  -6  -3 -17   86.19    3.50
  -6  -3 -17   83.19    3.20
  -6  -3 -17   84.59    3.20
  -6   3  17   85.89    3.30
   6   3 -17   82.79    3.10
  -6  -3 -17   88.19    3.40
   6  -3 -17   81.59    3.30
  -6  -3  17   83.49    3.30
  -7  -3 -17  103.79    3.90
  -7  -3 -17  106.49    4.10
  -7  -3 -17  115.99    4.20
  -7   3  17  114.19    4.10
  -7  -3 -17  108.89    3.90
   7  -3 -17  113.69    4.10
  -8  -3 -17   30.20    1.60
  -8  -3 -17   29.00    1.40
  -8   3  17   29.50    1.50
   8  -3 -17   30.10    1.50
  -9   3  17    0.70    0.30
  -9  -3 -17    0.50    0.30
   0  -4 -17 1464.05   41.60
   0   4 -17 1400.86   43.50
   0  -4 -17 1465.95   41.40
   0   4 -17 1528.65   41.30
   0   4  17 1306.37   43.10
   1   4 -17    7.30    1.40
  -1   4  17    7.00    1.30
  -1  -4 -17    6.40    0.80
  -1  -4 -17    5.90    0.80
   1   4 -17    7.30    0.80
  -1   4 -17    6.50    0.60
   1  -4 -17    6.00    0.70
   1  -4 -17    8.30    0.90
  -1   4 -17    6.20    1.30
   1   4  17    6.60    1.30
   2   4 -17   10.50    0.90
  -2  -4 -17    9.20    0.90
  -2  -4 -17   10.80    0.80
  -2  -4 -17    9.60    0.90
   2   4 -17   10.10    0.90
   2   4 -17    9.10    1.50
   2   4 -17   11.10    0.80
   2   4  17    9.80    1.50
   2  -4 -17    9.90    0.90
  -2   4 -17   10.30    0.70
  -2   4 -17    9.90    1.50
  -2   4 -17    9.40    0.90
  -3  -4 -17    6.10    0.70
  -3   4  17    5.90    0.70
  -3  -4 -17    6.40    0.80
   3   4 -17    5.20    0.60
   3   4 -17    4.20    0.70
   3   4 -17    4.80    0.70
  -3  -4 -17    4.60    0.70
  -3  -4 -17    4.70    0.60
   3  -4 -17    4.20    0.70
  -3   4 -17    5.00    0.70
  -3   4 -17    4.70    1.10
   3   4  17    8.80    1.40
  -4  -4 -17   25.40    1.50
   4   4 -17   24.50    1.40
  -4  -4 -17   24.90    1.40
   4   4 -17   25.30    1.50
  -4  -4 -17   25.70    1.60
  -4   4  17   27.20    1.50
  -4  -4 -17   25.30    1.40
  -4   4 -17   23.40    1.40
   4  -4 -17   26.20    1.50
  -5  -4 -17   35.10    1.90
   5   4 -17   32.50    1.70
  -5  -4 -17   34.00    1.90
  -5  -4 -17   35.50    1.70
  -5  -4 -17   32.70    1.70
  -5   4  17   32.90    1.80
  -5   4 -17   33.80    1.70
  -5  -4  17   32.00    1.70
   5  -4 -17   34.30    1.80
  -6  -4 -17  158.28    5.60
  -6  -4 -17  162.98    5.40
  -6  -4 -17  156.78    5.60
  -6   4  17  159.58    5.50
   6   4 -17  156.08    5.30
  -6  -4 -17  160.88    5.30
   6  -4 -17  157.48    5.40
  -7  -4 -17   79.99    3.10
  -7  -4 -17   86.89    3.10
   7   4 -17   76.89    3.00
  -7   4  17   85.79    3.20
  -7  -4 -17   85.69    3.30
   7  -4 -17   82.79    3.20
  -8  -4 -17    1.40    0.40
  -8  -4 -17    1.60    0.50
  -8   4  17    2.40    0.50
  -8  -4 -17    1.80    0.40
   8  -4 -17    1.70    0.40
   0  -5 -17    0.40    0.30
   0   5 -17    0.50    0.60
   0   5 -17    2.00    0.40
   0   5  17    0.30    0.60
   0  -5 -17    0.00    0.30
   0   5 -17    0.10    0.30
   0   5 -17    0.30    0.30
  -1  -5 -17    4.80    0.80
   1   5 -17    4.10    1.50
  -1   5  17    6.70    1.30
   1   5 -17    4.30    0.60
   1   5 -17    5.20    0.70
  -1  -5 -17    4.60    0.60
   1   5 -17    6.90    0.70
  -1  -5 -17    4.50    0.60
  -1  -5 -17    5.70    0.80
  -1   5 -17    5.60    0.70
  -1   5 -17    6.50    0.70
  -1  -5  17    5.00    0.80
  -1   5 -17    5.60    2.10
   1  -5 -17    4.20    0.70
   2   5 -17   21.10    1.30
  -2  -5 -17   20.40    1.20
   2   5 -17   21.30    1.20
  -2  -5 -17   20.80    1.20
  -2  -5 -17   21.20    1.50
   2   5 -17   22.40    1.40
  -2  -5 -17   22.20    1.40
  -2  -5  17   19.90    1.20
  -2   5 -17   22.00    1.20
  -2   5 -17   22.20    1.40
   2  -5 -17   22.00    1.30
  -3  -5 -17   22.10    1.30
  -3  -5 -17   23.10    1.50
  -3  -5 -17   24.70    1.60
   3   5 -17   21.00    1.30
   3   5 -17   22.20    1.30
  -3  -5 -17   22.40    1.30
  -3   5 -17   21.50    1.40
  -3  -5  17   24.00    1.30
  -3   5 -17   22.20    1.20
   3  -5 -17   22.20    1.40
  -4   5  17    7.30    0.80
  -4  -5 -17    8.00    0.80
  -4  -5 -17    8.40    0.90
   4   5 -17    8.40    0.80
  -4  -5 -17    8.20    0.80
  -4  -5 -17    8.00    1.00
   4   5 -17    7.90    0.80
  -4  -5  17    8.40    0.80
   4  -5 -17    6.30    0.80
  -4   5 -17    7.50    1.00
  -4   5 -17    8.00    0.90
  -5  -5 -17   87.59    3.60
  -5   5  17   84.09    3.30
  -5  -5 -17   88.19    3.30
  -5  -5 -17   85.39    3.30
   5   5 -17   87.29    3.30
  -5  -5 -17   91.49    3.60
  -5   5 -17   86.89    3.30
  -5  -5  17   89.09    3.30
  -5   5 -17   86.19    3.30
  -6  -5 -17   68.79    2.70
  -6   5  17   70.49    2.80
  -6  -5 -17   65.99    2.90
  -6  -5 -17   67.79    2.70
  -6  -5 -17   66.79    2.90
   6   5 -17   67.29    2.60
  -6  -5  17   67.99    2.70
  -6   5 -17   64.69    2.60
  -7  -5 -17    0.70    0.40
  -7  -5 -17    0.20    0.30
  -7   5  17    0.80    0.40
   7   5 -17    0.20    0.30
  -7  -5 -17    0.40    0.40
  -7  -5  17    0.70    0.40
  -8  -5 -17  101.49    3.50
  -8   5  17  102.19    3.50
  -8  -5 -17   98.99    3.40
   8   5  17   98.79    3.30
   0  -6 -17  922.11   28.50
   0   6 -17 1036.90   28.90
   0  -6  17  985.50   28.60
   0   6 -17  991.50   28.80
  -1  -6 -17   74.09    2.90
   1   6 -17   79.19    3.20
   1   6 -17   73.09    2.80
   1   6 -17   73.29    3.00
  -1   6 -17   71.89    2.90
  -1   6 -17   77.19    3.10
  -1  -6  17   74.89    2.90
  -1   6 -17   78.59    3.10
   1  -6 -17   76.49    2.90
   2   6 -17    3.60    0.60
   2   6 -17    3.60    0.70
   2   6 -17    3.20    0.60
  -2  -6 -17    3.20    0.80
  -2  -6 -17    7.00    0.80
  -2  -6 -17    3.60    0.60
  -2  -6 -17    8.20    0.90
  -2   6 -17    3.60    0.60
  -2  -6  17    4.60    0.70
  -2   6 -17    3.50    0.60
  -2   6 -17    3.30    0.70
  -3  -6 -17   27.80    1.50
  -3  -6 -17   27.00    1.50
  -3  -6 -17   26.80    1.60
   3   6 -17   26.30    1.50
  -3  -6 -17   25.80    1.70
   3   6 -17   25.70    1.40
  -3   6 -17   24.50    1.40
  -3   6 -17   26.50    1.50
  -3   6 -17   26.30    1.40
  -3  -6  17   25.90    1.50
  -4  -6 -17  118.29    4.10
  -4  -6 -17  117.09    4.10
  -4  -6 -17  113.09    4.50
  -4  -6 -17  111.39    4.20
   4   6 -17  122.79    4.10
  -4   6 -17  110.69    4.00
  -4   6 -17  112.79    4.10
  -4  -6  17  113.99    4.10
  -4   6 -17  116.39    4.20
  -5  -6 -17    5.30    0.80
  -5   6  17    5.80    0.80
  -5  -6 -17    5.90    0.80
   5   6 -17    5.00    0.70
  -5  -6 -17    5.40    0.80
  -5  -6 -17    6.60    0.70
  -5  -6  17    5.90    0.80
  -5   6 -17    5.40    0.70
  -5   6 -17    5.80    0.70
  -5   6 -17    5.20    0.60
  -6  -6 -17   57.29    2.50
  -6  -6 -17   56.99    2.40
  -6  -6 -17   59.09    2.30
   6   6 -17   59.29    2.30
  -6   6  17   61.69    2.40
  -6   6 -17   55.39    2.30
  -6  -6  17   57.19    2.30
  -6   6 -17   54.29    2.20
  -7  -6 -17    7.20    0.70
   7   6 -17    8.60    0.70
  -7  -6 -17    9.70    0.70
  -7  -6 -17    9.10    0.70
  -7   6  17    8.10    0.80
  -7  -6  17   10.10    0.70
   0   7 -17    0.30    0.40
   0   7 -17    0.20    0.40
   0  -7  17    0.80    0.40
   0  -7 -17    0.40    0.40
  -1  -7 -17   51.79    2.20
   1   7 -17   49.60    2.40
   1   7 -17   52.79    2.30
   1   7 -17   52.49    2.10
   1  -7 -17   52.69    2.20
  -1   7 -17   51.69    2.30
  -1   7 -17   50.79    2.40
  -1   7 -17   51.39    2.20
  -1  -7  17   51.99    2.30
   2   7 -17   26.70    1.40
   2   7 -17   27.50    1.40
  -2  -7 -17   24.70    1.40
  -2   7 -17   25.60    1.40
  -2  -7  17   25.60    1.40
  -2   7 -17   26.10    1.50
  -2   7 -17   25.00    1.50
   2  -7 -17   25.00    1.40
  -3  -7 -17   11.70    0.90
  -3  -7 -17   12.20    1.00
   3   7 -17   11.40    0.90
  -3  -7  17   10.50    0.90
  -3   7 -17   10.80    0.90
   3  -7 -17   10.20    0.90
  -3   7 -17   11.00    0.90
  -3   7 -17   11.00    1.00
  -4  -7 -17   22.20    1.30
  -4  -7 -17   21.90    1.30
   4   7 -17   20.10    1.20
  -4   7 -17   21.30    1.30
  -4   7 -17   20.20    1.20
  -4   7 -17   21.10    1.30
  -4  -7  17   20.90    1.30
  -5  -7 -17    5.60    0.70
   5   7 -17    6.30    0.70
  -5  -7 -17    6.30    0.70
  -5   7 -17    7.10    0.70
  -5  -7  17    6.80    0.70
  -5   7 -17    5.80    0.70
  -6  -7 -17   47.50    1.90
  -6   7  17   50.49    2.00
   6   7 -17   43.90    1.80
  -6  -7 -17   50.19    1.90
  -6   7 -17   43.40    1.80
  -6   7 -17   46.10    1.90
  -6  -7  17   43.40    1.90
   7   7 -17   16.20    0.80
  -7  -7 -17   17.50    0.90
   7   7  17   20.50    0.90
   0   8 -17   38.40    2.00
   0  -8 -17   39.80    1.80
   0   8 -17   38.40    1.80
   0  -8  17   38.60    1.80
   1   8 -17  128.29    4.50
  -1  -8 -17  134.19    4.60
   1  -8  17  137.49    4.60
   1  -8 -17  134.99    4.50
  -1   8 -17  137.39    4.70
  -1   8 -17  129.29    4.80
  -1  -8  17  135.09    4.60
   2   8 -17   57.49    2.20
  -2  -8 -17   53.19    2.30
  -2   8 -17   52.99    2.30
  -2   8 -17   54.09    2.60
  -2  -8  17   56.19    2.30
   2  -8 -17   55.99    2.30
  -2   8 -17   57.79    2.40
   3   8 -17    2.80    0.50
  -3  -8 -17    3.40    0.60
  -3  -8  17    4.30    0.60
  -3   8 -17    3.70    0.60
  -3   8 -17    3.30    0.60
  -4  -8 -17  108.59    3.70
  -4  -8 -17  106.89    3.70
   4   8 -17  107.59    3.60
   4  -8 -17  103.39    3.60
  -4   8 -17  111.59    3.80
  -4  -8  17  104.89    3.70
  -4   8 -17  107.19    3.70
   5   8 -17   11.70    0.80
  -5  -8 -17   11.10    0.80
  -5   8 -17   10.60    0.80
   5   8  17   10.60    0.70
  -5  -8  17   11.40    0.80
  -5   8 -17   10.00    0.70
   6   8 -17  158.78    4.70
  -6  -8 -17  150.98    4.70
   6   8  17  144.19    4.60
  -6   8 -17  146.19    4.70
   0   9 -17    1.00    0.40
   0  -9 -17   -0.10    0.30
   0  -9  17    0.80    0.30
  -1  -9 -17    1.10    0.40
   1  -9  17    1.10    0.40
  -1   9 -17    0.90    0.30
  -1  -9  17    0.90    0.40
   1  -9 -17    0.80    0.40
   2  -9  17   53.39    2.10
  -2  -9 -17   53.39    2.10
  -2  -9  17   52.39    2.10
   2  -9 -17   53.79    2.10
  -2   9 -17   55.49    2.20
  -3  -9 -17    1.70    0.40
   3  -9  17    1.00    0.40
   3   9 -17    1.30    0.30
  -3  -9  17    1.20    0.40
  -3   9 -17    2.00    0.40
   3  -9 -17    1.60    0.40
   4   9 -17   12.90    0.70
  -4  -9 -17   13.50    0.80
  -4   9 -17   14.20    0.90
  -4   9 -17   14.00    1.00
  -4  -9  17   13.90    0.90
   0 -10 -17    1.30    0.30
   0 -10  17    0.90    0.30
  -1 -10 -17   38.10    1.50
  -1 -10  17   36.90    1.90
   1 -10 -17   36.40    1.50
  -2 -10 -17   45.30    1.70
   2 -10 -17   42.00    1.60
   0   0  18   18.50    1.90
   0   0 -18   23.90    1.10
   0   0  18   18.20    1.80
   0   0 -18   19.00    1.70
   1   0 -18  121.09    5.40
  -1   0  18  117.19    5.70
   1   0  18  121.99    5.40
  -1   0 -18  117.09    3.80
  -1   0 -18  115.99    4.80
   1   0 -18  119.49    4.10
  -1   0  18  115.79    5.30
  -2   0  18  507.55   17.40
  -2   0  18  494.25   16.40
   2   0  18  481.95   16.50
   2   0 -18  497.45   16.90
   2   0 -18  512.15   15.10
  -2   0 -18  518.05   15.60
   3   0 -18  101.39    3.60
  -3   0 -18   97.79    3.70
   3   0 -18  100.79    3.80
   3   0  18  103.89    4.90
  -4   0  18  838.92   24.20
  -4   0 -18  810.42   23.90
   4   0 -18  827.12   24.10
  -4   0 -18  808.42   24.10
  -5   0 -18  623.74   20.30
   5   0 -18  693.93   19.80
  -5   0 -18  661.83   19.90
  -5   0  18  682.23   19.90
  -6   0  18   73.89    3.00
   6   0 -18   71.09    2.90
  -6   0 -18   69.39    3.00
  -7   0  18   88.69    3.40
  -7   0 -18   87.79    3.50
   7   0 -18   89.49    3.50
  -8   0  18   26.70    1.40
   8   0 -18   27.80    1.50
   9   0 -18   74.49    2.70
   0   1  18    1.40    0.70
   0   1 -18    0.30    0.40
   0  -1 -18    0.50    0.30
   0  -1 -18    1.20    0.60
   0  -1  18    0.40    0.40
  -1  -1 -18   28.50    2.00
   1   1 -18   29.30    2.30
  -1   1  18   28.60    2.40
  -1  -1 -18   29.70    1.40
   1   1 -18   28.70    2.20
   1  -1  18   30.70    2.40
  -1   1  18   30.10    2.20
   1   1 -18   30.80    1.50
   1  -1 -18   30.20    1.50
  -1   1 -18   27.30    1.20
  -1  -1  18   31.10    2.60
   1   1  18   30.30    2.30
  -1   1 -18   29.50    1.90
   1  -1 -18   27.80    2.30
  -1   1 -18   30.00    2.40
   2   1 -18   65.99    3.80
  -2   1  18   63.29    3.50
   2   1 -18   63.19    3.60
  -2   1  18   57.29    3.80
  -2  -1 -18   66.59    3.20
   2   1 -18   64.69    2.60
  -2  -1 -18   63.69    2.30
  -2   1 -18   63.59    2.80
   2  -1 -18   67.09    2.70
   2   1  18   63.69    3.60
  -2  -1  18   67.19    6.10
  -2   1 -18   62.79    3.70
   2  -1 -18   65.89    4.10
   3   1 -18    3.80    0.60
   3  -1  18    4.40    1.00
  -3  -1 -18    4.80    0.40
  -3  -1 -18    4.30    0.70
   3   1 -18    5.10    0.70
   3   1  18    4.40    1.00
   3  -1 -18    5.10    0.60
   4   1 -18   34.10    1.60
  -4  -1 -18   33.20    1.60
   4   1 -18   32.70    1.50
  -4  -1 -18   33.00    1.80
   4  -1 -18   32.90    1.70
   4   1  18   31.50    2.70
  -5  -1 -18  139.09    4.70
  -5  -1 -18  129.49    4.90
  -5   1  18  143.09    4.90
   5   1 -18  132.69    4.70
   5  -1 -18  136.29    4.80
  -5  -1  18  140.59    4.90
  -6  -1 -18    3.00    0.60
  -6  -1 -18    2.90    0.60
  -6   1  18    2.60    0.60
   6   1 -18    2.50    0.60
   6  -1 -18    2.50    0.60
  -6  -1  18    2.30    0.60
  -7  -1 -18   32.30    1.80
   7   1 -18   32.20    1.70
  -7   1  18   35.00    1.80
  -7  -1 -18   32.00    1.60
   7  -1 -18   34.10    1.80
  -7  -1  18   33.90    1.70
  -8  -1 -18    6.30    0.70
  -8  -1 -18    6.90    0.80
   8   1 -18    5.80    0.70
  -8   1  18    6.50    0.70
   8  -1 -18    6.60    0.80
  -8  -1  18    5.90    0.90
  -9   1  18   24.00    1.20
   9  -1 -18   25.30    1.30
   0   2 -18  564.14   19.70
   0  -2  18  625.74   20.30
   0   2  18  620.54   19.70
   0  -2 -18  653.33   18.10
   0   2 -18  603.24   17.90
   0  -2 -18  598.34   19.60
   0   2 -18  605.24   19.20
   1  -2  18  135.49    6.50
  -1   2  18  143.89    6.10
   1   2 -18  141.79    6.10
  -1  -2 -18  145.19    4.80
   1   2 -18  143.59    6.30
   1   2 -18  144.79    4.80
  -1  -2 -18  142.39    5.90
  -1   2 -18  135.69    5.50
  -1   2 -18  152.58    6.50
  -1   2 -18  143.69    4.60
   1  -2 -18  136.49    6.20
   1  -2 -18  144.59    5.00
  -1  -2  18  151.88    7.30
   1   2  18  145.39    6.20
   2   2 -18  443.86   15.50
  -2  -2 -18  454.95   13.70
  -2   2  18  468.65   16.50
   2   2 -18  430.66   15.60
  -2  -2 -18  460.25   14.00
   2   2 -18  480.35   14.00
  -2   2  18  474.95   15.40
   2  -2  18  451.95   16.00
  -2   2 -18  467.25   15.70
  -2   2 -18  503.55   14.60
   2   2  18  456.35   15.50
   2  -2 -18  436.66   13.80
  -3  -2 -18  252.87    8.10
  -3  -2 -18  240.28    7.80
   3   2 -18  261.47    8.20
   3   2 -18  261.97    8.00
  -3  -2 -18  262.77    7.80
   3   2 -18  213.48    8.50
  -3   2 -18  255.67    9.70
   3   2  18  240.08    9.40
   3  -2 -18  250.77    7.90
   4   2 -18  574.64   17.20
  -4  -2 -18  605.94   17.10
  -4  -2 -18  582.44   17.30
   4   2 -18  604.14   17.00
  -4  -2 -18  545.15   16.90
  -4   2  18  569.24   17.20
   4  -2 -18  584.04   17.20
   4   2  18  529.15   18.70
  -5  -2 -18  304.37    9.40
  -5   2  18  311.67    9.60
  -5  -2 -18  314.97    9.80
  -5  -2 -18  290.47    9.40
   5   2 -18  294.17    9.30
  -5  -2  18  294.77    9.60
   5  -2 -18  312.47    9.60
   6   2 -18  197.18    6.80
  -6   2  18  210.88    7.00
  -6  -2 -18  215.28    6.70
  -6  -2 -18  210.28    6.80
  -6  -2 -18  218.58    6.80
  -6  -2 -18  210.58    7.10
   6  -2 -18  215.18    7.00
  -6  -2  18  195.78    6.80
  -7  -2 -18    0.90    0.40
   7   2 -18    0.90    0.40
  -7  -2 -18    1.20    0.40
  -7  -2 -18    1.50    0.40
  -7  -2 -18    4.40    0.70
  -7   2  18    1.90    0.50
   7  -2 -18    1.10    0.40
  -7  -2  18    0.80    0.40
  -8  -2 -18  161.08    5.20
   8   2 -18  152.18    5.20
  -8  -2 -18  167.08    5.50
  -8   2  18  158.18    5.30
   8  -2 -18  165.78    5.40
  -9   2  18    0.70    0.30
   0  -3 -18    0.70    0.40
   0  -3 -18    0.10    0.40
   0  -3 -18    0.20    0.30
   0   3 -18    0.30    0.50
   0   3 -18    0.50    0.30
  -1  -3 -18    2.00    0.50
  -1   3  18    2.30    0.80
  -1  -3 -18    2.30    0.50
   1   3 -18    2.80    0.50
   1   3 -18    1.30    0.70
   1  -3 -18    2.40    0.50
   1  -3 -18    2.50    0.60
  -1   3 -18    3.60    0.50
   1   3  18    1.70    0.70
  -1   3 -18    2.90    1.00
  -2   3  18  311.17   12.00
  -2  -3 -18  330.27   10.00
  -2  -3 -18  330.77    9.90
   2   3 -18  312.27   10.00
   2   3 -18  304.87   11.60
   2   3 -18  313.47   11.00
  -2   3 -18  321.97   11.80
   2  -3 -18  323.37    9.90
   2   3  18  312.67   11.60
   3   3 -18  380.26   11.80
  -3  -3 -18  379.16   11.70
  -3  -3 -18  362.36   11.40
   3   3 -18  379.86   11.40
   3   3 -18  385.46   11.60
  -3   3  18  378.86   11.50
  -3  -3 -18  384.36   11.60
  -3   3 -18  376.06   13.40
   3  -3 -18  383.86   11.60
   3   3  18  367.76   13.30
  -3   3 -18  366.96   11.50
  -4  -3 -18  129.29    4.70
  -4   3  18  130.99    4.50
  -4  -3 -18  128.39    4.60
   4   3 -18  119.29    4.30
   4   3 -18  128.39    4.60
   4  -3 -18  129.29    4.60
  -5   3  18    2.00    0.60
  -5  -3 -18    1.50    0.50
   5   3 -18    1.90    0.50
  -5  -3 -18    5.40    0.80
  -5  -3 -18    1.70    0.50
  -5  -3 -18    1.30    0.40
  -5  -3  18    1.80    0.50
   5  -3 -18    1.50    0.50
  -6  -3 -18   93.59    3.80
  -6  -3 -18   98.29    3.60
  -6  -3 -18   96.79    3.50
  -6   3  18   92.59    3.60
   6   3 -18   99.19    3.40
  -6  -3 -18   91.49    3.60
   6  -3 -18   96.19    3.70
  -6  -3  18   91.19    3.50
  -7  -3 -18    5.10    0.70
  -7  -3 -18    3.70    0.70
  -7  -3 -18    5.10    0.70
  -7   3  18    5.80    0.80
   7  -3 -18    4.50    0.70
  -8  -3 -18  183.88    6.10
  -8   3  18  180.68    6.00
  -8  -3 -18  184.18    5.90
   8  -3 -18  192.98    6.10
   0   4  18 1581.34   51.09
   0  -4 -18 1726.63   49.40
   0   4 -18 1748.63   49.10
   0   4 -18 1716.13   51.49
   0  -4 -18 1766.02   49.20
   0   4 -18 1724.73   49.20
   0   4 -18 1706.83   48.90
  -1  -4 -18   36.60    1.60
  -1   4  18   37.00    2.80
  -1  -4 -18   34.10    1.80
   1   4 -18   36.00    1.60
  -1  -4 -18   36.80    1.90
   1   4 -18   32.50    1.70
   1   4 -18   38.30    1.90
   1   4 -18   34.20    2.80
   1  -4 -18   36.70    1.80
  -1   4 -18   33.40    1.60
   1   4  18   36.30    2.90
  -1   4 -18   37.10    3.00
  -1   4 -18   35.70    1.80
  -1   4 -18   35.70    1.70
   1  -4 -18   33.20    1.90
   2   4 -18  459.75   13.80
   2   4 -18  459.45   16.20
   2   4 -18  472.45   14.20
  -2  -4 -18  449.26   13.80
  -2  -4 -18  477.65   14.30
  -2  -4 -18  488.45   14.20
   2   4 -18  453.95   14.00
  -2   4 -18  459.45   16.20
  -2   4 -18  486.35   14.10
   2   4  18  458.55   16.00
   2  -4 -18  439.96   14.00
  -2   4 -18  453.65   13.70
   3   4 -18  133.79    4.40
  -3  -4 -18  128.59    4.70
  -3  -4 -18  129.39    4.70
   3   4 -18  129.69    4.60
  -3   4  18  120.99    4.50
   3   4 -18  126.59    5.00
   3  -4 -18  136.19    4.60
  -3   4 -18  129.59    4.50
  -4  -4 -18  211.58    7.20
   4   4 -18  223.78    7.10
  -4   4  18  206.58    7.00
  -4  -4 -18  212.48    7.20
   4   4 -18  218.88    6.90
  -4  -4 -18  217.38    7.00
  -4  -4 -18  213.18    6.90
  -4   4 -18  212.48    7.00
   4  -4 -18  216.18    7.10
  -5  -4 -18  217.38    7.30
  -5  -4 -18  220.28    7.00
  -5   4  18  228.68    7.20
  -5  -4 -18  208.08    7.30
  -5  -4 -18  221.08    7.10
   5   4 -18  230.58    7.00
  -5  -4  18  198.98    7.00
   5  -4 -18  215.98    7.10
  -6  -4 -18  806.62   23.50
  -6  -4 -18  802.02   23.80
  -6   4  18  790.12   23.60
   6   4 -18  792.82   23.40
  -6  -4 -18  803.12   23.80
  -6  -4 -18  827.32   23.60
   6  -4 -18  796.72   23.60
  -7  -4 -18  109.79    4.00
   7   4 -18  101.59    3.70
  -7  -4 -18  105.29    3.80
  -7   4  18  112.09    3.90
  -7  -4 -18  110.69    3.80
   7  -4 -18  110.09    3.90
  -8  -4 -18  205.08    6.30
  -8   4  18  201.98    6.40
  -8  -4 -18  206.48    6.30
  -8  -4 -18  199.88    6.50
   8  -4 -18  201.08    6.40
   0   5 -18    0.30    0.30
   0  -5 -18    0.80    0.40
   0   5 -18    1.00    0.40
   0   5 -18    0.90    0.40
   0  -5 -18    0.30    0.40
   1   5 -18  108.99    4.00
  -1  -5 -18  105.29    4.00
   1   5 -18  102.39    3.90
  -1  -5 -18  104.19    4.10
  -1  -5 -18   98.49    3.70
   1   5 -18  104.29    3.70
   1  -5 -18  104.39    3.90
  -1   5 -18  108.79    3.90
  -1   5 -18  105.89    3.90
   2   5 -18  212.98    6.80
   2   5 -18  219.08    7.20
   2   5 -18  219.68    7.00
  -2  -5 -18  214.58    7.30
  -2  -5 -18  207.78    6.80
  -2  -5 -18  214.58    7.10
  -2  -5 -18  198.38    6.80
  -2   5 -18  213.88    6.90
   2  -5 -18  217.68    7.00
  -2   5 -18  210.38    7.00
   3   5 -18  229.98    7.30
  -3  -5 -18  222.78    7.30
  -3  -5 -18  218.58    7.70
  -3  -5 -18  237.48    7.60
   3   5 -18  237.68    7.40
  -3  -5 -18  224.78    7.20
   3  -5 -18  222.88    7.40
  -3   5 -18  237.08    7.50
  -3   5 -18  222.28    7.20
  -4   5  18   51.59    2.30
  -4  -5 -18   49.30    2.40
  -4  -5 -18   49.20    2.20
   4   5 -18   51.29    2.30
  -4  -5 -18   49.70    2.50
  -4  -5 -18   52.09    2.30
   4   5 -18   48.90    2.20
  -4   5 -18   54.39    2.30
   4  -5 -18   52.49    2.30
  -5  -5 -18  101.99    4.00
  -5  -5 -18  104.99    3.70
  -5  -5 -18  101.39    3.60
  -5   5  18  105.99    3.80
   5   5 -18   94.99    3.60
  -5  -5 -18  106.59    3.90
  -5  -5  18   92.09    3.70
  -5   5 -18   95.49    3.60
  -6  -5 -18   95.39    3.50
  -6  -5 -18  100.19    3.60
   6   5 -18  103.69    3.60
  -6   5  18  101.09    3.70
  -6  -5 -18   98.59    3.80
  -7  -5 -18    1.20    0.40
  -7  -5 -18    1.40    0.40
  -7  -5 -18    1.10    0.40
   7   5 -18    1.10    0.30
  -7   5  18    1.30    0.40
   7  -5 -18    1.10    0.50
  -8   5  18  349.96   10.60
  -8  -5 -18  349.37   10.40
   8   5  18  360.86   10.40
   0  -6  18  310.47    9.70
   0   6 -18  329.37   10.10
   0  -6 -18  302.57    9.70
   0   6 -18  316.97    9.90
  -1  -6 -18    2.50    0.50
  -1  -6 -18    2.20    0.60
   1   6 -18    1.80    0.50
   1   6 -18    1.50    0.50
   1   6 -18    1.90    0.60
  -1   6 -18    0.90    0.40
  -1   6 -18    1.70    0.50
  -1  -6  18    1.30    0.50
  -1   6 -18    1.60    0.40
  -2  -6 -18  385.66   11.90
  -2  -6 -18  385.16   11.70
   2   6 -18  391.66   11.70
   2   6 -18  380.16   11.80
  -2  -6 -18  378.86   12.20
   2   6 -18  367.66   12.00
  -2  -6 -18  385.96   11.70
  -2   6 -18  391.06   11.80
  -2  -6  18  390.66   11.70
  -2   6 -18  377.56   11.70
  -2   6 -18  389.36   11.90
   3   6 -18   10.40    0.90
   3   6 -18   11.50    0.90
  -3  -6 -18   10.70    0.90
  -3  -6 -18    9.80    1.10
  -3  -6 -18   10.80    0.90
  -3  -6 -18   11.20    1.00
  -3   6 -18   10.90    0.90
  -3   6 -18   11.80    1.00
  -3  -6  18    9.50    0.90
  -3   6 -18   10.30    0.90
   4   6 -18  691.23   19.20
  -4  -6 -18  637.64   19.40
  -4  -6 -18  635.94   19.70
  -4  -6 -18  660.13   19.20
  -4  -6 -18  655.13   19.20
  -4  -6  18  656.33   19.20
  -4   6 -18  642.14   19.20
  -4   6 -18  672.53   19.30
  -4   6 -18  600.24   19.10
  -5   6  18  142.99    4.90
   5   6 -18  142.49    4.90
  -5  -6 -18  151.58    5.00
  -5  -6 -18  146.79    5.10
  -5  -6 -18  147.99    4.90
  -5   6 -18  149.69    5.00
  -5  -6  18  148.49    4.90
  -5   6 -18  140.49    4.90
  -6  -6 -18  145.79    5.20
  -6   6  18  153.58    5.10
  -6  -6 -18  155.18    5.10
   6   6 -18  155.18    5.00
  -6  -6 -18  159.28    5.00
  -6   6 -18  151.18    5.00
  -6  -6  18  150.28    5.00
  -7  -6 -18  463.55   13.50
  -7   6  18  459.15   13.60
  -7  -6 -18  454.25   13.60
   7   6 -18  450.55   13.40
  -7  -6 -18  463.95   13.50
   0   7 -18    0.20    0.30
   0  -7 -18    0.20    0.30
   0  -7  18    0.20    0.30
   0   7 -18    0.50    0.40
   1   7 -18   57.29    2.30
   1   7 -18   55.89    2.60
   1   7 -18   57.59    2.50
  -1  -7 -18   60.29    2.40
  -1  -7  18   59.89    2.50
   1  -7 -18   58.09    2.40
  -1   7 -18   60.19    2.60
  -1   7 -18   62.09    2.60
   2   7 -18   47.50    2.10
  -2  -7 -18   49.50    2.10
   2   7 -18   51.99    2.10
  -2   7 -18   48.70    2.10
  -2   7 -18   49.60    2.30
  -2  -7  18   46.60    2.10
   2  -7 -18   48.80    2.10
  -2   7 -18   51.69    2.30
  -3  -7 -18  110.59    3.80
  -3  -7 -18  106.79    3.80
   3   7 -18  109.59    3.80
  -3   7 -18  107.59    3.90
  -3   7 -18  103.49    3.80
  -3  -7  18  105.79    3.80
  -3   7 -18  102.99    3.90
  -4  -7 -18   41.10    1.80
  -4  -7 -18   40.90    1.90
   4   7 -18   39.00    1.80
  -4   7 -18   38.10    1.80
  -4  -7  18   41.50    1.90
  -4   7 -18   41.80    1.90
   5   7 -18   14.60    0.90
  -5  -7 -18   15.00    1.00
  -5  -7 -18   15.00    1.00
  -5   7 -18   15.40    1.00
  -5  -7  18   14.50    1.00
  -5   7 -18   13.60    0.90
   6   7 -18   64.99    2.30
  -6  -7 -18   61.59    2.30
  -6  -7 -18   62.09    2.30
  -6   7  18   61.39    2.30
  -6  -7  18   62.29    2.30
  -6   7 -18   60.29    2.30
   0  -8  18    6.10    0.70
   0   8 -18    6.60    0.80
   0  -8 -18    7.00    0.70
   1   8 -18    1.70    0.50
   1  -8  18    2.00    0.50
  -1  -8 -18    2.40    0.50
  -1   8 -18    3.50    0.60
  -1  -8  18    1.50    0.50
   1  -8 -18    2.70    0.60
   2   8 -18  256.27    8.00
  -2  -8 -18  263.57    8.10
  -2   8 -18  272.07    8.20
  -2  -8  18  253.57    8.10
   2  -8 -18  253.37    8.00
  -3  -8 -18  127.59    4.20
   3   8 -18  126.49    4.20
  -3   8 -18  127.09    4.30
   3  -8 -18  121.09    4.10
  -3  -8  18  125.29    4.30
  -3   8 -18  121.19    4.20
  -4  -8 -18  140.09    4.60
   4   8 -18  138.09    4.60
  -4  -8 -18  143.59    4.60
  -4   8 -18  139.39    4.60
  -4   8 -18  144.49    4.70
  -4  -8  18  142.29    4.70
  -5  -8 -18   71.09    2.50
   5   8 -18   69.49    2.40
  -5   8 -18   67.59    2.50
  -5  -8  18   66.99    2.50
   5   8  18   68.79    2.40
  -5   8 -18   68.19    3.00
   0  -9  18    0.40    0.30
   0   9 -18    0.60    0.30
   0  -9 -18    0.50    0.30
   1  -9  18    5.00    0.60
  -1  -9 -18    5.40    0.60
  -1  -9  18    5.30    0.60
   1  -9 -18    5.20    0.60
  -1   9 -18    5.90    0.60
   2  -9  18    0.50    0.30
  -2  -9 -18    0.60    0.30
  -2  -9  18    0.00    0.30
   2  -9 -18    0.60    0.30
  -2   9 -18    0.90    0.30
   3  -9  18   17.40    1.00
  -3  -9 -18   17.90    1.00
   3  -9 -18   17.10    0.90
  -3  -9  18   17.10    1.00
  -3   9 -18   17.90    1.00
   4   9 -18    1.10    0.30
  -4  -9 -18    1.20    0.30
  -4   9 -18    1.20    0.30
   0 -10 -18  144.19    4.50
  -1 -10 -18    2.10    0.40
   1 -10 -18    2.10    0.50
   0   0  19    0.00    0.40
   0   0  19    0.10    0.40
   0   0 -19    0.20    0.20
   0   0 -19    0.20    0.30
  -1   0 -19    1.00    0.50
  -1   0 -19    0.30    0.20
   1   0  19    0.00    0.40
  -1   0  19    0.20    0.40
  -1   0  19    0.40    0.50
   1   0 -19    0.20    0.20
   1   0 -19    0.20    0.40
   2   0 -19    0.80    0.60
  -2   0 -19    0.60    0.20
   2   0 -19    0.10    0.30
   2   0 -19    0.70    0.30
   2   0  19    0.50    0.50
  -2   0  19    0.30    0.50
   3   0 -19    1.30    0.50
  -3   0  19    0.20    0.30
   3   0  19    0.00    0.40
  -3   0 -19    0.10    0.30
  -3   0 -19    0.30    0.30
   3   0 -19    0.10    0.30
  -4   0 -19    0.60    0.30
   4   0 -19    0.70    0.40
  -4   0 -19    0.30    0.30
  -4   0  19    0.50    0.30
  -5   0 -19    0.40    0.30
   5   0 -19    0.50    0.40
  -5   0  19    0.80    0.40
  -5   0 -19    0.70    0.40
  -6   0  19    0.00    0.30
  -6   0 -19    0.80    0.40
   6   0 -19   -0.10    0.30
  -7   0 -19    0.60    0.40
   7   0 -19    0.10    0.30
  -7   0  19    0.30    0.40
  -8   0  19    0.50    0.30
   8   0 -19   -0.10    0.30
   0   1  19    0.10    0.40
   0   1 -19    1.60    0.80
   0   1 -19    0.00    0.30
   0  -1 -19    0.20    0.30
   0  -1  19    0.20    0.40
   0  -1 -19    0.10    0.20
   0   1 -19    0.40    0.20
   1   1 -19  346.37   12.50
  -1   1  19  351.86   12.50
   1  -1  19  361.36   12.90
  -1  -1 -19  353.16   10.80
   1   1 -19  385.76   11.10
  -1  -1 -19  363.86   12.10
  -1   1  19  360.86   13.00
  -1  -1 -19  350.96   12.10
   1   1 -19  358.76   12.70
  -1   1 -19  363.76   12.80
  -1   1 -19  373.66   11.90
   1  -1 -19  353.36   11.10
   1  -1 -19  339.57   12.50
   1   1  19  356.16   12.50
  -1   1 -19  367.56   10.70
  -1  -1  19  350.36   16.40
   1  -1 -19  367.06   11.10
  -2  -1 -19  146.69    4.60
  -2   1  19  144.29    6.10
   2   1 -19  131.69    6.40
  -2  -1 -19  137.49    4.90
   2   1 -19  146.39    5.00
   2  -1  19  140.49    6.30
   2   1 -19  141.69    6.30
   2  -1 -19  137.09    4.80
   2  -1 -19  150.68    5.10
   2   1  19  139.19    6.20
  -3  -1 -19   12.20    0.70
   3   1 -19   11.70    1.00
   3   1 -19   11.60    1.00
  -3  -1 -19   10.80    0.80
  -3  -1 -19   11.00    1.00
   3  -1  19   11.60    1.50
   3   1 -19    9.80    0.80
  -3   1  19   11.00    0.90
   3   1 -19   11.30    0.90
  -3   1 -19   11.70    0.90
   3   1  19   10.90    1.50
   3  -1 -19   11.10    0.90
  -4  -1 -19   21.50    1.30
   4   1 -19   21.60    1.30
   4   1 -19   25.20    1.30
  -4  -1 -19   25.20    1.50
  -4   1 -19   25.00    1.30
  -4  -1  19   22.90    1.40
   4  -1 -19   23.60    1.40
  -5  -1 -19    1.70    0.50
  -5   1  19    1.80    0.50
  -5  -1 -19    1.60    0.50
   5   1 -19    0.70    0.40
   5  -1 -19    0.40    0.40
  -5  -1  19    0.90    0.40
  -6  -1 -19    3.70    0.60
  -6  -1 -19    3.00    0.60
  -6   1  19    3.10    0.60
   6   1 -19    2.60    0.60
   6  -1 -19    3.30    0.60
  -6  -1  19    3.70    0.70
   7   1 -19  173.38    5.90
  -7  -1 -19  178.48    6.00
  -7   1  19  182.08    6.00
   7  -1 -19  177.68    6.00
  -7  -1  19  171.78    5.90
  -8   1  19   62.29    2.50
  -8  -1 -19   63.79    2.60
   8   1 -19   64.79    2.50
   8  -1 -19   66.49    2.60
  -8  -1  19   60.29    2.40
   0   2 -19  590.94   19.70
   0   2 -19  621.44   17.70
   0   2  19  587.24   19.50
   0  -2 -19  595.84   19.50
   0  -2 -19  613.34   17.90
   0  -2 -19  589.24   17.80
   1   2 -19    3.10    1.00
  -1  -2 -19    1.80    0.50
  -1   2  19    2.30    0.80
  -1  -2 -19    2.20    0.50
   1   2 -19    2.50    0.50
   1   2  19    1.90    0.80
   1  -2 -19    1.90    0.50
   1  -2 -19    2.70    0.60
  -1   2 -19    2.00    0.80
  -1   2 -19    2.10    0.40
  -2   2  19    2.90    0.90
   2   2 -19    0.30    0.50
  -2  -2 -19    0.30    0.20
  -2  -2 -19    0.20    0.30
   2   2 -19    0.20    0.30
   2  -2 -19    0.40    0.30
   2   2  19    0.00    0.40
   2  -2 -19    0.40    0.30
  -2   2 -19    0.30    0.50
  -3  -2 -19   46.50    2.00
  -3   2  19   47.40    2.10
   3   2 -19   46.90    2.10
   3   2 -19   44.60    2.20
   3   2 -19   44.30    1.90
  -3  -2 -19   46.50    2.00
  -3  -2 -19   44.50    2.10
   3  -2 -19   45.30    2.10
  -3   2 -19   45.80    1.90
   3   2  19   40.70    3.00
  -3   2 -19   43.80    3.20
  -4  -2 -19   87.89    3.60
  -4  -2 -19   93.09    3.40
   4   2 -19   94.49    3.30
  -4   2  19   90.29    3.50
  -4  -2 -19   88.99    3.30
  -4  -2  19   91.09    3.50
   4  -2 -19   89.39    3.50
  -5   2  19  103.39    3.90
   5   2 -19   97.49    3.60
  -5  -2 -19  104.69    4.00
  -5  -2 -19  102.99    3.70
  -5  -2 -19   97.09    3.70
   5  -2 -19  101.49    3.80
  -5  -2  19  104.29    3.90
  -6  -2 -19   13.20    1.00
  -6  -2 -19   14.70    1.00
  -6   2  19   14.30    1.10
  -6  -2 -19   13.80    1.20
   6  -2 -19   13.10    1.10
  -6  -2  19   13.10    1.10
  -7  -2 -19    8.10    0.80
  -7  -2 -19    8.60    0.90
  -7  -2 -19    8.80    0.80
  -7   2  19    9.20    0.90
  -7  -2  19    8.10    0.80
   7  -2 -19    8.40    0.90
  -8  -2 -19   74.89    2.90
  -8   2  19   73.29    2.80
  -8  -2 -19   73.19    2.70
   8  -2 -19   74.89    2.90
   0  -3 -19    0.30    0.30
   0   3 -19    1.20    0.40
   0  -3 -19    1.30    0.40
  -1  -3 -19  228.28    7.20
   1   3 -19  220.68    7.10
  -1   3  19  204.68    8.50
  -1  -3 -19  220.78    7.10
   1   3 -19  223.18    6.80
   1   3 -19  217.28    8.80
  -1  -3 -19  220.18    7.80
   1  -3 -19  210.58    7.20
   1  -3 -19  216.58    7.00
  -1   3 -19  214.88    6.80
  -1   3 -19  222.68    8.90
  -1   3 -19  216.38    7.20
   1   3  19  209.68    8.60
  -2  -3 -19   45.20    2.00
   2   3 -19   48.90    2.00
   2   3 -19   50.09    2.30
   2   3 -19   49.30    2.20
  -2  -3 -19   47.80    2.20
  -2  -3 -19   47.30    2.20
   2   3 -19   42.90    3.20
  -2   3 -19   46.80    3.30
   2  -3 -19   46.90    2.10
  -2   3 -19   45.40    2.40
  -2   3 -19   46.00    2.10
   2   3  19   47.50    3.30
  -2   3 -19   42.70    1.90
  -3   3  19   64.39    2.70
   3   3 -19   69.19    3.00
  -3  -3 -19   69.29    2.90
  -3  -3 -19   67.29    2.70
   3   3 -19   68.59    2.70
  -3  -3 -19   69.59    2.80
   3   3 -19   69.49    2.80
  -3   3 -19   65.79    2.70
   3  -3 -19   67.49    2.80
  -4  -3 -19    3.70    0.70
   4   3 -19    3.40    0.60
  -4   3  19    4.30    0.70
  -4  -3 -19    3.70    0.60
  -4  -3 -19    3.80    0.60
   4   3 -19    4.40    0.60
   4  -3 -19    4.70    0.70
  -5  -3 -19    3.70    0.60
  -5  -3 -19    5.40    0.80
   5   3 -19    4.10    0.60
  -5   3  19    5.40    0.80
  -5  -3 -19    3.70    0.60
  -5  -3 -19    6.40    0.90
  -5  -3  19    3.70    0.70
   5  -3 -19    3.60    0.70
   6   3 -19    1.90    0.50
  -6  -3 -19    1.40    0.40
  -6  -3 -19    0.90    0.40
  -6  -3 -19    1.10    0.50
  -6  -3 -19    1.10    0.40
  -6   3  19    1.40    0.50
  -6  -3  19    1.00    0.40
   6  -3 -19    1.10    0.40
  -7  -3 -19  149.09    4.90
  -7  -3 -19  142.29    4.90
  -7  -3 -19  146.09    5.20
  -7   3  19  149.59    5.10
   7  -3 -19  154.18    5.10
  -8  -3 -19    2.40    0.50
  -8  -3 -19    2.70    0.50
  -8   3  19    2.40    0.50
   8  -3 -19    1.90    0.40
   0   4 -19  750.82   24.60
   0   4 -19  761.72   22.20
   0   4 -19  745.23   22.10
   0   4  19  756.62   24.30
   0  -4 -19  741.63   22.20
   0   4 -19  760.32   21.90
   0  -4 -19  740.13   22.40
  -1  -4 -19   81.59    3.30
  -1   4  19   78.29    4.50
   1   4 -19   77.19    3.10
   1   4 -19   77.49    3.00
   1   4 -19   82.99    3.30
  -1  -4 -19   80.69    3.00
  -1  -4 -19   80.89    3.20
   1   4 -19   79.69    4.90
  -1   4 -19   78.69    2.90
   1  -4 -19   81.29    3.20
   1   4  19   84.59    5.80
  -1   4 -19   82.59    3.20
  -1   4 -19   78.79    3.00
  -1   4 -19   99.39    7.30
   1  -4 -19   78.69    3.40
  -2  -4 -19   24.60    1.60
  -2  -4 -19   33.40    1.50
  -2  -4 -19   24.00    1.60
   2   4 -19   24.70    1.40
   2   4 -19   27.50    1.60
   2   4 -19   24.80    1.50
   2  -4 -19   25.50    1.50
  -2   4 -19   25.20    1.30
  -2   4 -19   25.80    1.50
  -3  -4 -19   89.39    3.60
   3   4 -19   90.09    3.50
  -3   4  19   97.39    3.50
   3   4 -19   96.59    3.40
  -3  -4 -19   94.59    3.70
  -3  -4 -19   95.49    3.50
   3  -4 -19   91.79    3.60
  -3   4 -19   87.79    3.50
  -4   4  19   12.20    1.00
  -4  -4 -19   15.40    1.10
  -4  -4 -19   14.00    1.20
   4   4 -19   13.30    1.10
  -4  -4 -19   12.90    1.10
  -4  -4 -19   15.10    1.00
   4   4 -19   13.50    1.00
   4  -4 -19   13.20    1.10
  -4   4 -19   11.50    1.00
  -5  -4 -19   57.89    2.40
  -5  -4 -19   53.99    2.60
  -5  -4 -19   57.99    2.60
  -5   4  19   56.29    2.50
  -5  -4 -19   58.59    2.50
   5   4 -19   59.19    2.40
  -5  -4  19   53.99    2.40
   5  -4 -19   59.89    2.60
  -6   4  19  147.39    5.10
  -6  -4 -19  152.38    4.90
  -6  -4 -19  146.29    5.00
  -6  -4 -19  144.49    5.20
  -6  -4 -19  139.69    5.20
   6   4 -19  139.79    4.80
   6  -4 -19  148.69    5.10
  -7  -4 -19    6.80    0.70
  -7   4  19    6.20    0.80
  -7  -4 -19    6.20    0.70
   7   4 -19    6.90    0.60
  -7  -4 -19    6.60    0.80
   7  -4 -19    7.00    0.80
  -8  -4 -19    1.90    0.40
  -8  -4 -19    2.70    0.40
  -8   4  19    1.90    0.40
   8  -4 -19    1.60    0.50
   0  -5 -19    0.10    0.40
   0   5 -19    1.30    0.50
   0   5 -19    0.20    0.30
   0  -5 -19    0.10    0.30
   0   5 -19    0.80    0.30
  -1  -5 -19   57.19    2.60
   1   5 -19   56.89    2.50
   1   5 -19   53.19    2.30
   1   5 -19   54.99    2.40
  -1  -5 -19   53.29    2.30
  -1  -5 -19   54.39    2.70
  -1   5 -19   55.99    2.50
   1  -5 -19   56.49    2.50
  -1   5 -19   57.29    2.40
   2   5 -19   30.00    1.60
   2   5 -19   28.40    1.70
   2   5 -19   27.10    1.50
  -2  -5 -19   28.60    1.50
  -2  -5 -19   30.10    1.80
  -2  -5 -19   29.70    1.70
   2  -5 -19   29.30    1.60
  -2   5 -19   29.40    1.50
  -2   5 -19   30.30    1.70
  -3  -5 -19   50.59    2.30
  -3  -5 -19   44.30    2.10
  -3  -5 -19   46.00    2.40
  -3  -5 -19   43.40    2.00
   3   5 -19   49.20    2.10
   3   5 -19   47.60    2.20
  -3   5 -19   47.10    2.20
  -3   5 -19   47.30    2.00
   3  -5 -19   44.80    2.20
  -4  -5 -19   57.69    2.80
   4   5 -19   59.99    2.50
  -4  -5 -19   61.09    2.50
  -4  -5 -19   58.09    2.50
   4   5 -19   59.39    2.50
  -4  -5 -19   62.69    2.70
  -4   5  19   58.19    2.50
   4  -5 -19   59.99    2.60
  -4   5 -19   60.79    2.60
  -5  -5 -19   31.40    1.80
   5   5 -19   30.10    1.50
  -5   5  19   33.00    1.70
  -5  -5 -19   30.10    1.60
  -5  -5 -19   31.00    1.60
  -5  -5 -19   31.70    1.80
  -5   5 -19   29.30    1.60
   5  -5 -19   31.20    1.70
  -6  -5 -19   15.40    1.10
  -6  -5 -19   14.90    1.20
  -6  -5 -19   15.10    1.00
   6   5 -19   14.70    1.00
  -6   5  19   16.10    1.10
   6  -5 -19   15.90    1.10
  -7  -5 -19    1.60    0.40
  -7  -5 -19    1.70    0.40
  -7  -5 -19    0.90    0.40
  -7   5  19    1.20    0.40
   7   5 -19    1.30    0.30
   7  -5 -19    1.40    0.40
   0   6 -19   85.19    3.30
   0  -6 -19   81.49    3.30
   0   6 -19   84.99    3.40
   0   6 -19   80.79    3.00
  -1  -6 -19  215.58    7.00
   1   6 -19  218.48    7.40
   1   6 -19  220.68    7.20
   1   6 -19  218.58    7.00
  -1  -6 -19  217.98    7.30
  -1   6 -19  221.18    7.20
   1  -6 -19  223.98    8.30
  -1   6 -19  220.48    7.20
   2   6 -19    5.40    0.70
  -2  -6 -19    2.80    0.60
  -2  -6 -19    4.60    0.80
   2   6 -19    0.50    0.30
  -2  -6 -19    0.40    0.40
  -2   6 -19    0.40    0.40
  -2  -6  19    5.20    0.80
  -3  -6 -19   24.30    1.70
  -3  -6 -19   24.70    1.50
   3   6 -19   24.20    1.40
  -3  -6 -19   25.80    1.40
  -3  -6 -19   24.60    1.40
   3   6 -19   24.50    1.40
  -3   6 -19   28.00    1.50
  -3  -6  19   22.80    1.30
  -3   6 -19   24.40    1.40
  -4  -6 -19   44.10    1.90
   4   6 -19   45.60    2.00
  -4  -6 -19   43.40    2.10
  -4  -6 -19   45.40    2.00
  -4  -6 -19   39.80    2.20
  -4   6 -19   41.60    1.90
  -4  -6  19   43.50    2.00
  -4   6 -19   42.60    2.00
  -5  -6 -19    1.10    0.40
  -5  -6 -19    1.90    0.50
  -5   6  19    3.40    0.60
   5   6 -19    1.70    0.40
  -5  -6 -19    1.30    0.40
  -5   6 -19    1.80    0.50
  -5  -6  19    2.40    0.70
  -6   6  19    0.60    0.30
  -6  -6 -19    0.70    0.30
  -6  -6 -19    1.00    0.40
   6   6 -19    0.90    0.30
  -6  -6 -19    0.70    0.40
  -6   6 -19    0.80    0.30
  -7   6  19  117.49    3.70
  -7  -6 -19  112.29    3.70
  -7  -6 -19  109.49    3.60
   7   6 -19  108.49    3.60
   0   7 -19    0.70    0.40
   0   7 -19    0.10    0.30
   0  -7 -19    0.00    0.30
   0  -7  19    0.20    0.30
   1   7 -19   17.40    1.20
   1   7 -19   17.20    1.10
   1   7 -19   17.60    1.30
  -1  -7 -19   17.00    1.10
   1  -7  19   16.30    1.10
  -1  -7  19   17.90    1.20
   1  -7 -19   16.30    1.10
  -1   7 -19   17.40    1.20
  -1   7 -19   20.30    1.30
   2   7 -19  102.29    3.70
   2   7 -19  105.39    3.60
  -2  -7 -19  101.99    3.60
  -2   7 -19  105.89    3.80
  -2   7 -19  100.89    3.80
  -2   7 -19   99.89    3.70
  -2  -7  19   97.99    3.70
   3   7 -19  121.29    4.10
  -3  -7 -19  117.89    4.10
  -3  -7 -19  117.29    4.10
  -3  -7  19  113.59    4.10
  -3   7 -19  116.99    4.10
  -3   7 -19  114.59    4.20
  -3   7 -19  120.89    4.20
  -4  -7 -19    3.00    0.50
  -4  -7 -19    1.70    0.40
   4   7 -19    2.10    0.50
  -4   7 -19    1.80    0.50
  -4   7 -19    1.60    0.50
  -4  -7  19    2.10    0.50
  -5  -7 -19    0.50    0.30
  -5  -7 -19    0.50    0.30
   5   7 -19    0.90    0.30
  -5  -7  19    0.40    0.30
  -5   7 -19    0.40    0.30
  -6  -7 -19   25.70    1.20
   6   7 -19   23.60    1.10
  -6  -7 -19   23.60    1.10
  -6   7  19   23.30    1.60
  -6   7 -19   22.70    1.10
   0  -8 -19   21.40    1.20
   0  -8  19   22.30    1.30
   0   8 -19   23.70    1.30
  -1  -8 -19  158.08    5.10
   1  -8  19  150.88    5.00
   1   8 -19  151.18    5.10
  -1  -8  19  154.98    5.10
  -1   8 -19  151.78    5.10
   1  -8 -19  150.98    5.00
  -2  -8 -19    1.60    0.40
   2  -8  19    1.90    0.50
   2   8 -19    1.10    0.30
   2  -8 -19    1.70    0.40
  -2  -8  19    2.00    0.50
  -2   8 -19    1.80    0.50
   3   8 -19   10.60    0.80
  -3  -8 -19   10.10    0.80
  -3  -8  19   10.20    0.80
  -3   8 -19   11.20    0.90
  -3   8 -19    9.20    0.80
  -4  -8 -19   76.79    2.70
   4   8 -19   77.39    2.70
  -4  -8 -19   78.49    2.70
  -4   8 -19   73.69    2.70
  -4  -8  19   74.49    2.70
  -4   8 -19   80.79    2.80
  -5  -8 -19   46.80    1.80
   5   8 -19   46.50    1.70
  -5   8 -19   45.00    1.80
   5   8  19   46.90    1.70
   0  -9  19    0.40    0.30
   0   9 -19    0.10    0.20
   0  -9 -19    0.40    0.30
   1  -9  19   11.10    0.80
  -1  -9 -19   12.00    0.80
  -1  -9  19   10.90    0.80
   1  -9 -19   10.60    0.80
  -1   9 -19   12.30    0.80
   2  -9  19    8.90    0.70
  -2  -9 -19    8.40    0.70
  -2   9 -19    9.00    0.70
  -2  -9  19    7.80    0.70
   2  -9 -19    8.40    0.60
  -3  -9 -19    8.30    0.60
  -3   9 -19    8.30    0.70
  -4   9 -19    5.00    0.50
   0   0 -20   15.30    1.00
   0   0  20   17.70    1.80
   0   0  20   14.90    2.40
   0   0 -20   14.50    1.10
  -1   0 -20   71.59    2.90
   1   0  20   74.79    4.10
  -1   0  20   71.49    4.00
   1   0 -20   80.69    3.00
  -1   0 -20   73.59    2.70
   1   0 -20   72.49    2.90
   2   0 -20  226.88    7.30
   2   0 -20  232.78    7.50
  -2   0  20  212.78    8.60
  -2   0 -20  226.98    6.90
   2   0  20  237.48    9.00
  -2   0 -20  222.58    7.30
   3   0 -20  112.29    4.00
  -3   0 -20  105.59    3.80
   3   0  20  111.89    5.40
  -3   0 -20  106.19    4.00
  -3   0  20  113.89    4.10
   3   0 -20  111.49    3.80
   3   0 -20  115.89    4.50
  -4   0  20 1164.98   33.10
  -4   0 -20 1156.38   32.80
  -4   0 -20 1088.19   33.00
   4   0 -20 1129.89   33.00
  -5   0 -20  140.09    5.00
   5   0 -20  137.99    5.00
  -5   0  20  139.99    5.00
  -5   0 -20  149.99    4.80
  -6   0 -20  171.08    5.90
   6   0 -20  171.88    5.90
  -6   0  20  173.58    5.90
   7   0 -20  231.28    7.50
  -7   0  20  232.58    7.50
   8   0 -20  181.18    5.80
  -8   0  20  173.08    5.70
   0  -1 -20    0.60    0.30
   0  -1 -20    0.00    0.30
   0   1  20    0.50    0.50
   0   1 -20    0.20    0.50
   0   1 -20    1.50    0.40
  -1   1  20    1.00    0.60
   1   1 -20    0.50    0.50
  -1  -1 -20    1.90    0.40
  -1  -1 -20    1.40    0.40
   1   1 -20    2.30    0.50
   1  -1  20    1.00    0.60
   1  -1 -20    1.30    0.40
   1   1  20    1.50    0.70
   1  -1 -20    2.20    0.50
   2   1 -20  123.69    4.30
  -2   1  20  114.09    5.40
  -2  -1 -20  130.29    4.10
   2  -1  20  119.49    5.70
   2   1 -20  113.39    4.10
  -2  -1 -20  117.29    4.20
   2   1 -20  113.09    4.00
  -2  -1 -20  120.29    3.90
   2   1  20  111.99    5.50
  -2   1 -20  107.09    4.00
  -2   1 -20  106.59    4.30
   2  -1 -20  115.19    4.30
  -2  -1  20  113.99    5.40
   2  -1 -20  116.09    4.10
  -3  -1 -20    5.80    0.70
   3  -1  20    5.20    1.10
   3   1 -20    6.90    0.80
   3   1 -20    4.70    0.80
  -3  -1 -20    4.60    0.50
  -3   1  20    4.60    0.70
   3   1 -20    5.00    0.60
   3   1 -20    5.20    0.70
  -3  -1 -20    4.50    0.70
   3  -1 -20    7.30    0.80
  -3   1 -20    5.50    0.60
   3   1  20    5.00    1.10
   4   1 -20  166.58    5.60
  -4  -1 -20  169.58    5.80
  -4  -1 -20  172.78    5.60
   4   1 -20  160.38    5.40
  -4   1  20  167.38    5.70
  -4   1 -20  156.98    5.40
  -4  -1  20  179.38    5.80
   4  -1 -20  168.68    5.70
  -5   1  20   93.29    3.60
   5   1 -20   88.89    3.50
  -5  -1 -20   92.09    3.40
  -5  -1 -20   92.69    3.60
   5  -1 -20   92.09    3.60
  -5  -1  20   91.49    3.60
  -6  -1 -20   12.20    0.90
  -6  -1 -20   10.00    1.00
  -6   1  20   11.20    1.00
   6   1 -20   10.50    1.00
   6  -1 -20   12.40    1.10
  -6  -1  20   11.00    1.00
  -7  -1 -20    8.90    0.90
   7   1 -20    8.50    0.90
  -7   1  20   10.90    1.00
   7  -1 -20    9.50    0.90
  -7  -1  20   10.60    0.90
  -8  -1 -20  222.58    7.20
   8   1 -20  222.78    7.10
  -8   1  20  237.68    7.20
   8  -1 -20  233.48    7.20
  -8  -1  20  220.58    7.10
   0   2 -20  796.32   25.30
   0   2 -20  776.12   23.00
   0  -2 -20  813.02   23.30
   0  -2 -20  786.12   23.20
   0   2  20  773.52   25.00
   1   2 -20    0.20    0.30
  -1   2  20    0.30    0.50
  -1  -2 -20    0.00    0.30
   1   2 -20    0.40    0.40
   1   2 -20    0.50    0.30
   1   2 -20    0.30    0.50
  -1  -2 -20    0.50    0.30
  -1  -2 -20    0.70    0.30
   1  -2 -20    0.10    0.30
  -1   2 -20    0.10    0.50
   1  -2 -20    0.80    0.40
  -1   2 -20    0.70    0.30
  -1   2 -20    0.40    0.20
   1   2  20    0.40    0.50
  -2   2  20  727.03   21.00
   2   2 -20  730.63   21.30
   2   2 -20  721.53   21.10
   2   2 -20  710.03   20.90
  -2  -2 -20  725.13   20.90
  -2  -2 -20  719.53   21.00
  -2  -2 -20  720.13   21.20
   2   2 -20  706.03   23.20
   2  -2 -20  707.93   21.10
   2  -2 -20  725.43   21.40
  -2   2 -20  746.93   23.40
  -2   2 -20  667.03   21.20
   2   2  20  697.03   23.00
  -2   2 -20  701.43   20.90
  -3   2  20    1.90    0.50
  -3  -2 -20    0.80    0.40
   3   2 -20    1.50    0.50
  -3  -2 -20    1.40    0.50
   3   2 -20    1.20    0.40
   3   2 -20    0.90    0.40
  -3  -2 -20    1.40    0.40
   3  -2 -20    1.50    0.40
  -3   2 -20    1.10    0.40
  -4  -2 -20  416.26   12.90
  -4  -2 -20  427.36   12.90
  -4  -2 -20  421.06   13.20
  -4   2  20  427.66   13.10
   4   2 -20  438.56   12.80
   4  -2 -20  429.46   13.10
  -5   2  20  170.68    5.90
  -5  -2 -20  181.78    6.10
  -5  -2 -20  179.58    5.80
  -5  -2 -20  169.38    5.80
   5   2 -20  172.28    5.70
  -5  -2  20  171.98    5.90
   5  -2 -20  173.38    5.90
  -6  -2 -20  437.96   13.40
  -6  -2 -20  451.85   13.80
  -6  -2 -20  427.56   13.50
  -6   2  20  460.55   13.70
   6  -2 -20  448.76   13.70
  -6  -2  20  455.35   13.60
  -7  -2 -20   15.00    1.20
  -7  -2 -20   13.60    1.00
  -7   2  20   16.20    1.20
  -7  -2  20   15.90    1.10
   7  -2 -20   19.40    1.20
  -8   2  20   47.80    2.00
  -8  -2 -20   47.80    2.10
   8  -2 -20   48.80    2.10
   0   3 -20    0.30    0.30
   0   3 -20    0.20    0.20
   0   3  20    0.60    0.50
   0  -3 -20   -0.20    0.30
   0  -3 -20    0.30    0.30
   0  -3 -20    0.40    0.30
   0   3 -20    0.40    0.30
   0   3 -20    1.90    0.90
   1   3 -20   21.50    1.30
  -1  -3 -20   19.90    1.30
  -1  -3 -20   20.60    1.20
  -1   3  20   20.80    2.10
  -1  -3 -20   28.00    1.50
   1   3 -20   21.10    2.20
   1   3 -20   23.50    1.40
   1  -3 -20   23.00    1.40
  -1   3 -20   21.20    1.20
   1  -3 -20   22.10    1.50
  -1   3 -20   21.50    2.30
  -1   3 -20   20.40    1.30
  -1   3 -20   18.60    1.10
   1   3  20   21.20    2.20
   2   3 -20  165.18    5.60
   2   3 -20  160.08    5.40
   2   3 -20  157.28    7.20
   2   3 -20  163.08    5.30
  -2  -3 -20  151.48    5.20
  -2  -3 -20  169.88    5.60
  -2  -3 -20  160.28    5.60
  -2   3 -20  157.88    5.10
  -2   3 -20  145.19    5.10
  -2   3 -20  157.48    5.40
   2  -3 -20  160.58    5.50
   3   3 -20   29.40    1.60
   3   3 -20   29.60    1.80
  -3   3  20   26.20    1.50
  -3  -3 -20   33.80    1.70
  -3  -3 -20   27.70    1.50
  -3  -3 -20   28.30    1.70
   3   3 -20   28.30    1.50
   3  -3 -20   28.90    1.60
  -3   3 -20   26.10    1.50
  -4  -3 -20   14.30    1.10
  -4  -3 -20   16.30    1.30
  -4   3  20   15.60    1.20
   4   3 -20   15.40    1.00
  -4  -3 -20   16.40    1.10
   4   3 -20   17.50    1.20
   4  -3 -20   16.00    1.20
  -5  -3 -20   26.50    1.60
  -5  -3 -20   29.50    1.60
  -5  -3 -20   27.40    1.70
   5   3 -20   27.80    1.50
  -5   3  20   29.20    1.60
   5  -3 -20   28.10    1.60
  -5  -3  20   27.10    1.60
  -6  -3 -20   14.10    1.10
   6   3 -20   13.40    0.90
  -6  -3 -20   13.60    1.20
  -6   3  20   12.90    1.10
  -6  -3 -20   15.00    1.10
  -6  -3 -20   16.20    1.10
  -6  -3  20   14.60    1.10
   6  -3 -20   14.60    1.10
  -7  -3 -20   28.40    1.40
  -7  -3 -20   28.40    1.40
  -7   3  20   30.40    1.60
  -7  -3 -20   29.10    1.60
   7  -3 -20   30.40    1.60
  -8  -3 -20  213.88    6.90
  -8   3  20  217.18    6.80
   8  -3 -20  220.58    6.80
   0  -4 -20 1729.23   49.20
   0   4 -20 1740.43   49.20
   0   4 -20 1646.04   48.90
   0  -4 -20 1719.13   49.50
   0   4 -20 1706.43   49.20
  -1  -4 -20    1.20    0.50
   1   4 -20    1.20    0.50
   1   4 -20    0.70    0.40
  -1  -4 -20    1.30    0.40
  -1  -4 -20    1.30    0.50
   1   4 -20    0.70    0.30
  -1   4 -20    0.70    0.40
   1  -4 -20    3.40    0.80
  -1   4 -20    1.00    0.30
  -1   4 -20    0.90    0.40
   1  -4 -20    1.20    0.50
  -2  -4 -20  740.63   21.90
   2   4 -20  756.62   21.40
  -2  -4 -20  727.23   21.40
   2   4 -20  737.73   21.60
  -2  -4 -20  745.63   21.80
   2   4 -20  736.53   21.80
   2  -4 -20  710.23   21.60
  -2   4 -20  708.33   21.60
  -2   4 -20  709.13   21.30
  -3   4  20   98.69    4.60
  -3  -4 -20  109.09    4.20
   3   4 -20  113.09    4.00
  -3  -4 -20  114.19    4.30
   3   4 -20  116.69    4.20
  -3  -4 -20  114.49    4.00
   3  -4 -20  118.99    4.20
  -3   4 -20  107.69    4.00
  -4   4  20  560.44   17.00
   4   4 -20  571.64   17.00
   4   4 -20  591.74   17.20
  -4  -4 -20  571.64   17.00
  -4  -4 -20  598.94   17.30
  -4  -4 -20  563.14   17.30
   4  -4 -20  570.04   17.20
  -4   4 -20  539.85   17.00
  -5  -4 -20    2.90    0.60
  -5  -4 -20    3.40    0.60
   5   4 -20    4.70    0.70
  -5  -4 -20    3.70    0.60
  -5   4  20    2.90    0.60
  -5  -4 -20    2.80    0.60
  -5  -4  20    3.40    0.60
   5  -4 -20    2.20    0.60
  -6  -4 -20  393.76   12.00
  -6  -4 -20  397.36   12.30
  -6  -4 -20  396.16   12.00
   6   4 -20  397.76   11.90
  -6   4  20  399.96   12.20
   6  -4 -20  397.96   12.20
  -7  -4 -20    8.20    0.80
  -7   4  20    8.10    0.80
  -7  -4 -20    7.70    0.70
  -7  -4 -20    7.60    0.70
   7   4 -20    6.80    0.80
   7  -4 -20    7.60    0.80
  -8   4  20  101.79    3.40
   0   5 -20    0.30    0.30
   0   5 -20    0.00    0.30
   0   5 -20   -0.10    0.30
   0  -5 -20    1.40    0.50
   1   5 -20    8.20    0.80
   1   5 -20    7.40    0.80
   1   5 -20    7.40    0.90
  -1  -5 -20    7.90    0.90
  -1  -5 -20    7.70    1.00
  -1  -5 -20    6.90    0.70
  -1   5 -20    6.90    0.80
  -1   5 -20    7.80    0.80
   1  -5 -20    7.60    0.90
   2   5 -20  315.77   10.30
   2   5 -20  322.37   10.10
  -2  -5 -20  318.27   10.00
   2   5 -20  313.17   10.00
  -2  -5 -20  322.77   10.40
  -2  -5 -20  321.17   10.30
  -2   5 -20  342.77   10.20
  -2   5 -20  327.17   10.00
   2  -5 -20  328.47   10.20
  -3  -5 -20  149.39    5.20
  -3  -5 -20  152.38    5.40
   3   5 -20  163.88    5.20
  -3  -5 -20  150.08    5.60
   3   5 -20  157.98    5.40
  -3   5 -20  151.08    5.30
  -3   5 -20  154.48    5.10
   3  -5 -20  155.48    5.40
   4   5 -20  204.58    6.70
  -4  -5 -20  198.38    7.00
  -4  -5 -20  210.28    6.90
  -4  -5 -20  203.88    6.60
  -4   5  20  206.48    6.70
   4   5 -20  200.98    6.60
  -4  -5 -20  216.58    6.70
   4  -5 -20  208.48    6.80
  -4   5 -20  198.78    6.70
   5   5 -20    0.90    0.40
  -5  -5 -20    1.20    0.40
  -5  -5 -20    0.20    0.30
  -5   5  20    3.80    0.70
  -5  -5 -20    0.10    0.30
  -5  -5 -20    0.30    0.40
   5  -5 -20    0.40    0.40
  -5   5 -20    0.40    0.30
   6   5 -20  143.99    4.80
  -6  -5 -20  144.59    4.80
  -6  -5 -20  145.79    5.00
  -6  -5 -20  142.39    4.80
  -6   5  20  151.08    4.90
   6  -5 -20  140.89    4.90
   7   5 -20  121.59    4.10
  -7   5  20  127.69    4.20
  -7  -5 -20  130.39    4.20
  -7  -5 -20  128.19    4.30
  -7  -5 -20  127.79    4.10
   7  -5 -20  126.09    4.20
   0   6 -20  286.17    9.20
   0   6 -20  279.07    8.80
   0   6 -20  299.57    9.20
   0  -6 -20  282.37    9.30
   1   6 -20   14.70    1.10
   1   6 -20   12.40    1.10
   1   6 -20   11.80    0.90
  -1  -6 -20   12.80    1.10
  -1   6 -20   12.70    1.10
  -1   6 -20   15.70    1.20
   2   6 -20  287.87    8.80
  -2  -6 -20  274.87    8.60
  -2  -6 -20  264.17    9.20
   2   6 -20  271.47    9.00
   2   6 -20  278.07    8.60
  -2  -6 -20  285.87    8.90
  -2  -6 -20  275.57    8.60
  -2   6 -20  286.87    8.90
  -2   6 -20  271.27    8.80
  -3  -6 -20   17.00    1.10
   3   6 -20   17.60    1.10
  -3  -6 -20   15.20    1.20
   3   6 -20   19.10    1.20
  -3  -6 -20   17.80    1.20
  -3  -6 -20   16.50    1.40
  -3   6 -20   18.50    1.10
  -3   6 -20   20.40    1.30
  -4  -6 -20  458.95   14.10
   4   6 -20  446.86   13.80
  -4  -6 -20  462.65   13.90
   4   6 -20  478.65   13.90
  -4  -6 -20  467.25   13.80
  -4   6 -20  464.15   14.00
  -5  -6 -20   17.70    1.10
  -5  -6 -20   15.90    1.10
   5   6 -20   16.20    1.00
  -5  -6 -20   17.40    1.10
  -5   6  20   16.80    1.10
  -5   6 -20   18.80    1.10
  -6  -6 -20  363.86   10.50
  -6  -6 -20  346.47   10.60
  -6   6  20  337.37   10.40
  -6  -6 -20  350.26   10.40
   6   6 -20  339.37   10.40
  -7  -6 -20    7.10    0.60
   0  -7  20    1.10    0.40
   0   7 -20    0.40    0.30
   0   7 -20    0.40    0.40
   0  -7 -20    0.60    0.50
  -1  -7 -20   62.19    2.40
   1   7 -20   62.19    2.40
   1  -7  20   61.79    2.50
   1   7 -20   62.49    2.60
   1   7 -20   55.19    2.60
  -1   7 -20   60.69    2.60
  -1  -7  20   59.49    2.40
  -1   7 -20   63.69    2.60
  -2  -7 -20   70.39    2.70
   2   7 -20   71.39    2.70
   2   7 -20   68.59    2.70
  -2  -7  20   67.99    2.70
  -2   7 -20   68.09    2.80
  -2   7 -20   72.69    2.90
  -3  -7 -20   87.89    3.20
  -3  -7 -20   88.29    3.20
   3   7 -20   88.89    3.20
   3   7 -20   88.09    3.20
  -3   7 -20   89.49    3.30
  -3  -7  20   85.49    3.20
   4   7 -20  176.88    5.60
  -4  -7 -20  171.98    5.60
  -4  -7 -20  175.38    5.60
  -4   7 -20  170.28    5.70
  -5  -7 -20    4.30    0.50
   5   7 -20    3.50    0.50
  -5  -7 -20    4.60    0.60
  -5   7 -20    4.00    0.60
  -6  -7 -20  180.98    5.50
   6   7 -20  172.68    5.40
  -6  -7 -20  177.88    5.40
   0   8 -20    9.60    0.80
   0  -8  20    9.80    0.80
   0  -8 -20   10.50    0.80
   1   8 -20    7.30    0.70
  -1  -8 -20    7.50    0.70
   1  -8  20    7.20    0.70
  -1   8 -20    7.10    0.80
  -1  -8  20    7.10    0.70
   1  -8 -20    6.70    0.80
   2  -8  20  151.48    4.90
   2   8 -20  149.59    4.80
  -2  -8 -20  154.48    4.90
   2   8 -20  149.49    4.90
  -2   8 -20  160.18    5.10
  -2  -8  20  145.39    4.90
   3   8 -20    1.20    0.30
   3  -8  20    2.20    0.40
  -3  -8 -20    1.30    0.40
  -3   8 -20    1.50    0.40
  -3  -8  20    1.80    0.40
   4   8 -20  262.57    7.70
  -4  -8 -20  254.97    7.70
  -4  -8 -20  241.88    7.70
  -4   8 -20  257.67    7.80
   5   8 -20   10.10    0.60
  -5   8 -20    9.30    0.70
   0  -9  20    0.40    0.30
   0  -9 -20    0.10    0.20
   0   9 -20    0.50    0.30
   1  -9  20    0.20    0.20
  -1  -9 -20    0.50    0.30
  -1  -9  20    0.50    0.20
  -1   9 -20   -0.10    0.20
  -2  -9 -20    2.30    0.40
  -2   9 -20    2.50    0.40
  -3  -9 -20    7.10    0.60
  -3   9 -20    7.70    0.60
   0   0  21   -0.10    0.30
   0   0 -21    0.90    0.40
   0   0 -21    1.90    0.50
   0   0 -21    0.30    0.30
   1   0 -21    0.20    0.30
   1   0  21    0.10    0.40
   1   0 -21    0.70    0.30
  -1   0 -21    0.50    0.30
   1   0 -21    0.20    0.30
  -1   0 -21    0.20    0.30
  -1   0  21    0.10    0.50
  -1   0 -21    0.40    0.30
   2   0 -21    0.20    0.30
  -2   0 -21    0.20    0.20
  -2   0 -21   -0.10    0.30
   2   0 -21    0.50    0.30
  -2   0  21    0.30    0.50
   2   0 -21    0.20    0.40
   2   0 -21    0.40    0.30
   2   0  21    1.10    0.70
  -2   0 -21    0.20    0.30
   3   0 -21    0.20    0.30
  -3   0 -21    0.50    0.40
  -3   0 -21    0.10    0.30
  -3   0  21    0.60    0.40
   3   0 -21    0.00    0.30
   4   0 -21    1.00    0.40
  -4   0 -21    1.80    0.50
  -4   0 -21    0.60    0.30
  -4   0  21    0.70    0.40
  -5   0  21    1.30    0.50
   5   0 -21    0.20    0.30
  -5   0 -21    0.00    0.30
  -5   0 -21    0.10    0.30
   6   0 -21    0.90    0.40
  -6   0  21    0.80    0.40
   7   0 -21    0.20    0.30
  -7   0  21    0.40    0.40
  -8   0  21    0.20    0.30
   8   0 -21    0.50    0.30
   0   1 -21    0.40    0.30
   0  -1 -21    0.00    0.20
   0  -1  21    0.20    0.50
   0   1 -21    0.10    0.30
   0   1  21    0.20    0.50
   0  -1 -21    0.20    0.30
  -1   1  21  211.78    8.50
   1   1 -21  221.08    7.00
  -1  -1 -21  205.78    6.90
  -1  -1 -21  216.68    6.70
   1   1 -21  199.08    6.80
   1  -1  21  212.68    8.60
   1   1 -21  208.38    6.60
  -1  -1 -21  211.58    6.80
  -1   1 -21  213.18    6.60
   1  -1 -21  224.98    7.10
   1   1  21  211.78    8.50
   1  -1 -21  204.18    6.80
   1  -1 -21  199.38    6.60
  -1  -1  21  213.18    8.50
  -1   1 -21  200.48    6.60
   2   1 -21   75.59    2.70
  -2  -1 -21   69.49    2.70
  -2  -1 -21   69.99    2.70
   2  -1  21   72.19    4.20
  -2   1  21   72.29    2.80
   2   1 -21   72.79    2.90
   2   1 -21   72.09    3.00
  -2  -1 -21   72.99    3.00
   2   1  21   70.89    4.10
   2  -1 -21   71.79    2.90
  -2  -1  21   68.39    4.00
  -2   1 -21   66.79    2.70
   2  -1 -21   64.39    2.60
   2  -1 -21   73.49    3.10
  -2   1 -21   70.19    2.50
   3   1 -21    0.10    0.30
   3   1 -21    0.70    0.30
   3   1 -21    1.30    0.40
   3   1 -21    0.30    0.40
  -3  -1 -21    1.10    0.40
  -3  -1 -21    0.50    0.30
  -3   1  21    0.30    0.30
   3  -1 -21    0.40    0.30
  -3   1 -21    0.30    0.30
  -4  -1 -21   51.89    2.10
   4   1 -21   50.89    2.30
  -4  -1 -21   54.49    2.50
  -4  -1 -21   54.89    2.30
  -4   1  21   53.89    2.40
   4   1 -21   53.79    2.20
  -4   1 -21   53.19    2.20
  -4  -1  21   53.59    2.40
   4  -1 -21   55.09    2.40
  -5  -1 -21   12.70    1.00
   5   1 -21   11.50    1.00
  -5  -1 -21   12.40    1.10
  -5   1  21   12.40    1.10
  -5  -1  21   11.10    1.00
   5  -1 -21   12.20    1.00
  -6  -1 -21    6.80    0.70
   6   1 -21    7.50    0.80
  -6  -1 -21    7.90    0.90
  -6   1  21    6.90    0.90
   6  -1 -21    8.00    0.90
  -6  -1  21    7.90    0.90
  -7  -1 -21   50.49    2.20
  -7   1  21   48.30    2.20
   7   1 -21   46.40    2.10
   7  -1 -21   48.50    2.20
  -7  -1  21   48.70    2.10
   8   1 -21    4.20    0.50
  -8  -1 -21    4.60    0.60
  -8   1  21    5.40    0.60
  -8  -1  21    4.20    0.60
   8  -1 -21    5.10    0.60
   0  -2 -21  783.32   23.70
   0   2 -21  780.62   23.70
   0   2 -21  814.62   23.90
   0   2 -21  851.61   23.90
   0   2  21  797.72   25.90
   0  -2 -21  832.22   24.10
   0   2 -21  829.62   26.30
   0  -2 -21  837.12   24.10
   1   2 -21  129.29    4.60
   1   2 -21  125.79    6.20
  -1   2  21  126.89    6.00
   1   2 -21  120.89    4.50
  -1  -2 -21  127.79    4.60
  -1  -2 -21  134.89    4.40
   1   2 -21  123.59    4.30
  -1  -2 -21  129.29    4.60
   1  -2 -21  140.29    4.80
  -1   2 -21  127.29    4.50
   1  -2 -21  129.09    4.30
   1  -2 -21  135.29    4.60
  -1   2 -21  124.79    4.30
  -1   2 -21  131.99    4.40
   1   2  21  126.09    6.00
  -1   2 -21  130.49    6.30
  -2   2  21  130.99    4.50
   2   2 -21  123.09    6.20
   2   2 -21  131.49    4.60
   2   2 -21  134.49    4.40
   2   2 -21  132.09    4.80
  -2  -2 -21  138.29    4.50
  -2  -2 -21  127.69    4.70
  -2  -2 -21  134.79    4.60
  -2   2 -21  132.39    4.40
  -2   2 -21  127.09    4.30
   2  -2 -21  129.09    4.60
   3   2 -21    4.20    0.60
   3   2 -21    3.90    0.70
  -3  -2 -21    4.50    0.70
  -3   2  21    5.40    0.70
  -3  -2 -21    4.60    0.60
  -3  -2 -21    4.10    0.60
   3   2 -21    4.50    0.70
  -3   2 -21    5.50    0.70
   3  -2 -21    4.40    0.70
  -4  -2 -21   23.70    1.50
  -4  -2 -21   22.60    1.30
  -4  -2 -21   23.10    1.30
  -4   2  21   24.50    1.50
   4   2 -21   22.30    1.30
  -4  -2  21   22.50    1.40
   4  -2 -21   22.50    1.40
   5   2 -21   62.69    2.50
  -5  -2 -21   62.49    2.80
  -5  -2 -21   62.29    2.60
  -5  -2 -21   62.29    2.60
  -5   2  21   64.39    2.70
  -5  -2  21   59.59    2.70
   5  -2 -21   63.79    2.70
  -6  -2 -21   89.49    3.50
  -6  -2 -21   94.09    3.40
  -6   2  21   98.09    3.70
  -6  -2 -21   96.19    3.70
  -6  -2  21   96.09    3.60
   6  -2 -21   93.79    3.60
  -7  -2 -21    0.80    0.40
  -7   2  21    0.90    0.40
  -7  -2  21    1.10    0.40
   7  -2 -21    2.20    0.50
  -8   2  21   15.20    1.00
  -8  -2 -21   15.00    1.00
   8  -2 -21   14.90    1.00
   0   3 -21    1.80    0.50
   0  -3 -21    3.10    0.70
   0   3 -21    3.20    0.50
   0  -3 -21    2.90    0.50
   0  -3 -21    0.20    0.30
  -1  -3 -21   92.89    3.50
  -1  -3 -21  101.49    3.80
   1   3 -21   98.19    3.70
   1   3 -21   96.59    3.50
  -1  -3 -21   99.29    3.80
   1   3 -21  104.59    3.80
   1  -3 -21   98.69    3.70
  -1   3 -21   93.09    3.60
   1  -3 -21   98.79    3.90
  -1   3 -21   96.89    3.50
  -1   3 -21   94.09    3.50
   2   3 -21  155.48    5.10
  -2  -3 -21  156.78    5.40
  -2  -3 -21  156.58    5.10
   2   3 -21  151.08    5.40
  -2  -3 -21  159.98    5.50
   2   3 -21  148.19    5.30
  -2   3 -21  145.79    5.00
  -2   3 -21  153.88    5.00
   2  -3 -21  154.68    5.30
  -2   3 -21  149.19    5.20
  -3   3  21   34.00    1.70
  -3  -3 -21   31.40    1.70
  -3  -3 -21   33.00    1.80
   3   3 -21   31.50    1.90
   3   3 -21   31.60    1.70
   3   3 -21   32.60    1.60
  -3  -3 -21   31.90    1.60
  -3   3 -21   31.10    1.60
   3  -3 -21   31.90    1.70
  -4  -3 -21    7.50    0.80
  -4  -3 -21    8.70    0.80
  -4  -3 -21    7.40    0.90
   4   3 -21    8.70    0.80
  -4   3  21    7.70    0.90
   4  -3 -21    9.10    0.90
  -5   3  21   26.10    1.50
   5   3 -21   23.70    1.30
  -5  -3 -21   22.90    1.40
  -5  -3 -21   22.40    1.40
  -5  -3 -21   23.40    1.50
  -5  -3  21   23.20    1.50
   5  -3 -21   24.80    1.50
  -6  -3 -21   22.40    1.40
  -6   3  21   23.40    1.40
  -6  -3 -21   22.90    1.30
   6   3 -21   21.60    1.20
  -6  -3  21   19.80    1.30
   6  -3 -21   20.70    1.40
  -7  -3 -21   49.00    2.00
  -7   3  21   49.90    2.10
  -7  -3 -21   47.80    2.20
   7  -3 -21   48.60    2.10
  -8   3  21   76.39    2.70
   0  -4 -21   92.59    3.80
   0   4 -21   98.19    3.60
   0  -4 -21   93.59    3.70
   0  -4 -21   89.29    3.50
   0   4 -21   94.29    3.40
   0   4 -21   95.39    3.60
  -1  -4 -21  360.66   11.50
  -1  -4 -21  349.47   11.00
   1   4 -21  370.76   11.40
  -1  -4 -21  375.86   11.40
   1   4 -21  345.57   11.00
   1   4 -21  361.46   11.30
   1  -4 -21  380.06   11.40
  -1   4 -21  354.26   11.10
  -1   4 -21  360.36   11.00
  -1   4 -21  370.56   11.30
  -2  -4 -21   39.50    2.10
  -2  -4 -21   38.90    2.10
   2   4 -21   38.60    1.80
  -2  -4 -21   38.10    1.80
   2   4 -21   38.90    2.10
   2   4 -21   42.00    2.00
   2  -4 -21   38.90    2.00
  -2   4 -21   40.90    1.80
  -2   4 -21   39.20    1.90
  -3  -4 -21   26.40    1.50
   3   4 -21   27.00    1.60
  -3  -4 -21   26.30    1.70
   3   4 -21   27.50    1.50
  -3  -4 -21   29.90    1.70
  -3   4 -21   25.50    1.50
   3  -4 -21   27.80    1.60
  -4   4  21   71.99    2.90
  -4  -4 -21   71.19    2.90
   4   4 -21   73.59    3.00
  -4  -4 -21   73.29    3.10
  -4  -4 -21   72.79    3.10
   4   4 -21   70.79    2.80
   4  -4 -21   73.49    3.00
  -4   4 -21   67.29    2.80
  -5  -4 -21   81.49    3.30
  -5  -4 -21   83.29    3.10
  -5   4  21   82.79    3.20
  -5  -4 -21   80.29    3.30
   5   4 -21   79.89    3.00
  -5  -4  21   75.39    3.10
   5  -4 -21   83.79    3.20
   6   4 -21  108.99    3.70
  -6   4  21  109.19    3.90
  -6  -4 -21  104.39    3.90
  -6  -4 -21  105.79    3.80
  -6  -4 -21  106.39    4.00
   6  -4 -21  110.99    3.90
  -7  -4 -21    1.90    0.40
  -7  -4 -21    2.00    0.50
  -7   4  21    2.20    0.50
   7  -4 -21    1.80    0.40
   0   5 -21    0.30    0.30
   0   5 -21    0.50    0.40
   0   5 -21    1.10    0.50
   0  -5 -21    0.10    0.30
   1   5 -21  118.79    4.20
   1   5 -21  122.09    4.50
  -1  -5 -21  117.19    4.20
   1   5 -21  121.39    4.40
  -1  -5 -21  119.69    4.60
  -1  -5 -21  124.09    4.50
  -1   5 -21  120.29    4.40
  -1   5 -21  110.99    4.20
  -1   5 -21  125.29    4.40
   1  -5 -21  120.59    4.40
   2   5 -21   74.59    3.20
   2   5 -21   74.39    2.90
  -2  -5 -21   76.79    3.20
  -2  -5 -21   71.19    3.20
   2   5 -21   78.09    3.10
  -2  -5 -21   76.79    3.00
   2  -5 -21   76.09    3.10
  -2   5 -21   79.89    3.10
  -2   5 -21   78.79    3.00
  -3  -5 -21    2.70    0.60
   3   5 -21    2.30    0.50
  -3  -5 -21    2.60    0.70
   3   5 -21    3.20    0.60
  -3  -5 -21    2.40    0.50
   3  -5 -21    2.20    0.60
  -3   5 -21    2.70    0.50
  -3   5 -21    2.60    0.60
  -4  -5 -21   22.60    1.30
   4   5 -21   22.00    1.30
  -4  -5 -21   20.60    1.40
  -4   5  21   22.20    1.30
  -4  -5 -21   22.10    1.50
   4   5 -21   20.60    1.30
  -4   5 -21   21.40    1.30
   4  -5 -21   21.90    1.40
  -5  -5 -21   82.69    3.00
  -5   5  21   83.69    3.10
   5   5 -21   86.49    3.10
  -5  -5 -21   82.09    3.10
  -5  -5 -21   83.59    3.30
  -5  -5  21   79.79    3.10
   5  -5 -21   83.19    3.20
  -5   5 -21   78.79    3.00
  -6  -5 -21   21.60    1.10
  -6  -5 -21   20.40    1.30
  -6  -5 -21   19.60    1.20
   6   5 -21   20.70    1.10
  -6   5  21   19.80    1.20
   6  -5 -21   20.50    1.20
  -7  -5 -21   39.10    1.70
   7   5 -21   37.20    1.50
  -7  -5 -21   41.70    1.60
  -7  -5 -21   38.20    1.60
  -7   5  21   40.80    1.70
   0   6 -21  734.63   21.50
   0  -6 -21  726.23   21.50
   0   6 -21  705.83   21.50
   0   6 -21  727.43   21.20
  -1  -6 -21   95.69    3.70
   1   6 -21   97.99    3.70
   1   6 -21   99.39    3.50
   1   6 -21   92.29    3.80
  -1   6 -21   95.59    3.70
  -1   6 -21   99.79    3.70
   2   6 -21   11.40    1.00
   2   6 -21   13.00    1.50
  -2  -6 -21    9.70    0.90
   2   6 -21    9.80    0.80
  -2  -6 -21   10.70    1.00
  -2   6 -21   10.30    1.00
  -2   6 -21    9.80    0.90
  -3  -6 -21   33.40    2.00
  -3  -6 -21   36.20    1.70
   3   6 -21   35.50    1.80
   3   6 -21   38.40    1.70
  -3  -6 -21   33.40    1.80
  -3  -6 -21   35.90    1.70
  -3   6 -21   36.50    1.80
  -3   6 -21   34.30    1.70
  -4  -6 -21   23.50    1.30
  -4  -6 -21   23.40    1.40
  -4  -6 -21   24.00    1.30
   4   6 -21   23.60    1.30
  -4  -6  21   24.90    1.40
  -4   6 -21   23.70    1.40
  -5  -6 -21   22.60    1.30
  -5  -6 -21   24.30    1.20
   5   6 -21   25.10    1.30
  -5  -6 -21   25.00    1.40
  -5   6 -21   22.90    1.30
  -6  -6 -21   79.29    2.80
   6   6 -21   80.09    2.70
  -6   6  21   78.69    2.80
  -6  -6 -21   75.29    2.90
  -6  -6 -21   80.19    2.70
   0   7 -21    0.10    0.30
   0   7 -21    0.30    0.30
   1   7 -21   37.70    1.70
   1   7 -21   39.60    1.90
  -1   7 -21   39.80    1.90
  -1   7 -21   37.40    2.00
  -2  -7 -21   96.99    3.50
   2   7 -21  103.39    3.70
   2   7 -21   99.89    3.50
  -2   7 -21  106.69    3.80
  -3  -7 -21    4.30    0.60
  -3  -7 -21    5.20    0.60
   3   7 -21    3.70    0.60
   3   7 -21    3.60    0.50
  -3   7 -21    4.50    0.70
  -4  -7 -21   29.10    1.40
  -4  -7 -21   28.00    1.30
   4   7 -21   30.40    1.40
  -4   7 -21   27.40    1.40
   5   7 -21   33.70    1.40
  -5  -7 -21   33.30    1.50
  -5  -7 -21   32.70    1.40
  -5   7 -21   32.30    1.40
   0   8 -21    4.00    0.60
  -1  -8 -21    3.30    0.50
   1   8 -21    3.50    0.50
  -1   8 -21    2.30    0.50
   2   8 -21    4.40    0.60
  -2  -8 -21    4.10    0.50
   2   8 -21    4.50    0.50
  -2   8 -21    4.50    0.60
  -3  -8 -21  148.49    4.80
   3   8 -21  149.29    4.70
  -3   8 -21  151.98    4.90
   4   8 -21   49.10    1.80
  -4  -8 -21   47.70    1.80
  -4  -8 -21   49.30    1.80
  -4   8 -21   47.40    1.90
   0   9 -21    0.40    0.30
  -1  -9 -21    0.20    0.30
  -1   9 -21    0.50    0.30
  -2   9 -21    1.80    0.40
   0   0 -22  552.14   16.20
   0   0  22  525.15   18.10
   0   0 -22  520.05   16.20
   0   0 -22  568.14   16.10
  -1   0 -22  265.07    8.00
   1   0 -22  254.47    8.20
  -1   0 -22  261.17    7.90
   1   0 -22  267.47    7.90
   1   0  22  242.88    9.80
   1   0 -22  233.58    7.90
  -1   0  22  242.38    9.70
  -1   0 -22  247.68    8.00
   1   0 -22  247.88    8.00
   2   0 -22  879.21   25.30
   2   0 -22  864.51   24.80
  -2   0 -22  848.92   24.70
   2   0 -22  873.01   25.00
   2   0 -22  839.02   25.00
  -2   0 -22  830.32   24.80
  -2   0 -22  829.52   25.00
   3   0 -22  101.39    3.50
   3   0 -22   97.99    3.70
  -3   0 -22   99.29    3.50
  -3   0 -22   95.89    3.30
  -3   0  22   97.99    3.70
  -3   0 -22   92.19    3.60
   4   0 -22  470.95   14.70
  -4   0  22  504.05   14.90
  -4   0 -22  480.05   14.80
  -4   0 -22  491.95   14.60
  -5   0  22   35.80    1.90
   5   0 -22   33.00    1.80
  -5   0 -22   35.20    1.70
   6   0 -22  391.46   12.20
  -6   0  22  401.26   12.20
  -7   0  22   68.79    2.70
   7   0 -22   69.39    2.70
   8   0 -22    4.40    0.50
  -8   0  22    4.10    0.50
   0  -1 -22    0.50    0.40
   0   1 -22    0.50    0.30
   0  -1 -22    0.90    0.40
   0   1 -22   -0.30    0.30
   0  -1  22    0.30    0.50
   0   1 -22    1.20    0.40
   0   1  22    0.80    0.70
   0  -1 -22    0.10    0.30
  -1   1  22    6.80    0.80
  -1  -1 -22    6.60    0.80
   1  -1  22    7.20    1.50
   1   1 -22    5.30    0.70
   1   1 -22    5.80    0.60
  -1  -1 -22    6.20    0.70
  -1  -1 -22    6.60    0.70
   1   1 -22    6.10    0.80
  -1   1  22    5.80    1.20
   1   1  22    6.30    1.60
   1  -1 -22    6.50    0.70
  -1   1 -22    6.00    0.60
   1  -1 -22    6.30    0.80
   1  -1 -22    9.10    0.90
  -1   1 -22    6.10    0.70
  -1  -1  22    5.80    1.30
   2   1 -22   46.40    1.90
  -2  -1 -22   42.20    1.90
   2   1 -22   46.00    2.30
  -2  -1 -22   41.10    2.10
   2   1 -22   42.70    2.10
  -2   1  22   44.80    2.10
  -2  -1 -22   45.70    2.00
   2  -1 -22   43.60    2.10
   2  -1 -22   42.90    1.90
   2  -1 -22   53.49    2.40
  -2   1 -22   40.70    1.90
  -2   1 -22   43.00    1.80
   3   1 -22   76.19    3.90
  -3   1  22   75.19    3.00
  -3  -1 -22   77.79    3.10
  -3  -1 -22   77.99    2.90
  -3  -1 -22   74.09    2.90
   3   1 -22   70.59    2.80
  -3   1 -22   73.09    2.90
   3  -1 -22   78.19    3.10
  -4   1  22   42.50    2.10
  -4  -1 -22   44.30    2.00
  -4  -1 -22   42.50    1.90
   4   1 -22   40.80    1.90
   4   1 -22   40.10    2.00
  -4  -1 -22   44.00    2.10
  -4   1 -22   43.90    1.90
   4  -1 -22   45.50    2.10
  -4  -1  22   43.20    2.10
  -5   1  22  123.89    4.50
  -5  -1 -22  123.19    4.50
   5   1 -22  117.89    4.30
  -5  -1 -22  119.39    4.30
   5  -1 -22  123.29    4.50
  -5  -1  22  124.69    4.50
  -6  -1 -22   40.70    1.80
   6   1 -22   38.50    1.90
  -6  -1 -22   40.80    2.00
  -6   1  22   40.30    2.00
  -6  -1  22   43.80    2.00
   6  -1 -22   39.60    2.00
  -7  -1 -22  236.68    7.50
   7   1 -22  226.38    7.40
  -7   1  22  239.48    7.50
   7  -1 -22  238.88    7.50
  -7  -1  22  238.78    7.50
  -8   1  22  227.68    7.00
   8  -1 -22  233.98    7.10
  -8  -1  22  220.98    7.00
   0  -2 -22  334.87   10.60
   0   2 -22  337.07   10.40
   0  -2 -22  333.17   10.50
   0  -2 -22  318.17   10.20
   0   2 -22  344.87   10.40
   0   2 -22  337.57   10.20
   1   2 -22  871.81   25.20
   1   2 -22  856.61   24.90
  -1  -2 -22  852.81   25.20
  -1  -2 -22  814.72   24.90
  -1  -2 -22  860.41   25.20
   1   2 -22  820.42   25.10
  -1   2 -22  904.21   25.00
  -1   2 -22  877.81   24.90
   1  -2 -22  861.31   25.40
   1  -2 -22  833.92   24.80
   1  -2 -22  853.31   25.20
  -1   2 -22  852.01   25.00
  -2   2  22  107.49    3.90
   2   2 -22  110.99    3.90
   2   2 -22  113.99    4.10
  -2  -2 -22  109.39    4.00
  -2  -2 -22  104.19    3.90
   2   2 -22  112.49    4.20
  -2  -2 -22  107.09    4.10
  -2   2 -22  101.69    3.70
  -2   2 -22  108.19    3.80
   2  -2 -22  113.99    4.10
   2  -2 -22  117.59    4.40
  -3  -2 -22   20.20    1.30
   3   2 -22   19.40    1.60
  -3   2  22   19.00    1.30
  -3  -2 -22   22.70    1.30
   3   2 -22   18.90    1.30
   3   2 -22   19.00    1.20
  -3  -2 -22   19.00    1.30
  -3   2 -22   18.60    1.20
   3  -2 -22   20.50    1.30
  -4   2  22  458.55   14.20
  -4  -2 -22  484.75   14.10
  -4  -2 -22  457.25   14.10
  -4  -2 -22  461.05   14.40
   4   2 -22  469.15   14.00
   4  -2 -22  481.55   14.30
  -4  -2  22  465.15   14.30
   5   2 -22   26.50    1.40
  -5  -2 -22   27.70    1.50
  -5   2  22   27.10    1.60
  -5  -2 -22   26.80    1.50
  -5  -2 -22   28.20    1.70
  -5  -2  22   28.90    1.60
   5  -2 -22   27.80    1.60
  -6  -2 -22  145.29    5.00
  -6  -2 -22  142.09    4.80
  -6   2  22  143.69    4.90
  -6  -2  22  136.09    4.90
   6  -2 -22  140.09    5.00
  -7   2  22   46.80    2.00
  -7  -2 -22   44.10    2.00
  -7  -2  22   42.00    1.90
   7  -2 -22   47.20    2.10
  -8   2  22   50.09    2.00
   0  -3 -22    0.50    0.40
   0   3 -22    0.30    0.30
   0   3 -22    0.50    0.30
   0  -3 -22    0.50    0.40
   0   3 -22    1.20    0.40
   0  -3 -22    0.30    0.40
   1   3 -22   10.30    1.00
  -1  -3 -22    9.50    0.80
  -1  -3 -22    9.80    1.00
  -1  -3 -22    9.00    1.00
   1   3 -22   10.70    0.90
   1   3 -22   10.40    1.00
  -1   3 -22    9.80    0.90
  -1   3 -22   10.40    0.90
   1  -3 -22   11.70    1.10
   1  -3 -22    9.30    0.90
  -1   3 -22    8.90    0.80
  -2  -3 -22  162.58    5.60
  -2  -3 -22  152.88    5.30
  -2  -3 -22  158.08    5.60
   2   3 -22  161.98    5.30
   2   3 -22  163.18    5.50
   2   3 -22  156.08    5.60
  -2   3 -22  153.38    5.20
  -2   3 -22  152.98    5.10
  -2   3 -22  160.28    5.40
   2  -3 -22  159.18    5.50
  -3  -3 -22   84.49    3.40
  -3   3  22   79.19    3.20
   3   3 -22   81.29    3.10
  -3  -3 -22   81.89    3.30
   3   3 -22   89.59    3.40
  -3  -3 -22   80.89    3.20
   3  -3 -22   88.09    3.40
  -3   3 -22   80.09    3.40
  -4  -3 -22  190.78    6.50
   4   3 -22  201.68    6.40
  -4   3  22  191.68    6.50
  -4  -3 -22  197.78    6.60
  -4  -3 -22  205.98    6.80
  -4  -3  22  191.68    6.60
   4  -3 -22  201.58    6.60
   5   3 -22    8.20    0.80
  -5  -3 -22    9.70    0.90
  -5   3  22    9.00    0.90
  -5  -3 -22    8.20    0.80
  -5  -3 -22    9.20    1.00
  -5  -3  22    8.30    0.90
   5  -3 -22    7.70    0.90
  -6  -3 -22  107.19    3.90
  -6  -3 -22  112.69    4.10
   6   3 -22  110.19    3.80
  -6   3  22  116.19    4.10
  -6  -3  22  108.69    4.00
   6  -3 -22  115.29    4.10
  -7   3  22   51.09    2.20
  -7  -3 -22   52.89    2.20
  -7  -3 -22   50.79    2.00
   7  -3 -22   51.99    2.20
  -8   3  22    3.60    0.50
   0  -4 -22    4.20    0.80
   0   4 -22    6.30    0.80
   0  -4 -22    4.80    0.60
   0   4 -22    3.90    0.60
   0   4 -22    5.50    0.80
   0  -4 -22    7.10    0.90
   1   4 -22   55.19    2.50
  -1  -4 -22   56.49    2.30
   1   4 -22   54.19    2.30
  -1  -4 -22   54.59    2.70
  -1  -4 -22   55.69    2.60
  -1   4 -22   55.29    2.40
  -1   4 -22   55.09    2.40
  -1   4 -22   55.49    2.30
   1  -4 -22   53.09    2.50
   2   4 -22   22.80    1.30
  -2  -4 -22   22.80    1.50
  -2  -4 -22   23.00    1.50
   2   4 -22   23.60    1.60
   2   4 -22   22.10    1.40
  -2  -4 -22   21.70    1.30
  -2   4 -22   21.80    1.40
   2  -4 -22   23.30    1.50
  -2   4 -22   21.80    1.30
   3   4 -22  177.08    5.80
  -3  -4 -22  181.18    6.20
  -3  -4 -22  183.68    5.90
  -3  -4 -22  173.28    6.20
   3   4 -22  178.58    6.00
   3  -4 -22  182.08    6.10
  -3   4 -22  166.98    5.90
  -4  -4 -22   79.49    3.10
  -4  -4 -22   76.49    3.30
  -4   4  22   76.89    3.00
   4   4 -22   79.59    3.00
  -4  -4 -22   82.79    3.30
  -4   4 -22   76.89    3.00
   4  -4 -22   84.89    3.30
  -4  -4  22   75.09    3.10
  -5  -4 -22    3.90    0.70
   5   4 -22    3.00    0.60
  -5  -4 -22    3.60    0.70
  -5   4  22    4.30    0.70
  -5  -4 -22    3.80    0.60
   5  -4 -22    6.10    0.80
  -5  -4  22    3.20    0.60
  -6   4  22   43.00    1.90
  -6  -4 -22   43.80    1.90
  -6  -4 -22   42.60    2.00
   6   4 -22   39.10    1.70
  -6  -4  22   39.10    1.80
   6  -4 -22   45.50    2.00
  -7  -4 -22   34.20    1.60
  -7  -4 -22   32.90    1.50
  -7   4  22   33.80    1.50
   7  -4 -22   35.40    1.60
   0   5 -22    0.00    0.30
   0  -5 -22   -0.10    0.40
   0   5 -22    0.10    0.30
   0   5 -22    0.10    0.30
   1   5 -22   92.29    3.30
   1   5 -22   91.09    3.50
  -1  -5 -22   88.19    3.30
  -1  -5 -22   85.49    3.70
  -1  -5 -22   91.59    3.60
   1   5 -22   90.69    3.60
  -1   5 -22   92.89    3.50
  -1   5 -22   89.49    3.50
  -1   5 -22   91.09    3.30
   1  -5 -22   90.69    3.60
  -2  -5 -22   39.60    2.20
  -2  -5 -22   45.20    2.20
  -2  -5 -22   41.90    1.90
   2   5 -22   43.10    1.90
   2   5 -22   41.90    2.20
   2   5 -22   46.10    2.10
  -2   5 -22   42.50    2.10
   2  -5 -22   42.60    2.10
  -2   5 -22   41.70    2.00
   3   5 -22   12.20    1.00
   3   5 -22   12.40    1.00
  -3  -5 -22   12.00    1.10
  -3  -5 -22   11.60    1.10
  -3  -5 -22   13.30    1.00
  -3   5 -22   12.10    1.00
  -3   5 -22   11.90    0.90
   3  -5 -22   12.10    1.10
   4   5 -22  140.29    4.80
  -4  -5 -22  139.69    5.10
  -4  -5 -22  146.79    5.00
  -4  -5 -22  140.69    4.80
  -4  -5  22  143.99    4.90
   4  -5 -22  142.39    4.90
  -4   5 -22  134.49    4.80
  -5  -5 -22   11.90    0.90
  -5  -5 -22   12.10    1.00
   5   5 -22   11.30    0.90
  -5   5  22   10.90    0.90
  -5  -5  22   11.10    0.90
   5  -5 -22   13.30    1.00
   6   5 -22   15.50    0.90
  -6  -5 -22   16.90    1.00
  -6   5  22   14.80    1.00
  -6  -5 -22   16.40    1.10
   6  -5 -22   14.20    1.00
  -7   5  22   34.90    1.50
  -7  -5 -22   34.40    1.40
   0   6 -22    5.00    0.80
   0   6 -22    3.10    0.50
   0   6 -22    5.60    0.80
   0  -6 -22    3.70    0.70
  -1  -6 -22   29.20    1.70
   1   6 -22   28.60    1.40
   1   6 -22   26.90    1.60
   1   6 -22   32.60    1.70
   1  -6 -22   28.00    1.60
  -1   6 -22   27.70    1.60
  -1   6 -22   28.50    1.60
   2   6 -22  105.69    3.80
  -2  -6 -22   98.99    3.70
  -2  -6 -22  104.59    3.90
   2   6 -22  106.29    3.70
  -2   6 -22  103.19    3.80
  -2   6 -22  107.59    3.90
   2  -6 -22  101.29    3.90
   3   6 -22   16.10    1.10
  -3  -6 -22   15.30    1.20
  -3  -6 -22   17.50    1.10
   3   6 -22   17.70    1.10
  -3   6 -22   16.90    1.20
  -4  -6 -22  107.29    3.70
  -4  -6 -22  107.89    3.90
   4   6 -22  104.39    3.70
  -4   6 -22  107.09    3.80
  -4  -6  22  103.99    3.70
   5   6 -22  194.78    6.00
  -5  -6 -22  181.18    6.10
  -5  -6 -22  200.28    6.00
   5  -6 -22  175.88    6.80
  -5   6 -22  190.38    6.00
   6   6 -22   94.49    3.20
  -6  -6 -22   96.69    3.20
   0   7 -22    0.50    0.40
   1   7 -22   18.20    1.20
   1   7 -22   16.80    1.00
  -1   7 -22   17.80    1.20
   2   7 -22   34.20    1.60
   2   7 -22   34.30    1.60
  -2   7 -22   33.90    1.70
   3   7 -22    2.60    0.50
   3   7 -22    2.20    0.50
  -3  -7 -22    2.10    0.40
  -3   7 -22    2.60    0.50
  -4  -7 -22   30.50    1.50
   4   7 -22   31.10    1.40
  -4  -7 -22   29.60    1.40
  -4  -7 -22   29.60    1.40
  -4   7 -22   30.80    1.40
   5   7 -22   37.70    1.50
  -5  -7 -22   37.20    1.50
  -5   7 -22   36.00    1.50
   0   8 -22   92.99    3.30
   1   8 -22   27.60    1.30
  -1   8 -22   27.50    1.40
   2   8 -22  108.59    3.80
   2   8 -22  116.19    3.70
  -2   8 -22  118.59    3.90
   3   8 -22   31.30    1.30
  -3   8 -22   31.90    1.40
   4   8 -22  147.49    4.70
  -4   8 -22  152.68    4.70
  -1   9 -22    1.30    0.30
   0   0 -23    0.00    0.30
   0   0 -23    0.20    0.30
   0   0 -23    0.60    0.40
  -1   0 -23    0.30    0.30
   1   0 -23    0.40    0.40
  -1   0 -23    0.80    0.40
   1   0 -23    0.10    0.30
   1   0 -23    0.80    0.40
   1   0 -23    0.20    0.30
  -1   0 -23    2.10    0.50
  -2   0  23    2.10    0.50
  -2   0 -23    0.60    0.40
   2   0 -23    2.60    0.70
   2   0 -23    0.20    0.30
   2   0 -23    0.50    0.30
  -2   0 -23    0.20    0.40
  -2   0 -23    0.20    0.20
  -3   0 -23    0.60    0.40
  -3   0 -23    0.10    0.40
   3   0 -23    0.70    0.30
   3   0 -23    0.90    0.40
  -3   0  23    0.60    0.40
  -3   0 -23    0.50    0.30
  -4   0  23    1.40    0.50
  -4   0 -23    0.00    0.30
   4   0 -23    0.80    0.40
  -5   0 -23    0.00    0.30
  -5   0  23    0.70    0.40
   5   0 -23    0.40    0.40
   6   0 -23    0.20    0.30
  -6   0  23    0.30    0.40
   7   0 -23    0.30    0.30
  -7   0  23    0.00    0.30
  -8   0  23    0.20    0.20
   0   1 -23    0.10    0.30
   0   1 -23    1.50    0.40
   0  -1 -23    0.20    0.30
   0  -1 -23    0.20    0.30
   0   1 -23    0.30    0.30
   0  -1 -23    0.20    0.30
  -1  -1 -23   70.59    2.80
  -1  -1 -23   67.09    2.90
   1   1 -23   66.39    2.80
   1   1 -23   71.69    2.70
   1   1 -23   69.69    3.00
  -1  -1 -23   71.99    2.90
   1  -1 -23   72.39    3.10
   1  -1 -23   69.29    2.70
  -1   1 -23   70.59    2.80
  -1   1 -23   71.69    2.70
   1  -1 -23   67.29    2.90
   2   1 -23   20.00    1.40
   2   1 -23   19.40    1.10
  -2  -1 -23   21.60    1.30
  -2  -1 -23   19.80    1.20
   2   1 -23   17.50    1.20
  -2  -1 -23   19.70    1.40
  -2   1  23   19.50    1.30
   2  -1 -23   17.30    1.40
  -2   1 -23   19.00    1.10
  -2   1 -23   19.20    1.20
   2  -1 -23   16.90    1.10
   2  -1 -23   18.30    1.30
   3   1 -23   11.10    0.90
  -3  -1 -23    8.70    0.90
  -3   1  23    9.70    0.90
  -3  -1 -23    8.10    0.70
  -3  -1 -23   10.00    0.90
  -3   1 -23    8.90    0.80
  -3  -1  23    9.00    0.90
   3  -1 -23    9.00    0.90
   4   1 -23   45.90    2.20
   4   1 -23   48.30    2.10
  -4   1  23   50.69    2.30
  -4  -1 -23   47.90    2.10
  -4  -1 -23   50.59    2.30
  -4  -1 -23   47.80    2.10
   4  -1 -23   48.60    2.30
  -4  -1  23   49.00    2.30
  -4   1 -23   48.00    2.10
  -5  -1 -23   11.60    0.90
   5   1 -23   10.20    0.90
  -5   1  23   12.20    1.10
  -5  -1 -23   12.60    1.10
  -5  -1  23   11.90    1.10
   5  -1 -23   10.80    1.00
  -6   1  23    0.10    0.40
  -6  -1 -23    0.30    0.30
   6   1 -23    0.00    0.30
  -6  -1 -23    0.30    0.30
  -6  -1  23    0.00    0.40
   6  -1 -23    0.30    0.30
  -7   1  23   23.20    1.30
   7   1 -23   21.70    1.20
  -7  -1 -23   22.90    1.30
  -7  -1  23   23.00    1.30
   7  -1 -23   23.00    1.30
  -8   1  23    1.60    0.40
   0  -2 -23  236.78    7.70
   0   2 -23  224.78    7.30
   0  -2 -23  225.58    7.30
   0  -2 -23  251.17    7.80
   0   2 -23  235.48    7.60
   0   2 -23  221.78    7.50
   1   2 -23  612.94   17.60
  -1  -2 -23  575.84   17.50
  -1  -2 -23  597.74   17.50
   1   2 -23  581.64   17.20
  -1  -2 -23  533.95   17.10
   1   2 -23  561.34   17.40
   1  -2 -23  595.94   17.70
   1  -2 -23  566.54   17.10
  -1   2 -23  562.84   17.20
  -1   2 -23  610.64   17.30
   1  -2 -23  589.84   17.50
  -1   2 -23  569.24   17.30
  -2  -2 -23    3.60    0.70
   2   2 -23    3.70    0.60
  -2  -2 -23    3.10    0.60
   2   2 -23    4.40    0.80
   2   2 -23    3.10    0.70
  -2  -2 -23    3.20    0.60
  -2   2  23    2.90    0.60
   2  -2 -23    3.80    0.70
  -2   2 -23    3.50    0.50
   2  -2 -23    3.10    0.70
  -2   2 -23    3.00    0.60
   3   2 -23    2.10    0.60
  -3  -2 -23    2.40    0.50
  -3  -2 -23    3.10    0.60
  -3  -2 -23    4.30    0.80
  -3   2  23    2.70    0.60
   3   2 -23    2.80    0.50
  -3   2 -23    2.40    0.50
  -4   2  23  150.18    5.30
  -4  -2 -23  147.99    5.20
  -4  -2 -23  156.08    5.40
  -4  -2 -23  151.28    5.20
   4   2 -23  151.78    5.10
  -4  -2  23  152.38    5.40
   4  -2 -23  156.28    5.40
  -5  -2 -23   99.19    3.50
   5   2 -23   99.09    3.40
  -5  -2 -23   86.59    3.50
  -5   2  23   95.79    3.70
  -5  -2 -23   95.19    3.70
   5  -2 -23   98.79    3.70
  -5  -2  23   99.69    3.70
  -6   2  23   41.30    1.90
  -6  -2 -23   38.60    1.90
  -6  -2 -23   38.50    1.80
   6  -2 -23   41.00    2.00
  -6  -2  23   39.80    1.90
  -7  -2 -23    0.50    0.30
  -7   2  23    0.50    0.30
   7  -2 -23    0.80    0.40
  -7  -2  23    0.20    0.30
  -8   2  23    3.50    0.50
   0  -3 -23    0.20    0.40
   0   3 -23    0.20    0.30
   0   3 -23    0.20    0.40
   0  -3 -23    0.20    0.30
   0   3 -23    0.30    0.30
   0  -3 -23    0.00    0.40
  -1  -3 -23  384.06   11.80
   1   3 -23  368.76   11.60
   1   3 -23  369.96   11.50
   1   3 -23  362.76   11.30
  -1  -3 -23  373.86   11.70
  -1  -3 -23  372.26   11.30
   1  -3 -23  370.56   11.60
   1  -3 -23  374.36   11.90
  -1   3 -23  364.96   11.30
  -1   3 -23  366.86   11.40
  -1   3 -23  374.36   11.50
  -2  -3 -23   61.39    2.80
   2   3 -23   62.69    2.50
   2   3 -23   60.99    2.70
   2   3 -23   63.09    2.80
  -2  -3 -23   63.39    2.80
  -2  -3 -23   60.99    2.50
   2  -3 -23   64.49    2.70
  -2   3 -23   59.79    2.60
  -2   3 -23   64.19    2.50
  -2   3 -23   58.19    2.40
   3   3 -23    3.60    0.70
   3   3 -23    3.20    0.60
  -3  -3 -23    4.30    0.70
  -3  -3 -23    2.70    0.60
  -3  -3 -23    5.40    0.70
  -3   3  23    3.60    0.70
   3  -3 -23    5.10    0.80
  -4  -3 -23    0.50    0.40
  -4  -3 -23    0.80    0.40
   4   3 -23    0.70    0.40
  -4   3  23    0.60    0.40
  -4  -3 -23    1.40    0.40
   4  -3 -23    0.80    0.40
  -4  -3  23    0.60    0.40
   5   3 -23   11.40    0.90
  -5  -3 -23   12.00    1.10
  -5   3  23   11.10    1.00
  -5  -3 -23   11.10    1.00
  -5  -3 -23   11.90    1.00
  -5  -3  23   10.50    1.00
   5  -3 -23   11.60    1.00
  -6  -3 -23   44.60    1.90
   6   3 -23   43.30    1.80
  -6   3  23   41.70    2.00
  -6  -3 -23   43.50    2.00
  -6  -3  23   41.60    1.90
   6  -3 -23   43.40    2.00
  -7   3  23   12.60    0.90
  -7  -3 -23   11.80    0.80
  -7  -3 -23   11.60    0.90
   7  -3 -23   11.90    0.90
   0   4 -23  242.68    7.50
   0  -4 -23  236.48    7.40
   0   4 -23  243.28    7.70
   0   4 -23  231.98    7.70
   0  -4 -23  239.28    7.80
   0  -4 -23  225.18    8.00
  -1  -4 -23   81.39    3.10
   1   4 -23   83.29    3.20
   1   4 -23   85.09    3.40
  -1  -4 -23   85.79    3.60
   1   4 -23   84.19    3.50
  -1  -4 -23   86.79    3.50
   1  -4 -23   84.39    3.40
  -1   4 -23   81.99    3.10
  -1   4 -23   91.09    3.30
  -1   4 -23   83.49    3.30
   2   4 -23   15.00    1.30
  -2  -4 -23   16.60    1.10
  -2  -4 -23   17.40    1.30
   2   4 -23   16.60    1.20
   2   4 -23   15.70    1.10
  -2  -4 -23   15.20    1.30
  -2   4 -23   15.40    1.10
  -2   4 -23   15.70    1.10
  -2   4 -23   15.20    1.00
   2  -4 -23   16.40    1.20
  -3  -4 -23    9.70    1.00
   3   4 -23   11.50    1.00
   3   4 -23   11.50    0.90
  -3  -4 -23   10.50    0.90
  -3  -4 -23   10.90    1.10
  -3   4 -23   10.50    0.90
  -3   4 -23    9.60    0.80
   4   4 -23   18.80    1.10
  -4  -4 -23   16.40    1.20
  -4  -4 -23   16.10    1.20
  -4  -4 -23   16.90    1.30
  -4   4  23   16.20    1.10
   4  -4 -23   17.50    1.30
  -4  -4  23   17.90    1.20
  -5   4  23   10.50    0.90
  -5  -4 -23   11.60    0.90
  -5  -4 -23   10.80    1.00
   5   4 -23   10.70    0.80
   5  -4 -23   11.30    1.00
  -5  -4  23   11.30    1.00
  -6  -4 -23    0.90    0.40
  -6  -4 -23    0.80    0.30
  -6   4  23    0.90    0.40
   6   4 -23    1.10    0.30
  -6  -4  23    0.80    0.40
   6  -4 -23    1.00    0.40
  -7  -4 -23    2.70    0.70
  -7  -4 -23    3.10    0.40
  -7   4  23    2.60    0.40
   0   5 -23    0.20    0.30
   0   5 -23    0.10    0.40
   0   5 -23    0.50    0.30
   0  -5 -23    0.50    0.40
  -1  -5 -23   34.90    1.70
  -1  -5 -23   32.10    2.00
   1   5 -23   39.00    1.80
   1   5 -23   36.10    1.90
  -1  -5 -23   36.00    1.90
   1   5 -23   35.30    2.00
  -1   5 -23   34.00    1.60
  -1   5 -23   37.40    1.90
   1  -5 -23   38.20    2.00
  -1   5 -23   37.30    1.80
  -2  -5 -23   40.10    2.20
   2   5 -23   43.00    2.10
  -2  -5 -23   44.00    2.00
   2   5 -23   45.80    1.90
  -2  -5 -23   42.30    2.10
   2   5 -23   39.60    2.10
   2  -5 -23   41.70    2.10
  -2   5 -23   41.50    1.90
  -2   5 -23   40.90    2.00
  -3  -5 -23   22.90    1.50
   3   5 -23   23.20    1.40
   3   5 -23   20.80    1.20
  -3  -5 -23   21.30    1.50
  -3  -5 -23   21.90    1.30
  -3   5 -23   21.30    1.20
  -3   5 -23   23.00    1.30
   3  -5 -23   21.40    1.40
  -4  -5 -23    0.50    0.40
   4   5 -23    0.70    0.30
  -4  -5 -23    0.60    0.40
   4  -5 -23    0.70    0.40
  -4  -5  23    1.00    0.40
  -4   5 -23    0.80    0.40
  -5  -5 -23  154.48    5.20
   5   5 -23  152.08    5.00
  -5  -5 -23  149.09    5.00
  -5   5  23  149.59    5.00
   5  -5 -23  156.18    5.10
  -5  -5  23  150.88    5.00
  -6  -5 -23    2.40    0.50
   6   5 -23    2.10    0.40
  -6  -5 -23    3.20    0.50
  -6   5  23    2.40    0.50
   6  -5 -23    2.30    0.40
   0   6 -23  310.97   10.20
   0   6 -23  332.07    9.90
   0   6 -23  338.17   10.20
   0  -6 -23  317.27   10.20
   1   6 -23    3.90    0.60
  -1  -6 -23    0.70    0.40
   1   6 -23    1.00    0.40
  -1   6 -23    0.70    0.40
   1  -6 -23    0.90    0.40
  -1   6 -23    0.90    0.40
  -2  -6 -23   23.40    1.30
   2   6 -23   21.20    1.30
  -2  -6 -23   21.40    1.40
   2   6 -23   22.40    1.20
  -2   6 -23   23.60    1.40
   2  -6 -23   20.60    1.40
   3   6 -23   44.70    1.80
  -3  -6 -23   39.80    1.90
   3   6 -23   40.30    1.90
  -3  -6 -23   39.80    1.80
  -3   6 -23   41.70    1.90
   3  -6 -23   39.60    1.90
  -4  -6 -23   74.89    2.90
  -4  -6 -23   75.29    2.80
   4   6 -23   76.99    2.70
  -4  -6  23   71.59    2.70
   4  -6 -23   72.19    2.80
  -4   6 -23   73.39    2.80
  -5  -6 -23    2.30    0.50
  -5  -6 -23    4.10    0.50
   5   6 -23    2.40    0.40
  -5   6 -23    3.60    0.50
  -6  -6 -23    4.20    0.50
   6   6 -23    4.00    0.60
   0   7 -23    0.50    0.40
   1   7 -23   29.50    1.50
   1   7 -23   28.30    1.30
  -1   7 -23   28.60    1.50
   2   7 -23    2.30    0.40
   2   7 -23    1.70    0.40
  -2   7 -23    2.70    0.50
  -3  -7 -23  135.79    4.60
   3   7 -23  140.49    4.70
  -3  -7 -23  145.39    4.80
   3   7 -23  150.78    4.70
  -3   7 -23  145.79    4.80
   4   7 -23   40.90    1.60
  -4  -7 -23   40.80    1.60
  -4   7 -23   39.50    1.70
   5   7 -23   18.90    0.90
   0   8 -23    0.40    0.30
   1   8 -23   31.10    1.40
  -1   8 -23   32.10    1.50
   2   8 -23   32.20    1.40
  -2   8 -23   34.00    1.50
   3   8 -23   28.80    1.20
  -3   8 -23   31.80    1.30
   0   0 -24   46.60    2.00
   0   0 -24   46.10    2.20
   0   0 -24   43.70    2.10
   1   0 -24 2904.21   80.99
  -1   0 -24 2766.82   80.99
  -1   0 -24 2831.42   82.09
   1   0 -24 2803.02   81.09
   1   0 -24 2980.60   81.49
   1   0 -24 2796.72   81.19
  -1   0 -24 2821.72   81.19
  -2   0  24   81.79    3.20
   2   0 -24   85.39    3.10
   2   0 -24   84.99    3.50
  -2   0 -24   75.89    4.00
  -2   0 -24   81.09    3.10
   2   0 -24   81.89    3.30
  -2   0 -24   83.69    3.10
  -3   0 -24  228.48    7.30
  -3   0  24  247.58    7.50
   3   0 -24  226.48    7.40
  -3   0 -24  219.38    7.10
   3   0 -24  215.68    7.10
   4   0 -24  282.97    9.10
  -4   0 -24  285.77    9.00
  -4   0  24  294.77    9.20
  -5   0 -24  615.34   18.30
  -5   0  24  642.64   18.60
   5   0 -24  604.24   18.50
   6   0 -24  151.08    5.20
  -6   0  24  158.48    5.30
  -7   0  24   57.19    2.30
   7   0 -24   54.69    2.20
   0   1 -24    0.80    0.40
   0   1 -24    2.10    0.50
   0  -1 -24    0.20    0.30
   0  -1 -24    1.10    0.50
   0  -1 -24    1.20    0.40
   0   1 -24   -0.10    0.30
  -1  -1 -24   18.20    1.20
  -1  -1 -24   18.10    1.30
   1   1 -24   19.30    1.20
  -1  -1 -24   19.10    1.30
   1   1 -24   17.80    1.20
   1   1 -24   25.00    1.50
  -1   1 -24   17.60    1.20
   1  -1 -24   16.50    1.10
   1  -1 -24   17.70    1.30
  -1   1 -24   17.80    1.20
   1  -1 -24   19.00    1.40
   2   1 -24  191.88    6.50
  -2   1  24  200.48    6.60
   2   1 -24  195.78    6.70
  -2  -1 -24  207.58    6.60
  -2  -1 -24  199.78    6.80
  -2  -1 -24  198.98    6.60
   2   1 -24  210.18    7.00
   2  -1 -24  204.38    6.50
   2  -1 -24  201.78    7.00
  -2   1 -24  213.28    6.60
  -2   1 -24  201.48    6.50
   2  -1 -24  203.18    6.80
  -3  -1 -24   62.49    2.50
  -3   1  24   61.29    2.60
  -3  -1 -24   65.79    2.60
   3   1 -24   59.19    2.40
  -3  -1 -24   59.29    2.70
  -3  -1  24   63.69    2.70
  -3   1 -24   60.19    2.50
   3  -1 -24   61.89    2.70
  -3   1 -24   63.09    2.50
  -4   1  24   22.90    1.50
  -4  -1 -24   24.50    1.40
  -4  -1 -24   26.20    1.50
  -4  -1 -24   22.90    1.30
   4   1 -24   23.00    1.30
   4  -1 -24   24.10    1.50
  -4  -1  24   26.60    1.60
  -4   1 -24   22.40    1.30
  -5  -1 -24    6.30    0.70
  -5  -1 -24    5.50    0.60
   5   1 -24    5.40    0.80
  -5  -1 -24    5.00    0.70
  -5   1  24    5.30    0.80
   5  -1 -24    5.40    0.70
  -5  -1  24    5.50    0.80
  -6  -1 -24  319.87    9.60
   6   1 -24  290.27    9.90
  -6   1  24  331.77    9.80
  -6  -1 -24  314.47    9.80
  -6  -1  24  319.47    9.80
   6  -1 -24  312.37    9.80
  -7   1  24  355.76   10.70
   7  -1 -24  351.46   10.70
  -7  -1  24  354.46   10.70
   0   2 -24  163.18    5.80
   0  -2 -24  164.18    5.70
   0  -2 -24  179.98    6.00
   0   2 -24  176.98    5.70
   0  -2 -24  177.48    6.10
   0   2 -24  179.68    6.00
  -1  -2 -24  461.05   14.20
   1   2 -24  485.35   13.90
   1   2 -24  481.95   14.30
  -1  -2 -24  466.05   14.20
  -1  -2 -24  433.16   13.80
   1   2 -24  451.75   14.00
   1  -2 -24  452.65   14.40
   1  -2 -24  464.65   14.20
   1  -2 -24  436.16   13.80
  -1   2 -24  458.65   13.90
  -1   2 -24  464.65   14.00
  -1   2 -24  480.85   14.00
   2   2 -24   52.09    2.20
  -2   2  24   53.79    2.30
   2   2 -24   49.70    2.30
  -2  -2 -24   53.59    2.50
  -2  -2 -24   50.89    2.40
  -2  -2 -24   50.19    2.20
   2   2 -24   50.89    2.50
   2  -2 -24   50.39    2.40
  -2   2 -24   51.99    2.20
  -2   2 -24   49.90    2.10
  -3  -2 -24  624.34   18.70
   3   2 -24  649.43   18.90
   3   2 -24  626.24   18.60
  -3  -2 -24  652.33   19.00
  -3  -2 -24  604.64   18.80
  -3   2  24  618.44   18.80
  -3   2 -24  611.74   18.60
   3  -2 -24  655.93   18.90
  -4   2  24   71.99    2.80
  -4  -2 -24   63.19    2.70
   4   2 -24   65.59    2.60
  -4  -2 -24   71.79    3.00
  -4  -2 -24   69.59    2.70
   4  -2 -24   68.09    2.90
  -4  -2  24   68.29    2.90
  -5  -2 -24  161.28    5.60
  -5   2  24  175.38    5.60
   5   2 -24  153.08    5.30
  -5  -2 -24  161.08    5.40
  -5  -2  24  169.18    5.60
   5  -2 -24  161.78    5.60
  -6   2  24   34.70    1.70
  -6  -2 -24   32.40    1.70
  -6  -2 -24   36.10    1.60
   6  -2 -24   35.30    1.70
  -6  -2  24   36.10    1.70
  -7  -2 -24  159.58    5.30
  -7   2  24  167.28    5.30
   7  -2 -24  163.58    5.30
  -7  -2  24  158.98    5.20
   0  -3 -24    0.40    0.40
   0  -3 -24    0.10    0.30
   0   3 -24    0.30    0.30
   0   3 -24    0.50    0.40
   0  -3 -24    0.30    0.40
   0   3 -24    0.40    0.40
   1   3 -24    9.10    0.80
  -1  -3 -24    8.30    0.80
   1   3 -24    8.60    1.00
  -1  -3 -24    9.10    1.00
  -1  -3 -24    8.20    1.00
   1   3 -24    7.70    0.90
  -1   3 -24    7.90    0.80
   1  -3 -24    8.60    0.90
   1  -3 -24    7.10    1.00
  -1   3 -24    8.50    0.80
  -1   3 -24    9.20    0.80
  -2  -3 -24   38.10    2.00
   2   3 -24   37.80    2.00
   2   3 -24   36.70    2.10
  -2  -3 -24   40.90    1.90
  -2  -3 -24   37.00    2.00
   2   3 -24   40.10    1.80
  -2   3 -24   38.30    1.80
  -2   3 -24   33.70    1.80
   2  -3 -24   39.60    2.00
  -2   3 -24   37.30    1.70
  -3  -3 -24  235.48    7.90
  -3  -3 -24  241.48    7.70
   3   3 -24  239.98    7.60
   3   3 -24  242.58    7.80
  -3  -3 -24  241.88    7.90
  -3   3  24  231.38    7.60
   3  -3 -24  244.48    7.90
  -4  -3 -24   93.19    3.70
  -4  -3 -24   99.69    3.60
  -4  -3 -24   98.89    3.80
   4   3 -24  100.79    3.60
  -4   3  24   97.99    3.70
   4  -3 -24  101.99    3.80
  -4  -3  24   99.19    3.80
  -5  -3 -24  131.69    4.40
   5   3 -24  127.19    4.30
  -5  -3 -24  119.79    4.50
  -5   3  24  137.19    4.50
  -5  -3  24  119.99    4.50
   5  -3 -24  128.79    4.60
  -6   3  24    1.30    0.40
  -6  -3 -24    0.60    0.30
  -6  -3 -24    0.60    0.30
   6  -3 -24    1.00    0.40
  -6  -3  24    0.90    0.40
  -7  -3 -24   21.40    1.40
  -7  -3 -24   20.20    1.00
  -7   3  24   20.20    1.10
   7  -3 -24   22.30    1.20
   0  -4 -24    5.20    0.80
   0   4 -24    4.60    0.60
   0  -4 -24    4.70    0.60
   0  -4 -24    4.50    0.80
   0   4 -24    5.80    0.80
   0   4 -24    4.90    0.70
  -1  -4 -24  114.39    4.20
   1   4 -24  113.19    4.10
  -1  -4 -24  103.69    3.90
  -1  -4 -24  103.19    4.30
   1   4 -24  110.09    3.90
   1   4 -24  107.79    4.20
   1  -4 -24  112.39    4.20
  -1   4 -24  107.39    4.00
  -1   4 -24  111.99    4.10
  -1   4 -24  114.69    3.90
   2   4 -24    3.10    0.60
   2   4 -24    2.60    0.60
  -2  -4 -24    4.00    0.70
  -2  -4 -24    5.70    0.80
  -2  -4 -24    3.50    0.60
   2   4 -24    3.20    0.70
  -2   4 -24    3.10    0.60
  -2   4 -24    5.10    0.60
   2  -4 -24    3.30    0.60
  -2   4 -24    3.60    0.60
  -3  -4 -24   94.39    3.70
  -3  -4 -24   91.49    3.70
   3   4 -24   94.99    3.60
   3   4 -24   92.79    3.40
  -3  -4 -24   94.79    3.40
   3  -4 -24   93.39    3.60
  -3   4 -24   88.09    3.40
  -3   4 -24   87.19    3.20
  -4  -4 -24    0.40    0.40
  -4  -4 -24    0.30    0.30
   4   4 -24   -0.20    0.30
  -4   4  24    0.30    0.40
   4  -4 -24    0.50    0.40
  -4  -4  24    0.40    0.40
  -5  -4 -24   69.49    2.80
  -5  -4 -24   70.39    2.70
   5   4 -24   74.09    2.60
  -5   4  24   67.89    2.70
  -5  -4  24   66.89    2.70
   5  -4 -24   70.99    2.80
  -6  -4 -24    9.70    0.80
  -6   4  24    8.70    0.80
   6   4 -24    9.90    0.70
  -6  -4 -24   10.90    0.80
   6  -4 -24    9.30    0.80
  -6  -4  24   10.50    0.80
   0   5 -24   -0.10    0.30
   0  -5 -24    0.20    0.40
   0   5 -24    0.00    0.30
   0   5 -24    0.20    0.40
   1   5 -24    0.10    0.40
   1   5 -24    0.20    0.30
  -1  -5 -24    0.60    0.40
  -1  -5 -24    0.20    0.40
   1   5 -24    0.40    0.40
  -1  -5 -24    0.30    0.40
  -1   5 -24    1.00    0.30
  -1   5 -24    0.70    0.40
  -1   5 -24    0.50    0.30
   1  -5 -24    0.40    0.40
  -2  -5 -24   33.50    1.70
   2   5 -24   33.70    1.60
  -2  -5 -24   34.40    1.80
   2   5 -24   32.90    1.90
   2   5 -24   34.70    1.80
  -2  -5 -24   31.20    1.90
   2  -5 -24   36.40    1.90
  -2   5 -24   35.30    1.80
  -2   5 -24   33.70    1.70
  -3  -5 -24    0.30    0.30
  -3  -5 -24    0.60    0.40
   3   5 -24    1.00    0.40
   3   5 -24    0.60    0.30
  -3   5 -24    0.70    0.40
   3  -5 -24    0.60    0.40
   4   5 -24    1.90    0.40
  -4  -5 -24    2.50    0.60
  -4  -5 -24    2.10    0.50
  -4  -5  24    2.00    0.50
  -4   5 -24    2.70    0.50
   4  -5 -24    2.30    0.50
  -5  -5 -24  152.78    5.10
  -5  -5 -24  155.68    4.90
   5   5 -24  151.88    4.90
  -5   5  24  148.59    4.90
  -5  -5  24  140.59    4.90
   5  -5 -24  156.18    5.00
  -6   5  24   19.20    1.00
  -6  -5 -24   18.80    1.00
  -6  -5 -24   20.10    1.20
   6   5 -24   19.40    0.90
   0   6 -24    1.60    0.50
   0  -6 -24    1.90    0.60
   0   6 -24    1.80    0.40
   1   6 -24  342.57   10.50
  -1  -6 -24  333.07   10.50
   1   6 -24  336.87   10.30
  -1   6 -24  351.36   10.50
   1  -6 -24  333.97   10.60
   2   6 -24    0.40    0.40
  -2  -6 -24    0.50    0.40
  -2  -6 -24    0.30    0.30
   2   6 -24    0.30    0.30
   2  -6 -24    0.30    0.40
  -2   6 -24    1.00    0.40
  -3  -6 -24  262.47    8.30
   3   6 -24  275.87    8.30
   3   6 -24  268.27    8.40
  -3  -6 -24  274.17    8.50
   3  -6 -24  273.27    8.50
  -3   6 -24  271.37    8.40
  -4  -6 -24    3.80    0.60
  -4  -6 -24    4.10    0.60
   4   6 -24    3.90    0.50
  -4  -6  24    3.90    0.60
   4  -6 -24    3.40    0.60
  -4   6 -24    4.40    0.60
  -5  -6 -24   23.80    1.20
   5   6 -24   24.50    1.10
  -5  -6 -24   24.50    1.30
   0   7 -24    1.10    0.40
   1   7 -24    1.40    0.40
   1   7 -24    0.80    0.40
  -1   7 -24    2.10    0.50
  -2  -7 -24    0.30    0.30
   2   7 -24    1.10    0.40
   2   7 -24    0.60    0.30
  -2   7 -24    0.60    0.30
   3   7 -24    4.50    0.50
  -3  -7 -24    4.70    0.50
  -3  -7 -24    4.50    0.50
  -3  -7  24    5.40    0.60
  -3   7 -24    4.30    0.60
   4   7 -24   16.30    0.80
  -4  -7 -24   16.00    0.90
  -4   7 -24   15.60    0.90
   1   8 -24  326.47    9.80
  -1   8 -24  330.97    9.90
  -2   8 -24    7.10    0.60
   0   0 -25    0.40    0.40
   0   0 -25    0.40    0.40
   0   0 -25    0.50    0.40
  -1   0  25    2.40    0.60
  -1   0 -25    0.90    0.40
  -1   0 -25    0.10    0.50
   1   0 -25    3.30    0.60
   1   0 -25    0.80    0.40
   1   0 -25    2.10    0.60
  -1   0 -25    0.60    0.40
   2   0 -25    0.30    0.30
   2   0 -25    0.50    0.50
   2   0 -25    1.40    0.40
  -2   0  25    0.20    0.30
  -2   0 -25    0.00    0.30
  -2   0 -25    0.10    0.20
  -3   0 -25    0.20    0.30
   3   0 -25    1.50    0.50
  -3   0  25    0.60    0.40
   3   0 -25    0.90    0.40
  -3   0 -25    1.30    0.40
  -4   0  25    1.70    0.50
  -4   0 -25    0.50    0.30
   4   0 -25    0.50    0.40
  -5   0 -25    0.30    0.30
  -5   0  25    1.30    0.50
   5   0 -25    0.50    0.40
  -6   0  25    0.50    0.40
   6   0 -25    0.50    0.30
  -7   0  25    0.50    0.30
   7   0 -25    0.50    0.40
   0  -1 -25    0.30    0.40
   0   1 -25    0.00    0.30
   0  -1 -25    0.80    0.40
   0   1 -25    1.20    0.50
   0  -1 -25    0.10    0.30
   0   1 -25    0.10    0.30
   1   1 -25   81.19    3.30
  -1  -1 -25   85.39    3.30
  -1  -1 -25   90.89    3.50
   1   1 -25   87.29    3.60
   1   1 -25   85.89    3.20
  -1  -1 -25   86.39    3.50
   1  -1 -25   86.69    3.40
   1  -1 -25   86.89    3.60
  -1   1 -25   83.09    3.30
   1  -1 -25   90.09    3.20
  -1   1 -25   84.79    3.20
  -2  -1 -25   65.09    2.60
  -2   1  25   58.39    2.60
  -2  -1 -25   61.99    2.70
   2   1 -25   62.49    2.50
   2   1 -25   61.49    2.70
  -2  -1 -25   68.29    2.70
   2   1 -25   62.79    2.90
  -2   1 -25   65.09    2.60
  -2   1 -25   61.29    2.50
   2  -1 -25   64.19    2.70
   2  -1 -25   60.69    2.50
   2  -1 -25   63.99    3.00
  -3  -1 -25   23.40    1.50
  -3  -1 -25   23.10    1.40
  -3   1  25   25.90    1.50
  -3  -1 -25   23.60    1.40
   3   1 -25   23.30    1.30
  -3  -1  25   25.10    1.50
  -3   1 -25   23.10    1.20
  -3   1 -25   22.80    1.30
   3  -1 -25   24.90    1.50
   4   1 -25   17.30    1.10
  -4   1  25   21.00    1.40
  -4  -1 -25   20.70    1.20
  -4  -1 -25   18.80    1.30
  -4  -1 -25   19.80    1.20
  -4  -1  25   21.50    1.40
  -4   1 -25   18.50    1.10
   4  -1 -25   17.90    1.30
  -5   1  25   51.59    2.30
  -5  -1 -25   50.69    2.10
  -5  -1 -25   50.19    2.30
  -5  -1  25   50.99    2.30
   5  -1 -25   51.39    2.30
  -6  -1 -25   10.50    0.90
  -6  -1 -25   10.80    0.80
  -6   1  25   10.80    0.90
   6  -1 -25   10.50    0.90
  -6  -1  25   10.20    0.90
  -7   1  25   30.60    1.40
   7  -1 -25   31.60    1.50
  -7  -1  25   29.50    1.40
   0  -2 -25    2.50    0.60
   0   2 -25    2.40    0.60
   0   2 -25    2.20    0.60
   0  -2 -25    2.60    0.70
   0   2 -25    1.80    0.50
   0  -2 -25    2.40    0.50
   1   2 -25  471.05   13.70
  -1  -2 -25  444.36   14.00
   1   2 -25  467.45   14.00
   1   2 -25  439.66   13.80
  -1  -2 -25  422.96   13.60
  -1  -2 -25  458.25   14.00
   1  -2 -25  472.65   13.60
   1  -2 -25  453.45   14.20
  -1   2 -25  449.66   13.70
   1  -2 -25  453.55   13.90
  -1   2 -25  462.35   13.70
  -1   2 -25  434.06   13.60
  -2  -2 -25  205.28    6.90
  -2  -2 -25  213.68    6.70
   2   2 -25  211.98    6.90
  -2  -2 -25  209.48    7.00
   2   2 -25  201.68    6.60
   2   2 -25  200.08    7.10
  -2   2 -25  199.78    6.60
  -2   2 -25  208.28    6.60
   2  -2 -25  203.78    6.90
   3   2 -25   25.40    1.40
  -3  -2 -25   26.80    1.50
  -3  -2 -25   30.60    1.70
  -3  -2 -25   27.30    1.70
  -3   2  25   27.10    1.50
   3  -2 -25   29.00    1.70
  -3   2 -25   30.30    1.50
  -3  -2  25   27.60    1.60
  -4  -2 -25    2.30    0.60
   4   2 -25    0.90    0.30
  -4  -2 -25    0.20    0.30
  -4  -2 -25    0.20    0.30
  -4   2  25    0.70    0.40
  -4  -2  25    0.90    0.40
   4  -2 -25    0.10    0.40
  -5   2  25   27.00    1.50
  -5  -2 -25   25.30    1.40
   5   2 -25   24.30    1.30
  -5  -2 -25   23.70    1.50
   5  -2 -25   25.30    1.50
  -5  -2  25   25.20    1.50
  -6   2  25   68.69    2.70
  -6  -2 -25   69.99    2.50
  -6  -2 -25   66.99    2.70
   6  -2 -25   69.89    2.70
  -6  -2  25   65.89    2.60
  -7   2  25    0.20    0.30
  -7  -2  25    0.30    0.30
   7  -2 -25    0.60    0.40
   0  -3 -25    0.10    0.40
   0   3 -25    0.70    0.40
   0  -3 -25    0.70    0.40
   0   3 -25    3.80    0.70
   0   3 -25    0.80    0.40
   0  -3 -25    0.90    0.50
   1   3 -25    0.80    0.40
  -1  -3 -25    0.10    0.30
   1   3 -25    0.10    0.30
   1   3 -25    0.50    0.30
  -1  -3 -25    0.70    0.40
  -1  -3 -25    0.90    0.50
   1  -3 -25    1.00    0.50
  -1   3 -25    0.70    0.40
   1  -3 -25    0.40    0.40
  -1   3 -25    1.10    0.40
  -2  -3 -25   34.20    1.80
  -2  -3 -25   28.30    1.70
   2   3 -25   31.50    1.60
   2   3 -25   27.80    1.80
  -2  -3 -25   28.90    1.50
   2   3 -25   30.20    1.70
  -2   3 -25   26.60    1.50
  -2   3 -25   29.90    1.50
  -2   3 -25   29.80    1.50
   2  -3 -25   31.20    1.70
  -3   3  25    3.70    0.70
  -3  -3 -25    3.00    0.70
  -3  -3 -25    2.80    0.60
   3   3 -25    2.80    0.50
  -3  -3 -25    2.80    0.60
   3   3 -25    5.00    0.80
  -3   3 -25    3.10    0.50
  -3   3 -25    3.40    0.60
  -4   3  25   19.60    1.30
  -4  -3 -25   20.40    1.40
   4   3 -25   21.00    1.20
  -4  -3 -25   21.20    1.30
  -4  -3 -25   20.60    1.40
  -4  -3  25   22.40    1.40
   4  -3 -25   21.50    1.40
   5   3 -25   97.59    3.50
  -5   3  25  105.99    3.70
  -5  -3 -25   98.69    3.70
  -5  -3 -25  100.69    3.60
   5  -3 -25  101.69    3.80
  -5  -3  25  103.09    3.70
  -6  -3 -25    1.20    0.40
  -6   3  25    1.10    0.40
  -6  -3 -25    0.90    0.40
   6  -3 -25    1.00    0.40
  -6  -3  25    1.30    0.40
  -7   3  25   61.79    2.30
   0  -4 -25  133.49    4.50
   0   4 -25  136.49    4.80
   0  -4 -25  137.49    4.90
   0   4 -25  127.89    4.50
   0   4 -25  133.99    4.80
   0  -4 -25  132.39    5.10
  -1  -4 -25   13.00    1.20
   1   4 -25   11.60    1.00
  -1  -4 -25   10.50    1.10
   1   4 -25   13.30    1.00
  -1  -4 -25   11.70    0.90
   1   4 -25   10.60    1.10
  -1   4 -25   11.70    0.90
   1  -4 -25   14.00    1.20
  -1   4 -25   11.30    1.00
  -1   4 -25   18.00    1.20
  -2  -4 -25    5.70    0.70
   2   4 -25    6.10    0.80
  -2  -4 -25    5.40    0.80
  -2  -4 -25    5.00    0.80
   2   4 -25    6.00    0.70
   2   4 -25    6.50    0.90
  -2   4 -25    5.10    0.60
   2  -4 -25    7.50    0.90
  -2   4 -25    6.00    0.70
  -2   4 -25    5.90    0.80
   3   4 -25    6.60    0.80
   3   4 -25    6.30    0.70
  -3  -4 -25    5.60    0.80
  -3  -4 -25    6.10    0.70
  -3  -4 -25    5.60    0.80
  -3   4 -25    6.50    0.70
   3  -4 -25    6.40    0.80
  -4   4  25   10.90    0.90
   4   4 -25   10.90    0.90
  -4  -4 -25    9.40    0.90
  -4  -4 -25   11.80    0.90
  -4  -4  25   10.60    1.00
   4  -4 -25   11.10    1.00
  -5  -4 -25   95.59    3.40
  -5   4  25   94.39    3.40
  -5  -4 -25   96.39    3.50
   5   4 -25   97.09    3.30
   5  -4 -25   96.99    3.50
  -5  -4  25   92.99    3.40
   6   4 -25   63.89    2.30
  -6  -4 -25   71.19    2.50
  -6  -4 -25   69.89    2.60
  -6   4  25   65.89    2.40
   6  -4 -25   70.79    2.60
  -6  -4  25   63.29    2.50
   0   5 -25    0.50    0.40
   0   5 -25    0.10    0.30
   0   5 -25    0.80    0.40
   0  -5 -25    1.40    0.50
   1   5 -25  130.39    4.40
   1   5 -25  137.09    4.60
   1   5 -25  118.99    4.60
  -1  -5 -25  122.79    4.30
  -1  -5 -25  132.59    4.70
  -1   5 -25  127.69    4.30
   1  -5 -25  132.59    4.70
  -1   5 -25  128.19    4.50
  -1   5 -25  123.99    4.50
  -2  -5 -25    0.00    0.40
   2   5 -25    1.20    0.50
  -2  -5 -25    0.50    0.40
   2   5 -25    0.40    0.30
   2  -5 -25    0.40    0.40
  -2   5 -25    0.60    0.40
   3   5 -25  127.39    4.30
  -3  -5 -25  131.19    4.60
  -3  -5 -25  130.29    4.40
   3   5 -25  130.19    4.50
  -3   5 -25  125.39    4.40
   3  -5 -25  128.59    4.60
  -4  -5 -25   20.10    1.30
   4   5 -25   22.30    1.20
  -4  -5 -25   20.60    1.20
  -4  -5  25   20.40    1.20
   4  -5 -25   21.80    1.30
  -4   5 -25   19.50    1.10
  -5  -5 -25    0.50    0.30
  -5  -5 -25    1.00    0.40
   5   5 -25    0.90    0.30
   5  -5 -25    1.20    0.40
  -5  -5  25    0.90    0.30
  -6  -5 -25    1.20    0.30
   0  -6 -25    7.40    0.80
   0   6 -25    8.20    0.70
   0   6 -25    8.70    0.90
   1   6 -25  148.79    4.90
   1   6 -25  136.09    4.70
  -1  -6 -25  144.09    4.90
  -1   6 -25  151.28    4.90
   1  -6 -25  137.49    4.90
  -2  -6 -25  122.99    4.30
  -2  -6 -25  132.39    4.50
   2   6 -25  135.29    4.30
   2   6 -25  129.69    4.40
   2  -6 -25  127.89    4.50
  -2   6 -25  125.89    4.40
   3   6 -25    5.50    0.60
   3   6 -25    5.80    0.70
  -3  -6 -25    5.90    0.70
  -3  -6 -25    5.80    0.60
  -3   6 -25    6.30    0.70
   3  -6 -25    5.60    0.70
  -4  -6 -25    9.00    0.70
  -4  -6 -25    9.30    0.80
   4   6 -25    9.70    0.70
  -4  -6  25    8.30    0.70
  -4   6 -25    9.00    0.70
   4  -6 -25    8.40    0.70
   5   6 -25   53.29    1.90
  -5  -6 -25   54.49    2.00
   0  -7 -25    0.30    0.30
   0   7 -25    0.50    0.30
   1   7 -25   26.40    1.30
   1   7 -25   24.60    1.20
  -1  -7 -25   23.90    1.30
   1  -7 -25   23.80    1.60
  -1   7 -25   27.10    1.30
  -2  -7 -25    3.30    0.50
   2   7 -25    3.50    0.50
   2   7 -25    3.20    0.50
  -2   7 -25    3.10    0.50
   3   7 -25    6.70    0.50
  -3   7 -25    8.10    0.60
  -3  -7  25    6.80    0.60
   0   8 -25   38.40    1.60
  -1   8 -25    1.10    0.30
   0   0 -26 2099.49   59.79
   0   0 -26 2040.30   59.39
   0   0 -26 2095.99   59.79
  -1   0 -26    5.30    0.70
   1   0 -26    5.50    0.80
   1   0 -26    5.50    0.70
  -1   0  26    6.40    0.80
   1   0 -26    5.50    0.80
  -1   0 -26    6.20    0.80
   2   0 -26   27.20    1.60
  -2   0  26   31.40    1.70
  -2   0 -26   31.00    1.60
   2   0 -26   28.00    1.80
  -2   0 -26   28.70    1.60
   3   0 -26  655.13   20.00
   3   0 -26  680.03   19.80
  -3   0 -26  712.33   19.90
  -3   0 -26  642.54   19.80
  -3   0  26  677.53   20.00
  -4   0 -26    1.30    0.40
  -4   0  26    1.40    0.50
   4   0 -26    4.10    0.70
  -4   0 -26    0.90    0.30
   5   0 -26  345.57   10.90
  -5   0  26  356.46   11.00
  -5   0 -26  369.36   10.80
  -6   0  26  123.19    4.10
   6   0 -26  112.99    4.00
  -7   0  26  442.06   13.00
   0   1 -26    0.40    0.40
   0  -1 -26    0.10    0.30
   0  -1 -26    0.10    0.30
   0   1 -26   -0.10    0.30
   0  -1 -26    1.50    0.40
   0   1 -26    0.00    0.30
   1   1 -26   18.70    1.30
   1   1 -26   19.30    1.20
  -1  -1 -26   19.60    1.20
  -1  -1 -26   17.80    1.30
   1   1 -26   21.10    1.50
  -1  -1 -26   17.10    1.30
   1  -1 -26   19.50    1.50
   1  -1 -26   20.60    1.20
  -1   1 -26   19.80    1.20
   1  -1 -26   22.10    1.40
  -1   1 -26   20.00    1.30
   2   1 -26   12.50    1.20
  -2  -1 -26   12.60    1.10
  -2   1  26   13.50    1.00
  -2  -1 -26   14.50    1.00
   2   1 -26   14.60    1.00
  -2  -1 -26   12.90    1.00
  -2   1 -26   13.90    1.00
   2  -1 -26   13.60    1.10
   2  -1 -26   13.40    1.60
  -2   1 -26   13.90    1.00
  -2  -1  26   13.20    1.10
   2  -1 -26   12.80    0.90
   3   1 -26    0.20    0.30
  -3  -1 -26    0.10    0.30
  -3  -1 -26    0.70    0.40
  -3  -1 -26    0.80    0.40
  -3   1  26    2.10    0.50
  -3   1 -26    1.60    0.40
  -3  -1  26    1.30    0.50
   3  -1 -26    0.30    0.30
  -3   1 -26    0.50    0.30
  -4   1  26    4.80    0.70
   4   1 -26    4.50    0.60
  -4  -1 -26    4.50    0.70
  -4  -1 -26    4.70    0.60
  -4  -1 -26    6.20    0.70
  -4  -1  26    5.10    0.80
   4  -1 -26    5.30    0.70
  -4   1 -26    5.80    0.70
  -5   1  26   75.69    2.90
  -5  -1 -26   69.09    2.70
  -5  -1 -26   69.79    2.80
  -5  -1  26   74.69    2.90
   5  -1 -26   68.39    2.80
  -6  -1 -26    8.60    0.70
  -6   1  26    8.70    0.80
  -6  -1  26    8.20    0.80
   6  -1 -26    8.90    0.80
  -7   1  26  158.18    5.00
  -7  -1  26  154.58    4.90
   0   2 -26   79.29    3.20
   0   2 -26   83.39    3.40
   0   2 -26   82.99    3.20
   0  -2 -26   83.89    3.50
   0  -2 -26   85.89    3.20
   0  -2 -26   85.69    3.40
  -1  -2 -26  554.84   16.50
   1   2 -26  549.15   16.50
  -1  -2 -26  565.84   16.90
   1   2 -26  551.14   16.70
   1   2 -26  557.54   16.90
  -1  -2 -26  549.15   16.90
   1  -2 -26  565.64   16.80
  -1   2 -26  556.64   16.70
  -1   2 -26  561.34   16.50
   1  -2 -26  549.65   17.10
   1  -2 -26  549.95   16.50
  -1   2 -26  554.74   16.60
  -2  -2 -26  107.29    4.00
  -2  -2 -26  103.79    4.00
   2   2 -26  103.29    4.10
   2   2 -26  103.29    3.90
  -2  -2 -26  107.19    3.80
   2   2 -26  100.89    3.70
  -2   2 -26  102.69    3.70
  -2   2 -26  103.69    3.70
   2  -2 -26  105.39    4.00
   3   2 -26  355.06   11.00
  -3  -2 -26  369.16   11.20
  -3   2  26  386.86   11.20
  -3  -2 -26  374.86   11.40
  -3  -2 -26  367.16   11.30
  -3   2 -26  361.06   11.00
   3  -2 -26  354.56   11.30
  -3  -2  26  371.06   11.30
  -3   2 -26  337.57   10.90
   4   2 -26    4.30    0.60
  -4  -2 -26    4.60    0.70
  -4  -2 -26    3.60    0.70
  -4   2  26    3.90    0.70
  -4  -2  26    3.40    0.70
   4  -2 -26    4.00    0.70
  -5  -2 -26  179.38    5.70
  -5   2  26  181.68    5.80
  -5  -2 -26  173.48    5.90
   5   2 -26  175.68    5.60
  -5  -2  26  176.98    5.90
   5  -2 -26  174.38    5.90
  -6   2  26   25.40    1.30
  -6  -2 -26   25.30    1.20
  -6  -2 -26   24.30    1.30
   6  -2 -26   23.40    1.30
  -6  -2  26   24.60    1.30
  -7   2  26  198.68    6.30
   0  -3 -26    0.60    0.40
   0   3 -26    0.30    0.30
   0   3 -26    1.70    0.50
   0  -3 -26    0.70    0.40
   0   3 -26    0.30    0.40
   0  -3 -26    0.00    0.30
  -1  -3 -26    0.40    0.40
   1   3 -26    0.50    0.40
   1   3 -26    0.30    0.30
   1   3 -26    0.60    0.40
  -1  -3 -26    0.30    0.30
  -1  -3 -26    0.50    0.40
  -1   3 -26    0.30    0.30
  -1   3 -26    0.50    0.40
  -1   3 -26    0.50    0.30
   1  -3 -26    0.60    0.40
   2   3 -26   24.30    1.50
  -2  -3 -26   25.70    1.60
   2   3 -26   23.10    1.60
  -2  -3 -26   25.90    1.60
   2   3 -26   26.40    1.40
  -2  -3 -26   23.10    1.40
  -2   3 -26   22.30    1.30
  -2   3 -26   22.90    1.30
   2  -3 -26   22.50    1.50
  -2   3 -26   23.00    1.30
   3   3 -26    1.90    0.50
  -3  -3 -26    1.90    0.50
  -3  -3 -26    2.40    0.60
  -3  -3 -26    0.80    0.40
  -3   3 -26    1.00    0.40
   3  -3 -26    2.70    0.60
  -3   3 -26    1.40    0.40
  -3  -3  26    1.30    0.50
  -4   3  26   19.00    1.20
  -4  -3 -26   18.80    1.30
   4   3 -26   19.20    1.10
  -4  -3 -26   18.30    1.20
  -4  -3  26   18.20    1.20
   4  -3 -26   18.00    1.20
  -5  -3 -26    4.50    0.60
  -5  -3 -26    4.30    0.70
   5   3 -26    4.70    0.60
  -5   3  26    5.00    0.60
  -5  -3  26    5.40    0.70
   5  -3 -26    3.90    0.60
  -6  -3 -26   42.60    1.80
  -6   3  26   42.60    1.80
  -6  -3 -26   42.80    1.70
  -6  -3  26   41.90    1.70
   6  -3 -26   44.60    1.90
   0   4 -26   34.70    1.80
   0   4 -26   30.40    1.70
   0   4 -26   31.90    1.60
   0  -4 -26   30.70    1.80
   0  -4 -26   29.20    1.50
   1   4 -26 1357.16   40.30
  -1  -4 -26 1322.47   40.40
  -1  -4 -26 1423.86   40.30
   1   4 -26 1403.36   40.20
   1   4 -26 1428.66   40.00
  -1  -4 -26 1402.56   39.90
  -1   4 -26 1349.77   40.10
   1  -4 -26 1441.46   40.30
  -1   4 -26 1387.96   40.10
  -1   4 -26 1362.86   39.90
  -2  -4 -26   11.20    1.10
   2   4 -26   13.30    1.10
  -2  -4 -26   14.30    1.00
  -2  -4 -26   12.20    1.10
   2   4 -26   13.20    1.00
  -2   4 -26   12.50    1.00
  -2   4 -26   12.50    0.90
  -2   4 -26   12.00    1.00
   2  -4 -26   12.80    1.10
   3   4 -26  495.45   14.30
  -3  -4 -26  481.05   14.40
  -3  -4 -26  480.85   14.60
   3  -4 -26  487.55   14.60
  -3   4 -26  460.45   14.30
  -4  -4 -26    5.30    0.70
  -4  -4 -26    5.50    0.70
   4   4 -26    5.70    0.60
   4  -4 -26    6.00    0.70
  -4  -4  26    5.30    0.70
  -5   4  26   55.29    2.10
   5   4 -26   56.59    2.10
  -5  -4 -26   55.59    2.20
  -5  -4 -26   53.09    2.30
   5  -4 -26   56.89    2.30
  -5  -4  26   55.29    2.20
  -6  -4 -26   17.40    0.90
   0   5 -26    0.20    0.30
   0   5 -26    0.30    0.30
   0  -5 -26    0.30    0.40
   1   5 -26   48.20    2.00
  -1  -5 -26   47.70    2.20
   1   5 -26   47.80    2.20
  -1  -5 -26   43.30    1.90
  -1   5 -26   47.10    1.90
   1  -5 -26   45.40    2.20
  -1   5 -26   46.10    2.10
   2   5 -26   16.70    1.00
   2   5 -26   15.50    1.10
  -2  -5 -26   16.80    1.10
  -2  -5 -26   15.90    1.20
   2  -5 -26   16.50    1.20
  -2   5 -26   16.80    1.10
   3   5 -26  103.99    3.50
  -3  -5 -26  103.29    3.70
  -3  -5 -26  103.29    3.60
   3  -5 -26  100.69    3.70
  -3   5 -26   96.89    3.50
   4   5 -26   20.20    1.10
  -4  -5 -26   19.10    1.20
  -4  -5 -26   20.30    1.10
  -4  -5  26   18.30    1.10
   4  -5 -26   18.10    1.10
   5   5 -26   17.60    0.90
  -5  -5 -26   17.30    1.00
  -5  -5 -26   17.80    1.00
  -5  -5  26   16.80    0.90
   0   6 -26    7.40    0.80
   0   6 -26    6.80    0.60
   0  -6 -26    5.70    0.70
   1   6 -26  472.25   14.30
  -1  -6 -26  475.25   14.60
   1   6 -26  505.55   14.60
  -1   6 -26  493.95   14.60
   1  -6 -26  489.65   14.60
  -2  -6 -26   20.00    1.10
   2   6 -26   21.70    1.20
  -2  -6 -26   21.20    1.30
   2   6 -26   21.00    1.10
  -2   6 -26   21.00    1.20
   2  -6 -26   21.00    1.30
  -3  -6 -26  244.48    7.70
  -3  -6 -26  250.77    7.60
   3   6 -26  256.77    7.60
   3  -6 -26  239.08    7.70
  -3   6 -26  252.17    7.70
  -3  -6  26  250.07    7.70
   4   6 -26   49.70    1.80
  -4  -6 -26   48.30    1.80
  -4   6 -26   45.80    1.90
  -4  -6  26   45.20    1.80
   0   7 -26   -0.10    0.30
   1   7 -26   17.80    1.00
  -1  -7 -26   16.30    1.30
  -1   7 -26   19.10    1.00
   2   7 -26   24.80    1.20
   2   7 -26   25.10    1.10
  -2   7 -26   23.30    1.20
   3   7 -26    2.30    0.30
  -3   7 -26    2.50    0.40
   0   0 -27    0.30    0.30
   0   0 -27    0.30    0.40
   1   0 -27    0.50    0.40
   1   0 -27    0.80    0.40
  -1   0 -27    0.10    0.30
   1   0 -27    0.20    0.30
  -1   0 -27    0.40    0.40
  -1   0  27    0.50    0.40
  -2   0  27    0.20    0.30
   2   0 -27   -0.10    0.30
  -2   0 -27    0.30    0.30
   2   0 -27    1.40    0.50
  -2   0 -27    0.70    0.40
   2   0 -27   -0.10    0.30
  -3   0  27    0.20    0.40
   3   0 -27    0.60    0.40
  -3   0 -27    0.40    0.30
  -3   0 -27    0.50    0.30
   3   0 -27    0.10    0.30
   4   0 -27    0.20    0.30
  -4   0 -27    0.50    0.30
  -4   0  27    0.20    0.40
   5   0 -27    0.50    0.30
  -5   0 -27    0.80    0.30
  -5   0  27    0.30    0.40
  -6   0  27    0.70    0.30
   6   0 -27    0.10    0.20
   0  -1 -27    0.20    0.30
   0   1 -27    0.00    0.30
   0  -1 -27    0.70    0.40
   0  -1 -27    0.10    0.30
   0   1 -27    0.30    0.30
   0   1 -27    0.40    0.40
  -1  -1 -27   69.49    3.00
   1   1 -27   71.29    2.90
   1   1 -27   70.29    3.10
  -1  -1 -27   73.89    2.80
  -1  -1 -27   72.69    3.00
   1  -1 -27   72.89    2.80
   1  -1 -27   71.29    3.00
  -1   1 -27   67.89    2.80
  -1   1 -27   70.79    2.90
   1  -1 -27   70.49    3.20
  -2  -1 -27   80.19    3.20
  -2  -1 -27   79.89    3.20
  -2  -1 -27   80.29    3.10
   2   1 -27   75.59    3.40
  -2   1  27   77.49    3.00
   2   1 -27   82.29    3.00
  -2  -1  27   83.99    3.20
   2  -1 -27   81.09    3.00
  -2   1 -27   79.79    3.00
  -2   1 -27   74.69    3.00
   2  -1 -27   78.99    3.20
  -3  -1 -27   29.80    1.60
  -3  -1 -27   29.40    1.60
   3   1 -27   27.80    1.50
  -3  -1 -27   30.70    1.50
  -3   1  27   29.00    1.60
  -3   1 -27   27.40    1.40
  -3  -1  27   30.70    1.70
   3  -1 -27   27.50    1.60
  -3   1 -27   30.00    1.50
   4   1 -27    2.50    0.50
  -4  -1 -27    1.60    0.40
  -4  -1 -27    1.00    0.40
  -4   1  27    1.70    0.50
   4  -1 -27    1.80    0.50
  -4  -1  27    1.50    0.50
  -4   1 -27    2.80    0.50
  -5  -1 -27    6.10    0.70
  -5   1  27    7.30    0.80
  -5  -1 -27    5.50    1.10
  -5  -1  27    5.70    0.70
   5  -1 -27    5.90    0.70
  -6   1  27  105.89    3.60
   6  -1 -27   98.89    3.50
  -6  -1  27  102.89    3.60
   0   2 -27   20.20    1.20
   0   2 -27   18.10    1.30
   0  -2 -27   19.30    1.40
   0   2 -27   18.90    1.30
   0  -2 -27   18.20    1.20
   0  -2 -27   17.60    1.40
   1   2 -27   20.30    1.40
  -1  -2 -27   21.90    1.30
  -1  -2 -27   20.20    1.40
   1   2 -27   20.10    1.20
   1   2 -27   19.60    1.40
  -1  -2 -27   21.20    1.40
  -1   2 -27   19.70    1.20
  -1   2 -27   19.40    1.30
   1  -2 -27   21.20    1.40
  -1   2 -27   22.10    1.30
   1  -2 -27   19.70    1.50
   1  -2 -27   20.60    1.20
   2   2 -27    9.40    0.80
  -2  -2 -27   10.40    0.90
  -2  -2 -27    9.50    1.00
  -2  -2 -27    9.50    0.90
   2   2 -27    9.10    1.00
  -2   2 -27    9.10    0.80
  -2   2 -27    9.40    0.80
   2  -2 -27    9.00    1.00
  -3  -2 -27    5.20    0.70
  -3  -2 -27    5.30    0.70
  -3   2  27    5.10    0.70
  -3  -2 -27    6.00    0.80
   3   2 -27    6.20    0.70
   3  -2 -27    5.90    0.80
  -3   2 -27    5.70    0.70
  -3  -2  27    7.70    0.80
  -4   2  27    4.50    0.70
  -4  -2 -27    5.10    0.70
  -4  -2 -27    5.00    0.70
   4   2 -27    4.50    0.60
   4  -2 -27    4.30    0.70
  -4  -2  27    5.00    0.70
  -5  -2 -27   37.50    1.70
  -5   2  27   33.90    1.60
  -5  -2 -27   36.10    1.60
  -5  -2  27   35.30    1.70
   5  -2 -27   36.20    1.70
  -6   2  27   14.30    0.90
  -6  -2 -27   15.50    0.90
   6  -2 -27   14.70    0.90
  -6  -2  27   14.50    0.90
   0   3 -27    0.70    0.40
   0  -3 -27    0.40    0.30
   0   3 -27   -0.10    0.30
   0  -3 -27    0.30    0.40
   0   3 -27    0.10    0.30
   0  -3 -27    0.70    0.50
  -1  -3 -27   37.00    1.70
  -1  -3 -27   32.70    1.90
   1   3 -27   34.60    1.90
   1   3 -27   37.30    1.70
  -1  -3 -27   35.60    1.90
   1   3 -27   37.30    1.90
  -1   3 -27   33.10    1.80
   1  -3 -27   37.30    1.90
  -1   3 -27   36.70    1.80
  -1   3 -27   34.50    1.70
  -2  -3 -27    6.30    0.70
   2   3 -27    7.10    1.40
  -2  -3 -27    6.90    0.90
   2   3 -27    6.70    0.70
  -2  -3 -27    6.40    0.80
   2   3 -27    5.40    0.80
   2  -3 -27    6.20    0.80
  -2   3 -27    5.20    0.70
  -2   3 -27    5.60    0.60
   3   3 -27   26.90    1.40
  -3  -3 -27   25.00    1.50
  -3  -3 -27   26.90    1.40
   3  -3 -27   26.30    1.50
  -3  -3  27   26.20    1.50
  -3   3 -27   25.00    1.30
  -4  -3 -27   97.49    3.80
   4   3 -27  105.19    3.60
  -4  -3 -27  105.19    3.70
  -4   3  27  106.19    3.60
  -4  -3  27  105.59    3.80
   4  -3 -27  101.79    3.80
   5   3 -27    2.40    0.40
  -5  -3 -27    2.00    0.40
  -5  -3 -27    2.00    0.40
  -5   3  27    1.80    0.40
  -5  -3  27    2.20    0.50
   5  -3 -27    2.60    0.50
  -6   3  27   21.50    1.10
  -6  -3 -27   21.80    1.00
  -6  -3  27   19.80    1.00
   0  -4 -27   17.10    1.30
   0  -4 -27   17.50    1.10
   0   4 -27   17.40    1.20
   0   4 -27   19.40    1.20
   1   4 -27  104.89    3.90
  -1  -4 -27  102.79    3.70
  -1  -4 -27  102.29    3.90
   1   4 -27  105.89    3.70
  -1   4 -27  103.69    3.70
  -1   4 -27  101.29    3.80
   1  -4 -27  107.59    4.00
  -2  -4 -27  317.57   10.00
   2   4 -27  331.47    9.80
  -2  -4 -27  319.97    9.80
   2   4 -27  320.87   10.00
  -2   4 -27  309.47    9.80
  -2   4 -27  315.77    9.70
   2  -4 -27  320.27   10.00
   3   4 -27    0.70    0.30
  -3  -4 -27    0.40    0.40
  -3  -4 -27    0.60    0.30
  -3  -4  27    0.20    0.30
   3  -4 -27    1.00    0.40
  -4  -4 -27   35.10    1.70
   4   4 -27   37.40    1.60
  -4  -4 -27   35.30    1.60
   4  -4 -27   36.80    1.70
  -4  -4  27   34.90    1.70
  -5  -4 -27    1.30    0.40
   5   4 -27    1.80    0.40
  -5  -4 -27    1.60    0.40
  -5   4  27    1.10    0.30
   5  -4 -27    1.30    0.40
  -5  -4  27    1.80    0.40
   0   5 -27    0.60    0.30
   0   5 -27    0.40    0.40
   0  -5 -27    0.20    0.30
   1   5 -27    0.50    0.40
  -1  -5 -27    0.70    0.30
  -1  -5 -27    1.00    0.40
   1   5 -27    1.10    0.40
   1  -5 -27    0.90    0.40
  -1   5 -27    0.60    0.40
  -1   5 -27    0.90    0.30
  -2  -5 -27   40.10    1.90
   2   5 -27   41.00    1.90
  -2  -5 -27   39.50    1.70
   2   5 -27   41.30    1.70
  -2   5 -27   39.20    1.80
   2  -5 -27   43.40    2.00
  -3  -5 -27   31.20    1.40
   3   5 -27   31.80    1.40
  -3  -5 -27   31.50    1.60
  -3  -5  27   29.70    1.50
   3  -5 -27   30.60    1.60
  -3   5 -27   32.40    1.50
  -4  -5 -27    0.50    0.30
   4   5 -27    0.20    0.20
  -4  -5 -27    0.30    0.30
  -4  -5  27    0.20    0.30
   4  -5 -27    0.30    0.30
  -5  -5 -27   15.20    0.80
   0  -6 -27   36.50    1.70
   0   6 -27   36.40    1.50
   0   6 -27   38.00    1.70
   1   6 -27    1.20    0.40
  -1  -6 -27    0.20    0.30
   1   6 -27    0.40    0.30
  -1   6 -27    0.30    0.30
   1  -6 -27    0.20    0.30
   2   6 -27   70.99    2.60
  -2  -6 -27   67.59    2.60
   2   6 -27   68.39    2.50
   2  -6 -27   70.79    2.70
  -2   6 -27   73.09    2.60
  -3  -6 -27   59.99    2.30
  -3  -6 -27   62.59    2.20
   3   6 -27   61.09    2.20
  -3  -6  27   63.09    2.30
  -3   6 -27   61.29    2.20
   4   6 -27    4.50    0.40
   0   7 -27   -0.10    0.20
   1   7 -27    0.60    0.30
  -1   7 -27    0.50    0.30
  -2   7 -27    0.90    0.30
   0   0 -28   25.40    1.60
   0   0 -28   29.10    1.50
  -1   0 -28   26.10    1.40
   1   0 -28   22.80    1.60
   1   0 -28   21.40    1.30
  -1   0 -28   23.40    1.50
  -1   0  28   24.30    1.40
  -2   0 -28  217.18    7.30
  -2   0 -28  228.98    7.20
  -2   0  28  232.98    7.30
   2   0 -28  230.48    7.20
   2   0 -28  222.58    7.90
   3   0 -28  326.37   10.40
   3   0 -28  345.67   10.20
  -3   0 -28  348.67   10.30
  -3   0  28  329.37   10.40
  -4   0 -28   25.80    1.30
   4   0 -28   23.90    1.40
  -4   0  28   26.00    1.50
  -5   0  28   33.20    1.60
  -5   0 -28   31.00    1.40
   5   0 -28   29.40    1.50
  -6   0  28    1.10    0.40
   0   1 -28    0.30    0.30
   0  -1 -28   -0.10    0.30
   0  -1 -28    1.30    0.50
   0   1 -28    0.30    0.30
   0  -1 -28    0.40    0.40
   0   1 -28    1.90    0.60
  -1  -1 -28   22.90    1.30
   1   1 -28   22.30    1.30
   1   1 -28   22.00    1.50
  -1  -1 -28   22.70    1.40
  -1  -1 -28   21.60    1.40
  -1   1 -28   23.80    1.40
  -1   1 -28   24.60    1.40
   1  -1 -28   21.60    1.50
   1  -1 -28   21.40    1.40
  -1  -1  28   22.40    1.30
   1  -1 -28   21.60    1.30
  -2  -1 -28    0.30    0.30
  -2   1  28    1.60    0.50
   2   1 -28    0.40    0.40
   2   1 -28    0.90    0.40
  -2  -1 -28    0.30    0.30
  -2  -1 -28    0.30    0.30
   2  -1 -28    0.50    0.30
   2  -1 -28    0.10    0.30
  -2  -1  28    0.30    0.40
  -2   1 -28    0.30    0.30
  -2   1 -28    0.50    0.40
  -3  -1 -28   26.90    1.50
  -3   1  28   25.00    1.40
  -3  -1 -28   27.10    1.40
   3   1 -28   26.40    1.40
   3  -1 -28   26.30    1.50
  -3   1 -28   26.40    1.40
  -3  -1  28   23.70    1.50
  -4   1  28   53.69    2.20
  -4  -1 -28   50.49    2.30
   4   1 -28   54.49    2.10
  -4  -1 -28   53.09    2.20
   4  -1 -28   54.99    2.30
  -4  -1  28   53.19    2.30
  -4   1 -28   53.59    2.10
  -5  -1 -28  150.08    4.80
  -5   1  28  151.58    4.90
  -5  -1  28  145.19    4.90
   5  -1 -28  140.89    4.90
  -6   1  28  311.37    9.20
  -6  -1  28  302.67    9.20
   0  -2 -28  758.52   22.30
   0   2 -28  760.82   22.10
   0  -2 -28  774.72   22.00
   0   2 -28  781.12   22.00
   0   2 -28  710.03   22.30
   0  -2 -28  721.43   22.50
   1   2 -28   65.39    2.70
   1   2 -28   65.89    2.90
  -1  -2 -28   67.99    2.90
  -1  -2 -28   67.59    2.70
   1   2 -28   70.29    2.70
  -1  -2 -28   66.09    2.90
   1  -2 -28   66.19    3.00
   1  -2 -28   69.19    2.90
   1  -2 -28   66.69    2.60
  -1   2 -28   69.19    2.70
  -1   2 -28   64.29    2.80
  -2  -2 -28   77.39    2.90
   2   2 -28   74.39    2.90
  -2  -2 -28   76.09    3.10
  -2  -2 -28   74.29    3.60
  -2  -2  28   79.09    3.10
   2  -2 -28   78.29    3.10
  -2   2 -28   77.59    2.90
   3   2 -28  134.09    4.40
  -3  -2 -28  125.29    4.60
  -3   2  28  131.89    4.40
  -3  -2 -28  127.29    4.40
   3  -2 -28  130.39    4.60
  -3  -2  28  131.99    4.60
  -3   2 -28  128.89    4.40
  -4  -2 -28   70.19    2.80
  -4  -2 -28   74.79    2.70
  -4   2  28   73.39    2.70
   4   2 -28   70.69    2.60
  -4  -2  28   69.79    2.80
   4  -2 -28   71.59    2.80
  -5   2  28   64.69    2.40
  -5  -2 -28   57.99    2.40
  -5  -2 -28   60.29    2.30
   5  -2 -28   62.29    2.40
  -5  -2  28   62.39    2.40
  -6   2  28    0.50    0.30
  -6  -2  28    1.10    0.30
   0  -3 -28    0.50    0.30
   0  -3 -28    0.00    0.40
   0   3 -28    0.20    0.40
   0   3 -28    0.30    0.50
   0   3 -28    0.30    0.30
   1   3 -28  275.17    8.20
   1   3 -28  247.58    8.30
  -1  -3 -28  255.87    8.40
  -1  -3 -28  263.07    8.10
  -1   3 -28  261.17    8.10
  -1   3 -28  257.87    8.20
   1  -3 -28  261.17    8.40
  -2  -3 -28    1.10    0.40
   2   3 -28    1.30    0.40
  -2  -3 -28    0.90    0.40
   2   3 -28    4.30    0.70
   2  -3 -28    1.80    0.50
  -2   3 -28    2.20    0.50
  -3  -3 -28   72.59    2.90
  -3  -3 -28   76.19    2.80
   3   3 -28   72.39    2.70
  -3   3 -28   70.09    2.90
  -3  -3  28   71.99    2.90
   3  -3 -28   69.99    2.90
   4   3 -28   20.50    1.10
  -4   3  28   19.80    1.10
  -4  -3 -28   20.60    1.20
  -4  -3 -28   22.60    1.20
  -4  -3  28   22.40    1.30
   4  -3 -28   21.30    1.30
  -5  -3 -28   11.20    0.80
   5   3 -28   11.60    0.70
  -5   3  28   12.40    0.80
  -5  -3 -28   11.60    0.80
  -5  -3  28   10.80    0.80
   5  -3 -28   11.60    0.90
   0   4 -28  326.97   10.40
   0  -4 -28  336.77   10.50
   0   4 -28  345.87   10.30
  -1  -4 -28  466.05   14.20
   1   4 -28  471.55   13.90
   1   4 -28  462.85   14.10
  -1  -4 -28  455.25   13.90
  -1   4 -28  450.75   14.00
   1  -4 -28  471.25   14.20
  -1   4 -28  488.45   13.90
   2   4 -28  196.18    6.10
   2   4 -28  194.28    6.20
  -2  -4 -28  185.08    6.00
  -2  -4 -28  195.28    6.30
   2  -4 -28  195.08    6.30
  -2   4 -28  184.58    6.00
  -2   4 -28  179.18    6.10
   3   4 -28   27.80    1.30
  -3  -4 -28   26.40    1.50
  -3  -4 -28   27.30    1.40
   3  -4 -28   28.30    1.50
  -3  -4  28   26.20    1.40
  -4  -4 -28   29.40    1.40
   4   4 -28   29.60    1.30
  -4  -4 -28   28.70    1.50
  -4  -4  28   31.40    1.50
   4  -4 -28   30.80    1.50
  -5  -4 -28   90.29    2.90
  -5  -4  28   81.89    2.90
   0  -5 -28    0.30    0.30
   0   5 -28    0.20    0.30
   0   5 -28    0.30    0.30
   1   5 -28   20.40    1.20
  -1  -5 -28   18.70    1.20
   1   5 -28   18.30    1.10
  -1   5 -28   18.10    1.00
  -1   5 -28   18.50    1.10
   1  -5 -28   18.70    1.20
   2   5 -28    0.40    0.40
   2   5 -28    0.40    0.30
  -2  -5 -28    0.30    0.30
  -2  -5 -28    0.00    0.30
   2  -5 -28    0.50    0.30
  -2   5 -28    0.00    0.30
  -3  -5 -28   23.60    1.30
  -3  -5 -28   23.50    1.20
   3   5 -28   25.30    1.20
  -3  -5  28   23.70    1.20
   3  -5 -28   26.10    1.30
  -4  -5 -28   39.20    1.50
   4   5 -28   39.00    1.50
  -4  -5  28   36.70    1.60
   0   6 -28   23.80    1.30
   0  -6 -28   26.20    1.30
   1   6 -28  253.27    7.70
   1   6 -28  267.07    7.90
  -1  -6 -28  249.88    7.90
  -1   6 -28  266.47    7.90
   1  -6 -28  247.18    7.90
  -2  -6 -28   81.99    3.20
   2   6 -28   89.99    2.90
  -2   6 -28   83.19    2.90
   3   6 -28   55.59    2.00
  -3  -6  28   56.29    2.40
   0   0 -29    0.20    0.30
   0   0 -29    0.30    0.30
  -1   0 -29    0.80    0.40
   1   0 -29    0.30    0.30
  -1   0 -29    0.40    0.30
   2   0 -29    1.90    0.40
  -2   0  29    0.40    0.30
  -2   0 -29    0.40    0.30
  -3   0 -29    0.40    0.30
   3   0 -29    0.50    0.30
  -3   0  29    0.40    0.40
  -4   0 -29    0.00    0.20
  -4   0  29    0.20    0.30
  -5   0 -29    0.40    0.20
  -5   0  29    0.30    0.30
   0  -1 -29    0.60    0.30
   0   1 -29    0.30    0.30
   0  -1 -29    0.40    0.40
   0   1 -29   -0.10    0.30
   0  -1 -29   -0.10    0.30
  -1  -1 -29    1.90    0.80
   1   1 -29    2.30    0.50
  -1  -1 -29    3.10    0.60
  -1  -1 -29    2.90    0.50
  -1  -1  29    1.40    0.50
   1  -1 -29    1.90    0.50
   1  -1 -29    2.10    0.50
  -1   1 -29    2.90    0.60
   2   1 -29    4.00    0.60
  -2   1  29    3.70    0.80
  -2  -1 -29    4.20    0.60
  -2  -1 -29    3.70    0.60
  -2   1 -29    4.60    0.60
  -2  -1  29    3.20    0.60
   2  -1 -29    3.00    0.50
   2  -1 -29    3.70    0.70
  -3  -1 -29   14.50    1.00
  -3  -1 -29   13.80    1.00
  -3   1  29   14.40    1.00
   3   1 -29   13.30    0.90
  -3  -1  29   15.50    1.10
   3  -1 -29   14.90    1.10
  -3   1 -29   13.50    0.90
  -4   1  29    0.30    0.30
   4   1 -29    1.10    0.40
  -4  -1 -29    0.80    0.30
   4  -1 -29    0.80    0.40
  -4  -1  29    0.80    0.40
  -4   1 -29    0.60    0.30
  -5   1  29    9.80    0.80
  -5  -1 -29    9.60    0.70
   5  -1 -29    8.70    0.70
  -5  -1  29   10.80    0.80
   0  -2 -29   40.10    2.00
   0   2 -29   40.10    1.80
   0  -2 -29   37.90    1.70
   0   2 -29   35.80    1.80
   1   2 -29    7.90    0.80
  -1  -2 -29    8.00    0.80
  -1  -2 -29    7.80    0.90
  -1   2 -29    8.60    0.80
  -1  -2  29    7.90    0.80
   1  -2 -29    8.70    0.90
   1  -2 -29    7.50    0.70
  -2  -2 -29   27.00    1.40
  -2  -2 -29   26.40    1.50
   2   2 -29   25.80    1.40
  -2   2 -29   26.30    1.40
  -2  -2  29   27.30    1.50
   2  -2 -29   25.20    1.50
  -3  -2 -29    0.60    0.30
   3   2 -29    0.30    0.30
  -3  -2 -29    1.20    0.40
   3  -2 -29    0.50    0.30
  -3  -2  29    0.40    0.40
  -3   2 -29    1.00    0.40
   4   2 -29    1.90    0.40
  -4   2  29    1.70    0.40
  -4  -2 -29    1.70    0.40
  -4  -2 -29    1.30    0.40
  -4  -2  29    2.30    0.50
   4  -2 -29    1.50    0.40
  -5  -2 -29    2.80    0.40
  -5   2  29    2.20    0.40
  -5  -2  29    1.90    0.40
   5  -2 -29    1.90    0.40
   0  -3 -29    0.30    0.30
   0   3 -29    0.20    0.30
   0  -3 -29    0.40    0.40
   0   3 -29    0.40    0.30
  -1  -3 -29   21.00    1.20
  -1  -3 -29   21.70    1.40
   1   3 -29   20.50    1.20
   1   3 -29   21.60    1.30
   1  -3 -29   21.40    1.40
  -1   3 -29   21.10    1.20
  -1   3 -29   21.50    1.20
   2   3 -29  118.39    4.00
  -2  -3 -29  115.89    4.00
  -2  -3 -29  115.69    4.20
  -2  -3  29  119.19    4.10
  -2   3 -29  119.49    4.00
   2  -3 -29  114.19    4.20
   3   3 -29   18.40    1.10
  -3  -3 -29   19.30    1.10
  -3  -3 -29   18.20    1.20
   3  -3 -29   16.70    1.10
  -3  -3  29   18.80    1.20
  -4  -3 -29   14.50    0.90
  -4  -3 -29   14.40    1.00
   4   3 -29   14.40    0.90
  -4  -3  29   14.00    1.00
   4  -3 -29   13.90    1.00
  -5  -3 -29   45.30    1.70
  -5  -3  29   43.30    1.70
   0   4 -29   59.09    2.40
   0  -4 -29   56.69    2.50
   0   4 -29   61.79    2.30
   1   4 -29    0.80    0.40
  -1  -4 -29    1.60    0.50
   1   4 -29    1.40    0.40
  -1  -4 -29    1.00    0.40
  -1   4 -29    1.10    0.40
   1  -4 -29    0.70    0.40
  -1   4 -29    0.70    0.30
  -2  -4 -29    3.70    0.60
   2   4 -29    3.90    0.60
  -2  -4 -29    3.90    0.60
   2  -4 -29    4.30    0.70
  -2   4 -29    4.50    0.60
  -2  -4  29    4.70    0.70
  -3  -4 -29   50.29    2.10
  -3  -4 -29   51.09    2.00
   3   4 -29   52.99    2.00
  -3  -4  29   49.99    2.10
   3  -4 -29   49.60    2.10
   4   4 -29    5.90    0.50
  -4  -4 -29    5.80    0.60
  -4  -4 -29    4.80    0.60
  -4  -4  29    6.10    0.60
   4  -4 -29    6.00    0.60
   0   5 -29    0.40    0.30
   0  -5 -29    0.40    0.30
   0   5 -29    0.40    0.30
  -1  -5 -29   90.49    3.30
   1   5 -29   97.49    3.20
   1   5 -29   92.69    3.30
   1  -5 -29   92.89    3.40
  -1   5 -29   91.39    3.30
   2   5 -29   46.40    1.80
  -2  -5 -29   45.20    1.80
  -2  -5 -29   48.10    2.00
  -2   5 -29   44.50    1.80
  -2  -5  29   49.60    2.00
   2  -5 -29   45.30    2.00
   3   5 -29   46.60    1.80
  -3  -5 -29   47.20    2.40
  -3  -5 -29   45.90    1.80
  -3  -5  29   44.80    1.80
   0   6 -29    8.70    0.70
   1   6 -29   54.09    2.10
   1   6 -29   56.39    2.00
  -1   6 -29   54.09    2.10
  -2  -6  29   12.40    0.80
   0   0 -30   62.09    2.50
  -1   0 -30   68.49    2.60
   1   0 -30   67.39    2.60
  -2   0  30  336.97   10.30
   2   0 -30  344.47   10.30
  -2   0 -30  338.67   10.30
   3   0 -30    0.70    0.30
  -3   0 -30    0.40    0.30
  -3   0  30    0.20    0.30
  -4   0 -30  482.15   14.50
  -4   0  30  502.15   14.60
  -5   0  30    7.20    0.60
   0  -1 -30    0.30    0.30
   0  -1 -30   -0.10    0.30
   0   1 -30    0.20    0.30
  -1  -1 -30   22.30    1.30
   1   1 -30   24.50    1.30
  -1  -1 -30   22.70    1.30
   1  -1 -30   21.90    1.40
   1  -1 -30   23.40    1.20
  -1  -1  30   21.90    1.30
  -1   1 -30   23.20    1.30
   2   1 -30   26.80    1.30
  -2  -1 -30   27.90    1.60
  -2  -1 -30   26.40    1.40
  -2  -1  30   26.30    1.40
  -2   1 -30   25.00    1.30
   2  -1 -30   24.80    1.40
   2  -1 -30   24.80    1.30
   3   1 -30    0.30    0.30
  -3  -1 -30    0.70    0.30
  -3   1  30    0.10    0.30
   3  -1 -30    0.20    0.30
  -3   1 -30    0.30    0.30
  -3  -1  30    0.70    0.40
  -4   1  30    4.30    0.60
  -4  -1 -30    4.40    0.50
  -4  -1  30    5.10    0.60
  -4   1 -30    4.80    0.50
   4  -1 -30    3.60    0.50
  -5  -1 -30   47.40    1.90
  -5   1  30   47.40    1.80
  -5  -1  30   48.50    1.90
   0   2 -30  155.38    5.10
   0  -2  30  147.59    5.10
   0  -2 -30  165.78    5.10
   0  -2 -30  155.38    5.30
  -1  -2 -30   15.10    1.10
   1   2 -30   16.00    1.00
  -1  -2 -30   14.70    1.00
   1  -2 -30   15.00    1.00
  -1   2 -30   16.80    1.10
  -1  -2  30   15.40    1.00
   1  -2 -30   16.00    1.20
  -2  -2 -30  438.96   13.40
   2   2 -30  439.76   13.30
  -2  -2 -30  442.36   13.30
   2  -2 -30  443.86   13.50
  -2  -2  30  457.35   13.40
  -2   2 -30  451.15   13.30
  -3  -2 -30   20.10    1.10
  -3  -2 -30   20.50    1.20
   3   2 -30   21.70    1.10
   3  -2 -30   19.60    1.20
  -3  -2  30   19.70    1.20
  -3   2 -30   19.90    1.10
  -4  -2 -30   47.60    1.90
  -4  -2 -30   48.80    2.20
  -4   2  30   50.19    1.90
   4   2 -30   49.70    1.90
  -4  -2  30   50.79    2.00
   4  -2 -30   48.10    2.00
  -5  -2  30    2.00    0.40
   0  -3 -30    0.50    0.30
   0   3 -30    0.90    0.40
   0   3 -30   -0.20    0.30
   0  -3 -30    0.20    0.30
   1   3 -30    2.70    0.50
  -1  -3 -30    2.70    0.50
  -1  -3 -30    3.00    0.60
  -1   3 -30    2.40    0.50
  -1  -3  30    2.70    0.50
   1  -3 -30    1.90    0.50
  -1   3 -30    2.70    0.50
  -2  -3 -30   18.40    1.10
  -2  -3 -30   19.00    1.20
   2   3 -30   19.00    1.10
  -2  -3  30   19.00    1.20
   2  -3 -30   18.20    1.20
  -2   3 -30   18.50    1.00
   3   3 -30    8.50    0.70
  -3  -3 -30    7.30    0.70
  -3  -3 -30    9.20    0.70
   3  -3 -30    9.20    0.80
  -3  -3  30    8.50    0.80
  -4  -3 -30   32.50    1.40
   4   3 -30   31.90    1.30
  -4  -3  30   33.50    1.50
   4  -3 -30   31.10    1.70
   0   4 -30  579.44   17.20
   0   4 -30  604.54   17.30
   0  -4 -30  582.74   17.50
  -1  -4 -30    6.60    0.60
  -1  -4 -30    6.30    0.70
   1   4 -30    6.70    0.60
   1   4 -30    7.00    0.70
  -1   4 -30    7.30    0.60
  -1   4 -30    7.60    0.70
   1  -4 -30    7.30    0.80
  -2  -4 -30  288.87    8.90
   2   4 -30  302.77    8.80
  -2  -4 -30  279.17    8.70
   2  -4 -30  286.57    9.00
  -2  -4  30  292.37    8.90
  -3  -4 -30   27.10    1.40
   3   4 -30   30.20    1.30
  -3  -4 -30   28.00    1.30
   3  -4 -30   29.50    1.40
  -3  -4  30   30.20    1.40
   0   5 -30    0.20    0.20
   0   5 -30    0.30    0.30
   0  -5 -30   -0.10    0.20
   1   5 -30    1.10    0.40
   1   5 -30    1.30    0.30
  -1  -5 -30    0.90    0.30
   1  -5 -30    0.70    0.30
  -1   5 -30    0.80    0.30
   2   5 -30   20.70    1.00
  -2  -5  30   21.80    1.10
   0   0 -31    0.30    0.30
  -1   0 -31    1.60    0.40
   1   0 -31    2.10    0.50
  -2   0  31    0.30    0.30
   2   0 -31   -0.10    0.30
  -2   0 -31    0.20    0.30
   3   0 -31    0.30    0.40
  -3   0  31    0.50    0.30
  -3   0 -31    0.30    0.30
  -4   0 -31    0.10    0.20
  -4   0  31    0.10    0.30
   0  -1 -31    0.10    0.30
   0  -1 -31    0.20    0.30
   0   1 -31    0.00    0.30
  -1  -1 -31   10.40    0.80
   1   1 -31    9.90    0.80
  -1  -1  31   10.40    0.80
   1  -1 -31    9.30    0.80
   1  -1 -31   10.30    0.80
  -1   1 -31   11.40    0.80
  -2  -1 -31    0.20    0.30
   2   1 -31    1.10    0.30
  -2  -1  31    0.50    0.30
  -2   1 -31    0.50    0.30
   2  -1 -31    0.40    0.30
   2  -1 -31    0.30    0.30
   3   1 -31    3.70    0.50
  -3  -1 -31    2.70    0.50
  -3   1  31    2.80    0.50
  -3   1 -31    3.40    0.50
   3  -1 -31    2.70    0.50
  -3  -1  31    3.70    0.60
  -4   1  31    1.50    0.40
  -4  -1 -31    1.80    0.40
  -4   1 -31    1.50    0.30
  -4  -1  31    1.40    0.40
   0   2 -31   84.19    3.10
   0  -2 -31   85.79    3.00
   0  -2 -31   86.19    3.20
   0  -2  31   87.09    3.10
  -1  -2 -31  120.39    4.00
  -1  -2 -31  118.69    4.20
   1   2 -31  118.39    4.00
  -1  -2  31  117.69    4.10
   1  -2 -31  118.99    4.00
  -1   2 -31  131.19    4.10
   1  -2 -31  115.49    4.20
   2   2 -31   26.00    1.20
  -2  -2 -31   25.10    1.20
  -2  -2 -31   23.30    1.30
   2  -2 -31   23.70    1.30
  -2  -2  31   24.80    1.30
  -2   2 -31   24.20    1.20
  -3  -2 -31   25.50    1.30
  -3  -2 -31   25.10    1.20
   3   2 -31   25.60    1.20
  -3   2 -31   27.80    1.20
  -3  -2  31   24.20    1.30
   3  -2 -31   23.30    1.30
  -4  -2 -31    1.10    0.30
  -4  -2  31    1.10    0.30
   0   3 -31    0.30    0.30
   0  -3  31    0.20    0.30
   0  -3 -31    0.40    0.30
   0  -3 -31    0.00    0.20
   1   3 -31    0.30    0.30
  -1  -3 -31    0.40    0.30
  -1  -3 -31    0.50    0.30
  -1  -3  31    0.40    0.30
  -1   3 -31    0.10    0.30
   1  -3 -31    0.50    0.30
   2   3 -31   24.40    1.20
  -2  -3 -31   23.50    1.30
  -2  -3 -31   26.30    1.20
  -2  -3  31   25.10    1.30
   2  -3 -31   24.40    1.30
  -2   3 -31   25.40    1.20
  -3  -3 -31   46.20    1.80
   3   3 -31   47.50    1.80
   3  -3 -31   47.90    2.00
  -3  -3  31   49.00    1.90
   0   4 -31   18.70    1.00
   0  -4 -31   18.40    1.10
   0   4 -31   20.20    1.00
   1   4 -31    5.30    0.50
  -1  -4 -31    4.20    0.60
  -1  -4 -31    3.80    0.50
  -1  -4  31    4.20    0.60
  -1   4 -31    3.70    0.50
   1  -4 -31    3.70    0.60
  -1   4 -31    4.60    0.50
   2   4 -31   14.40    0.80
  -2  -4 -31   13.30    0.80
  -2  -4  31   14.30    0.90
   2  -4 -31   15.50    1.20
   3   4 -31    0.20    0.20
  -3  -4  31    0.30    0.20
   0   5 -31    0.40    0.20
  -1  -5  31   87.49    3.00
   0   0 -32  298.87    9.10
  -1   0 -32    3.20    0.50
   1   0 -32    2.40    0.40
  -2   0 -32  313.67    9.60
   2   0 -32  323.97    9.50
  -3   0  32  116.49    3.90
  -3   0 -32  122.79    3.90
   0   1 -32    0.40    0.30
   0  -1 -32    0.20    0.30
  -1  -1 -32   28.60    1.30
   1   1 -32   27.20    1.30
   1  -1 -32   26.80    1.30
  -1   1 -32   28.30    1.30
  -2  -1 -32    9.50    0.70
   2   1 -32    9.60    0.70
  -2   1 -32    9.20    0.70
  -2  -1  32    9.70    0.70
   2  -1 -32    9.50    0.80
   3   1 -32    0.40    0.20
  -3  -1 -32    0.70    0.30
  -3  -1  32    0.70    0.30
  -3   1 -32    0.50    0.30
   0   2 -32  121.89    3.90
   0  -2 -32  111.59    4.00
   0  -2 -32  117.59    3.90
   1   2 -32   84.09    2.90
  -1  -2 -32   79.99    2.80
  -1  -2 -32   77.89    2.90
   1  -2 -32   76.29    2.70
  -1   2 -32   84.29    2.80
  -1  -2  32   77.29    2.80
   1  -2 -32   78.89    2.90
   2   2 -32  300.67    8.80
  -2  -2 -32  294.77    8.80
   2  -2 -32  283.97    8.90
  -2  -2  32  299.17    8.90
  -2   2 -32  283.47    8.80
  -3  -2 -32   44.30    1.70
   3   2 -32   44.10    1.70
  -3  -2  32   47.70    1.80
   0  -3  32    0.10    0.30
   0  -3 -32    0.30    0.20
   0   3 -32    0.20    0.30
   0  -3 -32    0.90    0.30
   1   3 -32    2.00    0.40
  -1  -3 -32    1.60    0.30
  -1  -3 -32    1.40    0.40
  -1  -3  32    2.30    0.40
  -1   3 -32    1.50    0.30
   1  -3 -32    1.60    0.40
  -2  -3 -32    1.40    0.30
   2   3 -32    0.70    0.30
  -2   3 -32    0.50    0.20
  -2  -3  32    0.80    0.30
   0   4 -32  359.76   10.60
   1   4 -32  254.37    7.90
  -1  -4  32  273.37    8.00
   0   0 -33    0.10    0.20
   1   0 -33    0.40    0.30
  -1   0 -33    1.40    0.40
   2   0 -33    0.60    0.20
  -2   0 -33    0.30    0.20
   0   1 -33    0.10    0.20
   0  -1 -33    0.40    0.20
  -1  -1 -33   19.90    1.00
   1   1 -33   18.60    1.00
   1  -1 -33   17.20    0.90
  -1   1 -33   17.40    1.00
  -2  -1 -33    4.20    0.50
   2   1 -33    4.00    0.40
  -2   1 -33    3.20    0.40
  -3  -1 -33    4.20    0.70
   0  -2 -33   27.10    1.20
   0   2 -33   28.10    1.20
   1   2 -33   25.30    1.20
  -1  -2 -33   26.10    1.20
  -1   2 -33   25.20    1.20
   2   2 -33    6.60    0.50
  -2  -2 -33    6.40    0.50
  -2   2 -33    6.30    0.50
   0   3 -33    0.20    0.20
   1   3 -33    9.70    0.60
   0   0 -34  288.27    8.60
  -1   0 -34  183.98    5.70
   0   1 -34    0.30    0.20
   0  -1 -34    0.30    0.30
  -1  -1 -34   13.20    0.80
   1   1 -34   13.20    0.90
  -1   1 -34   12.20    0.70
   0   0   0    0.00    0.00

_computing_structure_solution     'SHELXT 2014/5 (Sheldrick, 2014)'
;
_shelx_hkl_checksum              84044
loop_
_space_group_symop_operation_xyz
'x, y, z'
'-x+1/2, -y, z+1/2'
'-x, y+1/2, -z+1/2'
'x+1/2, -y+1/2, -z'
'-x, -y, -z'
'x-1/2, y, -z-1/2'
'x, -y-1/2, z-1/2'
'-x-1/2, y-1/2, z'
loop_
_atom_site_label
_atom_site_type_symbol
_atom_site_fract_x
_atom_site_fract_y
_atom_site_fract_z
_atom_site_U_iso_or_equiv
_atom_site_adp_type
_atom_site_occupancy
_atom_site_site_symmetry_order
_atom_site_calc_flag
_atom_site_refinement_flags_posn
_atom_site_refinement_flags_adp
S1 S 0.23359(4) 0.73762(3) 0.45019(2) 0.01473(13) Uani 1 1 d . .
O1 O 0.10491(10) 0.63624(11) 0.36522(4) 0.0234(2) Uani 1 1 d . .
O2 O 0.14216(11) 0.84591(10) 0.43609(4) 0.0223(2) Uani 1 1 d . .
O3 O 0.34738(11) 0.76518(11) 0.48260(3) 0.0233(2) Uani 1 1 d . .
N1 N 0.31958(12) 0.67369(11) 0.40261(4) 0.0146(3) Uani 1 1 d . .
C1 C 0.23675(15) 0.63200(14) 0.36436(5) 0.0163(3) Uani 1 1 d . .
C2 C 0.47415(14) 0.69951(13) 0.39958(4) 0.0144(3) Uani 1 1 d . .
C3 C 0.57110(15) 0.61501(14) 0.42197(5) 0.0176(3) Uani 1 1 d . .
H3 H 0.5373 0.5403 0.4395 0.021 Uiso 1 1 calc R U
C4 C 0.71849(15) 0.64140(15) 0.41837(5) 0.0206(3) Uani 1 1 d . .
H4 H 0.7861 0.5843 0.4336 0.025 Uiso 1 1 calc R U
C5 C 0.76796(16) 0.75043(15) 0.39271(5) 0.0235(3) Uani 1 1 d . .
H5 H 0.8690 0.7672 0.3901 0.028 Uiso 1 1 calc R U
C6 C 0.66970(16) 0.83445(15) 0.37095(5) 0.0230(3) Uani 1 1 d . .
H6 H 0.7034 0.9092 0.3535 0.028 Uiso 1 1 calc R U
C7 C 0.52139(15) 0.81005(14) 0.37455(5) 0.0181(3) Uani 1 1 d . .
H7 H 0.4536 0.8684 0.3600 0.022 Uiso 1 1 calc R U
C8 C 0.31851(15) 0.57904(14) 0.32323(5) 0.0169(3) Uani 1 1 d . .
C9 C 0.41782(16) 0.47501(15) 0.32793(5) 0.0212(3) Uani 1 1 d . .
H9 H 0.4387 0.4390 0.3579 0.025 Uiso 1 1 calc R U
C10 C 0.48620(18) 0.42421(17) 0.28858(6) 0.0295(4) Uani 1 1 d . .
H10 H 0.5534 0.3525 0.2915 0.035 Uiso 1 1 calc R U
C11 C 0.45677(19) 0.47769(17) 0.24503(6) 0.0322(4) Uani 1 1 d . .
H11 H 0.5058 0.4442 0.2183 0.039 Uiso 1 1 calc R U
C12 C 0.3564(2) 0.57969(17) 0.24024(5) 0.0326(4) Uani 1 1 d . .
H12 H 0.3357 0.6152 0.2102 0.039 Uiso 1 1 calc R U
C13 C 0.28588(17) 0.63024(16) 0.27923(5) 0.0246(3) Uani 1 1 d . .
H13 H 0.2158 0.6994 0.2759 0.029 Uiso 1 1 calc R U
C14 C 0.12909(16) 0.60414(14) 0.47101(5) 0.0233(3) Uani 1 1 d . .
H14A H 0.0735 0.6335 0.4983 0.035 Uiso 1 1 calc R U
H14B H 0.1928 0.5298 0.4799 0.035 Uiso 1 1 calc R U
H14C H 0.0623 0.5743 0.4465 0.035 Uiso 1 1 calc R U
loop_
_atom_site_aniso_label
_atom_site_aniso_U_11
_atom_site_aniso_U_22
_atom_site_aniso_U_33
_atom_site_aniso_U_23
_atom_site_aniso_U_13
_atom_site_aniso_U_12
S1 0.01468(19) 0.0142(2) 0.01526(19) -0.00132(11) 0.00252(12) 0.00003(12)
O1 0.0134(5) 0.0295(6) 0.0274(5) -0.0068(4) -0.0017(4) -0.0006(4)
O2 0.0263(5) 0.0166(5) 0.0241(5) -0.0002(4) 0.0022(4) 0.0057(4)
O3 0.0193(5) 0.0339(6) 0.0167(5) -0.0069(4) 0.0008(4) -0.0013(4)
N1 0.0116(6) 0.0172(6) 0.0150(5) -0.0022(4) 0.0014(4) -0.0007(4)
C1 0.0166(7) 0.0130(7) 0.0192(7) -0.0001(5) -0.0013(5) -0.0016(5)
C2 0.0126(7) 0.0167(6) 0.0139(6) -0.0044(5) 0.0009(5) -0.0018(5)
C3 0.0185(7) 0.0174(7) 0.0169(6) -0.0011(5) -0.0007(5) -0.0008(5)
C4 0.0172(7) 0.0239(8) 0.0209(7) -0.0037(6) -0.0031(6) 0.0028(6)
C5 0.0145(7) 0.0310(9) 0.0249(8) -0.0058(6) 0.0016(6) -0.0052(6)
C6 0.0229(8) 0.0235(8) 0.0227(7) 0.0012(6) 0.0033(6) -0.0080(6)
C7 0.0193(7) 0.0179(7) 0.0172(6) -0.0004(5) 0.0004(5) -0.0005(6)
C8 0.0157(7) 0.0173(7) 0.0176(7) -0.0039(5) -0.0004(5) -0.0058(5)
C9 0.0224(7) 0.0216(7) 0.0197(7) -0.0040(6) -0.0004(6) -0.0007(6)
C10 0.0253(8) 0.0313(9) 0.0318(8) -0.0135(7) 0.0034(7) 0.0010(7)
C11 0.0334(9) 0.0402(10) 0.0229(8) -0.0141(7) 0.0107(7) -0.0127(8)
C12 0.0476(10) 0.0345(9) 0.0155(7) -0.0009(6) -0.0004(7) -0.0159(8)
C13 0.0306(9) 0.0223(8) 0.0207(7) -0.0005(6) -0.0054(6) -0.0047(6)
C14 0.0226(7) 0.0186(7) 0.0286(8) 0.0020(6) 0.0106(6) -0.0009(6)
loop_
_atom_type_symbol
_atom_type_description
_atom_type_scat_dispersion_real
_atom_type_scat_dispersion_imag
_atom_type_scat_source
C C 0.0181 0.0091 'International Tables Vol C Tables 4.2.6.8 and 6.1.1.4'
H H 0.0000 0.0000 'International Tables Vol C Tables 4.2.6.8 and 6.1.1.4'
N N 0.0311 0.0180 'International Tables Vol C Tables 4.2.6.8 and 6.1.1.4'
O O 0.0492 0.0322 'International Tables Vol C Tables 4.2.6.8 and 6.1.1.4'
S S 0.3331 0.5567 'International Tables Vol C Tables 4.2.6.8 and 6.1.1.4'
loop_
_geom_angle_atom_site_label_1
_geom_angle_atom_site_label_2
_geom_angle_atom_site_label_3
_geom_angle
O3 S1 O2 118.20(6)
O3 S1 N1 104.44(6)
O2 S1 N1 109.43(6)
O3 S1 C14 109.32(7)
O2 S1 C14 110.24(7)
N1 S1 C14 104.18(6)
C1 N1 C2 122.88(11)
C1 N1 S1 118.92(9)
C2 N1 S1 116.09(9)
O1 C1 N1 121.34(13)
O1 C1 C8 122.17(12)
N1 C1 C8 116.47(11)
C7 C2 C3 121.32(13)
C7 C2 N1 118.77(12)
C3 C2 N1 119.91(12)
C2 C3 C4 118.85(13)
C2 C3 H3 120.6
C4 C3 H3 120.6
C5 C4 C3 120.62(14)
C5 C4 H4 119.7
C3 C4 H4 119.7
C6 C5 C4 119.79(13)
C6 C5 H5 120.1
C4 C5 H5 120.1
C5 C6 C7 120.31(14)
C5 C6 H6 119.8
C7 C6 H6 119.8
C2 C7 C6 119.10(13)
C2 C7 H7 120.5
C6 C7 H7 120.5
C9 C8 C13 120.23(13)
C9 C8 C1 121.33(12)
C13 C8 C1 118.30(13)
C10 C9 C8 119.58(14)
C10 C9 H9 120.2
C8 C9 H9 120.2
C11 C10 C9 120.13(15)
C11 C10 H10 119.9
C9 C10 H10 119.9
C12 C11 C10 120.31(14)
C12 C11 H11 119.8
C10 C11 H11 119.8
C11 C12 C13 120.13(15)
C11 C12 H12 119.9
C13 C12 H12 119.9
C12 C13 C8 119.57(15)
C12 C13 H13 120.2
C8 C13 H13 120.2
S1 C14 H14A 109.5
S1 C14 H14B 109.5
H14A C14 H14B 109.5
S1 C14 H14C 109.5
H14A C14 H14C 109.5
H14B C14 H14C 109.5
loop_
_geom_bond_atom_site_label_1
_geom_bond_atom_site_label_2
_geom_bond_distance
S1 O3 1.4276(11)
S1 O2 1.4283(10)
S1 N1 1.7001(11)
S1 C14 1.7479(14)
O1 C1 1.2174(17)
N1 C1 1.3982(17)
N1 C2 1.4518(17)
C1 C8 1.4945(19)
C2 C7 1.3847(19)
C2 C3 1.3859(19)
C3 C4 1.389(2)
C3 H3 0.9500
C4 C5 1.389(2)
C4 H4 0.9500
C5 C6 1.383(2)
C5 H5 0.9500
C6 C7 1.394(2)
C6 H6 0.9500
C7 H7 0.9500
C8 C9 1.391(2)
C8 C13 1.392(2)
C9 C10 1.387(2)
C9 H9 0.9500
C10 C11 1.383(2)
C10 H10 0.9500
C11 C12 1.382(3)
C11 H11 0.9500
C12 C13 1.386(2)
C12 H12 0.9500
C13 H13 0.9500
C14 H14A 0.9800
C14 H14B 0.9800
C14 H14C 0.9800
