#------------------------------------------------------------------------------
#$Date: 2017-03-05 09:41:04 +0200 (Sun, 05 Mar 2017) $
#$Revision: 193964 $
#$URL: file:///home/coder/svn-repositories/cod/cif/1/54/55/1545500.cif $
#------------------------------------------------------------------------------
#
# This file is available in the Crystallography Open Database (COD),
# http://www.crystallography.net/. The original data for this entry
# were provided by IUCr Journals, http://journals.iucr.org/.
#
# The file may be used within the scientific community so long as
# proper attribution is given to the journal article from which the
# data were obtained.
#
data_1545500
loop_
_publ_author_name
'Mague, Joel T.'
'Mohamed, Shaaban K.'
'Akkurt, Mehmet'
'Marzouk, Adel A.'
'Hawaiz, Farouq E.'
'Abdel-Rahman, Hamdy M.'
_publ_section_title
;
 5-{[5-(4-Chlorophenyl)-3-methyl-1<i>H</i>-pyrazol-1-yl]methyl}-1,3,4-oxadiazole-2(3<i>H</i>)-thione
;
_journal_coeditor_code           SU4127
_journal_issue                   2
_journal_name_full               IUCrData
_journal_page_first              x170176
_journal_paper_doi               10.1107/S2414314617001766
_journal_volume                  2
_journal_year                    2017
_chemical_formula_iupac          'C13 H11 Cl N4 O S'
_chemical_formula_moiety         'C13 H11 Cl N4 O S'
_chemical_formula_sum            'C13 H11 Cl N4 O S'
_chemical_formula_weight         306.77
_chemical_name_systematic
5-{[5-(4-Chlorophenyl)-3-methyl-1<i>H</i>-pyrazol-1-yl]methyl}-1,3,4-oxadiazole-2(3<i>H</i>)-thione
_space_group_crystal_system      monoclinic
_space_group_IT_number           14
_space_group_name_Hall           '-P 2ybc'
_space_group_name_H-M_alt        'P 1 21/c 1'
_symmetry_space_group_name_Hall  '-P 2ybc'
_symmetry_space_group_name_H-M   'P 1 21/c 1'
_atom_sites_solution_hydrogens   geom
_atom_sites_solution_primary     direct
_atom_sites_solution_secondary   difmap
_audit_creation_method           SHELXL-2014/7
_cell_angle_alpha                90
_cell_angle_beta                 91.189(3)
_cell_angle_gamma                90
_cell_formula_units_Z            4
_cell_length_a                   4.9309(2)
_cell_length_b                   17.1173(8)
_cell_length_c                   16.6517(7)
_cell_measurement_reflns_used    4259
_cell_measurement_temperature    150(2)
_cell_measurement_theta_max      69.8991
_cell_measurement_theta_min      3.7037
_cell_volume                     1405.16(11)
_computing_cell_refinement
;
<i>SAINT</i> (Bruker, 2016)
;
_computing_data_collection
;
<i>APEX3</i> (Bruker, 2016)
;
_computing_data_reduction
;
<i>SAINT</i>  (Bruker, 2016)
;
_computing_molecular_graphics
;
<i>DIAMOND</i> (Brandenburg & Putz, 2012) and Mercury (Macrae <i>et
al.</i>,  2008)
;
_computing_publication_material
;
<i>SHELXTL</i> (Sheldrick, 2008)
;
_computing_structure_refinement
;
<i>SHELXL2014</i> (Sheldrick, 2015<i>b</i>)
;
_computing_structure_solution
;
<i>SHELXT</i> (Sheldrick, 2015<i>a</i>)
;
_diffrn_ambient_temperature      150(2)
_diffrn_detector_area_resol_mean 10.4167
_diffrn_measured_fraction_theta_full 0.992
_diffrn_measured_fraction_theta_max 0.992
_diffrn_measurement_device_type  'Bruker D8 VENTURE PHOTON 100 CMOS'
_diffrn_measurement_method       '\w scans'
_diffrn_radiation_monochromator  mirror
_diffrn_radiation_type           CuK\a
_diffrn_radiation_wavelength     1.54178
_diffrn_reflns_av_R_equivalents  0.0803
_diffrn_reflns_limit_h_max       5
_diffrn_reflns_limit_h_min       -5
_diffrn_reflns_limit_k_max       18
_diffrn_reflns_limit_k_min       -20
_diffrn_reflns_limit_l_max       20
_diffrn_reflns_limit_l_min       -20
_diffrn_reflns_number            10669
_diffrn_reflns_theta_full        70.100
_diffrn_reflns_theta_max         70.119
_diffrn_reflns_theta_min         3.704
_exptl_absorpt_coefficient_mu    3.809
_exptl_absorpt_correction_T_max  0.92
_exptl_absorpt_correction_T_min  0.63
_exptl_absorpt_correction_type   multi-scan
_exptl_absorpt_process_details
;
(<i>SADABS</i>; Bruker, 2016)
;
_exptl_crystal_colour            colourless
_exptl_crystal_density_diffrn    1.450
_exptl_crystal_density_method    'not measured'
_exptl_crystal_description       needles
_exptl_crystal_F_000             632
_exptl_crystal_size_max          0.204
_exptl_crystal_size_mid          0.045
_exptl_crystal_size_min          0.023
_refine_diff_density_max         0.511
_refine_diff_density_min         -0.489
_refine_ls_extinction_method     none
_refine_ls_goodness_of_fit_ref   1.054
_refine_ls_hydrogen_treatment    constr
_refine_ls_matrix_type           full
_refine_ls_number_parameters     180
_refine_ls_number_reflns         2632
_refine_ls_number_restraints     2
_refine_ls_restrained_S_all      1.054
_refine_ls_R_factor_all          0.1009
_refine_ls_R_factor_gt           0.0681
_refine_ls_shift/su_max          0.001
_refine_ls_shift/su_mean         0.000
_refine_ls_structure_factor_coef Fsqd
_refine_ls_weighting_details
'w=1/[\s^2^(Fo^2^)+(0.1060P)^2^+0.4524P] where P=(Fo^2^+2Fc^2^)/3'
_refine_ls_weighting_scheme      calc
_refine_ls_wR_factor_gt          0.1742
_refine_ls_wR_factor_ref         0.1950
_reflns_number_gt                1759
_reflns_number_total             2632
_reflns_threshold_expression     'I > 2\s(I)'
_cod_data_source_file            su4127sup1.cif
_cod_data_source_block           I
_cod_database_code               1545500
_shelx_space_group_comment
;
The symmetry employed for this shelxl refinement is uniquely defined
by the following loop, which should always be used as a source of
symmetry information in preference to the above space-group names.
They are only intended as comments.
;
_shelx_estimated_absorpt_t_min   0.510
_shelx_estimated_absorpt_t_max   0.917
_shelx_hkl_file
;
   1   0   0   66.81    3.77
  -1   0   0   64.84    3.76
   2   0   0   70.32    4.12
   2   0   0   70.86    4.05
   3   0   0    8.15    0.81
   4   0   0    3.19    0.73
  -4   0   0    4.67    1.04
   4   0   0    3.45    0.76
   5   0   0    3.42    0.65
   0   1   0   -0.02    0.03
   1  -1   0  131.21    7.75
   1   1   0  140.84    7.77
   2  -1   0   12.50    0.94
   2   1   0   13.09    0.97
   2   1   0   13.36    0.85
   3  -1   0    6.04    0.70
   3   1   0    5.54    0.75
   4  -1   0    3.10    0.78
   4  -1   0    1.25    0.62
  -4  -1   0    1.93    0.75
   4   1   0    1.73    0.65
   4   1   0    0.36    0.81
  -4   1   0    2.51    0.97
   5  -1   0    4.71    0.69
  -5  -1   0    2.25    1.17
   5   1   0    3.61    0.68
   0   2   0   78.68    4.50
   1  -2   0   45.56    2.74
  -1   2   0   52.31    2.75
   1   2   0   45.86    2.77
   2  -2   0   18.13    1.13
   2   2   0   15.90    1.18
   2   2   0   17.35    1.10
   3  -2   0    0.18    0.56
   3  -2   0    0.15    0.44
   3   2   0   -0.04    0.52
  -4  -2   0    0.99    0.68
   4  -2   0    1.16    0.58
   4  -2   0    0.80    0.60
   4  -2   0    0.78    0.74
   4   2   0    0.29    0.63
  -5  -2   0    0.47    0.64
   5  -2   0    0.11    0.52
   5   2   0    1.09    0.55
   0   3   0    0.07    0.15
   1  -3   0  302.10   16.91
  -1   3   0  313.89   16.91
   1   3   0  273.92   16.93
   2  -3   0   76.14    4.01
   2   3   0   66.24    4.01
   2   3   0   65.81    4.05
   2   3   0   67.40    4.01
  -3  -3   0   -0.29    0.67
   3  -3   0   -0.53    0.67
   3  -3   0   -0.30    0.56
   3  -3   0    0.04    0.43
   3   3   0   -0.32    0.54
   4  -3   0   26.33    1.71
  -4  -3   0   25.55    1.71
   4  -3   0   26.90    1.68
   4  -3   0   23.80    1.72
   4   3   0   25.12    1.79
  -5  -3   0    4.48    0.65
   5  -3   0    5.48    0.74
   5  -3   0    3.62    0.66
   5   3   0    2.80    0.70
   0   4   0   53.37    3.09
   1   4   0  215.94   13.47
  -1   4   0  257.94   13.45
   1   4   0  233.01   13.48
   2  -4   0   21.94    1.30
   2   4   0   19.41    1.38
   2   4   0   19.20    1.32
   2   4   0   21.16    1.35
   3  -4   0   13.54    1.08
   3  -4   0   13.19    1.18
  -3  -4   0   13.07    1.15
   3  -4   0   13.74    0.99
   3   4   0   12.07    1.08
   4  -4   0    1.11    0.55
   4  -4   0    1.12    0.63
   4  -4   0    0.92    0.63
  -4  -4   0    2.01    0.60
   4   4   0    2.03    0.72
   5  -4   0    1.35    0.56
   5  -4   0    1.09    0.60
   5  -4   0    2.34    0.63
  -5  -4   0    2.92    0.56
   5   4   0    1.71    0.60
   0   5   0    0.00    0.23
  -1   5   0   57.45    3.27
   1   5   0   60.34    3.33
   1   5   0   52.59    3.30
   2  -5   0    0.65    0.41
   2   5   0    0.45    0.54
   2   5   0    0.57    0.46
   3  -5   0   30.39    1.88
  -3  -5   0   27.87    1.89
   3  -5   0   31.29    1.91
   3  -5   0   31.30    1.82
   3   5   0   25.30    1.91
   4  -5   0    3.24    0.77
   4  -5   0    1.83    0.54
  -4  -5   0    3.22    0.67
   4  -5   0    2.99    0.75
   4   5   0    2.99    0.84
   5  -5   0    0.47    0.47
   5  -5   0   -0.59    0.53
  -5  -5   0    1.05    0.45
   5  -5   0   -0.30    0.46
   5   5   0    1.29    0.65
   0   6   0   80.75    4.68
   1   6   0   58.62    3.51
   1   6   0   63.69    3.53
  -1   6   0   57.84    3.47
   2  -6   0   20.41    1.29
  -2   6   0   21.31    1.23
   2   6   0   19.10    1.49
   2   6   0   19.16    1.41
  -3  -6   0   43.18    2.56
  -3  -6   0   35.29    2.72
   3  -6   0   41.87    2.55
   3  -6   0   43.89    2.59
   3  -6   0   41.95    2.54
   3   6   0   45.50    2.65
   4  -6   0    0.08    0.61
   4  -6   0    0.78    0.49
   4  -6   0    0.29    0.55
  -4  -6   0    0.89    0.56
   4   6   0    1.72    0.74
   5  -6   0    4.05    0.57
  -5  -6   0    3.86    0.57
   5  -6   0    2.82    0.76
   5  -6   0    4.53    0.60
   5   6   0    3.74    0.76
   0   7   0    0.13    0.28
   0   7   0    0.41    0.36
  -1  -7   0   36.93    2.30
   1  -7   0   38.90    2.24
   1   7   0   34.47    2.26
   1   7   0   34.00    2.22
  -1   7   0   39.19    2.19
   2  -7   0   41.19    2.50
  -2   7   0   46.04    2.50
   2   7   0   38.13    2.64
   3  -7   0    0.63    0.53
   3  -7   0    0.64    0.50
   3  -7   0    0.51    0.52
  -3  -7   0   -0.40    0.76
  -3  -7   0    0.05    0.53
   3   7   0   -0.71    0.61
   4  -7   0   -1.01    0.51
   4  -7   0   -0.25    0.51
  -4  -7   0    1.26    0.52
   4  -7   0    0.25    0.59
   4   7   0    0.53    0.72
   5  -7   0   -0.28    0.39
   5  -7   0    1.01    0.69
   5  -7   0   -0.27    0.40
  -5  -7   0    0.60    0.40
   5   7   0   -0.44    0.61
   0  -8   0   40.78    2.43
   0   8   0   35.74    2.40
   0   8   0   41.27    2.37
   1  -8   0   19.98    1.38
   1   8   0   20.80    1.40
  -1   8   0   20.90    1.32
  -1   8   0   20.27    1.34
   2   8   0    8.42    1.19
  -3  -8   0   11.78    1.03
   3  -8   0   13.39    1.05
  -3  -8   0   11.00    1.20
   3  -8   0   13.69    1.13
   3  -8   0   15.56    1.13
   3   8   0   13.99    1.22
   4  -8   0    1.02    0.54
   4  -8   0    3.62    0.63
   4  -8   0    1.91    0.70
  -4  -8   0    3.09    0.64
   4   8   0    1.63    0.71
   5  -8   0    0.50    0.38
   5  -8   0    3.56    0.95
   5  -8   0    1.23    0.40
  -5  -8   0    1.19    0.37
   5   8   0    0.73    0.64
   0  -9   0   -0.94    0.54
   0   9   0   -0.54    0.54
   1  -9   0   38.59    2.42
  -1  -9   0   41.42    2.47
  -1   9   0   35.82    2.45
  -1   9   0   40.52    2.43
   1   9   0   41.25    2.53
   2  -9   0    3.43    0.86
  -2  -9   0    4.24    0.75
   3  -9   0    0.69    0.52
  -3  -9   0    2.98    0.63
  -3  -9   0    1.02    0.70
   3  -9   0    0.99    0.58
   3  -9   0    1.04    0.66
   4  -9   0    3.79    0.68
  -4  -9   0    5.99    0.68
   4  -9   0    4.25    0.69
   4  -9   0    3.71    0.83
   4   9   0    3.03    0.86
  -5  -9   0    0.20    0.33
   5  -9   0    0.74    0.37
   5  -9   0    2.16    1.14
   5  -9   0    0.36    0.36
   5   9   0    1.15    0.67
   0 -10   0  120.86    7.42
   0  10   0  134.44    7.46
   1 -10   0    6.72    0.88
  -1 -10   0    7.31    0.92
  -1 -10   0    6.61    0.86
  -1  10   0    8.58    1.06
   2 -10   0   12.35    1.06
   2 -10   0    9.96    0.94
  -2 -10   0    9.62    0.94
  -2 -10   0    9.16    0.97
   2 -10   0    9.75    0.95
  -3 -10   0    3.97    0.71
  -3 -10   0    3.74    0.90
   3  10   0    5.95    1.05
  -4 -10   0    2.16    0.74
   4 -10   0    1.67    0.51
   4 -10   0    1.89    0.78
   4 -10   0    0.99    0.50
  -4 -10   0    1.23    0.47
   4  10   0    0.54    0.68
  -5 -10   0    0.20    0.31
   5 -10   0   -0.67    0.35
   5 -10   0   -0.17    0.31
   5  10   0   -0.61    0.67
   0 -11   0    0.50    0.73
   0 -11   0    0.24    0.62
  -1 -11   0    1.24    0.63
  -1 -11   0    1.98    0.65
   1 -11   0    2.64    0.66
  -1 -11   0    1.43    0.59
   1 -11   0    2.90    0.80
  -1  11   0    2.23    1.29
   3 -11   0    1.40    0.55
  -3 -11   0    2.29    0.65
   3 -11   0    0.00    0.79
  -3 -11   0    3.07    0.64
   3 -11   0    1.82    0.58
   3  11   0    3.21    0.97
  -4 -11   0    4.05    0.73
   4 -11   0    0.97    0.77
   4  11   0    4.40    0.87
  -5 -11   0    0.69    0.29
   5 -11   0    0.07    0.32
   0 -12   0   38.68    2.42
   0 -12   0   36.89    2.39
   0 -12   0   37.32    2.40
  -1 -12   0    0.17    0.72
  -1 -12   0   -0.62    0.53
   1 -12   0   -0.17    0.70
   1 -12   0    1.27    0.66
  -1 -12   0   -1.10    0.64
   2 -12   0   22.83    1.64
  -2 -12   0   21.27    1.49
   2 -12   0   22.87    1.57
   2 -12   0   20.71    1.51
  -2 -12   0   21.89    1.53
  -3 -12   0    3.25    0.65
   3 -12   0    4.02    0.69
   3 -12   0    3.36    0.69
   3 -12   0    3.90    0.91
   3  12   0    1.54    0.81
  -4 -12   0   -0.37    0.49
   4 -12   0    0.04    0.41
   4 -12   0    0.30    0.39
  -4 -12   0    0.89    0.38
   4 -12   0    1.65    0.91
   4  12   0   -0.58    0.70
   0 -13   0    0.61    0.65
   0 -13   0    0.53    0.81
   0 -13   0    0.56    0.68
  -1 -13   0    3.93    1.07
   1 -13   0    1.92    0.80
  -1 -13   0    3.71    0.80
  -1 -13   0    3.31    0.83
   2 -13   0    8.05    1.18
   2 -13   0    8.20    0.89
  -2 -13   0   10.83    0.93
   2 -13   0    7.12    0.96
  -2 -13   0    9.10    0.92
  -3 -13   0    5.49    0.80
   3 -13   0    6.79    1.00
   3 -13   0    4.25    0.77
  -3 -13   0    5.81    0.74
   3 -13   0    6.70    0.82
   3  13   0    4.82    0.98
   4 -13   0    1.51    0.41
  -4 -13   0    1.48    0.47
  -4 -13   0    1.93    0.45
   4 -13   0    1.80    0.45
   4  13   0    2.31    0.78
   0 -14   0   24.30    1.82
   0 -14   0   23.70    1.67
   1 -14   0   16.54    1.58
  -1 -14   0   18.65    1.39
  -1 -14   0   20.36    1.67
  -1 -14   0   19.44    1.36
   2 -14   0    3.37    0.95
  -2 -14   0    0.18    0.55
   2 -14   0    1.33    0.62
   2 -14   0    0.75    0.66
  -2 -14   0    0.61    0.52
   3 -14   0    1.31    0.52
  -3 -14   0    0.47    0.51
   3 -14   0    1.35    0.52
  -3 -14   0    0.31    0.46
   3 -14   0    0.57    0.79
   3  14   0    0.40    0.70
  -4 -14   0    0.64    0.32
   4 -14   0    1.60    0.39
   4 -14   0    1.87    0.45
  -4 -14   0    0.36    0.44
   4  14   0    0.24    0.86
   0 -15   0   -0.06    0.87
   0 -15   0    0.14    0.66
   1 -15   0    3.08    0.99
  -1 -15   0    1.15    0.60
  -1 -15   0    0.44    0.55
  -2 -15   0    5.80    0.76
   2 -15   0    5.91    1.00
  -2 -15   0    4.94    0.77
   3 -15   0    0.77    0.44
  -3 -15   0    0.22    0.38
  -3 -15   0    0.17    0.38
   3 -15   0   -0.05    0.42
   3  15   0   -0.27    0.75
   4 -15   0    1.67    0.39
  -4 -15   0    1.52    0.32
  -4 -15   0    1.39    0.52
   0 -16   0    3.05    0.86
   0 -16   0    3.35    1.02
  -1 -16   0    0.43    0.61
  -1 -16   0   -0.71    0.58
  -2 -16   0    2.61    0.66
  -2 -16   0    3.33    0.62
   2 -16   0    3.99    0.98
   2  16   0    3.86    0.99
  -3 -16   0    0.10    0.34
  -3 -16   0   -0.23    0.32
   3 -16   0    0.25    0.37
   3  16   0    0.43    0.81
   0 -17   0    2.87    0.84
   0 -17   0    4.12    0.93
  -1 -17   0    2.12    0.53
  -1 -17   0    1.45    0.58
   1 -17   0    3.73    0.91
  -2 -17   0    3.34    0.55
  -2 -17   0    3.17    0.52
   2  17   0    5.58    1.00
  -3 -17   0    0.72    0.30
   3 -17   0    1.02    0.40
  -3 -17   0    0.56    0.31
   3  17   0    1.91    1.06
   0 -18   0    1.19    0.49
  -1 -18   0    0.65    0.44
  -2 -18   0   -0.04    0.32
  -2 -18   0    0.07    0.33
   2  18   0   -0.20    1.14
  -3 -18   0    0.55    0.27
  -3 -18   0    0.68    0.26
   0 -19   0   -0.72    0.42
  -1 -19   0    0.46    0.38
  -2 -19   0    1.38    0.38
  -1 -20   0    0.80    0.34
   5   0  -1    0.51    0.53
   4   0  -1    0.71    0.70
  -4   0   1    0.94    1.27
   3   0  -1   -0.13    0.43
   2   0  -1   -0.28    0.42
  -2   0   1   -0.26    0.23
   2   0  -1    0.11    0.25
  -1   0   1    0.09    0.16
   1   0  -1   -0.01    0.17
   0   0  -1   -0.02    0.04
   0   0   1    0.03    0.04
   1   0   1    0.13    0.08
   1   0   1    0.20    0.11
   2   0   1   -0.29    0.46
   3   0   1    0.71    0.51
  -4   0  -1   -1.28    0.72
   4   0   1   -0.47    0.73
   4   0   1    0.50    0.60
  -5   0  -1    0.22    0.81
   5   0   1   -0.07    0.55
   5  -1  -1    0.42    0.53
   5   1  -1    0.00    0.49
  -4  -1   1   29.08    1.89
   4  -1  -1   29.35    1.81
   4  -1  -1   26.74    1.81
   4   1  -1   27.20    1.81
   4   1  -1   24.69    1.88
   3  -1  -1    4.01    0.62
   3   1  -1    4.51    0.70
   2  -1  -1   83.34    4.82
   2  -1  -1   81.66    4.77
   2   1  -1   77.74    4.80
  -2   1   1   93.15    4.79
   2   1  -1   80.16    4.84
  -1  -1   1   81.83    4.83
   1  -1  -1   82.07    4.81
   1   1  -1   78.72    4.83
  -1   1   1   94.08    4.82
   0  -1   1    6.20    0.33
   0  -1  -1    5.15    0.33
   0   1  -1    4.56    0.33
   0   1   1    5.71    0.33
   1   1   1  185.86   11.12
   1   1   1  204.20   11.13
   2  -1   1  168.86    9.61
   2   1   1  162.36    9.56
   2   1   1  165.12    9.57
   2   1   1  173.67    9.62
   3  -1   1    0.85    0.48
   3   1   1    0.85    0.56
   4  -1   1   -0.01    0.63
   4  -1   1    0.12    0.84
   4  -1   1   -0.69    0.70
  -4  -1  -1    2.20    0.70
  -4   1  -1   -0.44    0.78
   4   1   1    1.41    0.86
   4   1   1    1.21    0.64
  -5  -1  -1    0.19    0.66
   5  -1   1    0.93    0.55
   5   1   1    0.58    0.55
   5  -2  -1   -0.40    0.53
   5   2  -1    0.37    0.54
   4  -2  -1   -0.20    0.60
   4  -2  -1    0.66    0.71
  -4  -2   1    0.24    0.72
   4  -2  -1   -0.42    0.56
   4   2  -1   -0.22    0.63
   3  -2  -1   24.12    1.63
   3  -2  -1   26.11    1.58
   3   2  -1   23.32    1.63
   2  -2  -1    0.20    0.16
   2  -2  -1    0.40    0.40
   2   2  -1    0.55    0.49
   2   2  -1    0.14    0.34
  -2   2   1    0.26    0.23
   1  -2  -1  121.18    7.38
  -1  -2   1  125.63    7.40
  -1   2   1  148.23    7.39
   1   2  -1  122.17    7.40
   0  -2   1   18.72    1.05
   0   2   1   17.90    1.05
   0   2  -1   17.18    1.05
   1   2   1  134.09    7.67
   2  -2   1   33.32    2.02
   2   2   1   34.39    1.98
   2   2   1   32.77    1.96
   2   2   1   33.00    2.05
   3  -2   1   32.30    2.16
   3  -2   1   35.39    2.13
   3   2   1   36.41    2.18
   4  -2   1    0.44    0.74
  -4  -2  -1    0.06    0.62
   4  -2   1    0.28    0.60
   4  -2   1   -0.02    0.59
   4   2   1   -0.07    0.62
  -4   2  -1    2.21    0.87
   5  -2   1    1.61    0.66
  -5  -2  -1    1.68    0.58
   5  -2   1   -0.03    0.58
   5   2   1    0.93    0.59
   5  -3  -1    2.54    0.62
  -5  -3   1    3.45    0.74
   5   3  -1    3.43    0.70
   4  -3  -1    3.81    0.75
  -4  -3   1    4.15    0.80
   4  -3  -1    0.48    0.67
   4  -3  -1    2.53    0.65
   4   3  -1    2.59    0.74
  -3  -3   1    6.68    0.91
   3  -3  -1    9.11    0.76
   3  -3  -1    8.26    0.94
   3  -3  -1    8.75    0.83
   3   3  -1    8.98    0.88
   2  -3  -1    5.58    0.54
   2  -3  -1    5.41    0.39
   2   3  -1    4.70    0.69
   2   3  -1    4.51    0.59
  -2   3   1    5.86    0.44
   1  -3  -1  268.61   15.71
  -1   3   1  296.52   15.71
   1   3  -1  261.26   15.73
   0  -3  -1    7.55    0.54
   0   3   1    9.34    0.54
   0   3  -1    8.72    0.55
  -1   3  -1    3.31    0.25
  -1   3  -1    3.69    0.24
   2  -3   1   10.24    0.84
   2   3   1   11.35    0.95
   2   3   1   11.12    0.78
   2   3   1   11.27    0.79
   3  -3   1    0.92    0.62
  -3  -3  -1   -0.58    0.68
   3  -3   1    0.58    0.78
   3  -3   1    0.08    0.45
   3   3   1    0.55    0.51
   4  -3   1    0.18    0.63
   4  -3   1    0.55    0.63
   4  -3   1   -0.45    0.55
  -4  -3  -1    0.88    0.59
   4   3   1    1.38    0.70
  -5  -3  -1    1.51    0.53
   5  -3   1    1.07    0.93
   5  -3   1    1.03    0.56
   5  -3   1   -0.26    0.54
   5   3   1    0.77    0.61
  -5  -4   1    1.75    0.54
   5  -4  -1    1.32    0.63
   5  -4  -1    1.06    0.52
   5   4  -1    1.95    0.63
   4  -4  -1    6.20    0.74
  -4  -4   1    5.38    0.81
   4  -4  -1    5.41    0.77
   4  -4  -1    5.90    0.83
   4   4  -1    7.16    0.93
   3  -4  -1    5.63    0.93
   3  -4  -1    5.57    0.62
  -3  -4   1    6.70    0.91
   3  -4  -1    5.23    0.77
   3   4  -1    6.30    0.81
   2  -4  -1   21.34    1.31
   2  -4  -1   21.32    1.24
   2   4  -1   18.60    1.35
  -2   4   1   21.74    1.27
   2   4  -1   20.08    1.41
   1  -4  -1   79.88    4.76
   1   4  -1   82.72    4.79
  -1   4   1   86.23    4.76
   0  -4  -1  219.25   12.12
   0   4   1  211.53   12.11
   0   4  -1  205.20   12.11
  -1   4  -1   13.11    0.77
  -1   4  -1   12.45    0.78
   2  -4   1    1.90    0.51
   2   4   1    1.66    0.50
   2   4   1    2.13    0.48
   3  -4   1   15.39    1.17
   3  -4   1   13.27    1.28
  -3  -4  -1   16.32    1.22
   3  -4   1   16.53    1.10
   3   4   1   13.55    1.18
   4  -4   1    1.62    0.62
   4  -4   1    1.41    0.68
   4  -4   1    2.47    0.62
  -4  -4  -1    1.28    0.59
   4   4   1    0.89    0.75
  -5  -4  -1   -0.04    0.48
   5  -4   1    0.73    0.54
   5  -4   1    0.46    0.52
   5  -4   1   -0.39    0.55
   5   4   1    2.23    0.68
  -5  -5   1    2.77    0.58
   5  -5  -1    2.63    0.60
   5  -5  -1    2.73    0.66
   5  -5  -1    4.58    0.63
   5   5  -1    4.11    0.71
   4  -5  -1    3.73    0.72
   4  -5  -1    4.76    0.66
   4  -5  -1    4.83    0.76
  -4  -5   1    4.31    0.78
   4   5  -1    4.47    0.90
   3  -5  -1    2.92    0.60
   3  -5  -1    2.30    0.53
   3  -5  -1    2.53    0.67
  -3  -5   1    3.24    0.79
   3   5  -1    3.36    0.75
   2  -5  -1    0.40    0.39
  -2   5   1    0.92    0.39
   2   5  -1    0.42    0.53
   2   5  -1    1.26    0.50
   1  -5  -1  201.86   11.63
   1   5  -1  195.68   11.66
  -1   5   1  212.57   11.62
   0   5   1   10.55    0.66
   0   5  -1    8.99    0.64
   0   5  -1    9.62    0.68
   1   5   1  154.20    8.73
   1   5   1  146.79    8.72
  -1   5  -1  155.01    8.70
  -1   5  -1  152.12    8.69
   2  -5   1   10.41    0.81
   2   5   1   11.82    0.93
   2   5   1    9.54    0.87
   3  -5   1    7.02    0.91
   3  -5   1    8.10    0.88
  -3  -5  -1    8.82    0.86
   3  -5   1    6.59    0.78
   3   5   1    9.97    0.95
   4  -5   1    6.44    0.88
   4  -5   1    4.60    0.78
   4  -5   1    6.32    0.75
  -4  -5  -1    6.18    0.76
   4   5   1    6.89    1.00
   5  -5   1    1.32    0.50
   5  -5   1    1.71    0.61
  -5  -5  -1    2.91    0.54
   5  -5   1    1.48    0.50
   5   5   1    1.67    0.68
   5  -6  -1    0.70    0.60
   5  -6  -1    0.64    0.45
  -5  -6   1    0.10    0.42
   5  -6  -1    0.33    0.44
   5   6  -1    0.57    0.61
   4  -6  -1    6.32    0.70
   4  -6  -1    4.41    0.70
   4  -6  -1    4.86    0.74
  -3  -6   1   40.98    2.60
   3  -6  -1   46.36    2.63
   3  -6  -1   42.38    2.57
  -3  -6   1   37.22    2.81
   3  -6  -1   47.30    2.58
   3   6  -1   40.20    2.65
   2  -6  -1    1.15    0.38
   2   6  -1   -1.03    0.58
  -2   6   1    0.74    0.49
   2   6  -1   -0.37    0.94
  -1   6   1   31.81    1.80
   1   6  -1   28.72    1.85
   0   6   1   40.77    2.12
   0   6  -1   30.96    2.11
   0   6  -1   34.97    2.11
  -1   6  -1    2.71    0.35
  -1   6  -1    3.02    0.35
   2  -6   1    0.33    0.41
   2   6   1    0.12    0.64
   2   6   1    0.94    0.57
  -3  -6  -1    0.96    0.88
   3  -6   1    0.54    0.56
   3  -6   1    0.47    0.63
   3  -6   1    1.14    0.50
  -4  -6  -1   -0.92    0.51
   4  -6   1    0.12    0.58
   4  -6   1   -0.45    0.55
   4  -6   1    0.15    0.47
   4   6   1   -0.05    0.68
   5  -6   1   -0.11    0.44
   5  -6   1    0.95    0.71
  -5  -6  -1    1.93    0.48
   5  -6   1    1.29    0.44
   5   6   1    1.23    0.65
   5  -7  -1   -0.31    0.42
   5  -7  -1    0.27    0.42
  -5  -7   1   -0.64    0.39
   5  -7  -1    0.49    0.61
   5   7  -1    0.39    0.59
   4  -7  -1    3.32    0.75
  -4  -7   1    4.79    0.69
   4  -7  -1    2.87    0.64
   4  -7  -1    4.11    0.69
   4   7  -1    4.88    0.85
   3  -7  -1    0.33    0.54
  -3  -7   1    0.61    0.55
  -3  -7   1    0.60    0.87
   3  -7  -1    0.96    0.51
   3  -7  -1    1.04    0.51
   3   7  -1    0.70    0.66
  -1  -7   1   17.42    1.31
   1   7  -1   15.47    1.17
  -1   7   1   19.57    1.10
   1   7  -1   14.34    1.21
   0  -7  -1   19.57    1.43
   0   7  -1   20.90    1.38
   0   7  -1   22.06    1.34
   0   7   1   21.91    1.34
  -1  -7  -1   47.08    2.81
   1  -7   1   42.63    2.77
   1   7   1   48.50    2.77
  -1   7  -1   46.38    2.72
   1   7   1   46.58    2.79
  -1   7  -1   46.67    2.72
   2  -7   1    9.82    0.82
  -3  -7  -1    5.77    0.76
   3  -7   1    5.67    0.75
  -3  -7  -1    5.78    1.04
   3  -7   1    6.19    0.78
   3  -7   1    5.86    0.75
   3   7   1    5.83    0.92
   4  -7   1    2.53    0.69
  -4  -7  -1    3.26    0.69
   4  -7   1    3.27    0.71
   4  -7   1    2.96    0.66
   4   7   1    3.87    0.89
   5  -7   1    1.19    0.76
   5  -7   1    2.09    0.49
  -5  -7  -1    1.63    0.42
   5  -7   1    0.53    0.43
   5   7   1    1.11    0.67
   5  -8  -1    0.29    0.71
   5  -8  -1    0.37    0.38
  -5  -8   1    0.41    0.37
   5  -8  -1    0.48    0.41
   5   8  -1    0.38    0.58
   4  -8  -1    3.90    0.71
   4  -8  -1    4.42    0.70
  -4  -8   1    5.28    0.71
   4  -8  -1    4.40    0.83
   4   8  -1    4.92    0.84
  -3  -8   1    1.73    0.74
   3  -8  -1    1.46    0.61
  -3  -8   1    0.46    0.55
   3  -8  -1    1.53    0.61
   3  -8  -1    1.00    0.50
   3   8  -1    1.10    0.69
  -2  -8   1   39.99    2.61
   2  -8  -1   46.01    2.68
   2  -8  -1   41.90    2.65
  -2  -8   1   42.02    2.69
   2  -8  -1   46.15    2.61
   1  -8  -1   34.31    1.96
  -1  -8   1   29.47    2.04
   1   8  -1   31.39    2.03
  -1   8   1   30.68    1.94
   0  -8  -1   56.93    3.28
   0  -8   1   51.13    3.31
   0   8  -1   54.66    3.30
   0   8   1   57.27    3.27
   0   8  -1   54.51    3.26
   1  -8   1    6.98    0.86
  -1  -8  -1   11.41    0.94
   1   8   1   11.20    0.88
  -1   8  -1    8.55    0.76
  -1   8  -1    8.75    0.80
  -2  -8  -1    4.16    0.81
   2  -8   1    3.18    0.82
   2  -8   1    1.71    0.54
   2  -8   1    3.05    0.74
  -2  -8  -1    3.81    0.83
   2   8   1    2.08    0.97
  -3  -8  -1    9.29    0.81
   3  -8   1    7.33    0.88
  -3  -8  -1    6.48    0.98
   3  -8   1    6.81    0.90
   3   8   1   10.24    1.12
   4  -8   1    2.60    0.81
   4  -8   1    3.73    0.65
  -4  -8  -1    3.86    0.70
   4  -8   1    3.33    0.73
   4   8   1    2.28    0.79
   5  -8   1    3.56    0.55
   5  -8   1    4.86    0.53
   5  -8   1    4.81    1.23
  -5  -8  -1    4.80    0.51
   5   8   1    3.38    0.80
   5  -9  -1    1.47    0.97
   5  -9  -1    0.77    0.35
  -5  -9   1    0.25    0.36
   5   9  -1    0.28    0.61
   4  -9  -1    5.44    0.74
   4  -9  -1    3.50    0.82
  -4  -9   1    4.96    0.71
   4  -9  -1    5.30    0.70
   4   9  -1    5.44    0.86
   3  -9  -1   13.26    1.18
   3  -9  -1   14.64    1.13
  -3  -9   1   14.52    1.04
  -3  -9   1   12.97    1.20
   3  -9  -1   13.18    1.04
   3   9  -1   12.36    1.27
   2  -9  -1   12.77    1.05
   2  -9  -1   13.60    1.23
   2  -9  -1   12.33    1.16
  -2  -9   1   14.26    1.15
  -2  -9   1   16.12    1.09
  -1  -9   1   24.13    1.65
   1   9  -1   22.13    1.74
  -1   9   1   24.37    1.65
   0  -9   1    0.76    0.69
   0  -9  -1    0.83    0.56
   0   9  -1    0.71    0.54
   1  -9   1    9.30    0.98
  -1   9  -1   10.46    1.05
  -1   9  -1   10.90    0.96
   2  -9   1   37.27    2.51
   2  -9   1   43.64    2.54
  -2  -9  -1   41.30    2.55
   2  -9   1   41.43    2.52
  -2  -9  -1   40.77    2.52
   3  -9   1   15.82    1.18
  -3  -9  -1   16.13    1.15
  -3  -9  -1   14.95    1.29
   3  -9   1   14.87    1.30
   3  -9   1   14.76    1.19
   3   9   1   16.27    1.41
   4  -9   1   -0.05    0.53
   4  -9   1    0.28    0.47
   4  -9   1    1.51    0.75
  -4  -9  -1    0.30    0.48
  -4  -9  -1   -0.98    0.83
   4   9   1    0.88    0.75
   5  -9   1    0.46    0.35
  -5  -9  -1   -0.57    0.32
   5  -9   1   -0.06    0.35
   5   9   1   -0.14    0.66
  -5 -10   1    1.63    0.40
   5 -10  -1    1.47    0.42
   5  10  -1    1.47    0.74
  -4 -10   1    2.11    0.56
   4 -10  -1    0.35    0.70
   4 -10  -1    0.46    0.51
   4 -10  -1    0.23    0.49
  -4 -10   1   -1.16    0.72
   4  10  -1    1.19    0.68
   3 -10  -1   18.15    1.27
   3 -10  -1   18.08    1.34
   3 -10  -1   17.24    1.44
  -3 -10   1   19.68    1.29
  -3 -10   1   18.65    1.39
   3  10  -1   17.69    1.48
   2 -10  -1    0.82    0.71
  -2 -10   1    0.10    0.53
   2 -10  -1    0.47    0.62
   2 -10  -1    2.19    0.67
  -2 -10   1    0.08    0.60
   1 -10  -1    4.47    0.75
  -1 -10   1    4.14    0.82
  -1 -10   1    3.24    0.78
  -1 -10   1    3.24    0.83
  -1  10   1    5.50    1.02
   0 -10   1   -0.40    0.67
   0  10  -1    0.16    0.80
   1 -10   1    0.02    0.64
  -1 -10  -1    0.54    0.57
  -1  10  -1    1.52    0.85
   2 -10   1    3.24    0.76
   2 -10   1    5.03    0.86
  -2 -10  -1    4.78    0.72
   2 -10   1    2.82    0.81
  -2 -10  -1    4.37    0.80
   3 -10   1   16.18    1.22
   3 -10   1   14.62    1.43
  -3 -10  -1   16.80    1.27
  -3 -10  -1   16.93    1.20
   3 -10   1   15.54    1.22
   3  10   1   15.79    1.47
  -4 -10  -1    4.02    0.88
  -4 -10  -1    3.54    0.58
   4 -10   1    2.80    0.67
   4 -10   1    1.48    0.76
   4 -10   1    1.59    0.53
   4  10   1    1.65    0.73
   5 -10   1    0.00    0.33
  -5 -10  -1    0.09    0.30
   5 -10   1   -0.08    0.33
   5  10   1    0.49    0.76
  -5 -11   1    1.67    0.36
   5 -11  -1    1.86    0.42
   4 -11  -1   16.05    1.08
   4 -11  -1   14.39    1.08
  -4 -11   1   17.48    1.07
   4 -11  -1   15.20    1.26
  -4 -11   1   13.60    1.17
   4  11  -1   14.34    1.24
   3 -11  -1    6.28    0.94
   3 -11  -1    6.01    0.81
   3 -11  -1    7.38    0.84
  -3 -11   1    8.29    0.77
  -3 -11   1    7.64    0.93
   3  11  -1    6.63    1.00
  -2 -11   1   46.93    2.93
   2 -11  -1   52.39    2.96
  -2 -11   1   46.15    2.94
   2 -11  -1   50.45    2.94
   2 -11  -1   46.13    2.95
  -1 -11   1   -0.19    0.63
   1 -11  -1    0.86    0.56
  -1 -11   1    0.16    0.62
   1 -11  -1    0.10    0.72
  -1 -11   1    0.77    0.59
   0 -11   1   -0.09    0.71
   0 -11  -1    0.20    0.58
   0 -11   1   -0.26    0.65
   0 -11  -1    0.34    0.76
  -1 -11  -1    2.04    0.62
   1 -11   1    1.77    0.69
  -1 -11  -1    3.16    0.71
  -1 -11  -1    2.07    0.62
   1 -11   1    2.94    0.81
  -1  11  -1    3.50    1.62
  -2 -11  -1    2.98    0.73
   2 -11   1    2.68    0.69
   2 -11   1    2.01    0.64
   2 -11   1    1.93    0.73
  -2 -11  -1    3.87    0.72
  -3 -11  -1    7.96    0.79
   3 -11   1    6.28    0.79
   3 -11   1    6.33    1.05
   3 -11   1    6.98    0.86
  -3 -11  -1    7.41    0.91
   3  11   1    4.84    1.05
   4 -11   1    0.78    0.42
   4 -11   1    0.71    0.39
  -4 -11  -1    1.65    0.39
   4 -11   1    0.17    0.80
  -4 -11  -1    0.84    0.56
   4  11   1    0.90    0.73
   5 -11   1    0.41    0.30
  -5 -11  -1    0.75    0.28
   5 -11   1    1.23    0.35
  -4 -12   1    0.86    0.55
   4 -12  -1    2.20    0.85
   4 -12  -1    3.02    0.54
  -4 -12   1    2.92    0.49
   4 -12  -1    2.41    0.53
   4  12  -1    2.73    0.74
  -3 -12   1    1.24    0.49
   3 -12  -1    1.60    0.60
   3 -12  -1    3.18    0.80
   3 -12  -1    1.81    0.57
  -3 -12   1    0.66    0.56
   3  12  -1    1.21    0.72
   2 -12  -1    4.02    0.77
  -2 -12   1    1.61    0.56
  -2 -12   1    1.29    0.56
   2 -12  -1    2.30    0.60
   1 -12  -1    1.27    0.64
  -1 -12   1    0.75    0.53
   1 -12  -1    1.09    0.70
  -1 -12   1    0.99    0.76
  -1 -12   1    0.84    0.59
   0 -12  -1    2.44    0.78
   0 -12   1    0.69    0.63
   0 -12   1    0.82    0.77
   0 -12   1    1.70    0.65
  -1 -12  -1   13.33    1.19
   1 -12   1   12.09    1.24
   1 -12   1   14.29    1.27
  -1 -12  -1   12.65    1.10
  -1 -12  -1   14.81    1.25
   2 -12   1   13.46    1.27
   2 -12   1   16.45    1.35
  -2 -12  -1   20.69    1.28
  -2 -12  -1   18.69    1.28
   2 -12   1   15.07    1.47
   3 -12   1   20.85    1.41
   3 -12   1   16.75    1.54
   3 -12   1   21.12    1.42
  -3 -12  -1   21.10    1.38
  -3 -12  -1   22.13    1.46
   3  12   1   18.82    1.60
   4 -12   1    0.78    0.41
   4 -12   1    0.82    0.38
  -4 -12  -1    0.76    0.48
  -4 -12  -1    0.77    0.35
   4  12   1    0.05    0.70
  -4 -13   1   -0.65    0.31
   4 -13  -1   -0.24    1.01
   4 -13  -1    0.02    0.41
  -4 -13   1    0.04    0.45
   4 -13  -1    0.08    0.39
   4  13  -1   -1.18    0.71
   3 -13  -1    0.53    0.64
   3 -13  -1    0.65    0.76
  -3 -13   1    0.13    0.56
  -3 -13   1    0.82    0.52
   3 -13  -1    0.55    0.57
   3  13  -1    0.13    0.71
   2 -13  -1   17.98    1.38
   2 -13  -1   15.81    1.23
  -2 -13   1   14.78    1.17
   2 -13  -1   14.38    1.19
  -2 -13   1   14.25    1.18
  -1 -13   1    7.87    0.84
   1 -13  -1    4.61    1.00
  -1 -13   1    6.52    0.85
   0 -13   1    3.33    0.77
   0 -13  -1    3.29    0.99
   0 -13   1    3.17    0.84
   0 -13   1    3.74    1.05
   0 -13  -1    3.58    0.91
  -1 -13  -1    1.81    0.60
  -1 -13  -1    0.90    0.79
  -1 -13  -1    0.36    0.63
   1 -13   1   -0.18    0.87
   2 -13   1   17.16    1.34
   2 -13   1   15.59    1.29
  -2 -13  -1   20.59    1.34
  -2 -13  -1   19.97    1.29
   2 -13   1   13.90    1.53
  -3 -13  -1    3.56    0.72
  -3 -13  -1    3.25    0.62
   3 -13   1    1.76    0.58
   3 -13   1    4.10    0.96
   3 -13   1    1.61    0.55
   3  13   1    2.90    0.89
  -4 -13  -1    1.67    0.43
   4 -13   1    2.43    0.45
  -4 -13  -1    1.94    0.47
   4 -13   1    2.61    0.47
   4  13   1    2.14    0.79
  -4 -14   1    0.82    0.30
   4 -14  -1    0.72    0.35
   4 -14  -1    1.72    0.46
  -4 -14   1    0.63    0.49
   4  14  -1    0.42    0.88
  -3 -14   1    2.33    0.52
   3 -14  -1    1.80    0.53
   3 -14  -1    1.59    0.53
  -3 -14   1    2.04    0.60
   3 -14  -1    3.03    0.86
   3  14  -1    1.97    0.75
   2 -14  -1    1.59    0.61
  -2 -14   1    0.60    0.55
   2 -14  -1    1.92    0.72
  -2 -14   1    2.02    0.57
   2  14  -1    2.13    0.81
  -1 -14   1    3.53    0.76
  -1 -14   1    3.19    0.72
   0 -14   1    8.31    0.92
   0 -14   1    8.60    0.95
   0 -14   1    8.28    1.20
   1 -14   1    1.47    1.00
  -1 -14  -1    3.40    0.83
  -1 -14  -1    5.36    0.83
  -2 -14  -1   13.01    1.11
   2 -14   1   13.33    1.14
  -2 -14  -1   13.70    1.13
   2 -14   1   12.99    1.29
   2 -14   1   12.22    1.09
  -3 -14  -1    5.47    0.65
   3 -14   1    2.89    0.60
   3 -14   1    3.34    0.63
  -3 -14  -1    3.64    0.65
   3  14   1    3.86    0.98
   4 -14   1    4.65    0.55
  -4 -14  -1    5.70    0.60
  -4 -14  -1    6.36    0.50
   4 -14   1    5.36    0.53
   4  14   1    6.04    0.98
  -4 -15   1    0.45    0.51
  -4 -15   1   -0.08    0.25
   4 -15  -1    0.21    0.32
  -3 -15   1    0.91    0.41
   3 -15  -1    0.83    0.44
   3 -15  -1   -0.49    0.82
  -3 -15   1    0.72    0.37
   3 -15  -1    0.47    0.42
   3  15  -1    0.97    0.74
  -2 -15   1    4.97    0.74
  -2 -15   1    3.76    0.75
   2 -15  -1    6.16    0.97
   2 -15  -1    3.62    0.80
   2  15  -1    4.34    1.00
   1 -15  -1    4.19    0.93
  -1 -15   1    2.63    0.75
  -1 -15   1    4.18    0.73
   0 -15   1    0.63    0.63
   0 -15   1    1.09    0.57
   0 -15  -1    0.10    0.67
   0 -15   1    0.48    0.96
   0 -15  -1    0.11    0.81
   1 -15   1    7.91    1.19
  -1 -15  -1   12.31    0.99
  -1 -15  -1    9.97    1.02
   2 -15   1    3.52    0.79
   3 -15   1    0.47    0.43
  -3 -15  -1    0.41    0.40
  -3 -15  -1    0.28    0.39
   3 -15   1    0.41    0.46
   3  15   1    0.99    0.77
   4 -15   1   -0.85    0.38
  -4 -15  -1    1.06    0.48
   4 -15   1   -0.21    0.31
  -4 -15  -1    0.38    0.25
   3 -16  -1    2.28    0.48
  -3 -16   1    2.57    0.45
  -3 -16   1    1.76    0.42
   3  16  -1    2.65    0.92
  -2 -16   1    0.52    0.46
   2 -16  -1    0.63    0.48
   2 -16  -1    0.61    0.78
  -2 -16   1   -0.47    0.46
   2  16  -1    0.34    0.79
  -1 -16   1    5.57    0.81
  -1 -16   1    5.65    0.78
   1 -16  -1    5.35    1.03
   0 -16  -1    0.60    0.69
   0 -16   1    0.35    0.65
   0 -16  -1    0.33    0.70
   0 -16   1    1.77    0.87
  -1 -16  -1   12.19    1.07
  -1 -16  -1   10.56    1.08
  -2 -16  -1    0.42    0.47
   2 -16   1   -0.25    0.48
  -2 -16  -1    0.32    0.45
   2  16   1    0.85    0.78
   3 -16   1    0.66    0.41
  -3 -16  -1    0.15    0.34
  -3 -16  -1    0.27    0.35
   3 -16   1    0.45    0.36
   3  16   1    1.43    0.80
  -3 -17   1    0.73    0.30
  -3 -17   1    0.36    0.28
   3 -17  -1    0.10    0.41
  -2 -17   1    0.24    0.39
   2 -17  -1   -0.25    1.01
  -2 -17   1    0.80    0.38
   2  17  -1    0.74    0.98
  -1 -17   1    3.29    0.58
  -1 -17   1    3.67    0.72
   1 -17  -1    2.04    0.76
   0 -17  -1   15.57    1.43
   0 -17   1   18.27    1.33
   0 -17  -1   18.47    1.36
  -2 -17  -1    2.51    0.50
  -2 -17  -1    0.98    0.42
   2  17   1    1.54    0.86
  -3 -17  -1    0.54    0.30
  -3 -17  -1    0.35    0.30
   3 -17   1   -0.28    0.39
   3  17   1    1.04    0.97
  -3 -18   1    0.19    0.27
  -3 -18   1   -0.09    0.25
  -2 -18   1    1.99    0.43
  -2 -18   1    2.33    0.42
   1 -18  -1    1.26    0.88
  -1 -18   1    1.44    0.39
  -1 -18   1    1.72    0.47
   1  18  -1    0.83    1.95
   0 -18  -1    0.43    0.48
   0 -18   1    0.83    0.49
  -1 -18  -1    0.95    0.46
  -2 -18  -1    1.70    0.42
  -2 -18  -1    1.72    0.42
   2  18   1    0.30    0.95
  -3 -18  -1   -0.24    0.32
  -3 -18  -1    0.25    0.27
  -2 -19   1    0.15    0.30
  -2 -19   1    0.58    0.33
  -1 -19   1    0.52    0.39
   0 -19   1    0.56    0.39
   0 -19  -1    0.67    0.45
  -1 -19  -1    0.29    0.38
  -2 -19  -1    0.53    0.31
  -1 -20   1   -0.40    0.31
  -1 -20  -1    0.21    0.34
   5   0  -2    0.24    0.54
   4   0  -2   18.92    1.41
   4   0  -2   21.59    1.49
   3   0  -2    0.62    0.46
   2   0  -2   35.00    2.11
   2   0  -2   32.41    2.05
  -2   0   2   36.84    2.07
   1   0  -2   10.09    0.65
  -1   0   2    9.84    0.65
   0   0  -2  144.09    8.65
   0   0   2  159.12    8.65
   1   0   2  695.50   39.61
   2   0   2   71.97    4.20
   3   0   2   -0.15    0.53
   4   0   2   -0.72    0.79
  -4   0  -2    0.93    0.68
   4   0   2    0.34    0.62
  -5   0  -2   14.13    1.07
   5   0   2   12.47    1.05
   5  -1  -2    0.36    0.50
   5   1  -2    0.26    0.52
   4  -1  -2    4.17    0.74
   4  -1  -2    4.57    0.74
   4   1  -2    3.94    0.76
   3  -1  -2    6.13    0.80
   3  -1  -2    6.18    0.69
   3   1  -2    6.26    0.74
  -2  -1   2    0.54    0.31
   2  -1  -2    0.04    0.38
   2  -1  -2    0.09    0.23
   2   1  -2    0.73    0.46
   2   1  -2   -0.17    0.33
  -2   1   2    0.45    0.29
   1  -1  -2   73.05    4.43
  -1  -1   2   75.72    4.45
   1   1  -2   75.87    4.45
  -1   1   2   84.77    4.45
   0  -1   2    0.78    0.16
   0  -1  -2    0.62    0.11
   0   1  -2    0.73    0.16
   0   1   2    0.86    0.12
   1   1   2  366.88   20.91
   2   1   2   44.93    2.72
   2   1   2   44.60    2.61
   2   1   2   46.49    2.62
   3  -1   2    2.09    0.64
  -3  -1  -2    3.67    0.73
   3   1   2    2.23    0.70
   4  -1   2   -0.07    0.81
  -4  -1  -2   -0.19    0.62
   4  -1   2   -0.72    0.63
   4  -1   2    0.74    0.72
   4   1   2    0.88    0.64
   4   1   2   -2.17    0.87
  -4   1  -2    0.53    0.69
  -5  -1  -2    0.20    0.56
   5  -1   2    0.45    0.55
  -5   1  -2   -0.02    0.72
   5   1   2   -0.79    0.55
   5  -2  -2   -0.30    0.51
   5   2  -2   -0.14    0.52
  -4  -2   2    2.36    0.83
   4  -2  -2    0.16    0.74
   4  -2  -2    0.52    0.55
   4  -2  -2    0.88    0.58
   4   2  -2    0.14    0.61
   3  -2  -2    0.15    0.45
   3  -2  -2    0.44    0.54
   3   2  -2   -0.23    0.51
   2  -2  -2    2.65    0.50
   2  -2  -2    2.37    0.33
  -2  -2   2    2.56    0.44
   2   2  -2    3.17    0.50
   2   2  -2    2.41    0.58
  -2   2   2    2.95    0.39
   1  -2  -2   88.33    4.85
  -1  -2   2   82.75    4.87
  -1   2   2   87.55    4.86
   1   2  -2   79.63    4.87
   0  -2   2   23.71    1.40
   0  -2  -2   23.99    1.40
   0   2  -2   23.84    1.41
   0   2   2   24.48    1.40
   1   2   2   22.55    1.33
   2  -2   2    0.50    0.38
   2   2   2    0.26    0.22
   2   2   2    0.58    0.52
   2   2   2    0.19    0.28
   3  -2   2   13.23    1.01
  -3  -2  -2   12.62    1.12
   3  -2   2   11.86    1.14
   3   2   2   13.17    1.04
   4  -2   2    1.82    0.72
  -4  -2  -2    0.18    0.63
   4  -2   2    0.44    0.63
   4  -2   2    0.67    0.62
   4   2   2    1.18    0.63
  -4   2  -2    1.26    0.78
  -5  -2  -2    4.68    0.67
   5  -2   2    3.36    0.67
   5  -2   2    4.43    0.78
   5   2   2    3.80    0.72
   5  -3  -2    4.73    0.66
   5   3  -2    4.71    0.67
   4  -3  -2    3.08    0.86
  -4  -3   2    4.29    0.89
   4  -3  -2    3.86    0.72
   4  -3  -2    4.82    0.71
   4   3  -2    3.80    0.85
   3  -3  -2    4.75    0.71
   3  -3  -2    6.16    0.93
   3  -3  -2    5.37    0.58
   3   3  -2    4.12    0.73
   2  -3  -2    4.73    0.50
   2  -3  -2    4.13    0.39
   2   3  -2    4.47    0.56
   2   3  -2    4.00    0.71
  -2   3   2    4.39    0.49
  -1  -3   2   40.59    2.44
   1  -3  -2   39.64    2.41
  -1   3   2   45.23    2.42
   1   3  -2   41.25    2.45
   0  -3   2  647.71   35.84
   0  -3  -2  570.57   35.84
   0   3   2  671.61   35.84
   0   3  -2  626.01   35.85
   1   3   2    2.71    0.30
  -1   3  -2    2.76    0.24
  -1   3  -2    2.86    0.22
   2  -3   2    2.36    0.56
   2   3   2    3.00    0.44
   2   3   2    3.24    0.41
   2   3   2    3.10    0.67
   3  -3   2    4.88    0.85
   3  -3   2    4.56    0.67
  -3  -3  -2    5.13    0.81
   3  -3   2    5.11    0.95
   3   3   2    4.32    0.77
   4  -3   2    1.25    0.61
  -4  -3  -2    0.15    0.61
   4  -3   2    0.37    0.66
   4  -3   2    1.98    0.65
  -4   3  -2    1.58    0.83
   4   3   2    1.18    0.78
   5  -3   2    2.45    0.63
   5  -3   2    1.56    0.68
   5  -3   2    2.67    0.70
  -5  -3  -2    1.67    0.53
   5   3   2    2.29    0.63
   5  -4  -2    0.90    0.64
   5  -4  -2   -0.09    0.51
  -5  -4   2    0.49    0.61
   5   4  -2    0.12    0.53
  -4  -4   2    0.73    0.67
   4  -4  -2   -0.48    0.58
   4  -4  -2   -0.11    0.51
   4  -4  -2    0.17    0.57
   4   4  -2    0.61    0.65
   3  -4  -2   39.99    2.33
   3  -4  -2   41.59    2.43
   3  -4  -2   39.71    2.36
  -3  -4   2   34.88    2.41
   3   4  -2   36.46    2.40
   2  -4  -2    0.20    0.26
   2  -4  -2    0.06    0.34
   2   4  -2   -0.06    0.45
   2   4  -2    0.64    0.49
  -2   4   2    0.82    0.42
   1  -4  -2   67.36    3.75
  -1  -4   2   59.93    3.77
  -1   4   2   67.91    3.75
   1   4  -2   65.02    3.79
   0  -4  -2   24.66    1.47
   0   4  -2   24.03    1.48
   0   4   2   25.57    1.47
  -1   4  -2   52.39    2.99
  -1   4  -2   53.25    2.99
   1   4   2   49.93    3.01
   2  -4   2   59.43    3.60
   2   4   2   64.83    3.62
   2   4   2   60.83    3.60
   3  -4   2    1.15    0.74
  -3  -4  -2    0.44    0.57
   3  -4   2    1.82    0.60
   3  -4   2    1.64    0.54
   3   4   2    1.74    0.58
   4  -4   2    1.64    0.55
   4  -4   2    0.83    0.61
  -4  -4  -2    1.19    0.56
   4  -4   2    1.35    0.71
   4   4   2    1.44    0.79
   5  -4   2    2.81    0.67
  -5  -4  -2    3.45    0.58
   5  -4   2    3.43    0.68
   5  -4   2    2.63    0.68
   5   4   2    3.77    0.72
  -5  -5   2   -0.47    0.48
   5  -5  -2    0.20    0.49
   5  -5  -2   -0.08    0.53
   5   5  -2   -0.41    0.56
  -4  -5   2   -0.55    0.57
   4  -5  -2    0.62    0.57
   4  -5  -2    0.34    0.54
   4  -5  -2    0.83    0.49
   4   5  -2    0.62    0.70
   3  -5  -2    9.91    0.98
   3  -5  -2    7.83    0.80
   3  -5  -2    9.40    0.80
  -3  -5   2    9.72    0.95
   3   5  -2    7.86    0.90
   2  -5  -2    5.15    0.56
   2  -5  -2    5.97    0.59
   2   5  -2    5.69    0.76
  -2   5   2    6.35    0.71
   2   5  -2    6.58    0.80
   1  -5  -2    2.48    0.31
  -1   5   2    2.31    0.33
   1   5  -2    2.61    0.43
   0  -5  -2   14.63    0.95
   0   5  -2   14.60    0.95
   0   5   2   15.44    0.94
  -1   5  -2    5.38    0.42
   1   5   2    5.55    0.49
  -1   5  -2    5.20    0.43
   2  -5   2   14.88    1.08
   2   5   2   16.93    1.15
   2   5   2   15.82    1.10
  -3  -5  -2    1.91    0.93
   3  -5   2    2.43    0.72
   3  -5   2    2.03    0.58
  -3  -5  -2    1.32    0.59
   3  -5   2    1.51    0.55
   3   5   2    1.28    0.63
   4  -5   2    5.11    0.71
   4  -5   2    3.46    0.78
  -4  -5  -2    3.22    0.75
   4  -5   2    4.87    0.87
   4   5   2    5.39    0.95
   5  -5   2    1.24    0.65
   5  -5   2    0.04    0.47
  -5  -5  -2    0.34    0.41
   5  -5   2   -0.14    0.45
   5   5   2    0.97    0.66
  -5  -6   2   -0.41    0.41
   5  -6  -2    0.06    0.44
   5  -6  -2   -0.48    0.55
   5   6  -2    0.67    0.59
   4  -6  -2   21.34    1.49
   4  -6  -2   23.91    1.46
  -4  -6   2   23.30    1.49
   4  -6  -2   21.52    1.47
   4   6  -2   19.00    1.50
  -3  -6   2   10.01    0.98
   3  -6  -2    9.71    0.87
   3  -6  -2   10.30    0.84
   3   6  -2    9.39    1.00
   2  -6  -2   34.91    2.16
   2  -6  -2   37.89    2.19
   2   6  -2   36.81    2.27
  -2   6   2   35.64    2.25
   2   6  -2   35.27    2.31
   1  -6  -2   53.21    3.13
   1  -6  -2   54.09    3.11
  -1   6   2   55.33    3.11
   1   6  -2   50.05    3.15
   0  -6  -2   36.14    2.36
   0   6   2   42.78    2.37
   0   6  -2   41.18    2.38
  -1  -6  -2   31.17    2.09
  -1   6  -2   34.56    1.98
   1   6   2   33.12    2.03
  -1   6  -2   34.75    1.99
   2  -6   2   18.08    1.27
   2   6   2   20.59    1.44
   2   6   2   19.61    1.39
  -3  -6  -2   16.19    1.55
  -3  -6  -2   20.20    1.33
   3  -6   2   17.63    1.31
   3  -6   2   18.98    1.30
   3  -6   2   19.31    1.37
   3   6   2   18.58    1.47
   4  -6   2    5.21    0.78
   4  -6   2    4.83    0.79
  -4  -6  -2    5.14    0.74
   4  -6   2    6.68    0.74
   4   6   2    6.25    0.94
   5  -6   2   -0.06    0.79
   5  -6   2   -0.19    0.44
   5  -6   2    0.98    0.45
  -5  -6  -2   -0.60    0.39
   5   6   2    0.53    0.65
   5  -7  -2    2.65    0.70
   5  -7  -2    0.93    0.42
   5   7  -2    1.34    0.57
   4  -7  -2   13.81    1.09
  -4  -7   2   15.39    1.11
   4  -7  -2   14.57    1.15
   4  -7  -2   15.05    1.09
   4   7  -2   13.55    1.18
   3  -7  -2    3.92    0.65
  -3  -7   2    4.21    0.95
   3  -7  -2    3.53    0.60
  -3  -7   2    3.10    0.67
   3  -7  -2    2.43    0.68
   3   7  -2    4.08    0.81
   2  -7  -2    3.72    0.53
   2   7  -2    2.77    0.99
   2   7  -2    4.86    0.77
  -1  -7   2    3.35    0.76
   1  -7  -2    2.04    0.54
   1   7  -2    1.81    0.53
  -1   7   2    2.99    0.47
   0  -7  -2    8.11    0.79
   0   7  -2    8.06    0.67
   0   7  -2    7.48    0.75
   0   7   2    8.59    0.66
  -1  -7  -2    0.01    0.53
   1   7   2    1.25    0.47
  -1   7  -2    0.56    0.34
  -1   7  -2   -0.11    0.36
   2  -7   2    2.71    0.64
   2   7   2    3.03    0.96
  -3  -7  -2    6.85    1.01
   3  -7   2    8.21    0.85
  -3  -7  -2    8.32    0.84
   3  -7   2    6.91    0.84
   3  -7   2    6.66    0.88
   3   7   2    7.50    1.02
   4  -7   2    3.82    0.83
  -4  -7  -2    3.54    0.67
   4  -7   2    3.15    0.63
   4  -7   2    3.78    0.69
   4   7   2    3.46    0.86
   5  -7   2    0.22    0.40
  -5  -7  -2    0.11    0.37
   5  -7   2    0.44    0.40
   5   7   2   -0.70    0.66
   5  -8  -2    1.85    0.46
   5  -8  -2    1.87    0.69
  -5  -8   2    1.36    0.41
   5   8  -2    2.18    0.65
   4  -8  -2    8.90    0.95
  -4  -8   2    9.58    0.89
   4  -8  -2   11.18    0.91
   4  -8  -2   11.02    0.89
   4   8  -2    8.00    0.97
  -3  -8   2    3.83    0.66
  -3  -8   2    3.36    0.97
   3  -8  -2    4.61    0.70
   3  -8  -2    3.82    0.70
   3  -8  -2    5.40    0.73
   3   8  -2    3.98    0.81
   2  -8  -2   14.37    1.26
  -2  -8   2   15.76    1.35
   2  -8  -2   17.87    1.29
  -2  -8   2   14.41    1.21
   2  -8  -2   17.91    1.13
  -1  -8   2    5.25    0.86
   1  -8  -2    3.80    0.62
  -1   8   2    5.19    0.70
   1   8  -2    2.79    0.68
   0  -8  -2   -0.06    0.48
   0  -8   2   -0.06    0.55
   0   8  -2   -0.28    0.56
   0   8   2    0.61    0.47
   0   8  -2    0.39    0.46
  -1  -8  -2    4.59    0.76
   1  -8   2    2.38    0.72
   1   8   2    4.39    0.67
  -1   8  -2    3.40    0.57
  -1   8  -2    3.10    0.68
   2  -8   2   -0.28    0.61
   2  -8   2    0.36    0.53
   2  -8   2   -0.05    0.72
  -2  -8  -2   -0.14    0.62
  -2  -8  -2    0.28    0.60
   2   8   2    1.21    1.31
   3  -8   2    2.25    0.67
  -3  -8  -2    3.81    0.82
  -3  -8  -2    2.04    0.55
   3  -8   2    2.41    0.74
   3  -8   2    1.85    0.55
   3   8   2    3.69    1.01
   4  -8   2    5.05    0.88
   4  -8   2    2.87    0.76
  -4  -8  -2    3.90    0.69
   4  -8   2    4.05    0.67
   4   8   2    4.10    0.92
  -5  -8  -2    1.31    0.37
   5  -8   2    1.98    0.45
   5  -8   2    1.31    0.41
   5   8   2    1.23    0.70
   5  -9  -2    0.29    0.35
   5  -9  -2    0.06    0.78
  -5  -9   2    1.01    0.36
   5   9  -2    0.92    0.66
   4  -9  -2    1.61    0.55
   4  -9  -2    0.89    0.65
   4  -9  -2    0.83    0.53
  -4  -9   2    1.26    0.51
   4   9  -2    1.13    0.68
   3  -9  -2    1.02    0.55
  -3  -9   2    1.15    0.52
   3  -9  -2    1.37    0.56
   3  -9  -2    1.44    0.64
  -3  -9   2    1.09    0.69
   3   9  -2    1.57    0.73
   2  -9  -2   47.79    2.68
   2  -9  -2   42.79    2.70
  -2  -9   2   40.80    2.64
  -2  -9   2   43.75    2.73
   2  -9  -2   44.02    2.66
   1  -9  -2    3.46    0.64
  -1  -9   2    3.87    0.84
   1   9  -2    2.77    0.83
   0  -9   2    2.67    0.70
   0  -9  -2    2.48    0.73
   0   9  -2    2.82    0.66
   1  -9   2   44.97    3.09
  -1  -9  -2   51.07    3.13
   1   9   2   53.81    3.17
  -1   9  -2   56.62    3.13
  -1   9  -2   50.14    3.15
   2  -9   2   -0.44    0.64
   2  -9   2    0.56    0.68
   2  -9   2   -0.45    0.61
  -2  -9  -2   -0.08    0.62
  -2  -9  -2    0.33    0.61
   3  -9   2    2.28    0.60
  -3  -9  -2    3.27    0.82
   3  -9   2    1.38    0.80
  -3  -9  -2    4.31    0.68
   3  -9   2    3.35    0.76
   3   9   2    5.60    1.07
   4  -9   2    6.85    0.72
   4  -9   2    5.83    0.94
  -4  -9  -2    6.07    0.71
   4  -9   2    6.32    0.81
  -4  -9  -2    5.45    1.05
   4   9   2    5.39    0.96
   5  -9   2    0.60    0.35
   5  -9   2    0.54    0.35
  -5  -9  -2    0.06    0.32
   5   9   2   -1.45    0.66
  -5 -10   2    1.09    0.34
   5 -10  -2    1.31    0.37
   5  10  -2    1.17    0.78
  -4 -10   2    8.67    0.78
   4 -10  -2    8.55    0.79
   4 -10  -2    8.00    0.86
   4 -10  -2    6.71    1.00
   4  10  -2    7.61    0.93
   3 -10  -2    3.66    0.71
   3 -10  -2    6.11    0.91
  -3 -10   2    3.14    0.81
   3 -10  -2    4.25    0.73
  -3 -10   2    4.41    0.67
   3  10  -2    3.16    0.94
   2 -10  -2    2.53    0.71
   2 -10  -2    3.65    0.71
   2 -10  -2    3.59    0.79
  -2 -10   2    3.32    0.73
  -2 -10   2    3.47    0.81
  -1 -10   2   15.75    1.24
  -1 -10   2   11.38    1.13
   1 -10  -2   12.80    1.04
  -1 -10   2   10.68    1.12
   0 -10   2   28.85    1.87
   0 -10  -2   23.51    1.84
   0  10  -2   32.11    2.00
  -1 -10  -2    8.26    0.91
  -1 -10  -2    6.18    0.85
   1 -10   2    6.28    0.95
  -2 -10  -2    0.98    0.57
   2 -10   2    0.40    0.63
   2 -10   2   -0.02    0.65
  -2 -10  -2    1.49    0.61
   2 -10   2    0.40    0.68
   3 -10   2    1.75    0.95
  -3 -10  -2    2.71    0.79
   3 -10   2    2.30    0.62
   3 -10   2    2.32    0.61
   3  10   2    5.40    1.18
  -4 -10  -2    0.34    0.45
   4 -10   2    0.15    0.54
   4 -10   2    0.61    0.49
  -4 -10  -2   -0.12    0.60
   4  10   2    0.76    0.76
   5 -10   2    1.80    0.38
  -5 -10  -2    1.78    0.36
   5 -10   2    1.52    0.42
   5  10   2    0.64    0.76
   5 -11  -2    0.55    0.33
  -5 -11   2    0.00    0.28
   4 -11  -2    2.56    0.79
  -4 -11   2   -0.47    0.63
  -4 -11   2    0.69    0.38
   4  11  -2   -0.71    0.64
   3 -11  -2   12.38    1.09
   3 -11  -2   13.91    1.04
  -3 -11   2   12.41    1.00
  -3 -11   2   13.69    1.12
   3 -11  -2   13.96    1.15
   3  11  -2   10.19    1.16
   2 -11  -2    1.10    0.66
  -2 -11   2    1.79    0.56
  -2 -11   2    1.02    0.52
  -1 -11   2   10.53    1.04
  -1 -11   2    9.91    0.96
   1 -11  -2   12.11    1.12
   1 -11  -2   11.94    1.02
   0 -11   2    2.46    0.72
   0 -11  -2    3.06    0.72
   0 -11   2    2.75    0.69
   0 -11  -2    2.84    0.79
   0 -11   2    4.93    0.97
  -1 -11  -2    0.92    0.69
  -1 -11  -2    1.29    0.68
   1 -11   2    0.10    0.87
   1 -11   2    3.55    0.92
   1 -11   2    0.33    0.68
  -1 -11  -2    1.27    0.55
   1 -11   2    0.17    0.72
  -2 -11  -2    0.37    0.56
   2 -11   2    0.81    0.61
   2 -11   2    2.42    0.84
   2 -11   2    1.25    0.63
  -2 -11  -2    1.12    0.57
   3 -11   2    0.31    0.55
   3 -11   2    0.05    0.56
   3 -11   2   -1.28    0.76
  -3 -11  -2    0.29    0.50
  -3 -11  -2    0.44    0.56
   3  11   2   -0.04    0.79
  -4 -11  -2    0.06    0.39
   4 -11   2   -0.34    0.39
   4 -11   2    0.01    0.40
  -4 -11  -2   -0.73    0.52
   4  11   2    1.16    0.78
   5 -11   2   -0.07    0.33
  -5 -11  -2    0.17    0.28
   5 -11   2    0.20    0.32
   4 -12  -2    0.75    0.72
  -4 -12   2    1.04    0.37
   4 -12  -2    2.01    0.52
   4 -12  -2    1.41    0.43
  -4 -12   2    0.43    0.58
   4  12  -2    0.72    0.62
   3 -12  -2    0.46    0.65
  -3 -12   2   -0.39    0.54
  -3 -12   2    0.29    0.49
   3 -12  -2    0.09    0.54
   3 -12  -2    0.36    0.59
   3  12  -2    0.73    0.68
   2 -12  -2    3.96    0.77
   2 -12  -2    4.73    0.91
  -2 -12   2    4.11    0.76
   2 -12  -2    4.38    0.84
  -2 -12   2    2.44    0.71
   2  12  -2    2.61    0.89
   1 -12  -2   22.57    1.54
  -1 -12   2   22.08    1.50
   1 -12  -2   19.68    1.57
  -1 -12   2   21.33    1.52
   0 -12  -2    3.60    0.90
   0 -12   2    3.25    0.66
   0 -12  -2    2.66    0.79
   0 -12   2    3.39    0.93
   0 -12   2    2.00    0.68
  -1 -12  -2   11.14    1.12
  -1 -12  -2    8.80    0.98
  -1 -12  -2    8.81    0.95
   1 -12   2    9.35    1.16
   1 -12   2    7.93    1.17
   1 -12   2    6.35    1.22
   2 -12   2    0.28    0.97
  -2 -12  -2    0.02    0.57
   2 -12   2    1.29    0.59
   2 -12   2   -0.28    0.64
  -2 -12  -2    0.75    0.56
   3 -12   2    1.74    0.63
   3 -12   2    2.61    0.71
  -3 -12  -2    4.25    0.76
  -3 -12  -2    4.34    0.68
   3  12   2    3.34    1.03
   4 -12   2    0.37    0.38
   4 -12   2    0.10    0.38
  -4 -12  -2    0.08    0.34
  -4 -12  -2    0.50    0.48
   4  12   2   -0.32    0.71
   4 -13  -2    1.15    0.85
  -4 -13   2    0.45    0.52
   4 -13  -2    0.60    0.38
  -4 -13   2    0.84    0.33
   4 -13  -2    1.17    0.45
   4  13  -2    0.93    0.76
   3 -13  -2    1.07    0.73
  -3 -13   2    0.79    0.47
   3 -13  -2    1.44    0.55
   3 -13  -2    0.54    0.62
  -3 -13   2    1.31    0.56
   3  13  -2    1.25    0.70
   2 -13  -2   10.92    0.99
  -2 -13   2   10.03    0.97
  -2 -13   2   10.79    1.00
   2  13  -2   11.38    1.26
  -1 -13   2   36.02    2.31
   1 -13  -2   35.17    2.36
  -1 -13   2   37.74    2.31
   1 -13  -2   39.09    2.39
   0 -13  -2   15.51    1.36
   0 -13   2   16.14    1.24
   0 -13  -2   17.29    1.41
   0 -13   2   15.47    1.43
   0 -13   2   14.51    1.20
   1 -13   2    7.03    1.30
  -1 -13  -2   10.12    0.93
  -1 -13  -2    8.67    1.02
  -1 -13  -2   10.06    1.26
  -2 -13  -2    1.37    0.58
   2 -13   2   -1.53    1.03
  -2 -13  -2    1.07    0.53
   2 -13   2   -0.47    0.67
   2 -13   2   -0.84    0.62
   3 -13   2   -0.07    0.53
  -3 -13  -2    0.44    0.52
  -3 -13  -2    1.03    0.49
   3 -13   2    0.37    0.54
   3  13   2   -0.05    0.80
   4 -13   2    2.69    0.46
  -4 -13  -2    2.87    0.53
   4 -13   2    2.67    0.48
  -4 -13  -2    2.34    0.42
   4  13   2    2.44    0.82
  -4 -14   2    1.20    0.52
  -4 -14   2    1.81    0.36
   4 -14  -2    0.86    0.37
   4  14  -2    1.54    0.99
  -3 -14   2    1.36    0.49
  -3 -14   2    2.57    0.57
   3 -14  -2    0.99    0.48
   3 -14  -2    1.46    0.52
   3 -14  -2    3.53    0.87
   3  14  -2    1.39    0.74
   2 -14  -2    6.12    0.91
  -2 -14   2    5.99    0.77
  -2 -14   2    5.33    0.78
   2 -14  -2    6.64    0.81
   2  14  -2    4.97    1.01
   1 -14  -2   13.25    1.25
  -1 -14   2    9.64    0.96
  -1 -14   2   10.46    1.01
   0 -14   2    0.94    0.62
   0 -14   2    0.39    0.55
   0 -14   2    1.33    1.02
   0 -14  -2    0.26    0.71
  -1 -14  -2   14.07    1.16
  -1 -14  -2   12.02    1.18
  -1 -14  -2   14.14    1.40
  -2 -14  -2    6.51    0.85
  -2 -14  -2    5.96    0.81
   2 -14   2    3.28    0.90
  -3 -14  -2    0.84    0.45
  -3 -14  -2    0.30    0.41
   3 -14   2    0.04    0.45
   3 -14   2    0.10    0.42
   3  14   2    0.38    0.84
  -4 -14  -2    1.04    0.30
   4 -14   2    0.74    0.34
  -4 -14  -2    0.72    0.41
   4 -14   2    1.10    0.38
   4  14   2    0.36    0.80
   4 -15  -2    0.25    0.33
  -4 -15   2   -0.07    0.54
  -4 -15   2   -0.10    0.23
  -3 -15   2    0.53    0.36
  -3 -15   2    1.16    0.40
   3 -15  -2   -0.01    0.49
   3 -15  -2   -0.38    0.75
   3 -15  -2    0.02    0.43
   3  15  -2    1.14    0.79
  -2 -15   2    1.71    0.53
  -2 -15   2    1.34    0.55
   2 -15  -2    0.74    0.63
   2 -15  -2    1.42    0.74
   2  15  -2    1.86    0.81
   1 -15  -2    4.08    0.91
  -1 -15   2    2.96    0.70
  -1 -15   2    2.87    0.68
   0 -15   2    5.34    0.73
   0 -15  -2    3.91    0.93
   0 -15  -2    3.47    0.96
   0 -15   2    3.94    0.82
  -1 -15  -2    1.54    0.68
  -1 -15  -2    0.61    0.62
  -1 -15  -2    0.33    0.79
  -2 -15  -2    0.87    0.59
   2 -15   2    0.46    0.62
   2 -15   2   -0.52    0.64
  -2 -15  -2    0.16    0.52
   3 -15   2    0.39    0.41
  -3 -15  -2    1.15    0.41
   3 -15   2    0.17    0.43
  -3 -15  -2    0.76    0.39
   3  15   2    0.81    0.79
  -4 -15  -2    0.34    0.26
   4 -15   2   -0.21    0.35
   4 -15   2   -0.02    0.29
  -4 -15  -2   -0.28    0.45
   3 -16  -2    0.83    1.10
  -3 -16   2    0.12    0.31
  -3 -16   2    0.17    0.34
   3 -16  -2    0.14    0.37
   3  16  -2    1.72    1.18
   2 -16  -2   -0.50    0.71
  -2 -16   2    0.26    0.41
   2 -16  -2    0.42    0.46
  -2 -16   2    0.40    0.45
   2  16  -2    0.05    0.90
  -1 -16   2    2.43    0.65
  -1 -16   2    2.41    0.70
   1 -16  -2    3.08    0.93
   0 -16  -2    1.55    0.78
   0 -16   2    2.58    0.75
   0 -16   2    1.06    0.63
   0 -16  -2    1.22    0.73
  -1 -16  -2    8.33    0.96
  -2 -16  -2    0.70    0.50
   2 -16   2    0.52    0.46
  -2 -16  -2    0.30    0.46
  -3 -16  -2   13.69    0.88
  -3 -16  -2   13.48    0.90
   3 -16   2   11.32    0.88
   3  16   2   11.97    1.20
  -3 -17   2   -0.31    0.27
  -3 -17   2   -0.13    0.30
   3 -17  -2    0.45    0.41
  -2 -17   2    6.40    0.62
   2 -17  -2    7.01    1.08
  -2 -17   2    6.00    0.63
  -1 -17   2   12.59    0.93
   1 -17  -2    7.80    1.10
  -1 -17   2   10.17    0.84
   0 -17   2   15.63    1.16
   0 -17  -2   12.47    1.19
   0 -17  -2   13.56    1.27
  -1 -17  -2    5.19    0.78
  -2 -17  -2   -0.53    0.37
  -2 -17  -2   -0.42    0.37
   2  17   2   -0.30    0.79
   3 -17   2    1.78    0.45
  -3 -17  -2    2.12    0.39
  -3 -17  -2    2.73    0.38
   3  17   2    1.07    0.92
  -2 -18   2    4.73    0.50
   2 -18  -2    1.40    1.29
  -2 -18   2    4.24    0.48
  -1 -18   2    1.08    0.41
  -1 -18   2    1.12    0.37
   1 -18  -2    1.38    0.79
   0 -18   2    0.19    0.48
   0 -18  -2    0.67    0.77
   0 -18  -2    0.21    0.47
  -1 -18  -2    1.62    0.49
  -2 -18  -2    1.61    0.41
   2  18   2    1.57    0.86
  -2 -19   2    2.53    0.39
  -2 -19   2    2.39    0.40
   1 -19  -2    2.05    1.26
  -1 -19   2   -0.18    0.35
  -1 -19   2    0.09    0.36
   0 -19   2    2.18    0.50
  -1 -19  -2    4.56    0.55
  -2 -19  -2   -0.17    0.28
  -1 -20   2    1.34    0.39
  -1 -20  -2    0.13    0.36
   5   0  -3    0.40    0.54
   4   0  -3   -0.65    0.58
   3   0  -3    0.39    0.60
  -2   0   3   -0.19    0.35
   2   0  -3   -0.02    0.31
   2   0  -3   -0.02    0.36
  -1   0   3   -0.06    0.22
   1   0  -3   -0.22    0.22
   0   0  -3   -0.05    0.14
   0   0   3    0.03    0.17
   1   0   3    0.27    0.16
  -1   0  -3   -0.08    0.11
   2   0   3   -0.11    0.51
   4   0   3   -0.15    0.68
  -4   0  -3    0.17    0.63
   4   0   3   -0.04    0.82
  -5   0  -3    0.59    0.52
   5   0   3    0.84    0.57
   5  -1  -3    0.03    0.54
  -5  -1   3   -0.10    0.41
   5   1  -3   -0.32    0.52
   4  -1  -3    1.85    0.67
   4  -1  -3    1.05    0.58
   4   1  -3    1.17    0.65
   3  -1  -3   24.88    1.56
   3  -1  -3   25.75    1.64
   3   1  -3   26.25    1.59
   3   1  -3   20.41    1.65
   2  -1  -3    5.38    0.48
  -2  -1   3    5.84    0.60
   2  -1  -3    4.78    0.60
  -2   1   3    4.77    0.55
   2   1  -3    5.92    0.69
   2   1  -3    5.16    0.56
   1  -1  -3  166.40    9.88
  -1  -1   3  173.07    9.89
  -1   1   3  177.06    9.89
   1   1  -3  174.83    9.90
   0  -1  -3    2.71    0.25
   0  -1   3    3.35    0.30
   0   1  -3    2.75    0.29
   0   1   3    2.80    0.26
   1  -1   3   79.80    4.33
  -1  -1  -3   76.28    4.33
  -1   1  -3   68.44    4.32
   1   1   3   77.96    4.34
   2   1   3   20.49    1.42
   2   1   3   20.34    1.21
  -3  -1  -3  101.24    5.98
   3  -1   3  103.05    5.99
   3   1   3  104.67    6.01
   4  -1   3    5.05    0.99
   4  -1   3    3.46    0.92
   4  -1   3    5.88    0.89
  -4  -1  -3    5.27    0.80
  -4   1  -3    5.27    0.85
   4   1   3    5.21    0.88
  -5  -1  -3    0.22    0.50
   5  -1   3    0.82    0.58
   5   1   3    0.95    0.59
  -5   1  -3   -0.31    0.59
   5  -2  -3    1.29    0.54
   5   2  -3    0.38    0.54
  -4  -2   3    1.81    1.33
   4  -2  -3    3.66    0.75
   4  -2  -3    2.54    0.70
   4  -2  -3    2.24    0.81
   4   2  -3    2.39    0.78
   3  -2  -3   27.27    1.72
   3  -2  -3   25.07    1.75
   3   2  -3   29.82    1.79
  -2  -2   3   -0.61    0.38
   2  -2  -3   -0.16    0.35
   2  -2  -3    0.26    0.26
   2   2  -3   -0.05    0.48
  -2   2   3   -0.21    0.36
   2   2  -3    0.38    0.43
  -1  -2   3  389.58   21.62
   1  -2  -3  383.32   21.60
   1   2  -3  351.05   21.62
  -1   2   3  390.90   21.61
   0  -2  -3   16.84    1.09
   0   2   3   20.26    1.10
   0   2  -3   18.17    1.12
   1  -2   3    0.32    0.13
  -1  -2  -3    0.23    0.18
   1   2   3    0.38    0.17
  -1   2  -3    0.30    0.11
   2   2   3   82.01    5.19
   2   2   3   94.59    5.28
   2   2   3   94.94    5.21
   3  -2   3    3.42    0.93
   3  -2   3    1.10    0.71
  -3  -2  -3    2.21    0.61
   3  -2   3    0.68    0.55
   3   2   3    0.66    0.57
   4  -2   3    0.12    0.68
   4  -2   3   -1.20    0.74
   4  -2   3    0.77    0.69
  -4  -2  -3   -0.06    0.60
   4   2   3   -0.23    0.72
  -4   2  -3    0.91    0.68
   5  -2   3    2.34    0.68
   5  -2   3    2.82    0.76
  -5  -2  -3    2.39    0.60
   5   2   3    3.59    0.69
  -5   2  -3    1.41    0.74
   5  -3  -3    1.24    0.52
   5   3  -3    1.04    0.54
   4  -3  -3    1.93    0.63
   4  -3  -3    1.43    0.58
   4  -3  -3    2.67    0.73
  -4  -3   3    1.91    0.78
   4   3  -3    1.00    0.64
   3  -3  -3    6.25    0.84
   3  -3  -3    7.83    0.95
   3  -3  -3    6.16    0.70
   3   3  -3    6.79    0.79
   2  -3  -3   17.28    1.15
  -2  -3   3   16.61    1.22
   2  -3  -3   18.15    1.13
  -2   3   3   18.13    1.19
   2   3  -3   19.00    1.27
   2   3  -3   18.56    1.25
  -1  -3   3   20.24    1.35
   1  -3  -3   22.34    1.32
   1   3  -3   23.11    1.37
  -1   3   3   22.83    1.34
   0  -3  -3  122.77    7.86
   0  -3   3  147.97    7.87
   0   3   3  141.64    7.86
   0   3  -3  137.29    7.87
  -1  -3  -3  240.48   14.01
  -1   3  -3  255.06   13.99
   1   3   3  239.96   14.00
   2  -3   3    3.77    0.62
   2   3   3    5.70    0.77
   2   3   3    4.84    0.48
   2   3   3    5.84    0.52
  -3  -3  -3    8.92    0.87
   3  -3   3    8.39    1.04
   3  -3   3    8.73    0.86
   3  -3   3    8.97    0.99
   3   3   3    9.46    0.90
   4  -3   3    9.62    1.04
  -4  -3  -3   10.15    0.98
   4  -3   3    9.54    1.05
   4  -3   3   10.25    0.97
   4   3   3   11.48    1.11
  -4   3  -3    9.23    1.07
  -5  -3  -3   -0.45    0.49
   5  -3   3    0.13    0.57
   5  -3   3   -0.66    0.64
   5  -3   3   -0.31    0.57
   5   3   3    0.95    0.66
   5  -4  -3    3.71    0.62
   5  -4  -3    2.49    0.71
   5   4  -3    2.16    0.62
   4  -4  -3    9.44    0.95
  -4  -4   3    9.72    1.05
   4  -4  -3    9.57    0.97
   4  -4  -3   10.69    0.91
   4   4  -3   10.28    1.05
   3  -4  -3    0.19    0.63
  -3  -4   3    0.35    0.72
   3  -4  -3    0.60    0.46
   3  -4  -3    0.05    0.53
   3   4  -3    0.05    0.58
   2  -4  -3    7.64    0.62
   2  -4  -3    7.20    0.63
  -2   4   3    9.01    0.79
   2   4  -3    6.85    0.83
   2   4  -3    5.41    0.80
  -1  -4   3   51.87    3.12
   1  -4  -3   53.86    3.09
  -1   4   3   55.15    3.10
   1   4  -3   52.54    3.14
   0  -4  -3    9.63    0.65
   0  -4   3   10.35    0.67
   0   4  -3    9.82    0.68
  -1   4  -3    8.41    0.58
   1   4   3    8.83    0.61
   2  -4   3    2.68    0.60
   2   4   3    3.56    0.49
   2   4   3    2.33    0.52
  -3  -4  -3   12.45    0.95
   3  -4   3   10.71    0.96
   3  -4   3    9.74    1.01
   3  -4   3   10.18    1.08
   3   4   3    9.70    1.02
   4  -4   3    0.13    0.62
  -4  -4  -3   -0.45    0.56
   4  -4   3   -0.01    0.55
   4  -4   3    1.05    0.76
  -4   4  -3   -0.31    0.77
   4   4   3   -0.42    0.73
   5  -4   3   -0.03    0.52
  -5  -4  -3    0.58    0.45
   5  -4   3   -0.20    0.51
   5  -4   3   -0.11    0.64
   5   4   3    1.06    0.64
  -5  -5   3    2.28    0.67
   5  -5  -3    1.23    0.56
   5  -5  -3    2.00    0.60
   5   5  -3    2.15    0.60
   4  -5  -3    3.23    0.70
  -4  -5   3    3.11    0.77
   4  -5  -3    3.31    0.66
   4  -5  -3    3.72    0.76
   4   5  -3    3.11    0.79
   3  -5  -3    5.54    0.63
   3  -5  -3    6.49    0.82
   3  -5  -3    4.11    0.68
  -3  -5   3    4.98    0.78
   3   5  -3    4.71    0.81
   2  -5  -3  188.17   10.59
   2  -5  -3  176.68   10.58
   2   5  -3  180.12   10.67
   2   5  -3  185.92   10.63
  -2   5   3  192.51   10.64
  -1  -5   3  120.41    7.23
   1  -5  -3  115.20    7.21
   1  -5  -3  133.61    7.22
   1   5  -3  128.57    7.25
  -1   5   3  130.16    7.22
   0  -5  -3   88.16    5.53
   0   5   3  102.08    5.54
   0   5  -3   98.20    5.55
  -1  -5  -3    8.27    0.86
  -1   5  -3    8.01    0.60
  -1   5  -3    8.92    0.62
   1   5   3    8.60    0.65
   2  -5   3   11.83    1.01
   2   5   3   15.18    1.06
   2   5   3   15.02    1.05
   3  -5   3    0.62    0.64
   3  -5   3   -0.10    0.59
   3  -5   3    2.07    0.57
  -3  -5  -3    0.19    0.85
  -3  -5  -3    0.57    0.55
   3   5   3    0.56    0.65
   4  -5   3   25.40    1.57
  -4  -5  -3   25.80    1.58
   4  -5   3   22.12    1.65
   4  -5   3   25.09    1.61
   4   5   3   20.91    1.67
  -4   5  -3   20.66    1.71
   5  -5   3   -0.02    0.47
   5  -5   3    0.26    0.45
  -5  -5  -3   -0.17    0.40
   5  -5   3    3.30    1.06
   5   5   3    0.30    0.62
   5  -6  -3    1.46    0.46
   5  -6  -3    0.77    0.61
  -5  -6   3    2.19    0.53
   5   6  -3    1.30    0.54
   4  -6  -3    0.54    0.57
  -4  -6   3    0.59    0.58
   4  -6  -3    0.56    0.52
   4  -6  -3    1.22    0.50
   4   6  -3   -0.06    0.57
   3  -6  -3   23.30    1.54
   3  -6  -3   24.23    1.51
  -3  -6   3   21.35    1.54
   3  -6  -3   23.83    1.54
   3   6  -3   23.17    1.62
   2  -6  -3    4.77    0.71
   2  -6  -3    5.34    0.57
  -2   6   3    5.28    0.97
   2   6  -3    4.38    0.94
   2   6  -3    5.52    0.80
   1  -6  -3    0.29    0.30
   1  -6  -3    0.36    0.34
   1   6  -3   -0.06    0.39
  -1   6   3    0.02    0.33
   0  -6  -3    3.07    0.59
   0  -6  -3    3.04    0.41
   0   6  -3    4.00    0.46
   0   6   3    3.27    0.44
  -1  -6  -3    1.67    0.59
   1   6   3    1.42    0.43
  -1   6  -3    1.21    0.41
  -1   6  -3    0.66    0.34
   2  -6   3   16.49    1.19
   2   6   3   20.68    1.32
   2   6   3   16.00    1.44
   3  -6   3    0.31    0.58
  -3  -6  -3    0.40    0.76
   3  -6   3   -0.17    0.47
  -3  -6  -3    0.93    0.49
   3  -6   3    0.34    0.62
   3   6   3    0.78    0.70
   4  -6   3   -0.51    0.66
   4  -6   3   -0.20    0.52
   4  -6   3    0.47    0.56
  -4  -6  -3   -1.01    0.49
   4   6   3    0.66    0.71
   5  -6   3    0.37    0.41
  -5  -6  -3   -0.77    0.38
   5  -6   3   -1.04    0.43
   5   6   3   -0.27    0.63
   5  -7  -3    5.36    0.60
   5  -7  -3    4.06    0.78
  -5  -7   3    5.51    0.62
   5   7  -3    4.68    0.71
   4  -7  -3    0.33    0.50
   4  -7  -3   -0.29    0.53
  -4  -7   3   -0.34    0.53
   4  -7  -3   -0.11    0.55
   4   7  -3   -0.02    0.57
   3  -7  -3    9.77    0.90
   3  -7  -3   10.97    0.89
  -3  -7   3    8.84    0.91
   3  -7  -3   10.01    0.89
  -3  -7   3    8.64    1.31
   3   7  -3   10.37    1.02
   2  -7  -3   39.38    2.65
   2  -7  -3   44.37    2.64
   2  -7  -3   45.71    2.73
   2   7  -3   45.27    2.90
   2   7  -3   45.58    2.71
   1  -7  -3   16.18    1.08
   1  -7  -3   15.33    1.06
  -1   7   3   14.38    1.09
   1   7  -3   16.46    1.19
   0  -7  -3   97.52    5.63
   0  -7  -3   97.48    5.64
   0   7  -3   92.54    5.63
   0   7   3  100.29    5.63
  -1  -7  -3   17.08    1.27
  -1   7  -3   16.83    1.14
   1   7   3   16.62    1.22
  -1   7  -3   17.11    1.18
   2  -7   3   11.00    0.92
   2  -7   3    8.39    0.90
   2  -7   3    9.98    0.99
  -2  -7  -3    8.91    0.90
   2   7   3   11.09    1.16
   3  -7   3   -0.05    0.67
  -3  -7  -3   -0.19    0.68
   3  -7   3   -0.76    0.51
  -3  -7  -3   -0.32    0.49
   3  -7   3   -0.28    0.62
   3   7   3   -0.08    0.74
   4  -7   3    2.19    0.59
  -4  -7  -3    1.25    0.54
   4  -7   3   -0.10    0.72
   4  -7   3    2.03    0.53
   4   7   3    1.20    0.71
   5  -7   3    1.18    0.40
  -5  -7  -3    0.64    0.37
   5  -7   3    1.74    0.45
   5   7   3    0.77    0.71
  -5  -8   3    1.08    0.40
   5  -8  -3    0.57    0.40
   5  -8  -3    0.10    0.67
   5   8  -3    0.30    0.59
   4  -8  -3    0.11    0.50
   4  -8  -3   -0.11    0.56
  -4  -8   3    0.89    0.52
   4  -8  -3    0.99    0.57
   4   8  -3   -0.18    0.61
  -3  -8   3    4.08    0.71
   3  -8  -3    5.46    0.76
   3  -8  -3    5.61    0.72
  -3  -8   3    3.80    1.00
   3  -8  -3    6.11    0.75
   3   8  -3    5.22    0.90
   2  -8  -3    2.54    0.56
  -2  -8   3    2.10    0.55
  -2  -8   3    3.21    0.87
   2  -8  -3    1.94    0.55
   2  -8  -3    2.55    0.69
   2   8  -3    2.55    0.75
   1  -8  -3   62.39    3.64
   1  -8  -3   61.24    3.60
   1   8  -3   61.53    3.71
  -1   8   3   59.04    3.64
   0  -8  -3    4.42    0.69
   0   8   3    3.71    0.67
   0   8  -3    4.27    0.69
   0   8  -3    3.72    0.84
  -1  -8  -3    9.81    1.01
  -1   8  -3    9.66    0.97
  -1   8  -3   10.28    0.89
   2  -8   3    3.22    0.77
  -2  -8  -3    2.86    0.73
   2  -8   3    2.85    0.75
  -2  -8  -3    3.27    0.80
   3  -8   3   10.02    1.02
  -3  -8  -3   12.17    0.93
   3  -8   3   10.39    1.22
  -3  -8  -3   11.23    1.08
   3  -8   3   11.47    0.99
   3   8   3   11.35    1.30
  -4  -8  -3   -0.36    0.89
   4  -8   3    1.05    0.59
   4  -8   3    1.11    0.53
  -4  -8  -3    0.73    0.52
   4  -8   3    0.56    0.83
   4   8   3    0.79    0.77
   5  -8   3    0.32    0.38
   5  -8   3    0.54    0.38
  -5  -8  -3   -0.07    0.33
   5   8   3    0.89    0.69
   5  -9  -3   -0.66    0.72
  -5  -9   3    0.03    0.35
   5  -9  -3    0.12    0.37
   5   9  -3    0.36    0.64
  -4  -9   3    5.38    0.71
   4  -9  -3    6.06    0.73
   4  -9  -3    5.37    0.82
   4  -9  -3    6.46    0.76
   4   9  -3    4.99    0.81
   3  -9  -3   11.01    0.94
   3  -9  -3   12.42    1.03
  -3  -9   3   11.72    0.97
  -3  -9   3    8.36    1.12
   3  -9  -3   10.83    0.95
   3   9  -3   11.39    1.13
   2  -9  -3   14.85    1.25
  -2  -9   3   14.81    1.26
  -2  -9   3   14.14    1.11
   2  -9  -3   17.60    1.20
   2  -9  -3   15.56    1.12
   2   9  -3   16.00    1.27
   1  -9  -3   40.06    2.40
   1   9  -3   38.63    2.62
   0  -9   3   25.75    1.90
   0  -9  -3   28.73    1.87
   0   9  -3   31.25    1.93
  -1  -9  -3   47.58    2.91
  -1   9  -3   42.32    2.94
  -1   9  -3   51.09    2.91
   2  -9   3   -0.53    0.69
   2  -9   3    0.45    0.59
  -2  -9  -3   -0.06    0.62
   2  -9   3    0.14    0.71
  -2  -9  -3   -0.26    0.55
  -3  -9  -3   24.42    1.69
  -3  -9  -3   26.13    1.66
   3  -9   3   25.08    1.68
   3  -9   3   26.58    1.72
   3   9   3   23.25    1.92
  -4  -9  -3    0.14    0.48
  -4  -9  -3   -0.68    0.81
   4  -9   3   -0.53    0.48
   4  -9   3   -0.34    0.58
   4   9   3    0.40    0.71
   5  -9   3    0.14    0.33
  -5  -9  -3    0.39    0.31
   5  -9   3    0.29    0.35
   5   9   3    0.69    0.71
  -5 -10   3   -0.02    0.32
   5 -10  -3   -0.03    0.33
   5  10  -3    2.80    0.89
   4 -10  -3   12.19    0.99
   4 -10  -3   11.05    1.07
  -4 -10   3   12.65    0.95
   4 -10  -3   12.68    0.96
   4  10  -3    9.74    1.04
  -3 -10   3    7.66    0.95
   3 -10  -3    7.30    0.85
   3 -10  -3    9.21    1.02
  -3 -10   3    8.39    0.80
   3 -10  -3    8.26    0.85
   3  10  -3    8.27    1.02
  -2 -10   3   36.20    2.36
   2 -10  -3   40.58    2.41
  -2 -10   3   37.90    2.43
   2 -10  -3   37.66    2.40
   2 -10  -3   42.80    2.41
   2  10  -3   37.02    2.47
   1 -10  -3    4.72    0.87
  -1 -10   3    5.22    0.81
  -1 -10   3    4.92    0.75
   0 -10   3   70.22    4.44
   0 -10  -3   73.01    4.44
   0  10  -3   81.87    4.57
  -1 -10  -3    4.01    0.80
  -1 -10  -3    4.67    0.85
   1 -10   3    3.68    0.88
  -1  10  -3    1.27    1.10
   2 -10   3   -1.41    1.12
   2 -10   3   -0.70    0.60
  -2 -10  -3    0.76    0.61
   2 -10   3    1.42    0.72
  -2 -10  -3   -0.13    0.49
   3 -10   3    8.38    0.93
  -3 -10  -3   10.41    0.87
  -3 -10  -3    9.29    0.96
   3 -10   3    8.66    0.90
   3  10   3    9.03    1.35
  -4 -10  -3    5.98    0.68
   4 -10   3    6.79    0.68
   4 -10   3    4.70    0.75
  -4 -10  -3    5.42    0.83
   4  10   3    5.83    0.97
   5 -10   3   -0.11    0.33
   5 -10   3    0.33    0.33
  -5 -10  -3    0.16    0.28
   5  10   3    0.23    0.78
  -5 -11   3   -0.49    0.32
   5 -11  -3   -0.26    0.32
   4 -11  -3    0.83    0.47
  -4 -11   3    0.67    0.37
   4 -11  -3    0.38    0.68
   4 -11  -3    0.38    0.40
   4  11  -3   -0.04    0.65
   3 -11  -3    0.17    0.58
   3 -11  -3   -0.37    0.59
  -3 -11   3   -0.26    0.49
   3 -11  -3    0.35    0.56
  -3 -11   3    0.53    0.60
   3  11  -3   -0.49    0.66
  -2 -11   3    0.73    0.49
   2 -11  -3    1.27    0.58
   2 -11  -3    1.68    0.69
   2 -11  -3    1.00    0.55
  -2 -11   3    0.76    0.54
   2  11  -3    1.28    0.79
   1 -11  -3    3.54    0.72
  -1 -11   3    2.44    0.54
  -1 -11   3    2.72    0.69
   1 -11  -3    2.99    0.82
   0 -11  -3   -0.26    0.61
   0 -11  -3   -0.18    0.75
   0 -11   3    0.10    0.78
   0 -11   3   -0.39    0.58
   0 -11   3    0.75    0.58
  -1 -11  -3   20.85    1.49
  -1 -11  -3   21.44    1.40
   1 -11   3   20.74    1.37
   1 -11   3   20.64    1.45
   1 -11   3   15.89    1.48
   1 -11   3   16.63    1.49
  -1 -11  -3   16.36    1.47
   2 -11   3   12.40    1.15
  -2 -11  -3   13.11    1.14
   2 -11   3   15.12    1.12
  -2 -11  -3   13.46    1.09
  -3 -11  -3    5.17    0.83
   3 -11   3    5.51    0.79
  -3 -11  -3    4.35    0.70
   3 -11   3    6.31    0.79
   3  11   3    5.43    1.11
   4 -11   3   -0.25    0.40
  -4 -11  -3   -0.73    0.52
  -4 -11  -3   -0.15    0.37
   4 -11   3   -0.22    0.39
   4  11   3    0.92    0.78
   5 -11   3    0.60    0.32
   5 -11   3    0.69    0.30
  -5 -11  -3    0.57    0.28
  -4 -12   3    0.84    0.38
  -4 -12   3    0.68    0.59
   4 -12  -3    0.86    0.39
   4 -12  -3    0.67    0.71
   4 -12  -3    0.67    0.48
   4  12  -3    0.59    0.68
   3 -12  -3   23.10    1.52
  -3 -12   3   23.32    1.47
   3 -12  -3   21.89    1.47
   3 -12  -3   19.85    1.54
  -3 -12   3   24.79    1.52
   3  12  -3   17.46    1.54
  -2 -12   3    0.50    0.55
   2 -12  -3    0.39    0.69
   2 -12  -3    0.33    0.56
   2 -12  -3    0.00    0.69
  -2 -12   3    0.01    0.51
   2  12  -3    0.56    0.79
   1 -12  -3    3.44    0.88
  -1 -12   3    4.05    0.74
   1 -12  -3    5.17    0.82
  -1 -12   3    4.61    0.77
   0 -12  -3    0.69    0.71
   0 -12   3    0.43    0.54
   0 -12   3    0.67    0.59
   0 -12   3   -1.45    0.84
   0 -12  -3    1.16    0.75
   1 -12   3   -0.24    0.59
   1 -12   3   -0.47    1.09
  -1 -12  -3   -0.04    0.55
   1 -12   3    0.07    0.71
  -1 -12  -3    0.75    0.69
   1 -12   3    1.00    0.73
  -1 -12  -3    1.27    0.78
  -2 -12  -3    1.31    0.59
  -2 -12  -3    1.02    0.57
   2 -12   3    0.71    0.61
   2 -12   3    0.78    0.62
  -3 -12  -3    2.46    0.62
  -3 -12  -3    0.98    0.56
   3 -12   3    1.01    0.59
   3 -12   3    1.16    0.60
   3  12   3    0.27    0.87
   4 -12   3    0.33    0.35
  -4 -12  -3   -0.47    0.32
   4 -12   3    0.78    0.39
  -4 -12  -3    1.02    0.45
   4  12   3    0.53    0.77
  -4 -13   3    0.67    0.54
  -4 -13   3    1.16    0.32
   4 -13  -3    1.80    0.47
   4 -13  -3    1.46    0.80
   4  13  -3    1.21    0.79
   3 -13  -3    2.50    0.82
  -3 -13   3    3.20    0.69
  -3 -13   3    3.74    0.64
   3 -13  -3    2.12    0.59
   3 -13  -3    2.31    0.67
   3  13  -3    2.72    0.82
  -2 -13   3    1.95    0.57
  -2 -13   3    2.18    0.54
   2 -13  -3    2.74    0.86
   2 -13  -3    1.60    0.58
   2  13  -3    0.42    0.93
  -1 -13   3    6.50    0.81
   1 -13  -3    5.51    0.96
  -1 -13   3    6.78    0.83
   0 -13   3    0.88    0.50
   0 -13  -3    0.77    0.81
   0 -13  -3    1.40    0.70
   0 -13   3    1.45    1.07
   0 -13   3    0.93    0.57
  -1 -13  -3   13.14    1.11
  -1 -13  -3   11.38    1.19
   1 -13   3   12.80    1.03
   1 -13   3   11.17    1.17
   1 -13   3   10.74    1.17
  -1 -13  -3   12.90    1.35
   2 -13   3    2.93    0.68
   2 -13   3    4.20    0.82
  -2 -13  -3    3.57    0.79
  -2 -13  -3    2.99    0.70
  -3 -13  -3    4.49    0.75
   3 -13   3    5.42    0.71
  -3 -13  -3    4.42    0.68
   3 -13   3    3.67    0.71
   3  13   3    3.75    1.05
   4 -13   3    0.07    0.34
   4 -13   3    0.36    0.35
  -4 -13  -3   -0.25    0.30
  -4 -13  -3    0.36    0.43
   4  13   3   -0.24    0.77
  -4 -14   3    4.34    0.44
   4 -14  -3    4.68    0.53
   4 -14  -3    4.01    1.11
  -4 -14   3    4.41    0.66
  -3 -14   3    2.02    0.53
  -3 -14   3    1.87    0.51
   3 -14  -3    1.66    0.46
   3 -14  -3    2.72    0.84
   3 -14  -3    2.19    0.59
   3  14  -3    3.05    0.89
  -2 -14   3    2.33    0.56
   2 -14  -3    1.52    0.59
  -2 -14   3    1.73    0.55
   2 -14  -3    1.59    0.73
   2  14  -3    1.09    0.84
   1 -14  -3   -0.81    1.05
  -1 -14   3    0.12    0.47
  -1 -14   3    0.17    0.51
   1 -14  -3   -0.22    0.75
   0 -14   3    0.27    0.57
   0 -14   3    0.80    0.53
   0 -14  -3    0.84    0.85
   0 -14  -3   -0.17    0.73
   1 -14   3    0.61    0.56
   1 -14   3   -0.09    0.67
  -1 -14  -3    0.24    0.56
  -1 -14  -3    1.41    0.89
  -1 -14  -3    1.10    0.71
  -2 -14  -3    0.15    0.51
  -2 -14  -3   -0.33    0.60
   2 -14   3    0.31    0.70
   2 -14   3   -0.62    0.62
   3 -14   3    0.17    0.44
  -3 -14  -3   -0.36    0.44
   3 -14   3   -0.13    0.42
  -3 -14  -3    0.11    0.39
   3  14   3   -1.48    0.80
   4 -14   3    1.14    0.35
  -4 -14  -3    1.53    0.36
  -4 -14  -3    1.46    0.43
   4 -14   3    1.76    0.40
   4  14   3    1.25    0.83
  -4 -15   3    0.24    0.23
   4 -15  -3    0.14    0.32
   3 -15  -3    5.39    0.66
  -3 -15   3    5.30    0.56
   3 -15  -3    5.67    0.93
  -3 -15   3    4.76    0.57
   3  15  -3    6.44    1.26
   2 -15  -3    8.56    0.91
  -2 -15   3    8.06    0.80
   2 -15  -3    7.04    0.98
  -2 -15   3    7.32    0.79
   2  15  -3    4.35    1.26
   1 -15  -3   -0.15    0.71
  -1 -15   3   -0.03    0.48
  -1 -15   3    0.13    0.51
   0 -15  -3    4.20    0.90
   0 -15   3    3.49    0.74
   0 -15  -3    2.19    0.76
   0 -15   3    2.41    0.57
  -1 -15  -3    9.70    1.15
  -1 -15  -3   10.61    1.07
   2 -15   3    0.66    0.68
  -2 -15  -3    1.05    0.62
  -2 -15  -3    0.45    0.56
   2 -15   3    0.21    0.62
  -3 -15  -3    0.18    0.38
   3 -15   3   -0.05    0.41
  -3 -15  -3    0.32    0.38
   3 -15   3   -0.23    0.40
   3  15   3    0.02    0.80
   4 -15   3    0.64    0.32
  -4 -15  -3   -0.12    0.26
   4 -15   3   -0.28    0.33
  -4 -15  -3   -0.50    0.44
   3 -16  -3    0.73    0.92
  -3 -16   3    0.67    0.31
   3 -16  -3    0.26    0.37
  -3 -16   3    0.29    0.35
  -2 -16   3    0.71    0.40
  -2 -16   3    2.34    0.49
   2 -16  -3    0.66    0.75
   2 -16  -3    0.95    0.49
  -1 -16   3    1.85    0.56
  -1 -16   3    1.52    0.51
   1 -16  -3    2.32    0.80
   0 -16   3   -0.40    0.59
   0 -16  -3   -0.76    0.67
   0 -16   3    0.98    0.55
   0 -16  -3    1.20    0.73
  -1 -16  -3    1.65    0.61
  -2 -16  -3    8.76    0.75
  -2 -16  -3    6.33    0.73
   3 -16   3   -0.13    0.37
  -3 -16  -3   -0.19    0.32
  -3 -16  -3    0.46    0.34
   3 -16   3   -0.24    0.34
   3  16   3    0.28    0.79
   3 -17  -3   -0.03    0.43
  -3 -17   3    0.57    0.26
  -3 -17   3    0.65    0.29
  -2 -17   3    4.58    0.56
  -2 -17   3    5.49    0.58
   2 -17  -3    5.94    1.00
  -1 -17   3    3.53    0.60
  -1 -17   3    4.00    0.60
   1 -17  -3    5.43    0.92
   0 -17   3    2.64    0.54
   0 -17  -3    2.87    0.89
   0 -17  -3    3.55    0.67
   0 -17   3    2.15    0.58
  -1 -17  -3    1.02    0.50
  -2 -17  -3    0.42    0.38
  -2 -17  -3   -0.21    0.37
   2  17   3    0.31    0.78
  -3 -17  -3    0.03    0.33
   3 -17   3    0.57    0.48
  -3 -17  -3   -0.05    0.29
   3  17   3    0.63    0.85
  -2 -18   3    0.26    0.31
   2 -18  -3   -2.25    1.10
  -2 -18   3    0.45    0.32
  -1 -18   3   -0.03    0.37
   1 -18  -3    1.54    0.72
  -1 -18   3   -0.04    0.39
   0 -18   3    0.01    0.60
   0 -18  -3    1.96    0.58
   0 -18   3    3.20    0.53
   0 -18  -3    1.93    0.80
  -1 -18  -3    5.65    0.64
  -2 -18  -3    0.37    0.34
   2  18   3   -1.33    0.79
  -2 -19   3    0.20    0.27
  -2 -19   3    0.09    0.28
  -1 -19   3    0.42    0.34
   1 -19  -3   -0.70    1.05
  -1 -19   3    0.18    0.32
   0 -19   3    1.40    0.41
  -1 -19  -3    0.19    0.37
  -2 -19  -3    0.30    0.29
  -1 -20   3    1.60    0.37
  -1 -20  -3    0.10    0.39
   5   0  -4   -0.16    0.50
   4   0  -4   -0.54    0.58
   3   0  -4    5.82    0.70
   3   0  -4    5.31    0.90
   2   0  -4   70.01    4.17
  -2   0   4   70.91    4.19
   2   0  -4   73.41    4.16
   1   0  -4  929.59   54.98
  -1   0   4 1000.00   54.99
   0   0  -4  105.94    6.30
   0   0   4  114.10    6.32
   1   0   4   63.30    3.57
  -1   0  -4   60.44    3.55
   2   0   4   11.24    1.01
   3   0   4   39.11    2.44
   4   0   4   -0.34    0.71
  -4   0  -4    0.73    0.60
   4   0   4    0.46    1.56
   4   0   4   -1.25    0.87
   5   0   4    0.15    0.61
  -5   0  -4   -0.16    0.51
  -5  -1   4    5.21    0.66
   5  -1  -4    6.14    0.71
   5   1  -4    5.71    0.71
   4  -1  -4    5.98    0.81
   4   1  -4    5.14    0.82
   3  -1  -4   16.28    1.26
   3  -1  -4   17.58    1.20
   3   1  -4   17.38    1.23
  -2  -1   4    9.77    0.84
   2  -1  -4   10.16    0.75
   2  -1  -4   10.05    0.79
  -2   1   4   11.29    0.83
   2   1  -4    9.27    0.84
   2   1  -4    8.84    0.85
   1  -1  -4   13.60    0.87
  -1  -1   4   14.55    0.91
  -1   1   4   13.35    0.91
   0  -1   4    2.89    0.35
   0  -1  -4    2.76    0.28
   0   1   4    2.79    0.31
   0   1  -4    2.88    0.33
   1  -1   4  186.81    9.58
  -1  -1  -4  159.18    9.57
  -1   1  -4  161.26    9.57
   1   1   4  163.20    9.58
   2   1   4   88.32    5.17
   2   1   4   93.27    5.17
   2   1   4   88.59    5.25
   3  -1   4   -0.80    0.80
   3  -1   4   -0.15    0.60
   3  -1   4    1.66    0.83
   3   1   4    1.33    0.62
   4  -1   4    4.21    1.00
  -4  -1  -4    3.32    0.72
   4  -1   4    2.76    0.88
   4  -1   4    2.59    0.88
   4   1   4    2.28    0.72
  -4   1  -4    3.43    0.79
   5  -1   4    0.31    0.62
  -5  -1  -4   -0.29    0.50
  -5   1  -4    0.50    0.51
   5   1   4   -0.36    0.60
   5  -2  -4    0.72    0.49
  -5  -2   4   -0.34    0.48
   5   2  -4   -0.01    0.51
   4  -2  -4   -0.41    0.78
   4  -2  -4   -0.15    0.58
   4   2  -4   -0.33    0.63
   3  -2  -4   16.41    1.45
   3  -2  -4   18.31    1.34
   3  -2  -4   19.23    1.26
   3   2  -4   19.87    1.31
   2  -2  -4   32.18    1.87
   2  -2  -4   32.08    1.88
  -2  -2   4   28.95    1.95
  -2   2   4   30.87    1.94
   2   2  -4   31.88    1.95
   2   2  -4   29.11    1.94
   1  -2  -4  288.42   16.53
  -1  -2   4  290.24   16.55
   1   2  -4  297.99   16.56
  -1   2   4  281.28   16.54
   0  -2  -4   48.38    3.22
   0  -2   4   58.85    3.25
   0   2   4   58.91    3.24
   0   2  -4   57.69    3.25
  -1  -2  -4   81.52    4.76
   1  -2   4   90.23    4.76
  -1   2  -4   75.30    4.74
   1   2   4   84.47    4.77
   2   2   4   -0.04    0.30
   2   2   4    0.06    0.61
   2   2   4    0.39    0.30
  -3  -2  -4    2.71    0.64
   3  -2   4    2.85    0.76
   3  -2   4    4.44    0.95
   3  -2   4    4.24    0.97
   3   2   4    2.00    0.63
   4  -2   4    0.21    0.77
   4  -2   4    1.59    0.69
  -4  -2  -4    0.36    0.61
   4  -2   4   -0.43    0.75
  -4   2  -4    0.38    0.66
   4   2   4   -0.60    0.68
   5  -2   4    0.94    0.77
   5  -2   4    0.03    0.64
   5   2   4    0.72    0.60
  -5   2  -4    1.30    0.57
   5  -3  -4    0.95    0.51
   5   3  -4    0.12    0.52
   4  -3  -4    3.45    0.90
   4  -3  -4    3.40    0.75
   4  -3  -4    2.86    0.71
  -4  -3   4    3.49    1.00
  -4  -3   4    2.24    0.66
   4   3  -4    3.86    0.78
  -3  -3   4    0.92    0.81
   3  -3  -4   -0.18    0.43
   3  -3  -4    0.51    0.52
   3  -3  -4   -0.09    0.70
   3   3  -4   -0.42    0.53
   2  -3  -4    1.70    0.39
  -2  -3   4    0.63    0.55
   2  -3  -4    0.71    0.36
  -2   3   4    1.39    0.57
   2   3  -4    1.44    0.57
   2   3  -4    1.59    0.58
  -1  -3   4    4.94    0.54
   1  -3  -4    5.70    0.44
  -1   3   4    6.06    0.51
   1   3  -4    5.18    0.54
   0  -3   4    3.39    0.38
   0  -3  -4    3.34    0.30
   0   3  -4    2.85    0.40
   0   3   4    3.45    0.33
  -1  -3  -4    8.37    0.58
   1  -3   4    9.13    0.55
  -1   3  -4    6.88    0.54
   1   3   4    8.50    0.58
   2   3   4   68.56    4.13
   2   3   4   74.01    4.14
  -3  -3  -4    6.29    0.77
   3  -3   4    5.72    0.78
   3  -3   4    4.49    0.94
   3  -3   4    5.11    0.88
   3   3   4    5.46    0.81
   4  -3   4   11.31    1.12
   4  -3   4   10.66    1.17
   4  -3   4   11.43    1.08
  -4  -3  -4   12.36    0.99
  -4   3  -4   10.72    1.07
   4   3   4   11.98    1.19
   5  -3   4    2.62    0.81
   5  -3   4   -1.02    0.67
  -5  -3  -4    0.33    0.44
   5   3   4    0.81    0.63
  -5   3  -4   -0.15    0.72
   5  -4  -4    1.29    0.55
   5  -4  -4    1.55    0.87
   5   4  -4    0.98    0.51
  -4  -4   4    9.84    1.16
   4  -4  -4   15.06    1.07
   4  -4  -4   13.16    1.05
   4  -4  -4   12.81    1.10
   4   4  -4   12.83    1.12
   3  -4  -4    1.79    0.62
   3  -4  -4    1.71    0.50
  -3  -4   4    2.50    0.72
   3  -4  -4    1.87    0.56
  -3  -4   4    1.10    0.61
   3   4  -4    2.16    0.64
   2  -4  -4   34.63    1.98
  -2  -4   4   29.71    2.09
   2  -4  -4   33.94    1.99
   2   4  -4   31.17    2.13
   2   4  -4   34.91    2.06
  -2   4   4   31.37    2.11
  -1  -4   4    0.17    0.33
   1  -4  -4    0.53    0.22
  -1   4   4    0.28    0.31
   1   4  -4    0.38    0.34
   0  -4   4  100.67    5.46
   0  -4  -4   86.44    5.44
   0   4  -4   96.85    5.47
   0   4   4   94.75    5.45
  -1  -4  -4    1.80    0.37
  -1   4  -4    2.12    0.31
   1   4   4    1.45    0.35
   2   4   4   97.89    5.69
   2   4   4   98.62    5.69
   3  -4   4    1.68    0.70
  -3  -4  -4    0.91    0.52
  -3  -4  -4    3.74    1.07
   3  -4   4    2.77    0.77
   3  -4   4    1.04    0.63
   3   4   4    1.88    0.67
   4  -4   4    4.97    0.84
   4  -4   4    5.63    0.89
   4  -4   4    3.45    1.01
  -4  -4  -4    4.24    0.79
   4   4   4    4.96    0.96
  -4   4  -4    5.42    0.88
  -5  -4  -4    1.69    0.43
   5  -4   4    0.67    0.54
   5  -4   4    0.88    0.53
   5   4   4    1.75    0.70
   5  -5  -4    0.04    0.56
   5  -5  -4    0.61    0.54
   5   5  -4    0.27    0.50
   4  -5  -4    5.64    0.82
   4  -5  -4    5.65    0.73
  -4  -5   4    5.70    0.88
   4  -5  -4    5.88    0.70
   4   5  -4    4.61    0.78
   3  -5  -4    1.07    0.59
   3  -5  -4    0.12    0.44
  -3  -5   4    2.06    0.63
   3  -5  -4   -0.39    0.51
   3   5  -4    0.01    0.65
   2  -5  -4   18.92    1.23
   2  -5  -4   19.44    1.30
  -2   5   4   18.16    1.51
   2   5  -4   20.60    1.37
   2   5  -4   18.81    1.53
   1  -5  -4    0.56    0.27
   1  -5  -4    0.78    0.39
  -1  -5   4   -0.19    0.37
   1   5  -4    0.66    0.40
  -1   5   4   -0.31    0.32
   0  -5  -4    0.87    0.26
   0  -5   4    0.22    0.29
   0   5  -4    0.68    0.33
   0   5   4    0.63    0.27
  -1  -5  -4    3.65    0.50
  -1  -5  -4    5.82    0.84
  -1   5  -4    4.21    0.47
   1   5   4    5.29    0.51
   2   5   4   37.10    2.36
   2   5   4   39.20    2.35
   3  -5   4    5.54    0.76
  -3  -5  -4    5.51    0.73
   3  -5   4    4.00    0.84
   3  -5   4    6.03    0.82
  -3  -5  -4    3.27    0.86
   3   5   4    5.85    0.92
   4  -5   4    0.71    0.60
   4  -5   4   -0.28    0.67
  -4  -5  -4   -0.18    0.55
   4  -5   4    0.38    0.63
  -4   5  -4    0.06    0.78
   4   5   4    0.63    0.71
   5  -5   4    0.96    0.47
   5  -5   4    1.52    0.55
  -5  -5  -4    0.67    0.41
   5   5   4    1.60    0.71
   5  -6  -4   -0.22    0.60
   5  -6  -4   -0.06    0.43
   5   6  -4    0.63    0.50
   4  -6  -4    1.92    0.60
  -4  -6   4    3.32    0.76
   4  -6  -4    1.99    0.55
   4  -6  -4    2.02    0.58
   4   6  -4    1.58    0.62
   3  -6  -4    0.84    0.49
  -3  -6   4    0.11    0.59
   3  -6  -4    1.89    0.58
   3  -6  -4    0.50    0.51
   3   6  -4    0.55    0.69
   2  -6  -4    1.22    0.36
   2  -6  -4    0.25    0.59
   2   6  -4    0.44    0.61
   2   6  -4    1.19    0.83
  -2   6   4    0.83    1.01
   1  -6  -4   51.85    2.83
   1  -6  -4   45.85    2.81
  -1   6   4   46.50    2.84
   1   6  -4   46.30    2.88
   0  -6  -4   59.85    3.35
   0  -6  -4   55.96    3.38
   0   6  -4   54.63    3.36
   0   6   4   57.66    3.35
  -1  -6  -4   21.37    1.51
  -1   6  -4   20.12    1.33
  -1   6  -4   22.26    1.36
   1   6   4   20.59    1.39
   2   6   4   26.45    1.82
  -3  -6  -4    0.39    0.72
  -3  -6  -4    0.86    0.53
   3  -6   4    0.06    0.60
   3  -6   4    0.32    0.63
   3  -6   4    0.26    0.65
   3  -6   4    0.88    0.54
   3   6   4    0.39    0.73
   4  -6   4    2.46    0.69
  -4  -6  -4    2.24    0.54
   4  -6   4   -1.06    0.78
   4  -6   4    2.95    0.76
  -4   6  -4    0.82    0.85
   4   6   4    1.35    0.78
  -5  -6  -4   -0.08    0.37
   5  -6   4    0.35    0.42
   5  -6   4    0.46    0.47
   5   6   4    0.06    0.69
   5  -7  -4   -0.34    0.60
  -5  -7   4    0.31    0.52
   5  -7  -4   -0.13    0.40
   5   7  -4   -0.17    0.53
   4  -7  -4    0.82    0.55
   4  -7  -4    0.72    0.54
   4  -7  -4    1.18    0.58
  -4  -7   4    0.27    0.54
   4   7  -4    0.20    0.55
   3  -7  -4    9.11    0.89
  -3  -7   4    7.39    1.15
   3  -7  -4    8.59    0.82
   3  -7  -4    9.01    0.87
  -3  -7   4    8.69    0.90
   3   7  -4    9.03    0.98
   2  -7  -4    9.95    0.77
  -2  -7   4    8.11    0.89
   2  -7  -4    9.82    1.19
   2  -7  -4    8.19    0.94
   2   7  -4    9.57    1.04
   1  -7  -4    0.07    0.41
   1  -7  -4    0.28    0.43
  -1   7   4    0.44    0.49
   1   7  -4    0.22    0.60
   0  -7  -4   22.87    1.55
   0  -7  -4   24.35    1.53
   0   7   4   24.50    1.56
   0   7  -4   23.61    1.55
  -1  -7  -4   36.80    2.37
  -1   7  -4   37.76    2.31
  -1   7  -4   39.00    2.35
  -2  -7  -4    3.45    0.79
   2  -7   4    4.04    0.79
  -2  -7  -4    3.14    0.73
   2  -7   4    4.77    0.87
   2   7   4    4.97    1.21
   3  -7   4    1.65    0.64
   3  -7   4    1.14    0.55
   3  -7   4    2.58    0.65
  -3  -7  -4    1.92    0.68
  -3  -7  -4    2.02    0.56
   3   7   4    1.67    0.86
   4  -7   4    0.79    0.56
   4  -7   4    0.32    0.55
  -4  -7  -4    0.79    0.52
   4   7   4    0.86    0.77
  -5  -7  -4    0.05    0.32
   5  -7   4   -0.04    0.37
   5  -7   4    0.27    0.43
   5   7   4    0.17    0.68
   5  -8  -4    0.63    0.66
  -5  -8   4    0.73    0.43
   5  -8  -4   -0.09    0.38
   5   8  -4    0.31    0.60
   4  -8  -4    0.19    0.60
  -4  -8   4   -0.19    0.54
   4  -8  -4    0.29    0.53
   4  -8  -4    0.21    0.55
   4   8  -4    0.23    0.57
   3  -8  -4    3.88    0.73
  -3  -8   4    3.21    0.82
   3  -8  -4    3.17    0.74
   3  -8  -4    4.88    0.76
  -3  -8   4    4.88    0.75
   3   8  -4    5.32    0.89
   2  -8  -4    5.69    0.66
   2  -8  -4    6.04    0.80
   2  -8  -4    4.71    0.95
  -2  -8   4    5.52    0.76
  -2  -8   4    5.14    0.94
   2   8  -4    6.08    0.91
   1  -8  -4   94.12    5.72
   1  -8  -4  102.46    5.78
   1   8  -4   98.98    5.83
   0  -8  -4   94.44    5.91
   0  -8  -4  105.04    5.95
   0   8  -4  106.14    5.96
  -1  -8  -4    5.28    0.88
  -1   8  -4    4.35    0.96
   2  -8   4    0.40    0.71
  -2  -8  -4   -0.38    0.55
   2  -8   4   -0.18    0.72
   2  -8   4    0.43    0.56
  -2  -8  -4   -0.16    0.62
   3  -8   4    1.17    0.63
   3  -8   4    1.78    0.66
   3  -8   4    0.68    0.54
  -3  -8  -4    0.67    0.62
  -3  -8  -4    0.28    0.51
   3   8   4    0.73    0.91
   4  -8   4    1.07    0.56
   4  -8   4    0.91    0.55
  -4  -8  -4    0.39    0.51
  -4  -8  -4    0.25    0.82
   4   8   4    0.58    0.75
   5  -8   4   -0.32    0.38
  -5  -8  -4    0.45    0.33
   5  -8   4    0.74    0.36
   5   8   4    0.49    0.72
   5  -9  -4    1.52    0.70
   5  -9  -4    0.86    0.37
  -5  -9   4    0.88    0.41
   5   9  -4    0.94    0.74
   4  -9  -4    0.55    0.53
  -4  -9   4    0.58    0.52
   4  -9  -4    0.45    0.58
   4  -9  -4   -0.33    0.51
   4   9  -4    0.40    0.61
  -3  -9   4    1.77    0.53
   3  -9  -4    2.95    0.74
   3  -9  -4    2.21    0.58
  -3  -9   4    1.58    0.68
   3  -9  -4    2.56    0.76
   3   9  -4    2.35    0.80
   2  -9  -4    7.69    0.81
  -2  -9   4    5.89    0.77
  -2  -9   4    5.52    0.91
   2  -9  -4    6.86    0.85
   2  -9  -4    5.05    0.91
   2   9  -4    8.00    0.97
   1  -9  -4   -0.35    0.42
  -1  -9   4   -0.20    0.56
  -1  -9   4    1.42    0.54
   0  -9  -4    0.72    0.52
   0   9  -4   -0.26    0.77
  -1  -9  -4    4.42    0.78
  -1  -9  -4    3.28    0.88
  -1   9  -4    2.92    0.91
   2  -9   4   -1.31    0.66
  -2  -9  -4   -0.37    0.53
   2  -9   4   -0.38    0.52
   2  -9   4    1.04    0.74
  -2  -9  -4    0.69    0.61
  -3  -9  -4    4.13    0.78
   3  -9   4    3.84    0.73
   3  -9   4    3.99    0.86
  -3  -9  -4    5.05    0.73
   3   9   4    3.80    1.05
  -4  -9  -4    2.16    0.76
   4  -9   4    1.03    0.51
   4  -9   4    0.89    0.56
  -4  -9  -4    1.65    0.50
   4   9   4    0.08    0.75
  -5  -9  -4    0.33    0.30
   5  -9   4   -0.79    0.34
   5  -9   4   -0.35    0.32
   5   9   4   -0.02    0.77
  -5 -10   4    0.86    0.40
   5 -10  -4    1.12    0.36
   4 -10  -4    1.07    0.67
   4 -10  -4    0.94    0.53
  -4 -10   4    1.14    0.48
   4 -10  -4    2.15    0.56
   4  10  -4    0.87    0.57
  -3 -10   4    2.96    0.79
   3 -10  -4    2.23    0.58
  -3 -10   4    2.15    0.56
   3 -10  -4    3.21    0.71
   3 -10  -4    2.73    0.73
   3  10  -4    2.25    0.81
  -2 -10   4    5.85    0.78
  -2 -10   4    5.67    0.83
   2 -10  -4    4.92    0.77
   2 -10  -4    5.95    0.79
   2 -10  -4    3.96    0.81
   2  10  -4    6.06    0.98
  -1 -10   4   37.47    2.38
   1 -10  -4   40.48    2.39
   1 -10  -4   38.91    2.45
  -1 -10   4   37.54    2.35
   0 -10   4    1.39    0.61
   0 -10  -4    0.61    0.58
   0 -10   4    0.60    0.57
   0  10  -4    0.11    1.06
   1 -10   4   13.28    1.31
   1 -10   4   12.87    1.11
  -1 -10  -4   14.09    1.19
   1 -10   4   13.73    1.25
   1 -10   4   11.41    1.19
  -1 -10  -4   13.42    1.13
   2 -10   4    1.30    0.72
   2 -10   4    2.65    0.61
   2 -10   4    1.92    0.73
  -2 -10  -4    1.59    0.57
  -2 -10  -4    2.24    0.67
   3 -10   4   -0.57    0.55
   3 -10   4    0.54    0.62
  -3 -10  -4    0.64    0.55
  -3 -10  -4    0.45    0.52
   3  10   4    1.38    0.94
  -4 -10  -4    0.26    0.39
  -4 -10  -4    0.28    0.58
   4 -10   4   -0.36    0.42
   4 -10   4    0.06    0.47
   4  10   4    0.15    0.79
   5 -10   4    0.39    0.33
   5 -10   4    0.30    0.33
  -5 -10  -4    0.78    0.28
  -4 -11   4    0.32    0.39
   4 -11  -4   -0.33    0.61
   4 -11  -4   -0.18    0.41
   4  11  -4    0.18    0.60
   3 -11  -4    3.93    0.78
  -3 -11   4    4.19    0.65
   3 -11  -4    3.15    0.70
   3 -11  -4    3.45    0.72
  -3 -11   4    4.34    0.79
   3  11  -4    2.59    0.80
   2 -11  -4    0.59    0.71
  -2 -11   4    0.18    0.46
   2 -11  -4    0.56    0.62
   2 -11  -4   -0.12    0.53
  -2 -11   4    0.24    0.53
   2  11  -4    1.64    0.86
   1 -11  -4    3.67    0.86
   1 -11  -4    4.81    0.80
  -1 -11   4    5.62    0.75
  -1 -11   4    3.47    0.68
   0 -11  -4    1.09    0.69
   0 -11   4   -0.01    0.53
   0 -11   4    0.32    0.58
   0 -11  -4    0.25    0.75
   1 -11   4    6.15    0.98
  -1 -11  -4    5.61    0.92
   1 -11   4    4.14    0.81
   1 -11   4    5.59    0.94
  -1 -11  -4    4.38    0.90
  -1 -11  -4    5.32    0.82
   1 -11   4    3.36    0.91
   2 -11   4   -0.86    0.65
  -2 -11  -4   -0.28    0.55
  -2 -11  -4   -0.20    0.62
   2 -11   4    0.40    0.59
   2 -11   4   -0.36    0.61
   3 -11   4   -0.32    0.56
  -3 -11  -4    0.15    0.53
   3 -11   4    0.10    0.59
  -3 -11  -4    0.63    0.51
   3  11   4    0.56    0.90
   4 -11   4    0.08    0.39
   4 -11   4    0.56    0.43
  -4 -11  -4    0.29    0.49
  -4 -11  -4    0.09    0.33
   4  11   4    0.61    0.78
   4 -12  -4    0.33    0.65
   4 -12  -4    0.12    0.39
  -4 -12   4   -0.22    0.34
   4  12  -4   -0.48    0.79
   3 -12  -4    4.70    0.81
   3 -12  -4    3.13    0.80
   3 -12  -4    4.12    0.71
  -3 -12   4    3.43    0.74
  -3 -12   4    4.77    0.68
   3  12  -4    3.52    0.86
  -2 -12   4    0.55    0.52
   2 -12  -4    1.28    0.71
  -2 -12   4    0.44    0.50
   2 -12  -4   -0.37    0.52
   2  12  -4    1.22    0.99
  -1 -12   4   20.39    1.36
   1 -12  -4   18.39    1.43
  -1 -12   4   18.05    1.34
   1 -12  -4   20.61    1.45
   0 -12  -4   -1.60    0.68
   0 -12   4    0.04    0.57
   0 -12   4   -0.33    0.47
   0 -12  -4   -0.24    0.67
   1 -12   4    0.26    0.71
   1 -12   4    0.98    0.66
  -1 -12  -4    0.72    0.60
   1 -12   4    0.24    0.99
  -1 -12  -4    1.11    0.88
  -1 -12  -4    1.47    0.76
   1 -12   4    0.18    0.53
   2 -12   4    1.57    0.62
   2 -12   4    0.55    0.64
  -2 -12  -4    1.04    0.56
   2 -12   4    0.33    0.57
  -2 -12  -4    0.46    0.56
   3 -12   4    0.02    0.57
  -3 -12  -4    0.60    0.58
  -3 -12  -4    0.08    0.50
   3 -12   4   -0.10    0.56
   3  12   4   -0.02    0.86
  -4 -12  -4   -0.19    0.46
   4 -12   4   -0.04    0.40
   4 -12   4    0.30    0.36
  -4 -12  -4    0.14    0.31
   4  12   4   -0.71    0.78
  -4 -13   4    1.49    0.32
   4 -13  -4    1.08    0.37
   4 -13  -4    0.52    0.73
   4  13  -4    2.58    1.14
   3 -13  -4    0.45    0.65
   3 -13  -4    1.24    0.66
  -3 -13   4    0.29    0.48
  -3 -13   4   -0.15    0.52
   3 -13  -4   -0.27    0.52
   3  13  -4    0.12    0.76
   2 -13  -4    4.70    0.74
  -2 -13   4    5.82    0.73
   2 -13  -4    3.13    0.81
  -2 -13   4    3.67    0.68
   2  13  -4    5.11    1.35
  -1 -13   4    0.11    0.48
  -1 -13   4    0.28    0.49
   1 -13  -4   -0.51    0.71
   1 -13  -4    0.43    0.64
   0 -13   4    3.33    0.74
   0 -13  -4    3.82    1.01
   0 -13  -4    3.45    0.97
   0 -13   4    3.47    0.66
   1 -13   4    0.53    0.67
   1 -13   4    0.29    0.71
  -1 -13  -4    1.57    0.62
  -1 -13  -4    0.55    0.82
   1 -13   4    1.20    0.54
  -2 -13  -4   10.62    0.97
  -2 -13  -4   10.02    1.00
   2 -13   4    8.50    1.00
   2 -13   4   10.25    0.96
   3 -13   4    8.46    0.85
  -3 -13  -4    8.37    0.82
   3 -13   4    7.27    0.84
  -3 -13  -4    8.59    0.85
   3  13   4    6.22    1.17
   4 -13   4   -0.02    0.32
  -4 -13  -4    0.78    0.31
   4 -13   4    0.14    0.36
  -4 -13  -4    0.52    0.41
   4  13   4    0.44    0.80
  -4 -14   4    0.07    0.25
   4 -14  -4   -0.03    0.34
   4 -14  -4   -0.36    0.91
   3 -14  -4   -0.05    0.44
  -3 -14   4    0.33    0.39
   3 -14  -4    0.84    0.68
  -3 -14   4    0.10    0.42
   3  14  -4   -1.41    1.02
  -2 -14   4    3.12    0.58
  -2 -14   4    3.25    0.69
   2 -14  -4    2.68    0.75
   2 -14  -4    2.47    0.73
   2  14  -4    4.36    1.15
  -1 -14   4   18.51    1.30
  -1 -14   4   18.55    1.29
   1 -14  -4   18.29    1.46
   0 -14   4   29.41    1.88
   0 -14   4   29.63    1.93
   0 -14  -4   30.96    2.12
   0 -14  -4   30.07    2.05
   1 -14   4    6.06    0.74
  -1 -14  -4    5.50    0.86
   1 -14   4    3.30    0.90
  -1 -14  -4    4.75    1.09
   1 -14   4    5.70    0.86
   2 -14   4    2.34    0.71
  -2 -14  -4    3.76    0.83
   2 -14   4    4.24    0.82
  -2 -14  -4    3.27    0.72
  -3 -14  -4    2.01    0.53
  -3 -14  -4    1.38    0.45
   3 -14   4    0.70    0.46
   3 -14   4    1.29    0.46
   3  14   4    1.96    0.86
   4 -14   4    0.05    0.31
  -4 -14  -4   -0.12    0.41
   4 -14   4    0.36    0.31
  -4 -14  -4    0.03    0.28
   4  14   4    0.70    0.85
  -4 -15   4    2.42    0.31
   4 -15  -4    2.65    0.44
  -3 -15   4    0.62    0.40
   3 -15  -4    0.68    0.42
   3 -15  -4    0.26    0.69
  -3 -15   4    0.72    0.34
  -2 -15   4   -0.06    0.49
  -2 -15   4   -0.45    0.47
   2 -15  -4    0.03    0.59
   2 -15  -4    0.72    0.66
  -1 -15   4    2.50    0.62
   1 -15  -4    1.62    0.71
  -1 -15   4    1.98    0.54
   0 -15   4   -0.05    0.55
   0 -15   4    0.08    0.49
   0 -15  -4    0.74    0.73
   0 -15  -4    0.05    0.69
  -1 -15  -4   -0.04    0.73
   1 -15   4   -0.59    0.58
  -1 -15  -4   -0.26    0.59
   1 -15   4   -0.56    0.69
  -2 -15  -4    1.90    0.64
   2 -15   4    2.14    0.59
  -2 -15  -4    1.71    0.52
   2 -15   4    1.25    0.67
   3 -15   4   -0.13    0.36
   3 -15   4   -0.43    0.37
  -3 -15  -4    0.18    0.37
  -3 -15  -4   -0.01    0.35
   3  15   4   -0.35    0.80
   3 -16  -4    4.57    0.52
   3 -16  -4    3.44    1.05
  -3 -16   4    3.17    0.42
  -3 -16   4    3.83    0.45
  -2 -16   4    1.64    0.42
   2 -16  -4    1.43    0.49
   2 -16  -4    2.13    0.74
  -2 -16   4    1.92    0.50
  -1 -16   4    1.92    0.56
  -1 -16   4    1.55    0.50
   1 -16  -4    2.57    0.83
   0 -16  -4    0.80    0.76
   0 -16   4    2.62    0.54
   0 -16   4    2.56    0.69
   0 -16  -4    1.35    0.68
   1 -16   4   -0.16    0.55
  -1 -16  -4    3.52    0.81
  -2 -16  -4    2.73    0.53
  -2 -16  -4    2.57    0.49
  -3 -16  -4    0.50    0.34
   3 -16   4    0.35    0.39
   3 -16   4    0.16    0.36
  -3 -16  -4    0.54    0.30
   3  16   4    0.22    0.75
  -3 -17   4    0.15    0.25
  -3 -17   4    0.05    0.26
   3 -17  -4    0.39    0.41
   2 -17  -4    1.06    0.53
  -2 -17   4    0.17    0.31
  -2 -17   4    0.14    0.35
   2 -17  -4   -0.15    0.76
  -1 -17   4    1.15    0.43
   1 -17  -4    0.77    0.77
  -1 -17   4    0.77    0.39
   0 -17   4   -0.73    0.40
   0 -17  -4    0.07    0.63
   0 -17   4   -0.20    0.43
   0 -17  -4    0.57    0.55
  -1 -17  -4    4.17    0.71
  -2 -17  -4    0.29    0.37
   2  17   4    0.41    0.73
  -3 -17  -4    0.19    0.28
  -3 -17  -4   -0.24    0.43
   3  17   4    0.51    0.81
  -2 -18   4    0.08    0.31
  -2 -18   4   -0.27    0.28
   2 -18  -4    0.89    0.97
   1 -18  -4   -0.19    0.66
  -1 -18   4    0.38    0.37
  -1 -18   4    0.73    0.35
   0 -18  -4    2.54    0.59
   0 -18   4    3.10    0.44
   0 -18   4    3.91    0.55
   0 -18  -4    2.44    0.77
  -1 -18  -4   -0.08    0.42
  -2 -18  -4    1.71    0.40
   2  18   4    0.44    0.77
  -2 -19   4    0.06    0.27
  -2 -19   4    0.35    0.26
  -1 -19   4    0.43    0.33
   1 -19  -4    0.53    0.92
  -1 -19   4    0.01    0.33
   0 -19   4   -0.48    0.36
  -1 -19  -4    3.06    0.47
  -2 -19  -4    0.95    0.30
  -1 -20   4    0.90    0.31
  -1 -20  -4    1.42    0.48
   5   0  -5    0.11    0.51
  -5   0   5    0.49    0.42
   4   0  -5   -0.45    0.59
   3   0  -5   -0.36    0.47
  -2   0   5   -0.25    0.58
   2   0  -5   -0.52    0.41
   2   0  -5   -0.25    0.43
   1   0  -5    0.12    0.25
  -1   0   5    1.30    0.38
   0   0  -5    0.22    0.18
   0   0   5    0.10    0.27
   2   0   5   -0.70    0.64
   3   0   5    0.71    0.89
   3   0   5    1.48    1.00
   3   0   5    0.06    0.68
   4   0   5    0.19    0.78
   4   0   5    0.96    1.04
  -4   0  -5    0.80    0.60
   5   0   5    1.48    0.72
  -5   0  -5    0.37    0.49
  -5  -1   5    7.82    0.74
   5  -1  -5    7.21    0.78
   5   1  -5    7.08    0.79
  -5   1   5    7.82    0.70
   4  -1  -5    0.46    0.60
   4   1  -5    0.09    0.60
   3  -1  -5   12.49    0.95
   3   1  -5   12.04    0.99
  -2  -1   5   13.27    1.08
   2  -1  -5   12.70    0.95
   2  -1  -5   13.83    0.95
  -2   1   5   13.27    1.09
   2   1  -5   12.81    0.98
   2   1  -5   12.65    1.01
   1  -1  -5   58.12    3.37
  -1  -1   5   55.10    3.40
   1   1  -5   57.99    3.39
  -1   1   5   60.92    3.41
   0  -1  -5    0.46    0.19
   0  -1   5    0.41    0.28
   0   1  -5    0.31    0.22
   0   1   5    0.15    0.26
  -1  -1  -5  197.73   11.76
   1  -1   5  225.78   11.77
  -1   1  -5  187.51   11.75
   1   1   5  212.24   11.77
   2   1   5    4.39    0.56
   2   1   5    5.48    0.84
   3  -1   5    0.76    0.87
   3  -1   5    2.21    0.68
   3  -1   5    0.88    0.80
   3   1   5    1.60    0.70
   3   1   5    2.07    1.03
   4  -1   5    1.77    0.86
   4  -1   5    3.09    0.94
  -4  -1  -5    2.11    0.63
   4  -1   5    0.34    0.82
  -4   1  -5    3.24    0.77
   4   1   5    2.59    0.77
  -5  -1  -5    0.31    0.46
   5   1   5   -0.49    0.64
  -5   1  -5   -0.22    0.52
   5  -2  -5    0.88    0.48
  -5  -2   5    0.69    0.43
   5   2  -5    1.11    0.54
   4  -2  -5    4.57    0.79
   4  -2  -5    4.67    1.08
   4   2  -5    3.95    0.77
   3  -2  -5    1.38    0.47
   3  -2  -5    1.57    0.59
   3  -2  -5    2.25    0.76
   3   2  -5    0.86    0.55
  -2  -2   5    1.47    0.66
   2  -2  -5    1.72    0.44
   2  -2  -5    1.49    0.49
   2   2  -5    3.30    0.68
  -2   2   5    1.82    0.64
   2   2  -5    2.25    0.62
   1  -2  -5  211.19   12.06
  -1  -2   5  205.83   12.08
  -1   2   5  215.74   12.09
   1   2  -5  210.32   12.09
   0  -2  -5   10.74    0.66
   0  -2   5    8.99    0.71
   0   2   5   10.22    0.70
   0   2  -5   10.53    0.71
   1  -2   5    1.74    0.33
  -1  -2  -5    1.83    0.29
   1   2   5    2.22    0.32
  -1   2  -5    1.73    0.25
   2   2   5    0.36    0.65
   2   2   5   -0.02    0.44
   3  -2   5    1.79    0.74
   3  -2   5    0.40    0.79
   3  -2   5    1.35    0.67
  -3  -2  -5    1.44    0.50
   3   2   5    0.83    0.61
   4  -2   5    9.43    1.08
  -4  -2  -5    7.95    0.84
   4  -2   5    8.22    1.04
   4  -2   5    6.56    1.04
   4   2   5    8.60    1.03
  -4   2  -5    7.74    0.86
   5  -2   5    0.88    1.10
  -5  -2  -5    0.14    0.43
   5   2   5   -0.36    0.66
  -5   2  -5    0.67    0.55
   5  -3  -5   -0.68    0.51
   5   3  -5   -0.01    0.50
  -4  -3   5    3.99    0.78
   4  -3  -5    4.31    0.93
   4  -3  -5    5.96    0.79
   4   3  -5    4.82    0.84
   3  -3  -5    0.82    0.56
  -3  -3   5    2.78    1.01
   3  -3  -5    1.67    0.49
   3  -3  -5    1.46    0.69
   3   3  -5    1.36    0.57
   2  -3  -5   49.60    2.85
   2  -3  -5   49.71    2.87
   2   3  -5   44.58    2.97
   2   3  -5   50.41    2.91
  -2   3   5   46.07    2.98
   1  -3  -5    3.34    0.37
  -1  -3   5    2.42    0.51
   1   3  -5    3.34    0.54
  -1   3   5    3.10    0.50
   0  -3   5   23.21    1.42
   0  -3  -5   21.03    1.37
   0   3   5   25.16    1.41
   0   3  -5   22.65    1.43
   1  -3   5    0.43    0.27
  -1  -3  -5    0.41    0.25
  -1   3  -5    0.19    0.21
   1   3   5    0.51    0.28
   2   3   5   31.74    1.95
  -3  -3  -5    8.18    0.78
  -3  -3  -5    5.84    1.18
   3  -3   5    6.36    1.00
   3  -3   5    5.78    0.88
   3  -3   5    6.32    0.96
   3   3   5    7.22    0.89
   4  -3   5    0.51    0.76
  -4  -3  -5    0.34    0.58
   4  -3   5    0.48    0.84
   4  -3   5    0.45    0.73
   4   3   5    1.16    0.70
  -4   3  -5   -0.39    0.66
   5  -3   5   -0.50    0.62
   5  -3   5   -0.30    0.70
  -5  -3  -5   -0.62    0.41
  -5   3  -5    0.01    0.61
   5   3   5    0.67    0.69
   5  -4  -5    0.31    0.50
   5   4  -5   -0.54    0.50
  -4  -4   5    5.93    1.08
   4  -4  -5    5.86    0.71
  -4  -4   5    5.17    0.86
   4  -4  -5    6.10    0.87
   4   4  -5    5.62    0.76
  -3  -4   5    2.14    0.61
   3  -4  -5    2.56    0.63
   3  -4  -5    2.80    0.55
  -3  -4   5    1.36    0.78
   3  -4  -5    2.72    0.71
   3   4  -5    2.65    0.75
   2  -4  -5    0.26    0.37
   2  -4  -5    1.09    0.49
   2   4  -5    0.20    0.75
   2   4  -5    1.12    0.64
  -2   4   5    0.15    0.87
   1  -4  -5   26.56    1.42
   1  -4  -5   22.45    1.44
  -1  -4   5   23.16    1.50
  -1   4   5   21.08    1.46
   1   4  -5   21.32    1.49
   0  -4   5   44.45    2.62
   0  -4  -5   42.28    2.58
   0   4   5   45.22    2.60
   0   4  -5   44.42    2.62
   1  -4   5    2.03    0.36
  -1  -4  -5    2.42    0.41
  -1  -4  -5    1.04    0.45
   1   4   5    2.98    0.45
  -1   4  -5    2.41    0.37
   2   4   5   85.66    5.00
   3  -4   5    2.74    0.68
  -3  -4  -5    1.59    0.51
   3  -4   5    1.53    0.73
   3  -4   5    1.14    0.64
  -3  -4  -5    3.09    0.83
   3   4   5    1.50    0.71
   4  -4   5    2.39    0.73
  -4  -4  -5    2.68    0.71
   4  -4   5    3.16    0.84
   4   4   5    3.06    0.84
  -4   4  -5    1.55    0.68
   5  -4   5    0.81    0.55
   5  -4   5    1.34    0.53
  -5  -4  -5    0.34    0.41
  -5   4  -5    0.95    0.77
   5   4   5    1.71    0.72
   5  -5  -5   -0.34    0.61
   5  -5  -5    0.14    0.53
   5   5  -5    0.74    0.53
   4  -5  -5    3.59    0.63
  -4  -5   5    5.57    0.96
   4  -5  -5    5.92    0.80
   4   5  -5    3.20    0.71
  -3  -5   5   17.74    1.43
   3  -5  -5   20.88    1.32
  -3  -5   5   15.85    1.43
   3  -5  -5   20.17    1.40
   3  -5  -5   20.12    1.37
   3   5  -5   21.07    1.44
   2  -5  -5   16.53    1.23
   2  -5  -5   17.11    1.10
   2   5  -5   17.31    1.27
   2   5  -5   14.07    1.51
  -2   5   5   15.09    1.58
   1  -5  -5  118.08    6.76
  -1  -5   5  109.15    6.80
   1  -5  -5  127.11    6.77
   1   5  -5  115.29    6.81
  -1   5   5  116.77    6.79
   0  -5   5   32.89    2.07
   0  -5  -5   35.10    2.05
   0  -5  -5   34.60    2.10
   0   5   5   36.92    2.08
   0   5  -5   31.75    2.08
  -1  -5  -5   -0.35    0.37
  -1  -5  -5    0.65    0.60
   1   5   5    0.57    0.42
  -1   5  -5    0.14    0.35
   2   5   5   15.56    1.31
  -3  -5  -5    4.39    0.88
   3  -5   5    3.21    0.80
   3  -5   5    5.24    0.80
   3  -5   5    4.79    0.83
  -3  -5  -5    3.58    0.66
   3   5   5    3.99    0.96
   4  -5   5    1.47    0.68
   4  -5   5    1.37    0.64
  -4  -5  -5    1.35    0.57
   4   5   5    1.31    0.80
   5  -5   5    0.37    0.51
   5  -5   5    0.63    0.47
  -5  -5  -5    0.43    0.38
   5   5   5    0.22    0.68
   5  -6  -5    0.22    0.45
   5  -6  -5   -0.20    0.58
   5   6  -5   -1.15    0.52
   4  -6  -5    6.44    0.81
  -4  -6   5    8.79    0.92
   4  -6  -5    7.59    0.82
   4   6  -5    5.42    0.79
   3  -6  -5    0.43    0.50
  -3  -6   5   -0.35    0.60
   3  -6  -5   -0.48    0.55
   3  -6  -5    0.25    0.53
   3   6  -5   -1.02    0.69
   2  -6  -5   15.50    1.24
   2  -6  -5   16.37    1.13
   2  -6  -5   17.33    1.34
   2   6  -5   15.75    1.69
   2   6  -5   16.85    1.30
   1  -6  -5   53.14    2.98
   1  -6  -5   50.44    2.96
   1   6  -5   48.04    3.04
  -1   6   5   48.26    3.01
   0  -6   5   12.13    0.89
   0  -6  -5   10.38    0.80
   0  -6  -5   11.03    0.95
   0   6  -5   10.56    0.89
   0   6   5   11.20    0.89
  -1  -6  -5    2.53    0.81
  -1  -6  -5    2.68    0.59
  -1   6  -5    1.60    0.56
   1   6   5    2.02    0.68
  -2  -6  -5    5.55    0.83
   2  -6   5    5.29    0.96
   2  -6   5    4.30    0.81
  -2  -6  -5    4.77    0.79
   2   6   5    6.10    1.09
   3  -6   5    0.14    0.63
  -3  -6  -5   -0.15    0.62
   3  -6   5    0.08    0.61
  -3  -6  -5    0.88    0.51
   3  -6   5    0.66    0.56
   3   6   5    0.59    0.85
   4  -6   5    1.56    0.62
   4  -6   5    2.51    0.65
  -4  -6  -5    1.43    0.54
   4   6   5    2.00    0.82
   5  -6   5   -0.46    0.45
  -5  -6  -5   -0.97    0.36
   5  -6   5   -0.65    0.42
   5   6   5    0.60    0.71
   5  -7  -5    2.19    0.71
   5  -7  -5    2.00    0.50
   5   7  -5    1.42    0.62
   4  -7  -5    6.42    0.77
   4  -7  -5    5.51    0.78
  -4  -7   5    6.69    0.86
   4   7  -5    5.98    0.78
  -3  -7   5    0.15    0.54
   3  -7  -5   -0.06    0.53
   3  -7  -5    0.18    0.50
  -3  -7   5    0.66    0.87
   3  -7  -5   -0.05    0.55
   3   7  -5    0.37    0.74
   2  -7  -5   27.89    1.77
   2  -7  -5   24.44    1.82
   2  -7  -5   30.51    2.08
  -2  -7   5   25.33    1.78
  -2  -7   5   25.87    1.86
   2  -7  -5   27.77    1.74
   2   7  -5   29.44    1.86
   1  -7  -5    0.42    0.42
   1  -7  -5    0.14    0.52
   1   7  -5    1.47    0.70
   0  -7  -5   96.56    5.77
   0  -7  -5   97.18    5.76
   0   7  -5  103.53    5.80
  -1  -7  -5   94.71    5.61
  -1   7  -5   92.78    5.60
  -1   7  -5   99.14    5.58
   2  -7   5    9.82    1.04
   2  -7   5    8.84    1.01
   2  -7   5    9.93    0.99
  -2  -7  -5   10.05    0.98
  -2  -7  -5    9.00    1.03
   2   7   5   10.24    1.59
   3  -7   5   10.22    1.04
  -3  -7  -5   11.42    0.98
   3  -7   5   11.73    1.01
  -3  -7  -5   11.26    1.08
   3  -7   5   11.56    1.04
   3   7   5   11.80    1.33
  -4  -7  -5   -1.05    0.48
   4  -7   5    0.01    0.58
  -4  -7  -5    0.76    0.89
   4  -7   5    0.29    0.57
   4   7   5   -0.52    0.80
   5  -7   5    0.26    0.38
   5  -7   5    0.58    0.43
  -5  -7  -5    0.03    0.34
   5   7   5   -0.50    0.73
   5  -8  -5    0.78    0.69
   5   8  -5    0.41    0.74
  -4  -8   5   -0.33    0.58
   4  -8  -5    0.56    0.53
   4  -8  -5    0.33    0.57
   4   8  -5    0.26    0.57
   3  -8  -5   28.00    1.82
   3  -8  -5   26.85    1.78
  -3  -8   5   26.26    1.76
  -3  -8   5   25.48    1.87
   3  -8  -5   28.68    1.80
   3   8  -5   28.49    1.91
   2  -8  -5   23.69    1.84
   2  -8  -5   28.59    1.80
  -2  -8   5   28.69    1.86
   2  -8  -5   30.26    1.81
  -2  -8   5   26.03    1.79
   2   8  -5   30.89    1.93
   1  -8  -5   16.43    1.31
   1  -8  -5   14.21    1.09
   1   8  -5   15.49    1.50
   0  -8  -5   -0.77    0.54
   0  -8  -5   -0.10    0.49
   0   8  -5    0.81    0.68
  -1  -8  -5    1.02    0.62
  -1   8  -5    0.21    0.94
  -1   8  -5    0.85    0.78
   2  -8   5   26.71    1.95
  -2  -8  -5   31.27    1.92
   2  -8   5   31.92    1.99
   2  -8   5   31.22    1.93
  -2  -8  -5   28.43    1.94
   3  -8   5    6.81    0.85
  -3  -8  -5    5.66    0.82
   3  -8   5    6.29    0.90
   3  -8   5    6.83    0.80
  -3  -8  -5    7.16    0.86
   3   8   5    7.67    1.20
   4  -8   5    8.72    0.88
  -4  -8  -5    7.54    1.15
  -4  -8  -5    9.40    0.84
   4  -8   5    9.26    0.87
   4   8   5    7.50    1.06
   5  -8   5    0.82    0.36
   5  -8   5    0.34    0.39
  -5  -8  -5    1.38    0.37
   5   8   5    1.77    0.81
  -5  -9   5    2.28    0.59
   5  -9  -5    2.85    0.82
   5  -9  -5    2.23    0.45
   4  -9  -5    2.70    0.68
  -4  -9   5    2.47    0.65
   4  -9  -5    2.74    0.69
   4   9  -5    3.14    0.70
  -3  -9   5    1.48    0.58
   3  -9  -5    0.89    0.58
  -3  -9   5    2.45    0.71
   3  -9  -5    0.79    0.64
   3  -9  -5    1.54    0.57
   3   9  -5    1.75    0.84
   2  -9  -5    4.76    0.78
   2  -9  -5    5.65    0.78
  -2  -9   5    5.64    0.82
   2  -9  -5    3.04    0.84
  -2  -9   5    4.85    0.70
   2   9  -5    6.40    1.04
   1  -9  -5   -0.59    0.65
  -1  -9   5    0.43    0.57
  -1  -9   5    0.23    0.50
   1  -9  -5   -0.01    0.47
   0  -9  -5    4.76    0.76
   0  -9   5    3.18    0.61
   0   9  -5    2.72    0.97
  -1  -9  -5   18.98    1.41
   1  -9   5   19.14    1.38
   1  -9   5   22.17    1.51
  -1  -9  -5   21.58    1.50
  -2  -9  -5   16.28    1.20
   2  -9   5   18.16    1.32
   2  -9   5   15.19    1.21
  -2  -9  -5   15.91    1.26
   3  -9   5    2.93    0.83
   3  -9   5    2.87    0.77
   3  -9   5    3.34    0.67
  -3  -9  -5    3.49    0.78
  -3  -9  -5    3.81    0.66
   3   9   5    3.45    1.03
   4  -9   5    0.59    0.53
   4  -9   5    0.22    0.53
  -4  -9  -5   -0.10    0.59
  -4  -9  -5   -0.19    0.47
   4   9   5   -0.28    0.76
   5  -9   5   -0.03    0.35
   5  -9   5   -0.42    0.32
  -5  -9  -5   -0.20    0.29
   5 -10  -5    1.54    0.39
  -5 -10   5    1.13    0.54
  -4 -10   5    0.80    0.43
   4 -10  -5    0.15    0.41
   4 -10  -5    0.27    0.58
   4  10  -5    0.13    0.61
  -3 -10   5    0.46    0.63
  -3 -10   5    0.16    0.52
   3 -10  -5    0.01    0.58
   3 -10  -5   -0.37    0.58
   3 -10  -5   -0.03    0.49
   3  10  -5    1.04    0.84
   2 -10  -5   12.29    1.05
  -2 -10   5   12.85    1.04
   2 -10  -5   11.38    1.02
   2 -10  -5    9.38    1.13
  -2 -10   5   11.89    0.98
   2  10  -5   13.06    1.28
   1 -10  -5    7.28    1.03
   1 -10  -5   10.24    0.90
  -1 -10   5   10.12    0.86
  -1 -10   5    9.37    0.86
   0 -10   5   34.83    1.96
   0 -10  -5   31.36    2.04
   0 -10  -5   26.96    2.10
   0 -10   5   31.34    2.01
   1 -10   5    3.56    0.87
  -1 -10  -5    4.94    0.90
   1 -10   5    5.41    0.92
   1 -10   5    2.56    0.74
   1 -10   5    4.67    0.73
  -1 -10  -5    4.73    0.72
   2 -10   5    3.20    0.70
  -2 -10  -5    2.42    0.68
   2 -10   5    3.02    0.72
  -2 -10  -5    2.40    0.69
   2 -10   5    2.95    0.74
  -3 -10  -5   -0.01    0.54
   3 -10   5    1.66    0.56
   3 -10   5    1.76    0.63
  -3 -10  -5    1.69    0.57
   3 -10   5    1.76    0.66
   3  10   5    1.14    0.88
   4 -10   5   -0.15    0.40
  -4 -10  -5    0.87    0.54
   4 -10   5    0.08    0.42
  -4 -10  -5    0.06    0.37
   4  10   5    0.49    0.77
   5 -10   5    0.04    0.31
  -5 -10  -5   -0.01    0.28
   5 -10   5   -0.27    0.32
  -4 -11   5    0.57    0.35
   4 -11  -5   -0.03    0.62
   4 -11  -5    1.00    0.43
   4  11  -5    0.44    0.75
   3 -11  -5    2.27    0.71
  -3 -11   5    1.96    0.54
   3 -11  -5    1.98    0.68
   3 -11  -5    2.86    0.69
  -3 -11   5    2.49    0.65
   3  11  -5    0.61    0.79
  -2 -11   5    7.21    0.84
  -2 -11   5    7.02    0.80
   2 -11  -5    8.86    0.82
   2 -11  -5    4.59    1.00
   2 -11  -5    7.74    0.90
   2  11  -5    8.49    1.24
  -1 -11   5   17.18    1.23
  -1 -11   5   17.08    1.26
   1 -11  -5   17.42    1.36
   1 -11  -5   16.78    1.33
   0 -11  -5    2.17    0.80
   0 -11   5    2.44    0.60
   0 -11  -5    2.73    0.70
   0 -11   5    2.38    0.63
   0 -11   5    1.73    0.77
  -1 -11  -5    7.45    0.97
   1 -11   5    6.41    0.88
   1 -11   5    6.02    1.05
  -1 -11  -5    8.23    0.88
   1 -11   5    8.90    0.99
   1 -11   5    7.48    0.83
  -2 -11  -5    1.81    0.54
  -2 -11  -5    0.87    0.65
   2 -11   5    1.20    0.68
   2 -11   5    0.42    0.55
   2 -11   5    0.88    0.60
   3 -11   5    7.89    0.82
  -3 -11  -5    7.38    0.82
  -3 -11  -5    7.30    0.85
   3 -11   5    6.91    0.83
   3  11   5    6.28    1.12
  -4 -11  -5    3.79    0.61
   4 -11   5    2.03    0.53
   4 -11   5    2.46    0.50
   4  11   5    2.99    0.93
  -4 -12   5    1.12    0.35
   4 -12  -5    1.04    0.68
   4 -12  -5    0.69    0.40
  -3 -12   5    1.18    0.59
  -3 -12   5    2.03    0.51
   3 -12  -5    1.38    0.64
   3 -12  -5    1.20    0.56
   3  12  -5    0.89    0.96
  -2 -12   5    4.92    0.76
  -2 -12   5    4.93    0.73
   2 -12  -5    5.11    0.92
   2 -12  -5    5.73    0.83
   2  12  -5    5.90    1.36
   1 -12  -5    0.26    0.61
  -1 -12   5    0.27    0.48
   1 -12  -5   -0.69    0.68
  -1 -12   5   -0.21    0.47
   0 -12  -5    4.08    0.99
   0 -12   5    6.53    0.81
   0 -12   5    7.54    0.77
  -1 -12  -5   11.50    1.17
   1 -12   5    9.77    1.04
  -1 -12  -5   10.07    0.99
   1 -12   5   11.71    1.07
   1 -12   5   11.35    0.92
   1 -12   5    6.21    1.44
   2 -12   5    4.09    0.78
  -2 -12  -5    3.60    0.83
   2 -12   5    5.03    0.80
   2 -12   5    4.78    0.81
  -2 -12  -5    4.79    0.73
  -3 -12  -5    3.45    0.70
  -3 -12  -5    3.19    0.66
   3 -12   5    3.67    0.73
   3 -12   5    2.67    0.72
   3  12   5    2.72    0.95
  -4 -12  -5   -0.44    0.42
  -4 -12  -5    0.44    0.34
   4 -12   5   -0.29    0.34
   4 -12   5   -0.10    0.33
   4  12   5   -0.73    0.76
   4 -13  -5    1.69    0.47
   4 -13  -5    1.17    0.73
  -4 -13   5    0.98    0.29
  -3 -13   5    3.19    0.66
   3 -13  -5    2.71    0.73
  -3 -13   5    3.99    0.59
   3 -13  -5    3.54    0.68
   2 -13  -5    1.53    0.64
  -2 -13   5    1.47    0.52
   2 -13  -5    1.61    0.61
  -2 -13   5    3.00    0.66
   1 -13  -5    2.01    0.71
   1 -13  -5    1.78    0.73
  -1 -13   5    2.05    0.50
  -1 -13   5    2.22    0.63
   0 -13   5    0.16    0.50
   0 -13   5    0.37    0.47
   0 -13  -5    0.42    0.80
   0 -13  -5    1.05    0.77
   1 -13   5    8.63    0.82
   1 -13   5    9.72    0.99
  -1 -13  -5    7.77    0.92
   1 -13   5    8.81    0.93
  -1 -13  -5    7.73    1.16
  -2 -13  -5    7.65    0.90
   2 -13   5    7.35    0.87
   2 -13   5    5.87    0.86
   2 -13   5    7.17    0.88
  -2 -13  -5    7.62    0.81
   3 -13   5    1.90    0.52
   3 -13   5    0.69    0.55
  -3 -13  -5    1.59    0.50
  -3 -13  -5    0.84    0.46
   3  13   5    1.24    0.89
  -4 -13  -5   -0.25    0.40
   4 -13   5    0.46    0.30
  -4 -13  -5    0.72    0.30
   4 -13   5    0.43    0.33
   4  13   5   -0.77    0.78
   4 -14  -5    0.01    0.34
   4 -14  -5    0.20    1.23
  -4 -14   5    0.13    0.24
  -3 -14   5    0.39    0.36
   3 -14  -5    0.61    0.43
  -3 -14   5    0.07    0.39
   3 -14  -5    0.25    0.67
   2 -14  -5    0.24    0.60
  -2 -14   5    1.21    0.52
   2 -14  -5    0.11    0.59
  -2 -14   5    1.25    0.50
  -1 -14   5    0.23    0.46
   1 -14  -5   -0.13    0.74
  -1 -14   5    1.43    0.52
   1 -14  -5    0.41    0.61
   0 -14  -5   13.83    1.23
   0 -14   5   12.39    1.02
   0 -14  -5   13.04    1.32
   0 -14   5   14.18    1.10
  -1 -14  -5    2.00    0.64
   1 -14   5    3.22    0.66
   1 -14   5    2.85    0.70
  -1 -14  -5    3.19    0.86
   1 -14   5    2.25    0.74
   2 -14   5   16.54    1.29
   2 -14   5   15.04    1.32
  -2 -14  -5   19.27    1.28
  -2 -14  -5   17.55    1.33
   3 -14   5   -0.01    0.43
  -3 -14  -5    0.04    0.38
  -3 -14  -5    0.10    0.40
   3 -14   5    0.02    0.43
   3  14   5    0.41    0.87
  -4 -14  -5   -0.11    0.28
   4 -14   5    0.16    0.33
  -4 -14  -5   -0.34    0.39
   4 -14   5   -0.03    0.31
  -3 -15   5    9.34    0.70
   3 -15  -5    8.69    0.77
   3 -15  -5    9.44    1.02
  -3 -15   5    8.87    0.70
  -2 -15   5    1.21    0.45
   2 -15  -5    1.55    0.59
  -2 -15   5    1.19    0.53
   2 -15  -5    1.01    0.66
  -1 -15   5    0.66    0.46
  -1 -15   5    0.74    0.54
   0 -15   5    2.39    0.67
   0 -15  -5    2.32    0.77
   0 -15  -5    2.00    0.80
   0 -15   5    2.39    0.63
  -1 -15  -5   10.47    0.98
   1 -15   5    8.48    0.86
  -1 -15  -5    7.67    1.09
   1 -15   5    9.46    0.95
   2 -15   5    0.58    0.49
   2 -15   5    0.69    0.56
  -2 -15  -5   -0.25    0.45
  -2 -15  -5   -0.34    0.49
   3 -15   5   -0.04    0.35
   3 -15   5   -0.07    0.35
  -3 -15  -5   -0.08    0.36
  -3 -15  -5   -0.05    0.33
   3  15   5    0.47    0.83
   3 -16  -5    0.54    0.39
  -3 -16   5    0.66    0.30
  -3 -16   5    0.44    0.27
   3 -16  -5    0.98    0.82
   2 -16  -5   -0.08    0.72
  -2 -16   5    0.62    0.39
   2 -16  -5    0.82    0.47
  -2 -16   5    0.43    0.34
  -1 -16   5    0.42    0.49
   1 -16  -5    0.54    0.68
  -1 -16   5    0.25    0.46
   0 -16   5    0.16    0.48
   0 -16   5    0.82    0.52
   0 -16  -5    0.12    0.74
   0 -16  -5    0.96    0.67
   1 -16   5    1.37    0.44
   1 -16   5    0.04    0.55
  -1 -16  -5    0.76    0.61
   2 -16   5   -0.38    0.45
  -2 -16  -5    0.14    0.36
   3 -16   5    0.55    0.36
   3 -16   5    0.10    0.40
  -3 -16  -5    0.58    0.32
  -3 -16  -5    0.18    0.35
   3  16   5    1.36    0.78
  -3 -17   5    1.23    0.33
  -3 -17   5    1.30    0.31
  -2 -17   5    1.61    0.40
   2 -17  -5    2.31    0.79
  -2 -17   5    1.57    0.35
   1 -17  -5    4.28    0.96
  -1 -17   5    5.42    0.57
  -1 -17   5    5.08    0.59
   0 -17  -5    0.93    0.65
   0 -17   5    2.00    0.49
   0 -17   5    1.21    0.48
   0 -17  -5    2.18    0.63
   1 -17   5    0.75    0.45
  -1 -17  -5    0.52    0.47
  -2 -17  -5    3.71    0.54
   2  17   5    4.15    0.94
  -3 -17  -5    1.58    0.34
  -2 -18   5    0.39    0.28
   2 -18  -5    0.57    0.93
  -2 -18   5    0.13    0.26
   1 -18  -5   -1.02    0.63
  -1 -18   5    0.26    0.33
  -1 -18   5   -0.20    0.31
   0 -18   5    0.64    0.33
   0 -18  -5   -0.01    0.69
   0 -18   5    0.86    0.39
  -1 -18  -5   -0.30    0.40
  -2 -18  -5    0.09    0.32
   2  18   5    0.05    0.77
  -2 -19   5    1.96    0.32
  -2 -19   5    1.48    0.32
  -1 -19   5    2.02    0.39
   1 -19  -5    0.49    0.89
  -1 -19   5    0.84    0.32
   0 -19   5   -0.01    0.37
   0 -19   5   -0.80    0.57
  -1 -19  -5    0.17    0.37
   5   0  -6    1.14    0.54
  -5   0   6    2.17    0.49
   4   0  -6   16.40    1.26
   3   0  -6   44.19    2.67
   2   0  -6   23.96    1.47
   2   0  -6   21.78    1.41
  -2   0   6   19.20    1.59
  -1   0   6    1.88    0.46
   1   0  -6    2.11    0.38
   0   0   6   -0.03    0.34
   0   0  -6    0.09    0.22
  -1   0  -6   13.03    0.77
   1   0   6   10.22    0.86
   2   0   6  138.02    7.98
   3   0   6    5.40    1.16
   3   0   6    5.12    0.95
   4   0   6   18.12    1.47
   4   0   6   21.75    1.68
  -4   0  -6   21.80    1.44
  -5   0  -6    0.41    0.47
  -5  -1   6    1.40    0.44
   5  -1  -6    1.00    0.52
   5   1  -6    0.97    0.54
  -5   1   6    0.81    0.40
   4  -1  -6    4.90    0.75
   4   1  -6    6.76    0.81
   3  -1  -6    4.19    1.16
   3  -1  -6    4.03    0.60
   2  -1  -6   11.26    0.94
   2  -1  -6   11.75    0.89
  -2   1   6    9.15    1.14
   2   1  -6   11.83    0.92
   2   1  -6   13.61    1.05
   1  -1  -6    1.62    0.36
  -1  -1   6    1.51    0.41
  -1   1   6    0.76    0.44
   1   1  -6    1.15    0.37
   0  -1   6    1.59    0.37
   0  -1  -6    1.36    0.28
   0   1   6    1.00    0.35
   0   1  -6    1.20    0.33
  -1  -1  -6    8.48    0.62
   1  -1   6   10.30    0.73
  -1   1  -6    8.72    0.61
   1   1   6    8.59    0.72
   2   1   6    2.53    0.81
   3  -1   6    5.28    0.90
   3  -1   6    4.13    1.00
   3  -1   6    5.83    1.06
   3   1   6    5.39    0.92
   3   1   6    5.27    1.22
   4  -1   6    1.09    0.90
   4  -1   6    0.95    0.71
   4  -1   6    0.52    0.90
  -4  -1  -6    0.46    0.58
   4   1   6   -0.55    0.66
  -4   1  -6    0.90    0.57
  -5  -1  -6   -0.68    0.44
  -5   1  -6   -0.35    0.50
  -5  -2   6    5.42    0.61
   5  -2  -6    5.06    0.68
  -5   2   6    5.64    0.58
   5   2  -6    4.81    0.68
  -4  -2   6   -0.18    0.48
   4  -2  -6   -0.32    0.47
   4  -2  -6   -0.23    0.87
   4   2  -6   -0.05    0.54
   3  -2  -6    0.02    0.49
   3  -2  -6    0.15    0.77
   3   2  -6    0.23    0.54
   2  -2  -6   16.69    1.11
   2  -2  -6   17.29    1.18
   2   2  -6   15.32    1.32
  -2   2   6   14.64    1.42
   2   2  -6   16.23    1.19
  -1  -2   6   -0.04    0.41
   1  -2  -6    0.71    0.29
   1   2  -6   -0.40    0.36
  -1   2   6    0.55    0.47
   0  -2   6   23.46    1.41
   0  -2  -6   21.35    1.34
   0   2  -6   21.90    1.38
   0   2   6   22.02    1.39
  -1  -2  -6   33.36    1.85
   1  -2   6   32.45    1.87
   1   2   6   29.72    1.87
  -1   2  -6   27.87    1.82
   2   2   6    3.79    0.85
  -3  -2  -6   15.14    1.40
  -3  -2  -6   17.25    1.13
   3  -2   6   14.72    1.36
   3  -2   6   16.23    1.39
   3   2   6   13.69    2.01
   3   2   6   16.75    1.31
  -4  -2  -6    2.83    0.71
   4  -2   6    1.98    0.83
   4  -2   6    1.83    0.86
  -4   2  -6    3.92    0.74
   4   2   6    2.75    0.83
  -5  -2  -6    0.49    0.44
   5   2   6    0.41    1.09
  -5   2  -6    0.25    0.50
  -5  -3   6    1.37    0.43
   5  -3  -6    1.24    0.55
   5   3  -6    1.71    0.56
   4  -3  -6    0.82    0.51
  -4  -3   6    1.08    0.60
   4  -3  -6    1.18    0.77
   4   3  -6    0.64    0.58
   3  -3  -6    5.37    0.94
   3  -3  -6    4.51    0.64
  -3  -3   6    2.83    0.76
   3   3  -6    4.42    0.75
   2  -3  -6  272.56   15.46
   2  -3  -6  269.17   15.50
   2   3  -6  269.11   15.47
   1  -3  -6   26.03    1.56
  -1  -3   6   25.93    1.65
   1  -3  -6   25.01    1.58
   1   3  -6   25.76    1.63
  -1   3   6   24.04    1.63
   0  -3  -6   14.32    0.92
   0  -3   6   13.93    1.00
   0   3  -6   14.06    0.98
   0   3   6   14.51    0.99
  -1  -3  -6    3.30    0.42
   1  -3   6    3.29    0.50
  -1   3  -6    3.26    0.38
   1   3   6    3.19    0.50
   2   3   6    3.69    0.84
  -3  -3  -6   18.42    1.24
   3  -3   6   18.00    1.43
  -3  -3  -6   14.44    1.43
   3  -3   6   18.01    1.41
   3   3   6   19.88    1.42
   4  -3   6    0.13    0.74
   4  -3   6   -1.08    0.78
  -4  -3  -6   -0.23    0.52
   4   3   6    0.12    0.74
  -4   3  -6   -0.35    0.59
  -5  -3  -6    0.16    0.41
   5  -3   6   -0.12    0.70
   5  -3   6    1.27    0.74
  -5   3  -6   -0.34    0.51
   5   3   6    0.95    0.79
   5  -4  -6   -0.31    0.53
   5   4  -6    1.41    0.56
   4  -4  -6    4.63    0.87
  -4  -4   6    3.02    0.78
   4  -4  -6    4.34    0.64
   4   4  -6    4.27    0.74
   3  -4  -6    2.35    0.64
  -3  -4   6    2.91    0.80
  -3  -4   6    1.72    0.84
   3  -4  -6    2.68    0.60
   3   4  -6    2.73    0.77
   2  -4  -6   17.94    1.34
   2  -4  -6   18.89    1.18
   2   4  -6   16.05    1.51
   2   4  -6   17.93    1.34
   1  -4  -6    1.37    0.40
  -1  -4   6    1.05    0.55
   1  -4  -6    1.24    0.49
  -1   4   6    1.04    0.54
   1   4  -6    1.33    0.51
   0  -4  -6   31.23    1.85
   0  -4   6   30.41    1.91
   0   4  -6   29.28    1.90
   0   4   6   31.59    1.89
  -1  -4  -6   85.92    5.05
   1  -4   6   94.82    5.03
  -1  -4  -6   87.24    5.08
  -1   4  -6   83.90    5.02
   1   4   6   82.36    5.05
  -3  -4  -6    2.05    0.57
   3  -4   6    2.34    0.69
   3  -4   6    1.32    0.68
  -3  -4  -6    2.30    0.76
   3   4   6    1.56    0.75
  -4  -4  -6   -0.19    0.52
   4  -4   6    0.66    0.68
   4  -4   6    1.17    0.76
   4   4   6    0.44    0.71
   5  -4   6    0.72    0.55
   5  -4   6    1.89    0.59
  -5   4  -6    1.40    0.60
   5   4   6    3.45    0.88
   5  -5  -6    0.68    0.58
   5  -5  -6   -0.08    0.65
   5   5  -6    0.35    0.57
  -4  -5   6    5.80    1.03
  -4  -5   6    3.35    0.81
   4  -5  -6    4.28    0.84
   4  -5  -6    2.52    0.61
   4   5  -6    3.25    0.74
  -3  -5   6   -0.01    0.69
  -3  -5   6    0.10    0.63
   3  -5  -6    0.44    0.55
   3  -5  -6    0.29    0.48
   3  -5  -6    0.70    0.62
   3   5  -6   -1.22    0.57
   2  -5  -6    0.19    0.42
   2  -5  -6    1.02    0.73
   2  -5  -6    0.60    0.57
   2   5  -6    0.23    0.75
   2   5  -6   -1.05    0.97
   1  -5  -6    6.03    0.63
   1  -5  -6    5.88    0.66
  -1   5   6    3.96    0.82
   0  -5  -6   14.61    1.00
   0  -5   6   13.49    1.09
   0  -5  -6   15.58    1.13
   0   5   6   15.32    1.09
   0   5  -6   15.37    1.11
  -1  -5  -6    0.29    0.44
  -1  -5  -6   -0.27    0.60
  -1   5  -6    0.77    0.41
   1   5   6   -0.02    0.53
   2  -5   6    0.19    0.68
  -2  -5  -6    0.40    0.53
   2  -5   6    0.27    0.57
   2  -5   6    0.21    0.67
  -2  -5  -6    1.03    0.62
   3  -5   6   -0.72    0.61
  -3  -5  -6    0.47    0.64
   3  -5   6    0.23    0.58
   3  -5   6    0.48    0.62
  -3  -5  -6    0.21    0.50
   3   5   6    0.77    0.80
  -4  -5  -6    0.67    0.56
   4  -5   6    0.07    0.68
   4  -5   6    0.67    0.68
   4   5   6    1.65    0.82
   5  -5   6    0.27    0.47
  -5  -5  -6    0.15    0.37
   5  -5   6    0.23    0.50
   5   5   6    0.34    0.83
   5  -6  -6    3.55    0.61
   5  -6  -6    4.13    0.73
   5   6  -6    3.35    0.75
  -4  -6   6    0.79    0.72
   4  -6  -6    0.80    0.61
   4  -6  -6    0.49    0.57
   4   6  -6   -0.07    0.59
  -3  -6   6    0.52    0.69
  -3  -6   6    1.31    0.65
   3  -6  -6   -0.07    0.54
   3  -6  -6   -0.53    0.55
   3  -6  -6    0.76    0.61
   3   6  -6   -0.67    0.71
   2  -6  -6    1.77    0.88
   2  -6  -6    2.51    0.56
   2  -6  -6    1.42    0.59
   2  -6  -6    1.29    0.68
  -2  -6   6   -0.63    0.89
  -2  -6   6    2.07    0.63
   2   6  -6    2.30    0.79
   1  -6  -6   96.71    5.90
   1  -6  -6  103.44    5.89
   1   6  -6  104.22    6.00
   0  -6   6   14.52    1.21
   0  -6  -6   20.18    1.20
   0   6  -6   14.32    1.23
  -1  -6  -6   16.28    1.30
  -1  -6  -6   19.03    1.35
  -2  -6  -6    9.43    0.88
   2  -6   6    8.16    0.91
   2  -6   6    9.27    0.97
  -2  -6  -6    8.03    0.96
   2  -6   6    7.36    0.99
  -3  -6  -6    1.48    0.64
  -3  -6  -6    0.59    0.59
   3  -6   6    1.62    0.64
   3  -6   6    1.56    0.62
   3  -6   6    0.77    0.61
   3   6   6    4.02    1.07
   4  -6   6    0.85    0.60
  -4  -6  -6   -0.60    0.48
  -4  -6  -6    0.54    1.13
   4  -6   6   -0.68    0.65
   4   6   6   -0.17    0.76
  -5  -6  -6    1.57    0.43
   5  -6   6    0.96    0.47
   5  -6   6    1.31    0.44
   5   6   6    2.64    0.90
   5  -7  -6    4.54    0.78
   5  -7  -6    2.63    0.51
   5   7  -6    2.14    0.79
  -4  -7   6   -0.55    0.65
   4  -7  -6    0.25    0.58
   4  -7  -6    0.21    0.59
   4   7  -6    0.08    0.60
   3  -7  -6    5.03    0.83
  -3  -7   6    4.57    0.82
   3  -7  -6    4.54    0.73
   3  -7  -6    4.39    0.73
  -3  -7   6    3.71    0.94
   3   7  -6    3.76    0.94
   2  -7  -6   13.60    1.22
   2  -7  -6   14.87    1.07
  -2  -7   6   13.17    1.21
  -2  -7   6   13.69    1.32
   2  -7  -6   14.36    1.04
  -2  -7   6   13.51    1.14
   2   7  -6   14.68    1.31
   1  -7  -6    4.00    0.80
   1  -7  -6    3.24    0.63
   1   7  -6    4.41    1.05
   0  -7  -6    7.26    0.85
   0  -7  -6    7.76    0.82
   0   7  -6    8.44    1.00
  -1  -7  -6    1.03    0.64
  -1   7  -6    0.85    0.73
  -2  -7  -6    9.75    0.90
   2  -7   6    9.02    0.95
   2  -7   6   11.01    0.97
   2  -7   6    8.61    1.07
  -2  -7  -6    9.08    0.99
  -3  -7  -6    6.01    0.79
   3  -7   6    4.77    0.80
   3  -7   6    5.31    0.85
  -3  -7  -6    4.81    0.77
   3  -7   6    5.55    0.79
   3   7   6    5.85    1.13
   4  -7   6    1.26    0.64
  -4  -7  -6    0.72    0.51
  -4  -7  -6   -0.26    0.80
   4  -7   6   -0.21    0.62
   4   7   6    0.10    0.79
  -5  -7  -6   -0.25    0.32
   5  -7   6    0.20    0.42
   5  -7   6   -0.43    0.38
   5   7   6    1.57    0.96
   5  -8  -6    1.10    0.70
   5  -8  -6   -0.34    0.39
   4  -8  -6    0.53    0.56
  -4  -8   6    0.28    0.57
   4  -8  -6    1.25    0.56
   4   8  -6    0.56    0.61
   3  -8  -6    0.34    0.59
  -3  -8   6    0.42    0.79
   3  -8  -6    0.57    0.54
  -3  -8   6    0.29    0.54
   3  -8  -6    0.57    0.59
   3   8  -6   -0.23    0.84
   2  -8  -6    0.76    0.53
  -2  -8   6    2.52    0.63
   2  -8  -6   -0.19    0.67
   2  -8  -6    1.12    0.52
  -2  -8   6    2.72    0.78
   2   8  -6    1.03    0.89
  -1  -8   6   15.07    1.14
   1  -8  -6   14.33    1.09
  -1  -8   6   16.86    1.18
   1  -8  -6   13.84    1.23
   0  -8  -6    3.08    0.91
   0  -8  -6    3.40    0.74
   0   8  -6    4.26    1.06
   1  -8   6    2.16    0.57
  -1  -8  -6    1.32    0.61
   1  -8   6    1.63    0.69
  -1  -8  -6    3.08    0.69
  -1   8  -6    2.01    0.99
   2  -8   6   14.06    1.15
  -2  -8  -6   14.76    1.06
   2  -8   6   12.38    1.11
   2  -8   6   13.64    1.15
  -2  -8  -6   11.46    1.17
   3  -8   6    7.42    0.87
   3  -8   6    8.07    0.89
   3  -8   6    7.84    0.89
  -3  -8  -6    8.16    0.90
  -3  -8  -6    7.41    0.84
   3   8   6    7.60    1.29
   4  -8   6    5.23    0.73
   4  -8   6    4.73    0.80
  -4  -8  -6    3.85    0.85
  -4  -8  -6    4.09    0.63
   4   8   6    4.26    0.97
   5  -8   6    0.47    0.38
   5  -8   6    0.09    0.34
  -5  -8  -6   -0.07    0.28
   5  -9  -6    1.16    0.73
   5  -9  -6    2.13    0.45
   4  -9  -6    2.65    0.75
   4  -9  -6    1.98    0.54
  -4  -9   6    1.80    0.46
   4   9  -6    0.11    0.69
   3  -9  -6   17.38    1.29
  -3  -9   6   15.25    1.18
  -3  -9   6   15.50    1.33
   3  -9  -6   17.33    1.24
   3   9  -6   15.32    1.43
   2  -9  -6    5.04    0.97
  -2  -9   6    5.78    0.81
  -2  -9   6    4.69    0.71
   2  -9  -6    4.74    0.79
   2  -9  -6    5.97    0.82
   2   9  -6    4.88    1.20
  -1  -9   6    4.25    0.99
  -1  -9   6    4.26    0.77
  -1  -9   6    4.46    0.70
   1  -9  -6    6.10    0.72
   1  -9  -6    4.40    0.91
   0  -9   6   12.10    1.08
   0  -9   6   12.85    0.95
   0  -9  -6   13.52    1.09
   0  -9   6   12.39    1.16
   0   9  -6    9.23    1.52
   1  -9   6   13.08    1.19
  -1  -9  -6   15.65    1.16
   1  -9   6   14.34    1.09
   1  -9   6   13.68    1.29
  -1  -9  -6   14.67    1.23
   1  -9   6   14.28    1.20
   2  -9   6    0.79    0.58
  -2  -9  -6    1.05    0.53
   2  -9   6    0.71    0.67
   2  -9   6    1.08    0.59
  -2  -9  -6    0.67    0.62
   3  -9   6    2.28    0.58
   3  -9   6    1.74    0.66
  -3  -9  -6    1.48    0.54
  -3  -9  -6    2.67    0.70
   3  -9   6    2.15    0.66
   3   9   6    1.84    0.87
  -4  -9  -6    1.56    0.60
  -4  -9  -6    1.29    0.42
   4  -9   6    1.98    0.52
   4  -9   6    1.30    0.47
   4   9   6    1.49    0.79
   5  -9   6    0.00    0.31
  -5  -9  -6    0.06    0.28
   5  -9   6    0.23    0.35
   5 -10  -6    0.42    0.36
  -5  10   6   -0.09    0.28
   4 -10  -6    0.93    0.45
  -4 -10   6    0.10    0.40
   4 -10  -6    0.80    0.65
   4  10  -6    3.56    0.94
   3 -10  -6    4.07    0.75
  -3 -10   6    5.60    0.68
   3 -10  -6    4.38    0.79
  -3 -10   6    4.91    0.86
   3  10  -6    2.32    0.91
   2 -10  -6   18.27    1.30
  -2 -10   6   15.13    1.21
   2 -10  -6   16.10    1.24
  -2 -10   6   16.18    1.16
   1 -10  -6   16.65    1.24
  -1 -10   6   14.69    1.16
  -1 -10   6   17.04    1.21
   1 -10  -6   16.75    1.32
   0 -10  -6    6.11    0.90
   0 -10  -6    4.39    0.97
   0 -10   6    6.64    0.72
   0 -10   6    5.17    1.02
   0 -10   6    5.51    0.84
   1 -10   6    5.48    0.95
   1 -10   6    5.11    0.89
  -1 -10  -6    3.13    0.75
   1 -10   6    2.96    0.68
  -1 -10  -6    4.02    0.83
   1 -10   6    3.45    0.72
   2 -10   6    5.82    0.91
   2 -10   6    5.53    0.84
   2 -10   6    6.00    0.78
  -2 -10  -6    7.86    0.83
  -2 -10  -6    4.73    0.87
  -3 -10  -6    2.23    0.62
   3 -10   6    0.92    0.64
  -3 -10  -6    1.60    0.54
   3 -10   6    1.66    0.67
   3 -10   6    1.78    0.56
   3  10   6    1.16    0.91
  -4 -10  -6    3.22    0.61
   4 -10   6    2.28    0.54
   4 -10   6    2.14    0.54
  -4 -10  -6    2.54    0.47
   4  10   6    1.86    0.80
  -4 -11   6    2.42    0.49
   4 -11  -6    1.85    0.63
   4 -11  -6    2.88    0.52
   3 -11  -6    0.97    0.58
   3 -11  -6    0.06    0.58
  -3 -11   6    1.10    0.62
  -3 -11   6    0.20    0.49
   3  11  -6   -1.24    1.14
  -2 -11   6    1.94    0.49
   2 -11  -6    2.71    0.74
  -2 -11   6    3.48    0.67
   2 -11  -6    1.66    0.66
   1 -11  -6    0.32    0.61
  -1 -11   6    0.48    0.51
   1 -11  -6   -0.12    0.66
  -1 -11   6    0.54    0.48
   0 -11   6    2.78    0.70
   0 -11   6    2.40    0.49
   0 -11  -6    2.24    0.73
   0 -11   6    1.77    0.57
   0 -11  -6    1.92    0.71
  -1 -11  -6    0.53    0.67
  -1 -11  -6    0.47    0.58
   1 -11   6    0.75    0.50
   1 -11   6   -0.02    0.80
   1 -11   6    1.01    0.68
   1 -11   6    0.33    0.63
   2 -11   6    2.91    0.62
  -2 -11  -6    4.05    0.69
  -2 -11  -6    3.48    0.85
   2 -11   6    3.19    0.72
   2 -11   6    4.32    0.85
  -3 -11  -6    0.38    0.51
  -3 -11  -6   -0.31    0.53
   3 -11   6    0.14    0.55
   3 -11   6   -0.55    0.65
   3 -11   6    0.29    0.60
   3  11   6    0.31    0.85
  -4 -11  -6    0.40    0.34
   4 -11   6    0.02    0.38
  -4 -11  -6   -0.06    0.47
   4 -11   6    0.15    0.35
   4  11   6    0.08    0.75
   4 -12  -6   -0.36    0.37
   4 -12  -6   -0.98    0.66
  -4 -12   6    0.28    0.32
  -3 -12   6    5.55    0.70
  -3 -12   6    5.10    0.79
   3 -12  -6    6.35    0.78
   3 -12  -6    7.31    0.84
   2 -12  -6    7.46    0.88
   2 -12  -6    5.67    0.90
  -2 -12   6    6.87    0.80
  -2 -12   6    7.62    0.74
   1 -12  -6    3.63    0.82
  -1 -12   6    3.51    0.63
  -1 -12   6    2.75    0.61
   1 -12  -6    3.37    0.77
   0 -12   6    0.94    0.76
   0 -12   6    0.73    0.53
   0 -12  -6    1.05    0.77
   0 -12   6    1.27    0.46
   0 -12  -6    0.32    0.74
  -1 -12  -6    1.84    0.61
   1 -12   6    1.46    0.62
   1 -12   6    2.16    0.96
   1 -12   6    0.93    0.50
   1 -12   6    1.24    0.66
  -1 -12  -6    1.51    0.76
  -2 -12  -6    5.63    0.85
   2 -12   6    5.72    0.81
  -2 -12  -6    5.76    0.78
   2 -12   6    6.40    0.93
   2 -12   6    6.02    0.78
   3 -12   6    5.44    0.71
  -3 -12  -6    5.23    0.71
   3 -12   6    4.44    0.72
  -3 -12  -6    4.76    0.71
   3  12   6    3.71    1.04
   4 -12   6    0.34    0.32
  -4 -12  -6    0.08    0.32
  -4 -12  -6    1.03    0.42
   4 -12   6    0.44    0.34
   4  12   6    1.08    0.77
   4 -13  -6    2.38    0.77
   4 -13  -6    1.43    0.40
  -4 -13   6    1.30    0.34
  -3 -13   6    2.05    0.49
  -3 -13   6    2.57    0.52
   3 -13  -6    1.98    0.67
   3 -13  -6    2.17    0.56
  -2 -13   6   12.93    0.98
  -2 -13   6   12.08    1.01
   2 -13  -6   12.55    1.10
   2 -13  -6   11.69    1.13
  -1 -13   6   10.01    0.92
   1 -13  -6    9.69    1.08
   1 -13  -6    9.57    1.04
  -1 -13   6    9.34    0.85
   0 -13  -6    5.16    0.96
   0 -13   6    4.30    1.16
   0 -13  -6    6.16    1.05
   0 -13   6    5.58    0.76
   0 -13   6    6.18    0.71
   1 -13   6    0.13    0.60
  -1 -13  -6    0.80    0.61
   1 -13   6    0.38    0.64
   1 -13   6    0.08    0.48
  -1 -13  -6    0.61    0.82
   2 -13   6    1.89    0.66
   2 -13   6    1.28    0.58
  -2 -13  -6    0.83    0.67
   2 -13   6    1.14    0.60
  -2 -13  -6    0.24    0.54
  -3 -13  -6    1.29    0.45
   3 -13   6    1.79    0.49
   3 -13   6    1.01    0.47
  -3 -13  -6    0.64    0.46
   3  13   6    2.55    0.91
   4 -13   6   -0.24    0.33
  -4 -13  -6    0.39    0.40
  -4 -13  -6   -0.06    0.29
   4 -13   6   -0.24    0.29
   4  13   6   -0.67    0.85
   4 -14  -6   -0.17    0.33
  -4 -14   6   -0.23    0.23
  -3 -14   6    0.49    0.37
   3 -14  -6   -0.66    0.62
   3 -14  -6    0.39    0.42
  -3 -14   6    0.35    0.32
  -2 -14   6    2.32    0.57
   2 -14  -6    2.41    0.76
  -2 -14   6    1.74    0.48
   2 -14  -6    1.54    0.62
  -1 -14   6    1.23    0.45
  -1 -14   6    1.69    0.55
   1 -14  -6    2.73    0.83
   1 -14  -6    2.11    0.74
   0 -14  -6    4.93    1.00
   0 -14   6    6.09    0.70
   0 -14   6    6.43    0.77
   0 -14  -6    6.34    1.00
  -1 -14  -6    9.65    1.22
   1 -14   6   11.41    1.01
   1 -14   6   10.98    1.06
  -1 -14  -6    9.11    1.01
   1 -14   6   11.23    0.89
   2 -14   6    0.27    0.66
  -2 -14  -6    0.41    0.53
  -2 -14  -6    0.06    0.66
   2 -14   6    0.56    0.57
   2 -14   6    0.11    0.59
  -3 -14  -6    1.05    0.39
   3 -14   6    1.87    0.52
   3 -14   6    0.82    0.44
  -3 -14  -6    0.83    0.39
   3  14   6    0.73    0.84
  -4 -14  -6    0.02    0.30
   4 -14   6    0.50    0.30
   4 -14   6    0.13    0.29
  -4 -14  -6   -0.35    0.43
   3 -15  -6    2.21    0.70
   3 -15  -6    1.15    0.43
  -3 -15   6    1.41    0.37
  -3 -15   6    1.68    0.40
   2 -15  -6   14.73    1.19
   2 -15  -6   15.46    1.34
  -2 -15   6   17.83    1.14
  -2 -15   6   18.65    1.18
  -1 -15   6    5.76    0.71
  -1 -15   6    5.14    0.67
   1 -15  -6    3.84    0.80
   0 -15   6   11.90    0.93
   0 -15  -6    9.56    1.12
   0 -15   6   13.11    0.98
   0 -15  -6   11.09    1.20
   1 -15   6   -1.28    0.49
  -1 -15  -6    0.14    0.60
   1 -15   6    0.24    0.64
  -1 -15  -6   -0.49    0.73
   1 -15   6   -0.90    0.73
  -2 -15  -6   -0.17    0.42
   2 -15   6    0.16    0.47
   2 -15   6   -0.17    0.49
   2 -15   6    0.35    0.48
  -3 -15  -6    0.25    0.32
   3 -15   6    0.08    0.35
   3 -15   6   -0.15    0.34
  -3 -15  -6   -0.58    0.34
   3  15   6   -0.22    0.75
   3 -16  -6    0.08    0.80
   3 -16  -6    0.35    0.36
  -3 -16   6    0.78    0.30
  -3 -16   6    0.38    0.25
  -2 -16   6    0.00    0.35
   2 -16  -6   -1.02    0.66
   2 -16  -6   -0.06    0.43
  -2 -16   6    0.13    0.31
  -1 -16   6    0.29    0.42
   1 -16  -6   -0.19    0.69
  -1 -16   6    0.50    0.47
   0 -16  -6    2.01    0.67
   0 -16  -6    0.57    0.60
   0 -16   6    2.24    0.55
   0 -16   6    2.29    0.65
  -1 -16  -6   -0.47    0.49
   1 -16   6    0.40    0.42
   1 -16   6    0.14    0.47
  -2 -16  -6    6.38    0.63
   2 -16   6    4.73    0.58
   3 -16   6    0.54    0.36
   3 -16   6    0.20    0.41
  -3 -16  -6    0.48    0.31
   3  16   6    0.63    0.81
  -3 -17   6    1.28    0.27
  -3 -17   6    0.72    0.29
   2 -17  -6    3.06    0.90
  -2 -17   6    3.20    0.42
  -2 -17   6    3.13    0.43
  -1 -17   6    3.59    0.53
  -1 -17   6    5.41    0.54
   1 -17  -6    4.37    0.87
   0 -17   6   13.04    0.90
   0 -17  -6   10.83    1.12
   0 -17   6   11.49    0.85
  -1 -17  -6    0.95    0.47
   1 -17   6    0.47    0.38
  -2 -17  -6    1.95    0.44
   2  17   6    1.28    0.78
  -2 -18   6    1.18    0.28
  -2 -18   6    1.07    0.29
   2 -18  -6    0.57    0.89
  -1 -18   6    0.62    0.32
  -1 -18   6   -0.15    0.31
   1 -18  -6   -0.20    0.64
   0 -18  -6    1.90    0.73
   0 -18   6    1.21    0.34
   0 -18   6    2.01    0.44
  -1 -18  -6    1.39    0.40
  -2 -18  -6    0.61    0.31
   2  18   6    0.16    0.80
   1 -19  -6    0.23    0.85
  -1 -19   6    0.58    0.27
  -1 -19   6   -0.37    0.27
   0 -19   6    2.57    0.44
   0 -19   6    2.96    0.42
  -1 -19  -6    0.27    0.40
  -5   0   7    0.70    0.40
   5   0  -7   -0.30    0.50
   4   0  -7    0.27    0.56
   3   0  -7    0.32    0.51
   2   0  -7    3.13    0.65
   2   0  -7    2.99    0.77
   1   0  -7    0.31    0.34
  -1   0   7   -0.09    0.50
  -1   0  -7    0.19    0.26
   1   0   7    0.62    0.54
   3   0   7    1.27    0.82
  -4   0  -7    0.75    0.60
   4   0   7    0.87    1.01
  -5   0  -7   -0.35    0.45
   5  -1  -7    0.44    0.50
  -5  -1   7   -0.10    0.39
  -5   1   7    1.10    0.41
   5   1  -7    0.70    0.52
  -4  -1   7    5.75    0.72
   4  -1  -7    4.22    0.71
   4   1  -7    4.33    0.75
   3  -1  -7   11.75    0.96
   3  -1  -7   11.29    1.33
   3   1  -7   12.49    0.99
   2  -1  -7   36.37    2.15
   2  -1  -7   35.57    2.25
   2   1  -7   33.72    2.16
   2   1  -7   35.03    2.30
   1  -1  -7    2.56    0.48
  -1  -1   7    3.20    0.65
   1   1  -7    3.63    0.55
  -1   1   7    2.43    0.73
   0  -1  -7  149.98    8.47
   0  -1   7  148.67    8.51
   0   1   7  145.13    8.51
   0   1  -7  146.28    8.48
  -1  -1  -7    8.85    0.68
   1  -1   7   10.31    0.86
   1   1   7    9.66    0.89
  -1   1  -7    9.32    0.69
   3  -1   7   -1.04    0.95
  -3  -1  -7    0.56    0.83
   3  -1   7   -0.38    0.76
   3   1   7   -0.96    0.84
   3   1   7    1.04    0.95
  -4  -1  -7    4.11    0.74
   4  -1   7    3.63    1.03
   4  -1   7    2.65    1.04
  -4   1  -7    3.95    0.71
  -5  -1  -7    0.00    0.42
  -5   1  -7   -0.59    0.46
   5  -2  -7    2.38    0.62
  -5  -2   7    2.46    0.51
  -5   2   7    2.25    0.47
   5   2  -7    2.69    0.66
  -4  -2   7    2.95    0.69
   4  -2  -7    2.43    0.63
   4  -2  -7    2.21    0.91
   4   2  -7    2.83    0.69
   3  -2  -7    2.00    0.57
  -3  -2   7    2.53    0.62
   3  -2  -7    3.02    0.77
   3   2  -7    1.59    0.63
   2  -2  -7   13.17    1.14
   2  -2  -7   13.53    0.98
   2   2  -7   13.00    1.07
   2   2  -7   14.55    1.30
   1  -2  -7    0.63    0.35
  -1  -2   7    0.58    0.54
  -1   2   7   -1.03    0.59
   1   2  -7    0.75    0.49
   0  -2  -7   10.59    0.77
   0  -2   7   13.39    0.93
   0   2   7   10.70    0.89
   0   2  -7   11.10    0.82
   1  -2   7   60.81    3.49
  -1  -2  -7   56.45    3.45
   1   2   7   63.18    3.52
  -1   2  -7   55.56    3.43
   2  -2   7    5.71    0.67
   2   2   7    5.75    0.95
  -3  -2  -7    3.38    0.93
   3  -2   7    3.05    0.87
   3  -2   7    4.46    0.97
   3   2   7    4.10    0.98
   3   2   7    2.29    1.13
  -4  -2  -7    6.22    0.78
   4  -2   7    6.68    1.12
   4  -2   7    6.75    1.03
  -4   2  -7    6.84    0.84
   4   2   7    3.89    0.86
  -5  -2  -7    2.04    0.49
  -5   2  -7    1.61    0.51
   5  -3  -7    1.11    0.57
  -5  -3   7    2.03    0.50
   5   3  -7    0.69    0.57
  -5   3   7    0.72    0.34
   4  -3  -7    0.44    0.46
   4  -3  -7    0.72    0.79
  -4  -3   7    0.19    0.55
   4   3  -7    0.02    0.57
  -3  -3   7    1.07    0.58
   3  -3  -7    2.41    0.61
   3  -3  -7    2.68    0.70
   3   3  -7    2.73    0.74
   2  -3  -7    1.34    0.67
   2  -3  -7   -0.11    0.42
   2   3  -7    0.23    0.65
   2   3  -7    0.35    0.88
   1  -3  -7   33.18    2.00
   1  -3  -7   31.79    2.02
  -1   3   7   31.37    2.14
   1   3  -7   34.68    2.10
   0  -3  -7   15.95    1.05
   0  -3   7   17.52    1.20
   0   3   7   15.66    1.15
   0   3  -7   15.61    1.13
  -1  -3  -7    2.20    0.74
  -1  -3  -7    3.98    0.51
   1  -3   7    4.77    0.66
   1   3   7    4.43    0.76
  -1   3  -7    3.76    0.45
   2  -3   7   15.42    1.31
   2  -3   7   14.52    1.13
   2   3   7   15.33    1.28
  -3  -3  -7    4.29    0.64
   3  -3   7    3.95    0.80
   3  -3   7    3.94    0.93
  -3  -3  -7    3.11    0.74
   3   3   7    3.26    1.00
  -4  -3  -7    1.44    0.57
   4  -3   7    0.93    0.84
   4  -3   7    1.69    0.76
   4   3   7    1.38    0.65
  -4   3  -7    0.63    0.58
  -5  -3  -7    0.03    0.37
   5  -3   7    0.04    0.71
  -5   3  -7   -0.10    0.47
   5  -4  -7    3.08    0.69
  -5   4   7    1.92    0.42
   5   4  -7    1.18    0.62
   4  -4  -7    2.55    0.64
   4  -4  -7    2.90    0.74
  -4  -4   7    2.10    0.66
   4   4  -7    2.30    0.69
   3  -4  -7    0.37    0.64
  -3  -4   7   -0.59    0.55
   3  -4  -7   -0.05    0.50
   3   4  -7    0.60    0.71
  -2  -4   7   21.43    1.55
   2  -4  -7   24.11    1.46
   2  -4  -7   22.87    1.68
   2  -4  -7   21.68    1.53
   2   4  -7   21.86    1.60
   1  -4  -7    1.57    0.51
   1  -4  -7    0.88    0.48
   1   4  -7    1.24    0.66
   0  -4  -7    0.39    0.35
   0  -4   7    0.44    0.55
   0  -4  -7    0.30    0.54
   0   4   7    1.47    0.54
  -1  -4  -7    0.42    0.66
  -1  -4  -7    1.35    0.45
   1   4   7    2.96    0.74
  -1   4  -7    1.38    0.41
   2  -4   7    3.52    0.81
   2  -4   7    1.79    0.69
   2  -4   7    2.49    0.58
  -2  -4  -7    2.62    0.61
  -3  -4  -7    4.33    0.83
   3  -4   7    3.58    0.92
  -3  -4  -7    3.50    0.65
   3  -4   7    4.78    0.86
   3   4   7    4.16    0.99
   4  -4   7   -0.02    0.78
   4  -4   7    0.35    0.71
  -4  -4  -7    0.42    0.56
   5  -4   7    0.59    0.65
  -5  -4  -7   -0.54    0.33
   5  -4   7    0.18    0.57
  -5   4  -7    0.71    0.51
   5  -5  -7   -0.99    0.55
  -5   5   7    0.17    0.27
   5   5  -7   -0.58    0.70
   4  -5  -7    4.89    0.82
   4  -5  -7    4.33    0.70
  -4  -5   7    3.43    0.82
   4   5  -7    2.73    0.71
  -3  -5   7   24.95    1.78
   3  -5  -7   27.71    1.73
   3  -5  -7   25.25    1.78
  -3  -5   7   25.58    1.82
   3   5  -7   28.73    1.81
   2  -5  -7   -0.61    1.24
  -2  -5   7   -0.13    0.67
  -2  -5   7   -0.31    0.61
   2  -5  -7    0.11    0.48
   2  -5  -7    0.04    0.57
   2   5  -7   -0.13    0.71
   1  -5  -7   25.08    1.59
   1  -5  -7   25.10    1.60
   1   5  -7   22.65    1.77
   0  -5  -7    3.24    0.56
   0  -5  -7    4.08    0.72
   0  -5   7    3.01    0.79
   0   5  -7    3.86    0.73
  -1  -5  -7   10.00    1.01
  -1  -5  -7    9.48    0.93
   1  -5   7   10.16    0.91
  -1   5  -7    9.18    0.84
  -2  -5  -7    0.83    0.52
   2  -5   7    0.80    0.56
  -2  -5  -7   -0.67    0.64
   2  -5   7    1.18    0.72
   2  -5   7   -0.16    0.69
  -3  -5  -7   31.01    2.33
   3  -5   7   36.99    2.34
   3  -5   7   37.65    2.36
  -3  -5  -7   39.35    2.29
   3  -5   7   36.64    2.28
   3   5   7   39.24    2.44
   4  -5   7    0.38    0.72
  -4  -5  -7    0.11    0.53
   4  -5   7    1.78    0.71
   4   5   7    0.48    0.72
   5  -5   7    1.35    0.57
  -5  -5  -7    1.03    0.36
   5  -5   7    0.84    0.50
  -5   5  -7    0.28    0.66
   5  -6  -7    0.84    0.61
  -5   6   7    0.58    0.31
   5   6  -7    0.85    0.84
   4  -6  -7    0.31    0.58
  -4  -6   7   -0.88    0.69
  -4  -6   7    1.66    0.75
   4  -6  -7    0.15    0.58
   4   6  -7    0.89    0.61
   3  -6  -7    3.96    0.71
   3  -6  -7    3.79    0.79
  -3  -6   7    2.91    0.84
  -3  -6   7    2.97    0.73
   3   6  -7    2.74    0.90
  -2  -6   7    2.20    0.77
  -2  -6   7    2.82    0.65
   2  -6  -7    3.65    0.77
   2  -6  -7    3.90    0.62
  -2  -6   7    2.60    0.75
   2   6  -7    2.66    1.32
   1  -6  -7   -0.26    0.48
   1  -6  -7    1.13    0.61
   1   6  -7   -0.63    0.84
   0  -6  -7    7.62    0.78
   0  -6  -7    9.38    0.88
   0   6  -7    8.69    1.03
  -1  -6  -7    8.19    1.02
  -1  -6  -7    9.98    0.95
  -1   6  -7    6.81    0.99
   2  -6   7    3.65    0.85
   2  -6   7    2.99    0.60
  -2  -6  -7    2.81    0.67
  -2  -6  -7    2.93    0.68
   2  -6   7    1.77    0.69
   3  -6   7    0.48    0.59
  -3  -6  -7    0.37    0.51
   3  -6   7    0.25    0.62
   3  -6   7   -0.17    0.60
  -3  -6  -7   -0.12    0.60
   3   6   7    0.74    0.95
   4  -6   7   -0.12    0.63
   4  -6   7   -0.66    0.66
  -4  -6  -7   -0.50    0.50
  -4  -6  -7   -0.27    0.90
   4   6   7    0.69    0.77
  -5  -6  -7    0.42    0.35
   5  -6   7    0.81    0.43
   5  -6   7    0.47    0.47
   5  -7  -7    0.54    0.68
  -5   7   7    0.28    0.26
  -4  -7   7    1.99    0.66
   4  -7  -7    0.50    0.57
   4  -7  -7    0.75    0.56
   4   7  -7    1.58    0.64
   3  -7  -7    7.05    0.88
  -3  -7   7    6.36    1.08
  -3  -7   7    7.12    1.00
  -3  -7   7    7.90    0.88
   3  -7  -7    7.36    0.86
   3   7  -7    7.90    1.07
  -2  -7   7    5.58    0.82
  -2  -7   7    4.78    0.94
  -2  -7   7    7.77    0.96
   2  -7  -7    6.98    0.76
   2  -7  -7    6.33    0.80
  -1  -7   7   46.72    2.85
   1  -7  -7   50.41    2.88
  -1  -7   7   47.83    2.89
   1  -7  -7   45.74    2.91
   0  -7  -7    0.41    0.62
   0  -7  -7    0.55    0.51
   0   7  -7   -0.35    0.89
   1  -7   7   -0.58    0.74
  -1  -7  -7    0.22    0.58
  -1  -7  -7   -0.76    0.89
  -1  -7  -7   -0.59    0.52
   1  -7   7    0.46    0.48
   1  -7   7    1.70    0.65
  -1   7  -7    0.48    0.86
   2  -7   7    3.18    0.78
   2  -7   7    3.06    0.77
  -2  -7  -7    3.88    0.84
   2  -7   7    3.34    0.73
  -2  -7  -7    3.93    0.65
   3  -7   7    5.54    0.84
  -3  -7  -7    6.15    0.83
   3  -7   7    5.55    0.79
  -3  -7  -7    6.32    0.79
   3  -7   7    5.64    0.89
   3   7   7    8.40    1.26
   4  -7   7   -0.23    0.62
  -4  -7  -7    0.68    0.72
   4  -7   7    0.04    0.62
  -4  -7  -7    0.71    0.48
   4   7   7    0.78    0.75
   5  -7   7    0.09    0.38
   5  -7   7    0.82    0.43
  -5  -7  -7    0.01    0.31
   5  -8  -7    0.20    0.74
  -5   8   7    0.46    0.28
   4  -8  -7    5.48    0.79
   4  -8  -7    6.69    0.75
  -4  -8   7    5.79    0.71
   4   8  -7    4.74    0.89
  -3  -8   7    0.26    0.75
  -3  -8   7   -0.07    0.57
   3  -8  -7    0.27    0.65
   3  -8  -7    1.16    0.59
   3   8  -7    0.01    0.93
  -2  -8   7    7.44    0.82
   2  -8  -7    7.81    0.89
   2  -8  -7    7.27    0.84
  -2  -8   7    6.84    0.98
  -2  -8   7    6.45    0.92
  -1  -8   7    4.99    0.74
   1  -8  -7    4.27    0.69
  -1  -8   7    3.86    0.79
  -1  -8   7    3.82    0.73
   1  -8  -7    4.53    0.87
   0  -8   7    3.06    0.74
   0  -8   7    1.76    0.59
   0  -8   7    1.67    0.47
   0  -8  -7    1.30    0.57
   0   8  -7    0.70    1.13
   1  -8   7    2.91    0.83
  -1  -8  -7    4.29    0.73
   1  -8   7    4.17    0.82
   1  -8   7    3.32    0.69
  -1  -8  -7    2.86    0.69
   1  -8   7    2.74    0.60
  -2  -8  -7   12.00    0.98
  -2  -8  -7    9.31    1.07
   2  -8   7   12.55    1.07
   2  -8   7    9.66    0.95
   2  -8   7    9.28    0.99
  -3  -8  -7    6.84    0.83
   3  -8   7    5.79    0.86
  -3  -8  -7    5.86    0.76
   3  -8   7    7.77    0.86
   3  -8   7    3.58    0.81
   3   8   7    6.47    1.23
   4  -8   7    0.14    0.48
   4  -8   7   -0.17    0.49
  -4  -8  -7    0.39    0.57
  -4  -8  -7    0.46    0.41
   4   8   7   -0.14    0.72
   5  -8   7    0.18    0.39
  -5  -8  -7   -0.22    0.27
   5  -8   7    0.18    0.34
  -5   9   7   -0.16    0.29
  -4  -9   7   -0.30    0.44
   4  -9  -7    0.85    0.61
   4  -9  -7    0.83    0.42
   4   9  -7    2.28    1.34
  -3  -9   7   13.83    1.24
  -3  -9   7   15.97    1.14
   3  -9  -7   14.78    1.22
   3  -9  -7   17.13    1.21
   3   9  -7   13.27    1.71
  -2  -9   7    9.35    1.39
  -2  -9   7   13.16    1.10
   2  -9  -7   15.87    1.16
   2  -9  -7   11.64    1.10
  -2  -9   7   15.53    1.06
   1  -9  -7    3.79    0.85
  -1  -9   7    2.57    0.81
  -1  -9   7    4.09    0.72
  -1  -9   7    4.09    0.67
   1  -9  -7    4.56    0.79
   0  -9  -7   21.28    1.66
   0  -9   7   21.54    1.55
   0  -9   7   22.75    1.46
   0  -9  -7   24.85    1.63
   0  -9   7   22.96    1.63
   1  -9   7    0.43    0.62
   1  -9   7    0.58    0.46
  -1  -9  -7   -0.20    0.61
   1  -9   7   -0.34    0.80
   1  -9   7   -0.43    0.64
  -1  -9  -7    0.61    0.57
   2  -9   7    5.66    0.77
   2  -9   7    5.54    0.84
  -2  -9  -7    4.64    0.95
   2  -9   7    6.02    0.80
  -2  -9  -7    6.37    0.75
   3  -9   7    0.26    0.62
   3  -9   7   -0.03    0.56
   3  -9   7   -0.11    0.58
  -3  -9  -7   -0.19    0.55
  -3  -9  -7   -0.87    0.50
   3   9   7    1.19    0.90
   4  -9   7    0.02    0.40
   4  -9   7    0.37    0.44
  -4  -9  -7   -0.15    0.38
  -4  -9  -7    0.46    0.54
   4   9   7    1.51    0.80
   4 -10  -7    3.22    0.54
  -4 -10   7    3.42    0.54
   4 -10  -7    2.22    0.66
  -3 -10   7    2.66    0.67
   3 -10  -7    1.69    0.67
   3 -10  -7    1.62    0.61
  -3 -10   7    2.44    0.64
  -2 -10   7    1.42    0.51
   2 -10  -7    0.85    0.59
  -2 -10   7    0.79    0.59
   2 -10  -7    1.47    0.59
   1 -10  -7   13.86    1.15
  -1 -10   7   12.92    1.07
   1 -10  -7   13.48    1.17
  -1 -10   7   14.66    1.06
  -1 -10   7   15.15    1.27
   0 -10   7    3.95    0.75
   0 -10  -7    4.18    0.91
   0 -10   7    4.32    0.61
   0 -10  -7    3.24    0.77
   0 -10   7    5.37    0.92
   1 -10   7    7.81    1.12
   1 -10   7    9.43    0.94
  -1 -10  -7    9.70    0.94
  -1 -10  -7    8.15    1.03
   1 -10   7   10.17    0.85
   1 -10   7    9.38    1.00
   2 -10   7    5.27    0.79
   2 -10   7    4.86    0.75
  -2 -10  -7    4.84    0.70
   2 -10   7    5.59    0.86
  -2 -10  -7    3.89    0.84
   3 -10   7    1.60    0.58
  -3 -10  -7    1.38    0.56
   3 -10   7    0.91    0.63
   3 -10   7    1.95    0.65
  -3 -10  -7    1.81    0.57
   3  10   7    1.93    0.93
  -4 -10  -7   -0.13    0.46
  -4 -10  -7   -0.19    0.34
   4 -10   7   -0.70    0.40
   4 -10   7    0.14    0.40
   4  10   7    1.10    0.77
  -4 -11   7   -0.10    0.33
   4 -11  -7    0.09    0.39
   4 -11  -7    0.75    0.62
  -3 -11   7    1.25    0.50
   3 -11  -7    0.32    0.58
  -3 -11   7    0.48    0.58
   3 -11  -7    0.85    0.55
   2 -11  -7    4.25    0.85
  -2 -11   7    4.33    0.74
   2 -11  -7    4.42    0.79
  -2 -11   7    4.95    0.67
  -1 -11   7    0.28    0.79
   1 -11  -7    0.40    0.65
  -1 -11   7   -0.14    0.48
   1 -11  -7    0.89    0.71
  -1 -11   7    0.16    0.39
   0 -11  -7   56.12    3.73
   0 -11   7   65.63    3.66
   0 -11  -7   64.77    3.78
   0 -11   7   61.58    3.72
   0 -11   7   62.23    3.68
   1 -11   7    3.31    0.84
   1 -11   7    3.69    0.88
  -1 -11  -7    4.94    0.96
   1 -11   7    4.57    0.63
   1 -11   7    4.25    0.77
  -1 -11  -7    4.33    0.73
  -2 -11  -7   15.52    1.33
   2 -11   7   17.70    1.21
  -2 -11  -7   18.00    1.23
   2 -11   7   16.90    1.24
   2 -11   7   16.39    1.30
  -3 -11  -7   -0.39    0.51
   3 -11   7    0.36    0.60
  -3 -11  -7   -0.39    0.53
   3 -11   7    0.27    0.63
   3 -11   7    0.01    0.53
   3  11   7    0.56    0.84
   4 -11   7    0.06    0.35
   4 -11   7    0.14    0.36
  -4 -11  -7    0.11    0.31
  -4 -11  -7    0.07    0.45
   4  11   7    1.55    0.83
   4 -12  -7    2.28    0.49
  -4 -12   7    2.55    0.40
   4 -12  -7    2.47    0.73
   3 -12  -7    2.63    0.67
   3 -12  -7    1.51    0.69
  -3 -12   7    2.27    0.55
   2 -12  -7    8.42    0.87
   2 -12  -7    7.14    0.93
  -2 -12   7    7.52    0.81
  -2 -12   7    7.57    0.79
  -1 -12   7    0.81    0.51
   1 -12  -7   -0.48    0.66
   1 -12  -7   -0.65    0.71
  -1 -12   7    0.05    0.40
   0 -12   7    3.35    0.93
   0 -12   7    3.28    0.62
   0 -12  -7    2.76    0.79
   0 -12   7    3.48    0.67
   0 -12  -7    3.52    0.96
   1 -12   7    0.43    0.85
  -1 -12  -7    0.19    0.54
  -1 -12  -7    0.28    0.70
   1 -12   7    0.03    0.58
   1 -12   7    0.31    0.42
   1 -12   7    0.38    0.59
  -2 -12  -7    1.24    0.69
   2 -12   7    1.42    0.71
   2 -12   7    1.38    0.58
  -2 -12  -7    1.70    0.56
   2 -12   7    1.37    0.53
   3 -12   7    2.77    0.56
   3 -12   7    2.40    0.60
   3 -12   7    2.79    0.64
  -3 -12  -7    2.85    0.56
  -3 -12  -7    3.54    0.62
   3  12   7    4.54    0.98
  -4 -12  -7    1.08    0.41
  -4 -12  -7   -0.01    0.30
   4 -12   7    0.40    0.32
   4 -12   7    0.21    0.33
   4  12   7    0.93    0.85
   4 -13  -7    0.32    0.36
   4 -13  -7    0.75    0.73
  -4 -13   7    0.34    0.26
  -4  13   7    1.48    0.60
  -3 -13   7    1.94    0.45
   3 -13  -7    2.63    0.77
   3 -13  -7    1.31    0.45
  -3 -13   7    1.75    0.49
  -2 -13   7    0.45    0.50
   2 -13  -7    1.24    0.61
   2 -13  -7    0.38    0.61
  -2 -13   7    0.21    0.44
  -1 -13   7    8.38    0.79
   1 -13  -7    8.46    0.99
   1 -13  -7    7.21    0.93
  -1 -13   7    6.39    0.72
   0 -13   7    0.56    0.78
   0 -13   7   -0.14    0.44
   0 -13  -7    0.75    0.74
   0 -13  -7    0.48    0.77
   0 -13   7    0.38    0.44
  -1 -13  -7    1.43    0.61
   1 -13   7    2.63    0.57
   1 -13   7    2.07    0.62
  -1 -13  -7    2.51    0.79
   1 -13   7    2.52    0.67
  -2 -13  -7    4.01    0.70
   2 -13   7    1.02    0.68
   2 -13   7    2.52    0.72
   2 -13   7    4.12    0.68
  -3 -13  -7    0.32    0.39
   3 -13   7    0.87    0.43
  -3 -13  -7    0.31    0.40
   3 -13   7    0.85    0.48
   3  13   7    1.14    0.85
   4 -13   7    0.16    0.29
  -4 -13  -7    0.55    0.41
   4 -13   7   -0.20    0.28
  -4 -13  -7    0.13    0.30
   3 -14  -7    0.22    0.42
  -3 -14   7    0.27    0.30
  -3 -14   7    0.02    0.35
   3 -14  -7    0.17    0.60
  -2 -14   7    8.64    0.76
   2 -14  -7    6.82    0.87
   2 -14  -7    5.74    0.93
  -2 -14   7    8.52    0.73
  -1 -14   7    2.77    0.64
   1 -14  -7    4.27    0.88
  -1 -14   7    3.11    0.61
   0 -14  -7   -0.13    0.74
   0 -14   7    0.60    0.50
   0 -14   7    0.52    0.45
   0 -14  -7    0.62    0.76
   1 -14   7    1.97    0.66
   1 -14   7    0.71    0.60
  -1 -14  -7    1.41    0.63
   1 -14   7    1.27    0.50
  -1 -14  -7    1.72    0.79
   2 -14   7    0.68    0.54
   2 -14   7   -0.06    0.43
  -2 -14  -7   -0.70    0.44
   2 -14   7    0.77    0.55
   3 -14   7   -0.23    0.37
   3 -14   7   -0.21    0.40
  -3 -14  -7    1.03    0.38
  -3 -14  -7   -0.23    0.35
   3  14   7   -0.34    0.80
  -3 -15   7    2.65    0.38
  -3 -15   7    2.63    0.40
   3 -15  -7    3.09    0.76
   3 -15  -7    1.80    0.49
   2 -15  -7    1.79    0.71
  -2 -15   7    0.98    0.37
  -2 -15   7    0.84    0.36
   2 -15  -7    0.79    0.48
  -1 -15   7   -0.13    0.42
  -1 -15   7    1.02    0.43
   1 -15  -7    0.94    0.73
   0 -15   7    1.57    0.43
   0 -15  -7    1.05    0.74
   0 -15  -7    0.73    0.69
   0 -15   7    1.22    0.52
  -1 -15  -7    3.87    0.75
  -1 -15  -7    3.62    0.93
   1 -15   7    3.42    0.62
   1 -15   7    3.57    0.78
   1 -15   7    3.12    0.74
   2 -15   7    0.61    0.38
   2 -15   7    0.48    0.45
   2 -15   7    0.84    0.46
  -2 -15  -7   -0.05    0.38
   3 -15   7    0.10    0.35
  -3 -15  -7    0.52    0.32
   3 -15   7    0.32    0.34
   3  15   7    0.49    0.79
  -3 -16   7    1.85    0.35
  -3 -16   7    1.87    0.31
   3 -16  -7    3.08    0.96
   2 -16  -7    0.69    0.67
  -2 -16   7    1.01    0.33
  -2 -16   7    0.83    0.32
   1 -16  -7   -0.27    0.70
  -1 -16   7    1.83    0.45
  -1 -16   7    1.12    0.37
   0 -16   7    1.37    0.40
   0 -16   7    1.87    0.51
   0 -16  -7    1.06    0.58
   0 -16  -7    1.19    0.68
  -1 -16  -7    1.70    0.51
   1 -16   7    0.90    0.39
   1 -16   7    2.12    0.54
   2 -16   7    0.07    0.44
  -2 -16  -7    0.93    0.41
   3 -16   7    3.58    0.62
   3 -16   7    1.49    0.42
  -3 -16  -7    2.40    0.39
   3  16   7    2.42    1.21
   2 -17  -7    0.60    0.78
  -2 -17   7    1.55    0.34
  -2 -17   7    1.55    0.36
   1 -17  -7    0.19    0.66
  -1 -17   7    0.18    0.30
  -1 -17   7    0.51    0.34
   0 -17   7   -0.13    0.37
   0 -17  -7   -0.02    0.65
   0 -17   7    0.17    0.34
  -1 -17  -7    0.92    0.42
   1 -17   7    0.55    0.35
  -2 -17  -7    1.19    0.34
   2  17   7    0.28    0.79
  -2 -18   7    1.10    0.29
  -2 -18   7    1.24    0.31
   1 -18  -7    1.71    0.67
  -1 -18   7    2.14    0.39
  -1 -18   7    2.95    0.38
   0 -18   7    0.74    0.31
   0 -18   7    0.38    0.34
   0 -18  -7    0.22    0.68
  -1 -18  -7   -0.20    0.37
  -2 -18  -7    0.79    0.32
  -1 -19   7    1.18    0.28
  -1 -19   7    0.43    0.27
   0 -19   7    0.50    0.36
   0 -19   7    0.37    0.36
  -1 -19  -7    0.08    0.47
  -5   0   8    3.42    0.48
   5   0  -8    3.11    0.69
  -4   0   8    6.05    0.73
   4   0  -8    5.09    0.73
   3   0  -8   -0.73    0.61
   3   0  -8    0.23    1.01
   2   0  -8  378.47   20.57
  -2   0   8  341.18   20.57
   1   0  -8   50.51    3.02
   0   0  -8   26.42    1.65
   0   0   8   26.04    1.80
   1   0   8    5.80    0.99
  -1   0  -8    5.55    0.58
   2   0   8    4.01    0.64
   2   0   8    4.05    0.90
  -2   0  -8    3.41    0.67
  -3   0  -8   15.38    1.45
   3   0   8   18.76    1.51
   4   0   8    0.10    1.02
  -4   0  -8    0.12    0.54
  -5   0  -8    0.48    0.41
   5  -1  -8   -0.33    0.61
  -5  -1   8    0.44    0.37
  -5   1   8    0.41    0.35
   5   1  -8    0.87    0.61
  -4  -1   8    4.46    0.71
   4  -1  -8    2.90    0.65
   4   1  -8    3.81    0.72
  -4   1   8    5.18    0.65
   3  -1  -8    0.70    0.83
   3  -1  -8    0.60    0.52
  -3  -1   8    0.28    0.45
   3   1  -8   -0.52    0.61
   0  -1  -8   35.36    2.15
   0  -1   8   35.54    2.28
   0   1  -8   37.49    2.17
   0   1   8   33.61    2.29
   1  -1   8   12.52    1.20
  -1  -1  -8   12.35    0.89
   1   1   8   13.02    1.23
  -1   1  -8   11.77    0.87
   2  -1   8    1.33    0.48
  -2  -1  -8    0.33    0.54
   2  -1   8    1.19    0.83
   2   1   8    0.72    0.90
  -3  -1  -8   38.22    2.62
   3  -1   8   43.46    2.79
   3  -1   8   43.15    2.68
   3   1   8   42.96    2.74
  -4  -1  -8    3.10    0.68
   4  -1   8    1.21    0.91
  -4   1  -8    1.30    0.55
   4   1   8    0.74    1.17
  -5  -1  -8   -0.09    0.39
  -5   1  -8    0.53    0.42
   5  -2  -8    0.73    0.60
  -5  -2   8    0.65    0.37
  -5   2   8    0.69    0.35
   5   2  -8   -0.63    0.61
  -4  -2   8    0.55    0.52
   4  -2  -8    0.82    0.87
   4  -2  -8    0.57    0.51
   4   2  -8    0.69    0.61
  -3  -2   8   12.89    1.08
   3  -2  -8   12.81    1.25
   3  -2  -8   14.08    1.05
   3   2  -8   13.90    1.12
  -2  -2   8   30.45    1.86
   2  -2  -8   31.60    1.82
   2  -2  -8   27.99    1.91
   2   2  -8   26.05    1.88
   1  -2  -8   -0.07    0.59
   1  -2  -8    0.07    0.42
   1   2  -8   -0.26    0.51
   0  -2  -8    2.03    0.46
   0  -2   8    1.69    0.67
   0   2  -8    1.51    0.53
   0   2   8    2.46    0.73
   1  -2   8    0.17    0.73
   1   2   8    2.17    0.82
  -1   2  -8    1.74    0.48
   2  -2   8   15.23    1.27
   2  -2   8   12.71    0.98
  -2  -2  -8   12.58    1.06
   2  -2   8   11.46    1.36
   2   2   8   14.49    1.43
   3  -2   8    8.47    1.00
   3  -2   8    9.22    1.19
  -3  -2  -8    5.05    0.95
   3   2   8    7.35    1.31
  -4  -2  -8    5.49    0.74
   4  -2   8    4.22    1.01
   4  -2   8    5.40    1.17
  -4   2  -8    5.00    0.76
  -5  -2  -8    0.01    0.36
  -5   2  -8   -0.21    0.42
  -5  -3   8    0.59    0.39
   5  -3  -8    0.54    0.65
  -5   3   8    0.54    0.34
   5   3  -8    0.25    0.71
  -4  -3   8    3.24    0.68
   4  -3  -8    1.99    0.62
   4  -3  -8    2.13    0.82
   4   3  -8    2.17    0.63
  -3  -3   8    5.69    0.84
   3  -3  -8    9.02    0.99
   3  -3  -8    8.73    0.79
   3   3  -8    7.29    0.96
  -2  -3   8    0.56    0.53
   2  -3  -8    0.71    0.64
   2  -3  -8   -0.21    0.46
   2   3  -8   -0.44    0.69
   1  -3  -8   22.87    1.50
   1  -3  -8   20.80    1.51
   1   3  -8   23.70    1.59
   0  -3  -8    8.64    0.73
   0  -3   8    8.07    1.03
   0   3  -8    8.52    0.83
   1  -3   8   21.27    1.55
  -1  -3  -8   21.35    1.39
  -1  -3  -8   19.56    1.63
   1   3   8   18.94    1.62
  -1   3  -8   21.76    1.36
  -2  -3  -8   13.16    1.04
   2  -3   8   13.01    1.35
   2  -3   8   12.72    0.97
   2  -3   8   12.70    1.19
   2   3   8   12.62    1.25
   2   3   8   11.00    1.52
   3  -3   8   15.56    1.52
  -3  -3  -8   21.19    1.40
   3  -3   8   19.41    1.48
   3   3   8   19.01    1.84
   3   3   8   18.36    1.59
   4  -3   8   -1.22    0.70
   4  -3   8   -0.60    0.86
  -4  -3  -8   -0.18    0.54
   5  -3   8   -0.61    0.75
  -5  -3  -8    0.96    0.37
  -5   3  -8    0.05    0.44
   5  -4  -8    0.76    0.63
  -5   4   8    0.57    0.32
   5   4  -8    0.57    0.80
   4  -4  -8   -0.08    0.55
  -4  -4   8    0.56    0.57
   4  -4  -8   -0.46    0.70
   4   4  -8   -0.42    0.59
  -3  -4   8    2.76    0.72
   3  -4  -8    3.33    0.69
   3  -4  -8    2.31    0.67
   3   4  -8    2.65    0.81
  -2  -4   8   -0.01    0.61
   2  -4  -8    0.23    0.61
   2  -4  -8    1.80    0.56
   1  -4  -8   96.41    5.70
   1  -4  -8   96.55    5.73
   1   4  -8  101.12    5.82
   0  -4  -8    6.23    0.64
   0  -4  -8    4.45    0.88
   0   4  -8    6.36    0.85
  -1  -4  -8   25.44    1.69
  -1  -4  -8   26.27    1.77
   1  -4   8   23.36    1.76
  -1   4  -8   24.84    1.61
   2  -4   8    0.22    0.68
  -2  -4  -8    0.58    0.50
   2  -4   8    1.21    0.50
   2  -4   8   -0.71    0.77
   2   4   8    0.03    1.28
   3  -4   8    1.45    0.67
  -3  -4  -8    1.54    0.67
  -3  -4  -8    2.16    0.55
   3  -4   8    3.31    0.85
   3   4   8    2.17    0.94
  -4  -4  -8   -0.41    0.49
   4  -4   8    0.83    0.71
   4  -4   8   -1.03    0.78
   4   4   8    0.36    0.65
   5  -4   8    0.88    0.61
  -5  -4  -8    0.93    0.35
  -5   4  -8    1.17    0.48
   5  -5  -8    1.20    0.66
  -5   5   8    1.84    0.41
  -4  -5   8    0.55    0.59
   4  -5  -8   -0.32    0.55
   4  -5  -8    0.59    0.65
   4   5  -8    0.60    0.63
  -3  -5   8    2.97    0.72
  -3  -5   8    2.10    0.77
   3  -5  -8    2.27    0.73
   3  -5  -8    1.33    0.64
   3   5  -8    0.55    0.83
   2  -5  -8    0.84    0.58
  -2  -5   8   -0.33    0.74
  -2  -5   8    1.63    0.66
  -2  -5   8    1.02    0.70
   2  -5  -8    0.26    0.55
   1  -5  -8    5.29    0.84
   1  -5  -8    4.28    0.72
   1   5  -8    4.12    1.16
   0  -5  -8   -0.95    0.57
   0  -5  -8   -0.56    0.51
   0   5  -8   -0.11    0.68
  -1  -5  -8   13.81    1.08
  -1  -5  -8   16.94    1.28
   1  -5   8   14.91    1.07
  -1  -5  -8   17.80    1.33
   1  -5   8   13.93    1.22
  -1   5  -8   16.42    1.23
   2  -5   8    1.06    0.52
   2  -5   8    1.90    0.70
   2  -5   8    1.72    0.71
  -2  -5  -8    2.59    0.68
  -2  -5  -8    2.09    0.59
   2   5   8    2.92    2.10
  -3  -5  -8   -0.05    0.51
   3  -5   8   -0.10    0.64
   3  -5   8   -0.45    0.67
   3  -5   8   -0.68    0.56
  -3  -5  -8    0.57    0.63
   3   5   8    0.90    0.95
   4  -5   8   -0.56    0.65
  -4  -5  -8   -0.20    0.53
  -4  -5  -8    0.30    0.92
   4  -5   8    0.54    0.76
   4   5   8    0.40    0.73
  -5  -5  -8    0.06    0.32
   5  -5   8    0.08    0.67
   5  -5   8    0.18    0.49
  -5   5  -8    0.92    0.58
   5  -6  -8    0.59    0.73
  -5   6   8    0.26    0.31
  -4  -6   8    2.30    0.56
   4  -6  -8    3.93    0.77
   4  -6  -8    2.63    0.66
   4   6  -8    2.20    0.79
  -3  -6   8   -0.23    0.67
   3  -6  -8    0.13    0.63
  -3  -6   8   -0.10    0.63
   3  -6  -8    0.34    0.60
   3   6  -8    0.92    0.93
  -2  -6   8   -0.23    0.64
  -2  -6   8    0.94    0.60
   2  -6  -8    0.18    0.52
   2  -6  -8    0.13    0.53
  -2  -6   8   -0.40    0.66
  -1  -6   8   69.94    3.96
   1  -6  -8   68.49    3.99
   1  -6  -8   64.75    3.98
  -1  -6   8   67.20    3.97
  -1  -6   8   66.95    3.99
   0  -6  -8    8.99    0.95
   0  -6  -8    9.52    0.94
   0   6  -8    9.87    1.22
   1  -6   8   39.14    2.46
   1  -6   8   39.14    2.31
  -1  -6  -8   36.85    2.33
   1  -6   8   37.59    2.37
   1  -6   8   39.17    2.40
  -1  -6  -8   37.46    2.42
  -1   6  -8   38.44    2.75
   2  -6   8    9.14    0.98
   2  -6   8    9.42    0.83
  -2  -6  -8    9.59    0.86
   2  -6   8    9.11    0.97
  -2  -6  -8    8.94    0.99
  -3  -6  -8    0.42    0.58
   3  -6   8    1.73    0.54
   3  -6   8   -1.32    0.63
  -3  -6  -8    0.50    0.51
   3  -6   8    0.83    0.61
   3   6   8    0.97    0.94
  -4  -6  -8    0.16    0.46
  -4  -6  -8    1.06    0.77
   4  -6   8    1.57    0.69
   4  -6   8    0.66    0.64
   4   6   8    1.29    0.69
   5  -6   8    0.91    0.58
   5  -6   8    0.39    0.43
  -5  -6  -8    0.87    0.33
   5  -7  -8    0.98    0.74
  -5   7   8    0.37    0.30
   4  -7  -8    4.68    0.76
   4  -7  -8    4.59    0.76
  -4  -7   8    5.72    0.89
   4   7  -8    3.26    0.95
  -3  -7   8    0.60    0.62
  -3  -7   8    1.39    0.84
  -3  -7   8   -0.23    0.60
   3  -7  -8    0.08    0.56
   3  -7  -8    0.34    0.60
  -2  -7   8    0.37    0.62
   2  -7  -8    1.10    0.61
   2  -7  -8    0.77    0.54
  -2  -7   8   -0.88    0.59
  -2  -7   8    1.33    0.55
  -1  -7   8    0.69    0.53
   1  -7  -8    2.10    0.55
  -1  -7   8    1.71    0.66
  -1  -7   8    2.51    0.65
   1  -7  -8    1.16    0.59
   0  -7  -8   16.30    1.19
   0  -7   8   13.96    1.13
   0  -7   8   15.40    1.21
   0  -7   8   14.44    1.09
   0   7  -8   14.67    1.63
   1  -7   8    1.89    0.58
   1  -7   8    3.04    0.66
  -1  -7  -8    1.61    0.61
   1  -7   8    2.72    0.81
   1  -7   8    2.68    0.55
  -1  -7  -8    2.35    0.65
   2  -7   8    1.63    0.52
   2  -7   8    1.80    0.72
   2  -7   8    0.72    0.69
   2  -7   8    1.10    0.66
  -2  -7  -8    1.00    0.69
  -2  -7  -8    2.17    0.59
  -3  -7  -8    0.81    0.55
  -3  -7  -8    0.66    0.56
   3  -7   8   -0.02    0.62
   3  -7   8    0.04    0.54
   3  -7   8    0.34    0.60
   3   7   8    2.53    1.01
  -4  -7  -8    0.33    0.62
   4  -7   8    0.27    0.56
  -4  -7  -8    0.84    0.39
   4  -7   8    0.67    0.47
   4   7   8   -0.67    0.78
   5  -7   8    1.14    0.50
   5  -7   8    0.14    0.38
  -5  -7  -8    0.30    0.29
  -5   8   8    0.61    0.31
   4  -8  -8    0.29    0.44
   4  -8  -8    0.33    0.60
  -4  -8   8    0.05    0.51
  -3  -8   8    0.41    0.56
  -3  -8   8   -0.15    0.75
  -3  -8   8    1.35    0.68
   3  -8  -8    1.32    0.58
   3  -8  -8    0.70    0.60
  -2  -8   8   11.97    1.10
  -2  -8   8   13.70    1.06
   2  -8  -8   12.24    1.08
   2  -8  -8   14.77    1.13
  -2  -8   8   14.10    1.20
   1  -8  -8    4.02    0.76
  -1  -8   8    6.78    0.94
  -1  -8   8    5.94    0.74
   1  -8  -8    5.73    0.88
  -1  -8   8    5.25    0.71
   0  -8  -8    8.50    0.99
   0  -8  -8    8.05    0.94
   0  -8   8    5.21    0.88
   0  -8   8    6.34    0.69
   0  -8   8    6.57    0.82
   1  -8   8    0.45    0.45
   1  -8   8   -0.11    0.59
   1  -8   8    0.75    0.62
   1  -8   8    0.91    0.79
  -1  -8  -8   -0.65    0.60
  -1  -8  -8    0.97    0.52
   2  -8   8   -0.12    0.66
   2  -8   8    0.55    0.59
   2  -8   8    1.35    0.80
  -2  -8  -8   -0.59    0.69
  -2  -8  -8    1.19    0.54
   2  -8   8    0.37    0.49
  -3  -8  -8    0.33    0.54
   3  -8   8    0.77    0.60
  -3  -8  -8   -0.25    0.51
   3  -8   8    0.05    0.61
   3  -8   8    0.96    0.57
   3   8   8    0.43    0.89
  -4  -8  -8    0.47    0.52
   4  -8   8    0.56    0.45
  -4  -8  -8    0.01    0.37
   4  -8   8    0.87    0.52
   4   8   8   -0.86    0.79
   4  -9  -8    0.43    0.59
  -4  -9   8    0.34    0.41
   4  -9  -8   -0.06    0.42
  -3  -9   8    7.70    0.98
  -3  -9   8    9.91    0.87
   3  -9  -8    8.86    0.95
   3  -9  -8    8.91    0.91
  -2  -9   8    1.93    0.52
   2  -9  -8    3.36    0.75
   2  -9  -8    1.55    0.58
  -2  -9   8    0.42    0.75
  -2  -9   8    2.07    0.62
   1  -9  -8    1.09    0.66
  -1  -9   8    0.68    0.43
  -1  -9   8    1.98    0.75
   1  -9  -8    0.64    0.67
  -1  -9   8    0.93    0.46
   0  -9   8   14.36    1.18
   0  -9  -8   11.87    1.18
   0  -9  -8   12.82    1.26
   0  -9   8   12.78    1.02
   0  -9   8   13.65    0.95
   1  -9   8   11.65    1.13
  -1  -9  -8   10.49    1.02
  -1  -9  -8   10.66    1.11
   1  -9   8   10.12    0.99
   1  -9   8   12.90    1.04
   1  -9   8   10.29    0.86
   2  -9   8    6.90    0.73
   2  -9   8    7.76    0.91
   2  -9   8    5.96    0.85
  -2  -9  -8    6.30    0.90
  -2  -9  -8    6.79    0.81
  -3  -9  -8   -0.18    0.52
   3  -9   8   -0.13    0.57
   3  -9   8    0.23    0.62
   3  -9   8   -0.15    0.57
  -3  -9  -8    0.06    0.55
   3   9   8   -1.52    0.84
   4  -9   8    0.73    0.45
  -4  -9  -8    0.27    0.38
   4  -9   8   -0.15    0.40
  -4  -9  -8    0.23    0.47
   4   9   8    1.24    0.80
   4 -10  -8    2.71    0.52
   4 -10  -8    2.60    0.69
  -4 -10   8    2.64    0.46
   3 -10  -8    0.90    0.56
  -3 -10   8    1.66    0.52
   3 -10  -8    1.05    0.60
  -3 -10   8    0.89    0.63
  -2 -10   8   27.86    2.13
  -2 -10   8   32.89    2.04
   2 -10  -8   33.87    2.13
  -2 -10   8   32.23    1.99
   2 -10  -8   32.65    2.08
  -1 -10   8    9.00    0.83
   1 -10  -8   10.84    1.02
  -1 -10   8    8.72    1.00
  -1 -10   8    7.40    0.78
   1 -10  -8    8.03    0.99
   0 -10  -8    4.02    0.94
   0 -10   8    4.80    0.64
   0 -10   8    3.97    0.86
   0 -10   8    3.70    0.71
   0 -10  -8    3.24    0.90
  -1 -10  -8    0.93    0.55
   1 -10   8    1.02    0.45
  -1 -10  -8    1.07    0.72
   1 -10   8    1.07    0.59
   1 -10   8    0.01    0.79
   1 -10   8    2.71    0.71
   2 -10   8    6.73    0.94
   2 -10   8    8.06    0.78
   2 -10   8    5.55    0.85
  -2 -10  -8    6.09    0.92
  -2 -10  -8    7.04    0.77
  -3 -10  -8   -0.09    0.56
  -3 -10  -8    0.70    0.53
   3 -10   8    0.21    0.57
   3 -10   8    0.07    0.59
   3 -10   8    0.54    0.63
   3  10   8    0.02    0.88
  -4 -10  -8    2.73    0.58
   4 -10   8    2.62    0.47
  -4 -10  -8    1.72    0.45
   4 -10   8    1.86    0.48
  -4  10  -8    2.84    0.65
   4  10   8    2.67    0.86
  -4 -11   8    0.06    0.32
   4 -11  -8    0.30    0.68
   4 -11  -8    0.13    0.37
  -4  11   8   -0.09    0.36
   3 -11  -8    0.87    0.57
  -3 -11   8    1.34    0.56
  -3 -11   8   -0.15    0.45
   3 -11  -8   -0.01    0.57
   2 -11  -8    3.44    0.77
   2 -11  -8    3.38    0.77
  -2 -11   8    2.85    0.59
  -2 -11   8    2.74    0.68
  -1 -11   8    2.26    0.74
   1 -11  -8    1.39    0.69
  -1 -11   8    2.63    0.62
   1 -11  -8    0.51    0.67
  -1 -11   8    1.27    0.46
   0 -11  -8    1.21    0.76
   0 -11  -8    0.78    0.72
   0 -11   8    0.44    0.51
   0 -11   8    0.85    0.42
   0 -11   8    0.09    0.66
   1 -11   8    0.53    0.56
  -1 -11  -8    0.74    0.80
   1 -11   8    1.01    0.83
  -1 -11  -8    0.55    0.55
   1 -11   8    0.71    0.45
   1 -11   8   -0.41    0.60
  -2 -11  -8    0.08    0.70
   2 -11   8    0.12    0.49
   2 -11   8    0.05    0.66
  -2 -11  -8   -0.18    0.52
   2 -11   8    0.56    0.53
   3 -11   8    0.97    0.54
   3 -11   8    0.11    0.57
  -3 -11  -8    0.70    0.50
   3 -11   8    0.23    0.47
  -3 -11  -8    1.04    0.50
   3  11   8   -0.46    0.84
  -4 -11  -8    1.08    0.32
  -4 -11  -8    1.20    0.43
   4 -11   8    1.69    0.43
   4 -11   8    1.82    0.42
   4  11   8    1.91    0.95
  -4 -12   8    4.21    0.46
   4 -12  -8    3.60    0.86
   4 -12  -8    4.39    0.51
  -4  12   8    4.61    0.62
   3 -12  -8   -0.62    0.44
  -3 -12   8   -0.35    0.42
   3 -12  -8    0.10    0.67
  -3 -12   8    0.09    0.34
  -2 -12   8    8.87    0.81
   2 -12  -8    5.94    0.91
  -2 -12   8    7.08    0.72
   2 -12  -8    7.79    0.91
  -1 -12   8    1.02    0.75
   1 -12  -8    0.81    0.70
  -1 -12   8    0.54    0.43
   1 -12  -8    0.24    0.65
  -1 -12   8   -0.38    0.46
   0 -12   8    1.07    0.51
   0 -12  -8    0.65    0.70
   0 -12  -8    0.62    0.81
   0 -12   8    0.78    0.70
   0 -12   8    1.10    0.45
   1 -12   8    0.65    0.59
  -1 -12  -8    0.71    0.74
  -1 -12  -8    1.18    0.57
   1 -12   8    0.80    0.44
   1 -12   8   -1.01    0.84
   1 -12   8    0.79    0.63
  -2 -12  -8    2.79    0.62
   2 -12   8    2.06    0.55
   2 -12   8    1.48    0.73
  -2 -12  -8   -0.66    0.69
   2 -12   8    1.47    0.53
  -3 -12  -8   -0.56    0.34
  -3 -12  -8   -0.73    0.42
   3 -12   8   -0.48    0.42
   3 -12   8    0.08    0.43
   3  12   8   -0.67    0.85
   4 -12   8    1.30    0.36
  -4 -12  -8    1.07    0.42
  -4 -12  -8    1.79    0.38
   4 -12   8    0.94    0.33
  -4 -13   8    0.29    0.29
  -3 -13   8    1.28    0.35
   3 -13  -8    1.13    0.64
   3 -13  -8    1.28    0.44
  -3 -13   8    0.94    0.40
   2 -13  -8    0.02    0.57
  -2 -13   8   -0.53    0.46
  -2 -13   8   -0.39    0.41
   2 -13  -8    0.00    0.61
  -1 -13   8    0.29    0.48
  -1 -13   8    0.92    0.43
   1 -13  -8    0.17    0.67
   0 -13   8    0.95    0.72
   0 -13  -8    1.55    0.76
   0 -13   8    0.15    0.49
   0 -13  -8    0.33    0.75
   0 -13   8    0.46    0.42
  -1 -13  -8   17.26    1.32
   1 -13   8   16.89    1.26
   1 -13   8   16.97    1.31
  -1 -13  -8   16.51    1.42
   1 -13   8   18.16    1.20
   2 -13   8    3.36    0.74
   2 -13   8    4.78    0.84
   2 -13   8    3.71    0.66
  -2 -13  -8    4.09    0.69
  -3 -13  -8    2.32    0.49
   3 -13   8    2.94    0.50
  -3 -13  -8    2.42    0.44
   3 -13   8    1.87    0.55
   3  13   8    4.05    1.00
  -4 -13  -8    0.11    0.37
   4 -13   8   -0.04    0.30
  -4 -13  -8    0.43    0.45
   4 -13   8    0.42    0.28
  -3 -14   8    0.07    0.33
   3 -14  -8   -0.31    0.38
   3 -14  -8   -0.40    0.62
  -3 -14   8    0.10    0.27
  -2 -14   8    2.73    0.54
   2 -14  -8    3.91    0.66
  -2 -14   8    2.45    0.52
   2 -14  -8    3.97    0.84
   1 -14  -8    4.49    0.90
  -1 -14   8    5.83    0.64
  -1 -14   8    5.02    0.67
   0 -14   8   12.17    0.89
   0 -14  -8   11.53    1.17
   0 -14   8   11.83    0.94
   0 -14  -8   11.41    1.16
   0 -14   8    8.08    1.17
  -1 -14  -8   -0.05    0.75
   1 -14   8   -0.15    0.58
   1 -14   8    0.05    0.46
  -1 -14  -8    0.46    0.59
   1 -14   8   -0.30    0.60
   2 -14   8    5.07    0.60
   2 -14   8    5.05    0.70
   2 -14   8    5.40    0.67
  -2 -14  -8    6.30    0.65
   3 -14   8    0.05    0.36
  -3 -14  -8    0.26    0.31
  -3 -14  -8   -0.32    0.42
   3 -14   8   -0.56    0.37
   3  14   8    1.30    0.80
  -3 -15   8    2.65    0.40
   3 -15  -8    3.26    0.89
  -3 -15   8    2.90    0.36
  -2 -15   8    0.33    0.32
  -2 -15   8    0.32    0.36
   2 -15  -8    0.52    0.71
   1 -15  -8    0.89    0.67
  -1 -15   8    2.14    0.54
  -1 -15   8    1.45    0.43
   0 -15  -8    0.77    0.62
   0 -15   8    0.75    0.47
   0 -15  -8    1.06    0.62
   0 -15   8    0.15    0.39
   1 -15   8    0.47    0.39
   1 -15   8   -0.86    0.44
  -1 -15  -8    0.44    0.52
   1 -15   8    0.44    0.51
  -1 -15  -8    0.73    0.74
   2 -15   8    0.44    0.63
   2 -15   8   -0.02    0.35
   2 -15   8   -0.21    0.41
  -2 -15  -8    0.06    0.36
   3 -15   8    1.15    0.39
   3 -15   8    1.62    0.40
   3  15   8    2.35    0.89
  -3 -16   8   -0.04    0.22
  -3 -16   8    0.13    0.29
   2 -16  -8    1.30    0.73
  -2 -16   8    0.89    0.29
  -2 -16   8    0.94    0.32
   1 -16  -8    7.92    1.00
  -1 -16   8    7.92    0.66
  -1 -16   8    8.55    0.65
   0 -16   8    1.36    0.37
   0 -16  -8    1.18    0.70
   0 -16   8    1.47    0.42
   0 -16  -8    0.10    0.52
   1 -16   8    4.09    0.62
  -1 -16  -8    5.64    0.67
   1 -16   8    5.91    0.56
   1 -16   8    5.43    0.55
  -2 -16  -8    0.09    0.35
   2 -16   8    1.00    0.36
   2 -16   8   -0.44    0.40
   2  16   8    0.56    0.76
  -3 -16  -8   -0.16    0.27
   2 -17  -8   -0.68    0.81
  -2 -17   8    0.15    0.27
  -2 -17   8   -0.07    0.24
  -1 -17   8    0.51    0.29
   1 -17  -8   -0.22    0.67
  -1 -17   8    0.36    0.30
   0 -17  -8   -0.77    0.64
   0 -17   8    0.39    0.32
   0 -17   8    1.03    0.36
   1 -17   8    1.63    0.40
  -1 -17  -8    1.74    0.50
  -2 -17  -8   -0.02    0.31
   2  17   8   -0.06    0.80
  -1 -18   8    1.71    0.36
  -1 -18   8    1.84    0.34
   1 -18  -8    1.49    0.70
   0 -18  -8    0.66    0.76
   0 -18   8   -0.09    0.32
   0 -18   8    0.11    0.29
   1 -18   8    0.90    0.39
  -1 -18  -8    0.96    0.41
   0 -19   8    0.63    0.38
   0 -19   8    1.61    0.46
  -5   0   9   -0.15    0.34
   5   0  -9    0.82    0.82
  -4   0   9    0.29    0.54
   4   0  -9   -0.44    0.56
   3   0  -9   -0.32    0.62
  -3   0   9   -0.06    0.44
  -2   0   9   -0.37    0.47
   2   0  -9   -0.32    0.62
   1   0  -9    0.08    0.58
   0   0  -9    3.12    0.62
  -1   0  -9    1.02    0.54
   1   0   9    1.13    1.09
   2   0   9    1.67    1.24
   2   0   9    1.22    0.84
  -2   0  -9    0.64    0.54
   2   0   9    0.24    0.45
   3   0   9    0.55    0.87
  -3   0  -9   -0.13    0.75
  -4   0  -9    0.47    0.56
   4   0   9    0.83    0.97
  -5   0  -9    0.20    0.36
   5  -1  -9    0.08    0.78
  -5  -1   9    0.40    0.35
   5   1  -9   -0.24    0.91
  -5   1   9    0.06    0.34
   4  -1  -9    2.14    0.66
  -4  -1   9    1.88    0.55
   4   1  -9    1.50    0.62
  -4   1   9    1.39    0.54
   3  -1  -9    4.16    0.77
  -3  -1   9    2.49    0.65
   3   1  -9    3.15    0.79
  -3   1   9    4.42    0.60
   2  -1  -9    0.70    0.59
  -2  -1   9    0.00    0.41
  -2   1   9    0.90    0.39
   2   1  -9   -0.65    0.66
   1  -1  -9    1.29    0.59
   1   1  -9    2.28    0.71
   0  -1  -9   39.89    2.38
   0   1  -9   37.59    2.37
   1  -1   9   28.82    2.16
  -1  -1  -9   28.79    1.83
  -1   1  -9   27.74    1.81
   2  -1   9    4.16    0.65
   2  -1   9    5.01    0.99
   2  -1   9    5.37    1.19
  -2  -1  -9    4.66    0.65
   2   1   9    5.35    1.10
  -3  -1  -9    2.32    0.72
   3  -1   9    0.68    1.05
   3  -1   9    0.44    0.78
   3   1   9    1.66    0.94
  -3   1  -9   -0.06    0.79
  -4  -1  -9    3.85    0.70
   4  -1   9    4.39    0.94
  -4   1  -9    4.70    0.70
   4   1   9    6.66    1.23
  -5  -1  -9    0.40    0.35
  -5   1  -9   -0.19    0.37
  -5  -2   9   -0.13    0.37
   5  -2  -9   -0.74    0.73
   5   2  -9    1.40    1.01
  -5   2   9    0.50    0.33
   4  -2  -9    2.32    0.69
  -4  -2   9    3.96    0.71
   4   2  -9    2.51    0.70
  -4   2   9    3.25    0.65
   3  -2  -9    6.68    0.83
  -3  -2   9    5.87    0.74
   3  -2  -9    7.19    0.97
   3   2  -9    4.59    0.97
   2  -2  -9   18.89    1.47
  -2  -2   9   19.83    1.40
   2  -2  -9   21.24    1.43
  -2   2   9   20.90    1.39
   1  -2  -9   10.68    1.26
   1  -2  -9   14.71    1.13
   1   2  -9   15.17    1.22
   0  -2  -9    1.06    0.50
   0   2  -9    1.77    0.54
   1  -2   9    7.71    1.64
  -1  -2  -9    5.98    0.85
  -1   2  -9    6.34    0.76
  -2  -2  -9    5.56    0.70
   2  -2   9    5.77    1.23
   2  -2   9    5.46    0.96
   2  -2   9    5.04    0.66
   2   2   9    5.02    1.21
  -3  -2  -9    1.47    0.63
   3  -2   9    1.33    0.69
   3  -2   9    0.57    0.92
  -3   2  -9    0.15    0.84
   3   2   9    0.92    1.04
   4  -2   9    0.35    0.95
   4  -2   9    0.03    0.81
  -4  -2  -9    0.60    0.51
  -4   2  -9   -0.64    0.53
  -5  -2  -9    0.29    0.35
  -5   2  -9    0.06    0.37
   5  -3  -9    1.75    0.77
  -5  -3   9    0.60    0.38
  -5   3   9   -0.07    0.31
   4  -3  -9    1.97    0.64
  -4  -3   9    1.83    0.54
   4   3  -9   -0.03    0.63
  -4   3   9    1.71    0.51
   3  -3  -9    0.32    0.69
   3  -3  -9   -0.25    0.63
  -3  -3   9    0.43    0.50
   3   3  -9   -1.32    0.79
  -2  -3   9    1.24    0.56
   2  -3  -9    1.81    0.63
  -2  -3   9    1.13    0.91
   2  -3  -9    1.41    0.65
  -1  -3   9    0.11    0.51
   1  -3  -9    0.42    0.61
   1  -3  -9    0.61    0.68
   1   3  -9    0.13    0.73
   0  -3  -9   -1.61    0.91
   0  -3  -9   -0.41    0.51
   0   3  -9    0.28    0.63
   1  -3   9    2.47    0.78
  -1  -3  -9    2.84    0.78
   1  -3   9    2.22    0.57
  -1  -3  -9    3.04    0.57
  -1   3  -9    2.94    0.76
   2  -3   9    6.28    1.14
  -2  -3  -9    7.07    0.77
   2  -3   9    8.10    0.73
   2  -3   9    8.63    0.97
   2   3   9    5.93    1.37
   3  -3   9    0.16    0.82
  -3  -3  -9    0.32    0.51
   3  -3   9    1.53    0.73
  -3  -3  -9   -0.14    0.62
   3   3   9    0.06    1.18
  -4  -3  -9    0.62    0.53
   4  -3   9    0.00    0.76
   4  -3   9   -0.11    0.89
  -4   3  -9    0.65    0.50
  -5  -3  -9    0.13    0.31
  -5   3  -9   -0.16    0.40
   5  -4  -9   -1.01    0.78
  -5   4   9   -0.17    0.29
   4  -4  -9    0.57    0.66
   4  -4  -9    0.01    0.60
  -4  -4   9    0.78    0.58
   4   4  -9   -0.19    0.75
  -4   4   9    0.92    0.50
   3  -4  -9    2.48    0.79
  -3  -4   9    3.92    0.70
   3  -4  -9    4.66    0.84
   3   4  -9    3.55    1.03
   2  -4  -9    5.90    0.83
  -2  -4   9    5.77    1.52
  -2  -4   9    4.38    1.01
   2  -4  -9    5.55    0.78
  -2  -4   9    5.08    0.79
  -1  -4   9   -0.21    0.50
  -1  -4   9    1.07    0.60
   1  -4  -9    0.50    0.61
   0  -4  -9    6.38    1.03
   0  -4  -9    4.48    0.76
   0   4  -9    3.79    0.96
  -1  -4  -9    9.69    1.28
   1  -4   9   11.42    0.91
   1  -4   9   10.53    0.97
  -1  -4  -9   11.99    0.92
  -1  -4  -9   11.75    1.17
   1  -4   9   12.12    1.13
   1  -4   9   12.28    1.18
  -1   4  -9   10.51    1.10
   1   4   9    8.90    1.30
  -2  -4  -9   -0.36    0.49
   2  -4   9    0.36    0.47
   2  -4   9    0.20    0.62
   2  -4   9   -0.29    0.77
   2   4   9    1.79    1.20
   2   4   9   -1.37    0.92
  -3  -4  -9    0.43    0.50
  -3  -4  -9   -0.24    0.59
   3  -4   9   -0.13    0.72
   3  -4   9   -0.49    0.61
   3   4   9   -0.20    0.94
   4  -4   9    0.95    0.66
   4  -4   9    0.93    0.75
  -4  -4  -9    0.17    0.52
  -5  -4  -9    0.66    0.31
   5  -4   9    1.02    0.67
  -5   4  -9    0.63    0.43
   5  -5  -9    0.99    0.86
  -5   5   9    0.44    0.31
   4  -5  -9    3.24    0.68
  -4  -5   9    1.68    0.52
   4  -5  -9    2.74    0.76
   4   5  -9    2.51    0.95
  -4   5   9    2.90    0.62
   3  -5  -9   26.13    1.78
   3  -5  -9   26.49    1.74
  -3  -5   9   25.65    1.72
  -2  -5   9    3.39    0.81
  -2  -5   9    3.24    0.82
   2  -5  -9    2.47    0.76
  -2  -5   9    2.03    0.70
   2  -5  -9    2.84    0.77
  -1  -5   9    1.43    0.58
   1  -5  -9    2.68    0.70
  -1  -5   9    2.43    0.60
   1  -5  -9    3.43    0.77
  -1  -5   9    1.78    0.58
   0  -5   9    0.61    0.43
   0  -5   9   -0.31    0.52
   0  -5  -9   -0.74    0.62
   0  -5   9    0.02    0.53
   0   5  -9    1.29    0.91
   1  -5   9   31.88    2.09
  -1  -5  -9   29.41    1.95
   1  -5   9   32.82    2.11
  -1  -5  -9   31.53    2.11
   1  -5   9   30.84    1.99
   1  -5   9   32.45    1.95
   1   5   9   31.43    2.20
  -2  -5  -9    7.86    0.78
   2  -5   9    7.33    0.76
   2  -5   9    8.11    0.94
  -2  -5  -9    7.86    0.89
   2  -5   9    9.07    1.01
   2   5   9    8.97    1.56
  -3  -5  -9    1.86    0.53
   3  -5   9    1.61    0.66
  -3  -5  -9    0.53    0.59
   3  -5   9    1.68    0.53
   3  -5   9    0.85    0.70
   3   5   9    1.72    1.01
  -4  -5  -9   -0.16    0.73
  -4  -5  -9    0.77    0.49
   4  -5   9    0.50    0.62
   4  -5   9   -0.36    0.61
  -5  -5  -9   -0.13    0.29
   5  -5   9    0.56    0.54
  -5   5  -9   -0.23    0.53
  -5   6   9    0.36    0.29
  -4  -6   9   -0.07    0.42
   4  -6  -9    0.05    0.57
   4  -6  -9    0.43    0.50
  -3  -6   9    8.11    0.93
   3  -6  -9    9.03    0.96
   3  -6  -9    8.29    0.93
  -3  -6   9    8.26    1.03
  -2  -6   9   18.63    1.37
  -2  -6   9   18.98    1.34
  -2  -6   9   16.83    1.40
   2  -6  -9   17.96    1.41
   2  -6  -9   19.69    1.37
  -1  -6   9    7.72    0.84
  -1  -6   9    7.09    0.91
   1  -6  -9    7.32    0.87
   1  -6  -9    8.77    0.90
  -1  -6   9    7.82    0.86
   0  -6   9    0.20    0.64
   0  -6  -9    0.14    0.62
   0  -6   9    0.39    0.50
   0  -6  -9    0.31    0.67
   0  -6   9    0.21    0.54
   0   6  -9    1.15    1.53
   1  -6   9    1.78    0.45
   1  -6   9    2.88    0.78
   1  -6   9    1.49    0.72
  -1  -6  -9    2.10    0.74
   1  -6   9    1.78    0.59
  -1  -6  -9    1.72    0.50
   1   6   9    1.56    1.03
   2  -6   9   13.22    1.14
  -2  -6  -9   12.57    0.99
   2  -6   9   12.71    1.13
   2  -6   9   13.87    1.02
  -2  -6  -9   11.89    1.13
   3  -6   9    0.45    0.64
  -3  -6  -9    1.26    0.56
   3  -6   9    1.45    0.57
  -3  -6  -9    0.94    0.59
   3  -6   9    0.55    0.63
   3   6   9    2.29    0.84
  -4  -6  -9   -0.08    0.66
  -4  -6  -9   -0.05    0.39
   4  -6   9    0.31    0.50
   4  -6   9   -0.17    0.57
   5  -6   9   -0.33    0.46
  -5  -6  -9    0.72    0.30
  -5   7   9    0.37    0.30
   4  -7  -9    2.26    0.55
   4  -7  -9    0.40    0.62
  -4   7   9    1.12    0.44
  -3  -7   9    4.30    0.82
   3  -7  -9    4.60    0.83
   3  -7  -9    4.84    0.79
  -3  -7   9    4.26    0.80
  -3  -7   9    4.60    1.37
  -2  -7   9    0.14    0.53
   2  -7  -9    1.45    0.69
   2  -7  -9   -0.15    0.52
  -2  -7   9    0.07    0.63
  -2  -7   9    0.73    0.60
  -1  -7   9   12.09    1.03
   1  -7  -9   11.99    1.09
  -1  -7   9   13.45    1.17
  -1  -7   9   14.23    1.06
   1  -7  -9   13.42    1.14
   0  -7   9   47.44    2.83
   0  -7  -9   49.11    2.93
   0  -7   9   45.31    3.00
   0  -7   9   48.47    2.82
   0  -7  -9   46.15    2.87
   0  -7   9   46.12    2.86
   1  -7   9   47.55    2.94
   1  -7   9   46.70    2.90
   1  -7   9   48.45    2.84
   1  -7   9   50.53    2.98
  -1  -7  -9   51.15    2.88
  -1  -7  -9   46.40    2.96
   1   7   9   44.47    3.13
   2  -7   9    9.28    0.80
  -2  -7  -9    8.23    0.98
  -2  -7  -9    8.89    0.82
   2  -7   9    8.92    1.03
   2  -7   9    9.17    1.04
   3  -7   9    0.66    0.59
  -3  -7  -9   -0.32    0.54
  -3  -7  -9    0.84    0.54
   3  -7   9    0.75    0.55
   3  -7   9   -0.69    0.59
   3   7   9   -0.50    0.82
  -4  -7  -9   -0.78    0.57
   4  -7   9    0.09    0.52
  -4  -7  -9    0.00    0.35
   4  -7   9   -0.11    0.47
   4   7   9    0.18    0.90
   4  -8  -9    3.37    0.75
   4  -8  -9    4.07    0.57
  -4   8   9    3.45    0.53
   3  -8  -9    6.26    0.84
  -3  -8   9    3.45    0.90
   3  -8  -9    6.10    0.82
  -3  -8   9    5.80    0.95
  -3  -8   9    6.58    0.79
   2  -8  -9    3.65    0.83
  -2  -8   9    3.56    0.68
   2  -8  -9    2.79    0.68
  -2  -8   9    4.96    0.89
  -2  -8   9    2.98    0.73
  -1  -8   9    0.52    0.45
  -1  -8   9    1.46    0.66
   1  -8  -9    1.38    0.63
   1  -8  -9    1.82    0.71
  -1  -8   9    1.41    0.52
   0  -8  -9    3.88    0.82
   0  -8   9    1.79    0.53
   0  -8   9    3.04    0.62
   0  -8   9    2.33    0.47
   1  -8   9   18.62    1.27
  -1  -8  -9   18.93    1.33
   1  -8   9   19.01    1.50
  -1  -8  -9   19.74    1.47
   1  -8   9   18.90    1.36
   1  -8   9   19.90    1.40
   1   8   9   16.96    1.82
   2  -8   9    1.37    0.61
   2  -8   9    0.98    0.50
  -2  -8  -9    1.18    0.69
   2  -8   9    0.25    0.65
  -2  -8  -9    1.61    0.53
  -3  -8  -9    0.09    0.53
   3  -8   9   -0.35    0.58
  -3  -8  -9    0.28    0.54
   3  -8   9    1.60    0.56
   3  -8   9    0.69    0.62
   3   8   9    0.93    0.88
  -4  -8  -9    0.61    0.47
   4  -8   9    0.75    0.43
   4  -8   9    0.63    0.47
  -4  -8  -9    0.49    0.38
   4  -9  -9   -0.50    0.60
  -4  -9   9    0.34    0.49
   4  -9  -9   -0.04    0.42
  -4   9   9   -0.22    0.36
  -3  -9   9    4.35    0.84
   3  -9  -9    4.66    0.77
   3  -9  -9    4.03    0.80
  -3  -9   9    4.82    0.71
  -2  -9   9    8.71    0.90
   2  -9  -9   11.28    1.08
  -2  -9   9    9.33    1.02
  -2  -9   9    7.97    0.84
   1  -9  -9    6.16    0.79
  -1  -9   9    5.54    0.95
  -1  -9   9    5.20    0.70
  -1  -9   9    5.02    0.64
   1  -9  -9    6.81    0.95
   0  -9   9   15.70    1.28
   0  -9  -9   15.03    1.32
   0  -9  -9   17.17    1.39
   0  -9   9   15.90    1.11
  -1  -9  -9    4.00    0.77
   1  -9   9    5.61    0.75
  -1  -9  -9    6.54    0.96
   1  -9   9    4.23    0.59
   1  -9   9    4.65    0.99
   1  -9   9    4.50    0.82
   2  -9   9    1.87    0.68
   2  -9   9    1.51    0.60
   2  -9   9    1.50    0.50
  -2  -9  -9    2.20    0.63
  -2  -9  -9    2.02    0.68
   3  -9   9    1.59    0.56
  -3  -9  -9    1.36    0.56
  -3  -9  -9    0.65    0.55
   3  -9   9    0.49    0.58
   3  -9   9    0.65    0.60
   3   9   9    1.91    0.86
   4  -9   9   -0.63    0.38
   4  -9   9    0.10    0.42
  -4  -9  -9    0.19    0.44
  -4  -9  -9    0.09    0.35
   4   9   9    0.97    0.92
   4 -10  -9    0.40    0.66
  -4 -10   9    1.52    0.45
   4 -10  -9    1.83    0.44
  -4  10   9    1.31    0.42
   3 -10  -9   -0.20    0.57
  -3 -10   9    0.43    0.46
  -3 -10   9   -0.11    0.58
   3 -10  -9    0.53    0.58
   2 -10  -9    8.23    1.01
  -2 -10   9   11.63    1.12
   2 -10  -9    9.29    0.96
  -2 -10   9    9.19    0.88
  -2 -10   9   10.20    0.83
  -1 -10   9    1.08    0.44
  -1 -10   9    1.15    0.51
  -1 -10   9    1.73    0.68
   1 -10  -9    0.51    0.70
   0 -10  -9    3.42    0.83
   0 -10   9    2.12    0.61
   0 -10   9    3.11    0.82
   0 -10   9    2.95    0.56
   0 -10  -9    3.69    0.92
   1 -10   9    0.94    0.55
   1 -10   9    1.23    0.44
   1 -10   9    1.21    0.58
   1 -10   9    0.10    0.75
  -1 -10  -9    0.45    0.76
  -1 -10  -9    0.61    0.54
   2 -10   9    2.47    0.60
   2 -10   9    1.13    0.67
  -2 -10  -9    0.99    0.50
   2 -10   9    2.05    0.58
  -2 -10  -9    1.53    0.72
  -3 -10  -9    0.85    0.50
   3 -10   9    0.81    0.59
   3 -10   9    0.22    0.55
   3 -10   9    0.44    0.51
  -3 -10  -9   -0.76    0.54
   3  10   9    1.46    0.84
   4 -10   9    0.31    0.37
  -4 -10  -9   -0.42    0.42
  -4 -10  -9   -0.55    0.30
   4 -10   9   -0.26    0.33
  -4  10  -9    0.07    0.48
   4  10   9    2.92    1.05
   4 -11  -9    0.61    0.70
  -4 -11   9    1.25    0.40
  -4  11   9    1.36    0.44
   3 -11  -9    0.40    0.52
  -3 -11   9    1.16    0.39
  -3 -11   9   -0.69    0.43
   3 -11  -9    0.20    0.61
  -3  11   9   -0.28    0.46
   2 -11  -9    0.31    0.60
   2 -11  -9    0.20    0.62
  -2 -11   9    0.01    0.43
  -2 -11   9   -0.32    0.50
  -2 -11   9   -0.95    0.89
  -1 -11   9    2.58    0.70
   1 -11  -9    1.21    0.71
  -1 -11   9    1.68    0.53
  -1 -11   9    2.31    0.47
   0 -11   9    1.29    0.66
   0 -11   9    1.34    0.42
   0 -11   9    0.90    0.46
   0 -11  -9    0.30    0.68
   0 -11  -9    0.48    0.79
   1 -11   9    8.81    0.73
  -1 -11  -9    5.63    0.83
   1 -11   9    7.26    1.04
   1 -11   9    9.02    0.83
  -1 -11  -9    6.66    1.15
   1 -11   9    8.86    0.92
   2 -11   9    2.57    0.68
  -2 -11  -9    1.10    0.55
   2 -11   9    1.23    0.70
   2 -11   9    1.54    0.49
  -2 -11  -9    0.30    0.70
   3 -11   9    1.10    0.50
  -3 -11  -9   -0.28    0.47
  -3 -11  -9    0.24    0.42
   3 -11   9    0.71    0.46
   3 -11   9    1.06    0.44
   3  11   9    0.30    0.81
   4 -11   9    0.22    0.33
  -4 -11  -9   -0.23    0.43
   4 -11   9    0.71    0.31
  -4 -11  -9    0.32    0.33
  -4 -12   9    0.08    0.39
   4 -12  -9    0.62    0.72
  -4  12   9    0.57    0.63
   3 -12  -9   -0.66    0.63
  -3 -12   9   -0.08    0.33
   3 -12  -9    0.08    0.41
  -3 -12   9   -0.28    0.38
  -2 -12   9    0.24    0.42
  -2 -12   9    0.20    0.49
   2 -12  -9    0.07    0.60
   2 -12  -9    0.26    0.63
  -1 -12   9   39.23    2.43
  -1 -12   9   39.72    2.33
   1 -12  -9   34.74    2.47
  -1 -12   9   38.17    2.30
   0 -12   9    8.96    0.74
   0 -12   9    8.08    0.96
   0 -12  -9    8.42    0.96
   0 -12   9    7.23    0.76
   0 -12  -9    7.76    1.09
   1 -12   9   24.68    1.52
   1 -12   9   23.19    1.58
  -1 -12  -9   23.32    1.72
   1 -12   9   22.71    1.63
  -1 -12  -9   24.36    1.61
   2 -12   9    0.68    0.71
   2 -12   9    1.21    0.51
   2 -12   9    1.11    0.55
  -2 -12  -9    0.86    0.51
  -3 -12  -9   -0.28    0.39
   3 -12   9    0.21    0.40
   3 -12   9   -0.14    0.40
  -3 -12  -9    0.64    0.37
   3  12   9   -0.35    0.77
  -4 -12  -9    0.73    0.44
  -4 -12  -9    0.20    0.32
   4 -12   9    0.12    0.30
   4 -12   9    0.62    0.29
   3 -13  -9    0.44    0.63
  -3 -13   9    0.20    0.36
  -3 -13   9    0.86    0.32
   2 -13  -9    3.44    0.83
  -2 -13   9    5.00    0.60
  -2 -13   9    4.45    0.63
  -1 -13   9    1.87    0.48
   1 -13  -9    1.76    0.73
  -1 -13   9    1.06    0.43
  -1 -13   9   -0.01    0.79
   0 -13   9   10.79    0.86
   0 -13   9   11.11    1.08
   0 -13   9   11.53    0.90
   0 -13  -9   11.02    1.16
   0 -13  -9    9.82    1.13
   1 -13   9    1.14    0.47
  -1 -13  -9    1.92    0.78
   1 -13   9    1.90    0.59
   1 -13   9    1.46    0.61
  -1 -13  -9    2.17    0.62
   2 -13   9   -0.71    0.55
   2 -13   9    0.38    0.51
   2 -13   9    0.18    0.40
  -2 -13  -9    0.15    0.48
   3 -13   9   -0.11    0.41
  -3 -13  -9   -0.38    0.32
  -3 -13  -9   -0.67    0.38
   3 -13   9   -0.31    0.37
   3 -14  -9    0.36    0.67
  -3 -14   9    0.05    0.27
  -3 -14   9    0.35    0.32
  -2 -14   9    0.72    0.34
  -2 -14   9    0.81    0.36
   2 -14  -9    1.27    0.69
   1 -14  -9    2.15    0.72
  -1 -14   9    2.16    0.50
  -1 -14   9    2.09    0.50
   0 -14   9    0.94    0.47
   0 -14  -9    1.43    0.74
   0 -14   9    0.08    0.70
   0 -14   9    0.77    0.38
   0 -14  -9    0.03    0.63
  -1 -14  -9    3.00    0.90
  -1 -14  -9    3.33    0.72
   1 -14   9    2.19    0.60
   1 -14   9    2.95    0.62
   1 -14   9    3.21    0.56
  -2 -14  -9    0.03    0.35
   2 -14   9   -0.33    0.47
   2 -14   9    0.16    0.43
   2 -14   9   -0.07    0.38
   3 -14   9    0.32    0.35
  -3 -14  -9   -0.13    0.30
   3 -14   9   -0.57    0.37
   3  14   9   -1.53    0.85
  -3 -15   9    0.92    0.33
  -3 -15   9    1.38    0.30
   3 -15  -9   -0.03    0.80
  -2 -15   9   -0.06    0.27
  -2 -15   9    0.03    0.32
   2 -15  -9   -0.14    0.67
  -1 -15   9    1.93    0.37
  -1 -15   9    1.91    0.47
   1 -15  -9    1.33    0.72
   0 -15  -9   -0.01    0.63
   0 -15   9    1.12    0.62
   0 -15   9    1.07    0.34
   0 -15  -9    0.09    0.53
   0 -15   9    1.41    0.40
   1 -15   9    1.97    0.51
   1 -15   9    1.53    0.41
   1 -15   9    1.49    0.51
  -1 -15  -9    2.20    0.58
   2 -15   9    1.88    0.49
  -2 -15  -9    2.72    0.47
   2 -15   9    2.36    0.41
   2  15   9    2.84    0.89
  -3 -15  -9    2.33    0.38
   3 -15   9    1.44    0.49
   3 -15   9    1.49    0.38
  -2 -16   9    0.86    0.26
  -2 -16   9    0.90    0.31
   2 -16  -9    0.22    0.73
  -1 -16   9    1.59    0.37
  -1 -16   9    1.47    0.39
   1 -16  -9    2.33    0.71
   0 -16   9   -0.64    0.37
   0 -16   9    0.13    0.31
   0 -16  -9   -0.12    0.67
  -1 -16  -9    0.05    0.40
   1 -16   9    0.24    0.34
   1 -16   9   -0.49    0.43
   1 -16   9    0.21    0.37
  -2 -16  -9    0.44    0.33
   2 -16   9    0.64    0.34
   2 -16   9   -0.49    0.39
   2  16   9   -0.23    0.80
   2 -17  -9    1.09    0.77
  -2 -17   9    1.20    0.27
  -2 -17   9    0.66    0.27
  -1 -17   9    1.70    0.34
  -1 -17   9    1.78    0.36
   1 -17  -9    1.25    0.67
   0 -17   9   -0.22    0.31
   0 -17   9    0.21    0.30
   0 -17  -9   -0.22    0.72
   1 -17   9    2.22    0.37
  -1 -17  -9    3.01    0.51
  -2 -17  -9    0.55    0.30
  -1 -18   9    0.06    0.25
  -1 -18   9    0.13    0.26
   1 -18  -9    0.60    0.77
   0 -18   9    0.38    0.28
   0 -18   9    0.55    0.29
   1 -18   9   -0.31    0.39
  -1 -18  -9    1.37    0.48
  -5   0  10    0.81    0.34
   4   0 -10    0.09    0.64
  -4   0  10    1.60    0.51
   3   0 -10    3.02    0.94
  -3   0  10    4.77    0.71
  -2   0  10    1.27    0.47
  -1   0  10    1.24    0.61
   0   0 -10    4.89    0.84
   0   0  10    1.44    0.68
   1   0  10   45.98    2.76
   1   0  10   42.66    2.66
  -1   0 -10   45.19    2.80
   2   0  10   20.86    1.42
   2   0  10   23.20    1.99
  -2   0 -10   22.50    1.45
   2   0  10   21.20    1.67
   3   0  10   18.30    1.57
  -3   0 -10   19.23    1.41
  -4   0 -10    0.96    0.52
   4   0  10    1.33    0.77
  -5   0 -10    0.00    0.34
  -5  -1  10   -0.30    0.34
  -5   1  10    0.32    0.30
  -4  -1  10    0.21    0.50
   4  -1 -10   -0.29    0.66
  -4   1  10    0.11    0.49
   4   1 -10    0.84    0.66
  -3  -1  10   29.68    1.81
   3  -1 -10   28.69    1.90
   3   1 -10   25.93    1.92
  -3   1  10   28.78    1.81
   2  -1 -10    4.42    0.99
  -2  -1  10    6.03    0.72
  -2   1  10    5.36    0.67
  -1  -1  10   11.90    1.05
  -1  -1  10   11.72    1.15
  -1   1  10   11.38    1.06
   0  -1  10   -0.71    0.77
   0  -1 -10   -0.46    0.62
   0  -1  10    0.28    0.49
   0   1 -10   -0.85    0.67
   0   1  10   -0.36    0.63
   1  -1  10    4.24    1.03
  -1  -1 -10    3.37    0.88
   1  -1  10    6.01    0.71
  -1   1 -10    5.39    1.02
   1   1  10    3.01    0.81
   2  -1  10    3.01    0.60
   2  -1  10    3.34    0.81
   2  -1  10    2.84    1.13
   2   1  10    1.43    0.87
  -2   1 -10    2.34    0.63
   3  -1  10    2.10    1.08
   3  -1  10    5.33    1.01
  -3  -1 -10    3.52    0.80
  -3   1 -10    3.04    0.77
   3   1  10    1.81    0.95
   4  -1  10    3.87    0.88
  -4  -1 -10    5.57    0.68
   4   1  10    5.21    1.10
  -4   1 -10    5.56    0.71
  -5  -1 -10    0.56    0.31
  -5   1 -10    0.15    0.34
  -5  -2  10    0.81    0.35
  -5   2  10    0.16    0.29
  -4  -2  10    4.30    0.66
   4  -2 -10    4.71    0.78
   4   2 -10    2.95    0.89
  -4   2  10    3.63    0.63
   3  -2 -10    9.93    1.08
  -3  -2  10   10.62    0.93
   3   2 -10    8.92    1.16
  -3   2  10   10.01    0.89
   2  -2 -10    0.58    0.78
  -2  -2  10    0.41    0.51
  -2   2  10   -0.73    0.48
  -1  -2  10    0.19    0.57
  -1  -2  10   -0.21    0.77
  -1  -2  10    0.25    0.54
  -1   2  10    0.40    0.65
   0  -2  10    2.84    0.63
   0  -2 -10    2.25    0.66
   0  -2  10    3.43    0.59
   0  -2  10    2.70    0.67
   0   2  10    2.52    0.76
   0   2 -10    1.82    0.77
   1  -2  10   10.74    0.90
  -1  -2 -10    9.95    1.25
   1  -2  10    8.65    1.19
  -1  -2 -10   10.46    0.83
   1  -2  10   10.38    1.11
   1   2  10    9.89    1.21
  -1   2 -10   10.38    1.13
   2  -2  10    1.89    0.48
  -2  -2 -10    1.91    0.53
   2  -2  10    2.16    0.91
   2  -2  10    2.59    0.68
   2   2  10    2.94    0.90
   3  -2  10   21.89    1.55
   3  -2  10   21.97    1.69
  -3  -2 -10   21.54    1.46
  -3  -2 -10   21.14    1.38
   3   2  10   17.11    1.76
  -3   2 -10   20.02    1.57
   4  -2  10   -0.07    0.62
  -4  -2 -10   -0.26    0.48
  -4   2 -10    0.18    0.46
  -5  -2 -10   -0.17    0.30
  -5   2 -10    0.29    0.34
  -5  -3  10    0.14    0.38
  -5   3  10   -0.28    0.29
   4  -3 -10   -0.13    0.65
  -4  -3  10    0.67    0.53
  -4   3  10    0.09    0.48
   3  -3 -10   15.75    1.33
  -3  -3  10   15.77    1.16
  -3   3  10   14.75    1.13
  -2  -3  10   11.73    1.22
  -2  -3  10   13.59    1.08
   2  -3 -10   14.40    1.23
  -2   3  10   12.99    1.05
   1  -3 -10    3.66    0.93
  -1  -3  10    5.17    0.76
  -1  -3  10    4.85    0.78
  -1  -3  10    0.74    1.05
  -1   3  10    3.26    0.88
   0  -3  10   13.28    1.02
   0  -3  10   13.29    1.11
   0  -3  10   11.75    1.23
   0  -3 -10   12.38    0.98
   0   3 -10   12.93    1.33
   1  -3  10    0.86    0.74
   1  -3  10   -0.14    0.52
   1  -3  10    1.06    0.52
   1  -3  10    0.97    0.72
  -1  -3 -10    0.34    0.41
   1   3  10   -0.10    0.76
   2  -3  10    6.41    0.97
  -2  -3 -10    8.30    0.78
   2  -3  10    5.89    1.07
   2  -3  10    7.12    0.74
   2   3  10    5.60    1.24
   3  -3  10    1.96    0.87
   3  -3  10    4.04    0.88
  -3  -3 -10    3.06    0.74
  -3  -3 -10    2.24    0.56
   3   3  10    1.91    1.15
  -3   3 -10    2.78    0.82
   4  -3  10    0.45    0.72
  -4  -3 -10    0.30    0.44
   4  -3  10   -0.26    0.59
  -4   3 -10   -0.27    0.37
  -5  -3 -10    0.52    0.30
  -5   3 -10   -0.04    0.36
  -5   4  10    1.53    0.38
   4  -4 -10   -0.79    0.61
  -4  -4  10   -1.06    0.46
  -4   4  10    0.31    0.47
  -3  -4  10    7.18    0.87
   3  -4 -10    8.50    0.95
   3  -4 -10    7.06    1.03
  -3   4  10    9.19    0.81
  -2  -4  10    7.92    1.01
   2  -4 -10    9.29    1.02
   2  -4 -10    9.85    0.89
  -2  -4  10    9.21    0.90
  -2   4  10    9.45    0.89
  -1  -4  10   16.59    1.16
   1  -4 -10   14.41    1.30
  -1  -4  10   15.55    1.25
  -1  -4  10   15.63    1.16
  -1  -4  10   13.04    1.76
  -1   4  10   15.68    1.29
   0  -4  10   86.45    4.91
   0  -4 -10   79.49    4.91
   0  -4  10   86.81    4.83
   0  -4  10   80.03    4.86
   0  -4  10   82.24    4.82
   0  -4 -10   81.94    4.83
   1  -4  10   -0.06    0.73
   1  -4  10    0.43    0.63
   1  -4  10   -0.52    0.47
   1  -4  10    0.26    0.51
  -1  -4 -10    0.70    0.44
   1   4  10   -0.58    0.77
   2  -4  10    2.35    0.52
  -2  -4 -10    2.13    0.52
   2  -4  10    2.03    0.67
   2  -4  10    2.31    0.81
  -2  -4 -10    1.31    0.56
   2   4  10    3.16    1.03
  -3  -4 -10   -0.02    0.52
   3  -4  10    0.09    0.74
  -3  -4 -10    0.12    0.55
   3  -4  10   -0.60    0.62
   3   4  10   -0.05    1.26
   4  -4  10    2.69    0.73
  -4  -4 -10    1.92    0.83
  -4  -4 -10    1.10    0.43
   4  -4  10    2.06    0.60
  -5  -4 -10   -0.06    0.29
  -5   4 -10    0.10    0.41
  -5   5  10    0.17    0.29
   4  -5 -10    0.06    0.64
  -4  -5  10    0.21    0.44
  -4   5  10    0.18    0.38
   3  -5 -10    1.85    0.64
   3  -5 -10    1.32    0.64
  -3  -5  10    1.60    0.59
  -3   5  10    1.37    0.44
  -2  -5  10   -0.05    0.58
   2  -5 -10   -0.57    0.72
  -2  -5  10    0.61    0.62
  -2  -5  10   -0.38    0.67
   2  -5 -10    0.61    0.58
  -2   5  10    0.19    0.49
   1  -5 -10   16.98    1.37
  -1  -5  10   16.34    1.24
  -1  -5  10   17.58    1.26
  -1  -5  10   16.84    1.23
  -1   5  10   17.25    1.40
   0  -5  10    1.08    0.87
   0  -5 -10    0.52    0.61
   0  -5 -10    1.55    0.85
   0  -5  10    0.94    0.54
   0  -5  10    1.10    0.51
   0  -5  10    0.63    0.45
   1  -5  10    4.46    0.95
   1  -5  10    6.27    0.67
   1  -5  10    4.81    0.71
   1  -5  10    5.10    1.00
  -1  -5 -10    6.77    0.72
  -1  -5 -10    3.54    1.16
   1   5  10    5.68    1.13
   2  -5  10    3.78    0.64
  -2  -5 -10    4.32    0.63
   2  -5  10    4.25    0.89
  -2  -5 -10    4.48    0.80
   2  -5  10    5.68    0.87
   2   5  10    5.59    1.21
  -3  -5 -10    4.04    0.71
   3  -5  10    1.49    0.72
   3  -5  10    4.41    0.81
  -3  -5 -10    3.39    0.71
   4  -5  10    1.20    0.54
  -4  -5 -10   -0.24    0.67
  -4  -5 -10    0.33    0.41
   4  -5  10    0.82    0.57
  -5   6  10    0.79    0.30
  -4  -6  10    0.52    0.42
   4  -6 -10    0.93    0.66
  -4   6  10    0.86    0.40
  -3  -6  10    0.77    0.59
   3  -6 -10    0.55    0.66
   3  -6 -10    0.41    0.61
  -3   6  10    0.15    0.54
   2  -6 -10   14.07    1.24
  -2  -6  10   13.84    1.11
  -2  -6  10   13.12    1.13
  -2  -6  10   13.45    1.08
   2  -6 -10   13.41    1.10
  -2   6  10   13.23    1.10
  -1  -6  10    4.78    0.82
   1  -6 -10    4.16    0.94
  -1  -6  10    2.51    0.69
  -1  -6  10    3.61    0.70
  -1   6  10    4.90    1.18
   0  -6  10    8.46    1.17
   0  -6  10    9.24    0.83
   0  -6 -10    8.89    1.13
   0  -6  10    9.50    0.83
   0  -6 -10    9.20    0.92
   0  -6  10    7.63    0.96
   1  -6  10    6.96    0.68
   1  -6  10    7.83    0.82
   1  -6  10    6.85    1.04
   1  -6  10    8.58    0.93
  -1  -6 -10    7.06    1.18
  -1  -6 -10    8.57    0.75
   1   6  10    7.73    1.14
   2  -6  10   15.13    1.08
  -2  -6 -10   11.92    1.16
   2  -6  10   13.97    1.19
   2  -6  10   14.17    1.22
  -2  -6 -10   14.74    1.07
   2   6  10   15.40    1.77
  -3  -6 -10   -0.40    0.54
   3  -6  10    0.81    0.61
   3  -6  10   -1.13    0.62
  -3  -6 -10    0.46    0.55
   3  -6  10    0.10    0.49
  -4  -6 -10    0.64    0.39
   4  -6  10    0.72    0.54
  -4  -6 -10    3.58    0.67
   4  -6  10    1.51    0.50
  -4  -7  10    0.89    0.44
   4  -7 -10    0.38    0.65
  -4   7  10    2.08    0.50
   3  -7 -10    0.65    0.64
  -3  -7  10   -0.49    0.62
  -3  -7  10    0.66    0.60
   3  -7 -10   -0.29    0.61
  -3   7  10   -0.13    0.44
  -2  -7  10    0.49    0.52
   2  -7 -10   -0.11    0.56
  -2  -7  10   -0.21    0.59
  -2  -7  10    1.27    0.58
   2  -7 -10    1.17    0.73
  -2   7  10    0.48    0.58
  -1  -7  10    5.77    0.69
  -1  -7  10    4.14    0.88
  -1  -7  10    5.66    0.70
   1  -7 -10    6.14    0.98
   0  -7 -10   27.02    1.81
   0  -7  10   26.85    1.70
   0  -7 -10   28.60    1.91
   0  -7  10   26.68    1.77
   0  -7  10   26.79    1.92
   0  -7  10   26.86    1.74
   1  -7  10    1.16    0.73
   1  -7  10    0.00    0.44
   1  -7  10   -0.07    0.52
  -1  -7 -10   -0.77    0.80
  -1  -7 -10   -0.34    0.46
   1  -7  10    0.13    0.52
   1   7  10   -0.23    0.83
  -2  -7 -10    1.43    0.50
   2  -7  10    1.86    0.64
   2  -7  10    2.21    0.55
   2  -7  10    3.02    0.82
  -2  -7 -10    1.99    0.66
   3  -7  10   -0.09    0.60
   3  -7  10    0.09    0.52
  -3  -7 -10   -0.01    0.53
   3  -7  10    0.01    0.61
  -3  -7 -10   -0.07    0.58
   3   7  10    0.39    0.77
   4  -7  10   -0.81    0.48
  -4  -7 -10    0.46    0.51
  -4  -7 -10    0.56    0.36
   4  -7  10    0.87    0.45
   4  -8 -10    0.36    0.64
  -4   8  10    0.05    0.38
  -3  -8  10   -0.49    0.62
   3  -8 -10    0.27    0.61
  -3  -8  10    0.36    0.57
  -3  -8  10    0.55    0.75
   3  -8 -10    1.02    0.65
  -3   8  10    0.18    0.51
  -2  -8  10   16.14    1.22
   2  -8 -10   17.58    1.31
   2  -8 -10   18.82    1.43
  -2  -8  10   17.42    1.34
  -2  -8  10   17.30    1.26
  -2   8  10   16.99    1.35
  -1  -8  10    0.01    0.42
  -1  -8  10   -0.23    0.46
  -1  -8  10   -0.62    0.62
   1  -8 -10   -0.02    0.72
   0  -8  10    3.07    0.65
   0  -8 -10    4.06    0.94
   0  -8 -10    2.38    0.65
   0  -8  10    2.13    0.61
   0  -8  10    2.04    0.57
   1  -8  10    4.84    0.69
   1  -8  10    6.12    0.80
  -1  -8 -10    5.69    1.06
  -1  -8 -10    5.57    0.70
   1  -8  10    5.46    0.61
   1  -8  10    6.28    0.98
   1   8  10    4.19    1.18
   2  -8  10    1.87    0.63
   2  -8  10    0.75    0.66
  -2  -8 -10    2.07    0.69
   2  -8  10    1.32    0.48
  -2  -8 -10    1.72    0.54
   3  -8  10    4.73    0.80
   3  -8  10    3.05    0.75
   3  -8  10    3.69    0.65
  -3  -8 -10    3.12    0.69
  -3  -8 -10    3.12    0.72
   3   8  10    4.67    0.92
  -4  -8 -10    0.70    0.35
  -4  -8 -10    0.51    0.44
   4  -8  10    0.21    0.42
   4  -8  10    0.23    0.43
   4  -9 -10    2.42    0.80
  -4   9  10    2.49    0.50
   3  -9 -10   -0.01    0.59
  -3  -9  10   -0.38    0.52
  -3  -9  10   -0.39    0.64
   3  -9 -10    0.06    0.60
  -3  -9  10    0.15    0.58
  -3   9  10   -0.11    0.53
   2  -9 -10    3.48    0.74
  -2  -9  10    3.91    0.89
  -2  -9  10    2.96    0.67
  -2  -9  10    4.09    0.62
   2  -9 -10    3.04    0.83
  -2   9  10    3.77    0.99
   1  -9 -10   18.21    1.45
  -1  -9  10   16.78    1.18
  -1  -9  10   16.87    1.20
  -1  -9  10   17.55    1.32
   0  -9 -10    1.84    0.69
   0  -9  10    0.11    0.58
   0  -9  10    1.00    0.49
   0  -9  10    0.78    0.44
   0  -9 -10    1.68    0.81
  -1  -9 -10    8.53    1.19
   1  -9  10    9.39    0.79
   1  -9  10    9.01    1.10
   1  -9  10    8.33    0.95
  -1  -9 -10    9.71    0.90
   1  -9  10    7.98    0.85
   1   9  10   10.17    1.41
  -2  -9 -10    5.74    0.71
  -2  -9 -10    6.01    0.91
   2  -9  10    6.26    0.86
   2  -9  10    6.37    0.91
   2  -9  10    5.60    0.68
   3  -9  10    1.57    0.59
  -3  -9 -10    1.47    0.54
   3  -9  10    2.60    0.58
   3  -9  10    0.56    0.57
  -3  -9 -10    1.83    0.53
   3   9  10    1.72    0.75
  -4  -9 -10    0.29    0.42
   4  -9  10   -0.03    0.35
   4  -9  10   -0.14    0.37
  -4  -9 -10    0.91    0.34
   4 -10 -10    0.21    0.75
  -4  10  10    0.61    0.39
   3 -10 -10    1.46    0.70
   3 -10 -10    2.41    0.64
  -3 -10  10    2.61    0.56
  -3 -10  10    1.97    0.52
  -3  10  10    2.21    0.61
  -2 -10  10    2.03    0.71
  -2 -10  10    1.39    0.52
  -2 -10  10    2.01    0.48
   2 -10 -10    2.24    0.72
   2 -10 -10    1.46    0.59
   1 -10 -10   -0.03    0.74
  -1 -10  10    0.39    0.41
  -1 -10  10    0.20    0.58
  -1 -10  10    0.22    0.44
   0 -10 -10   18.44    1.43
   0 -10  10   19.29    1.31
   0 -10  10   19.48    1.41
   0 -10  10   18.63    1.27
   0 -10 -10   20.08    1.57
  -1 -10 -10   11.25    0.99
   1 -10  10   10.40    1.13
   1 -10  10   11.42    1.02
   1 -10  10   11.10    0.86
   1 -10  10   10.37    0.94
  -1 -10 -10   11.76    1.29
  -2 -10 -10    7.25    0.76
   2 -10  10    6.59    0.72
   2 -10  10    6.26    0.83
   2 -10  10    5.80    0.92
  -3 -10 -10    5.90    0.59
   3 -10  10    4.69    0.63
   3 -10  10    6.03    0.59
  -3 -10 -10    3.48    0.66
   3 -10  10    4.46    0.64
   3  10  10    3.46    0.93
  -4 -10 -10   -0.14    0.30
   4 -10  10    0.25    0.34
   4 -10  10   -0.12    0.33
  -4 -10 -10   -0.27    0.43
  -4  10 -10    0.06    0.49
   4 -11 -10    1.18    0.85
  -4  11  10    1.01    0.56
   3 -11 -10    1.32    0.67
  -3 -11  10    1.49    0.45
  -3 -11  10    1.62    0.39
  -3  11  10    1.58    0.59
  -2 -11  10    0.08    0.43
   2 -11 -10    0.71    0.69
  -2 -11  10    1.11    0.78
  -2 -11  10    0.32    0.50
   1 -11 -10    2.91    0.90
  -1 -11  10    1.68    0.71
  -1 -11  10    2.28    0.55
  -1 -11  10    1.50    0.51
   0 -11 -10    0.65    0.66
   0 -11 -10    0.43    0.87
   0 -11  10    0.21    0.57
   0 -11  10    0.22    0.41
   0 -11  10    0.60    0.47
   1 -11  10    0.09    0.83
   1 -11  10    2.03    0.61
  -1 -11 -10    1.46    0.77
  -1 -11 -10   -0.61    0.54
   1 -11  10    1.05    0.44
   1 -11  10    0.46    0.51
   2 -11  10    1.96    0.56
   2 -11  10    2.65    0.57
   2 -11  10    2.07    0.73
  -2 -11 -10    3.13    0.65
  -3 -11 -10    0.00    0.38
   3 -11  10   -0.33    0.38
  -3 -11 -10    0.47    0.39
   3 -11  10    0.15    0.44
   3  11  10    0.15    0.81
   4 -11  10   -0.06    0.28
   4 -11  10    0.09    0.30
  -4 -11 -10   -0.57    0.47
   3 -12 -10    2.94    0.79
  -3 -12  10    3.86    0.45
  -3 -12  10    3.41    0.50
  -2 -12  10    0.07    0.39
  -2 -12  10    1.04    0.48
   2 -12 -10   -0.07    0.61
  -1 -12  10    0.34    0.46
  -1 -12  10   -0.24    0.69
  -1 -12  10    1.25    0.42
   1 -12 -10   -0.30    0.73
   0 -12 -10    1.82    0.71
   0 -12  10    1.57    0.49
   0 -12 -10    0.75    0.80
   0 -12  10    1.96    0.63
   0 -12  10    1.90    0.50
   0  12  10    1.46    0.95
   1 -12  10    6.77    0.79
  -1 -12 -10    7.91    0.87
   1 -12  10    7.95    0.73
  -1 -12 -10    7.12    1.01
   1 -12  10    7.67    0.89
   2 -12  10    1.81    0.54
   2 -12  10    2.61    0.61
   2 -12  10    2.44    0.56
  -2 -12 -10    3.11    0.60
  -3 -12 -10    0.68    0.41
   3 -12  10    0.41    0.42
   3 -12  10    1.10    0.39
  -3 -12 -10    1.25    0.36
   3  12  10    0.72    0.86
  -3 -13  10    5.15    0.53
  -3 -13  10    6.04    0.50
   3 -13 -10    6.35    0.93
   2 -13 -10    0.33    0.62
  -2 -13  10   -0.07    0.35
  -2 -13  10   -0.27    0.30
  -1 -13  10    3.98    0.92
   1 -13 -10    4.06    0.89
  -1 -13  10    3.31    0.56
  -1 -13  10    4.81    0.61
   0 -13  10    0.31    0.46
   0 -13  10   -0.42    0.38
   0 -13 -10   -0.64    0.71
   0 -13  10    0.35    0.69
   0 -13 -10   -1.78    0.74
   0  13  10   -0.98    0.98
   1 -13  10    1.21    0.52
   1 -13  10    0.81    0.42
   1 -13  10    1.15    0.60
  -1 -13 -10    0.03    0.76
  -1 -13 -10    0.14    0.58
  -2 -13 -10    1.75    0.48
   2 -13  10    2.09    0.56
   2 -13  10    2.27    0.48
   2 -13  10    1.98    0.54
   3 -13  10    0.33    0.38
   3 -13  10   -0.11    0.35
  -3 -13 -10   -0.20    0.30
   3  13  10    0.05    0.99
  -3 -14  10    0.49    0.35
  -3 -14  10    0.80    0.26
   3 -14 -10    0.91    0.84
  -2 -14  10    0.60    0.35
   2 -14 -10    0.25    0.67
  -2 -14  10    0.80    0.30
   1 -14 -10    2.96    0.79
  -1 -14  10    1.97    0.45
  -1 -14  10    2.82    0.49
   0 -14  10    0.58    0.40
   0 -14 -10    0.51    0.57
   0 -14  10    0.32    0.44
   0 -14  10    0.76    0.55
   0 -14 -10    0.67    0.68
  -1 -14 -10   -0.13    0.49
   1 -14  10   -0.07    0.34
   1 -14  10    0.13    0.42
   1 -14  10    0.08    0.43
  -2 -14 -10    0.43    0.38
   2 -14  10    0.64    0.34
   2 -14  10    0.44    0.40
   2 -14  10   -0.51    0.46
   2  14  10    0.41    0.79
   3 -14  10   -0.54    0.37
   3 -14  10    1.00    0.33
  -3 -14 -10    0.25    0.28
  -3 -15  10    2.84    0.46
  -3 -15  10    3.58    0.35
  -2 -15  10    3.44    0.41
  -2 -15  10    4.24    0.43
   2 -15 -10    3.39    0.87
  -1 -15  10    0.43    0.29
   1 -15 -10    0.54    0.77
  -1 -15  10    0.23    0.34
   0 -15  10    0.21    0.30
   0 -15 -10    0.38    0.69
   0 -15 -10   -1.27    0.58
   0 -15  10    0.91    0.46
   0 -15  10   -0.16    0.35
   1 -15  10    0.23    0.39
  -1 -15 -10    0.68    0.45
   1 -15  10    0.91    0.45
   1 -15  10    0.75    0.38
   2 -15  10    0.48    0.38
   2 -15  10   -0.46    0.30
  -2 -15 -10    0.26    0.33
   2  15  10    0.83    0.84
   2 -16 -10    0.65    0.83
  -2 -16  10    0.31    0.23
  -2 -16  10    0.30    0.26
   1 -16 -10    3.78    0.82
  -1 -16  10    4.04    0.43
  -1 -16  10    3.51    0.41
   0 -16  10    1.13    0.31
   0 -16 -10    2.14    0.75
   0 -16  10    1.05    0.34
   1 -16  10    2.12    0.49
   1 -16  10    3.87    0.43
  -1 -16 -10    3.08    0.51
   1 -16  10    3.52    0.46
   2 -16  10    0.75    0.41
   2 -16  10    1.29    0.36
  -2 -16 -10    1.79    0.40
  -1 -17  10    1.32    0.33
   1 -17 -10    0.61    0.73
  -1 -17  10    1.03    0.26
   0 -17  10    0.23    0.26
   0 -17 -10   -0.97    0.79
   0 -17  10    0.25    0.28
   1 -17  10    0.27    0.28
  -1 -17 -10   -0.22    0.40
   0 -18  10    0.81    0.29
   0 -18  10    0.47    0.32
  -5   0  11   -0.02    0.29
   4   0 -11   -0.62    1.00
  -4   0  11    0.00    0.39
  -3   0  11    3.03    0.64
   3   0 -11    1.62    1.09
  -2   0  11    0.64    0.50
  -1   0  11    3.47    0.71
  -1   0  11    1.61    0.72
   0   0  11    1.27    0.70
   0   0  11    0.51    0.71
   1   0  11    0.60    0.54
   1   0  11    0.83    0.91
  -2   0 -11    0.41    0.44
   2   0  11    0.64    0.71
   2   0  11    1.59    1.16
  -3   0 -11   -0.06    0.64
   3   0  11   -0.22    0.80
  -4   0 -11   -0.24    0.40
   4   0  11    1.09    0.70
  -5  -1  11   -0.25    0.31
  -5   1  11   -0.10    0.30
   4  -1 -11    1.33    0.91
  -4  -1  11    0.63    0.42
  -4   1  11    0.88    0.39
   3  -1 -11   26.23    1.98
  -3  -1  11   25.99    1.75
  -3   1  11   28.45    1.74
  -2  -1  11    6.87    1.08
  -2  -1  11    9.88    0.88
  -2   1  11   10.02    0.85
  -1  -1  11   31.63    2.06
  -1  -1  11   34.52    2.14
  -1  -1  11   32.19    2.06
  -1   1  11   31.59    2.07
   0  -1  11   14.27    1.21
   0  -1  11   15.88    1.31
   0   1  11   14.18    1.24
   0   1  11   12.68    1.36
   1  -1  11   14.98    1.26
   1  -1  11   17.40    1.19
   1  -1  11   17.45    1.52
   1   1  11   15.17    1.70
   1   1  11   15.14    1.18
   1   1  11   18.45    1.35
   2  -1  11    1.73    1.06
   2  -1  11    2.12    0.57
   2  -1  11    2.50    0.78
  -2  -1 -11    2.43    0.50
  -2   1 -11    2.25    0.56
   2   1  11    1.28    0.83
  -3  -1 -11    2.05    0.62
   3  -1  11    1.26    0.75
   3  -1  11    0.76    1.39
  -3   1 -11    1.34    0.64
   3   1  11    1.32    0.89
  -4  -1 -11    0.50    0.43
   4  -1  11    0.12    0.63
  -4   1 -11   -0.03    0.41
   4   1  11    0.31    0.89
  -5  -2  11    1.05    0.35
  -5   2  11    1.71    0.36
   4  -2 -11    0.27    0.79
  -4  -2  11   -0.19    0.43
  -4   2  11   -0.05    0.41
   3  -2 -11   18.61    1.63
  -3  -2  11   21.53    1.43
  -3   2  11   22.12    1.42
   2  -2 -11   -0.59    0.94
  -2  -2  11    1.06    0.84
  -2  -2  11    0.23    0.46
  -2   2  11   -0.03    0.47
  -1  -2  11    2.30    0.67
  -1  -2  11    3.03    0.69
  -1  -2  11    2.26    0.88
  -1   2  11    0.84    0.60
   0  -2  11    5.99    0.81
   0  -2  11    8.12    1.08
   0  -2  11    8.33    0.75
   0  -2  11    6.08    0.93
   0   2  11    4.74    1.14
   0   2  11    6.70    0.89
  -1  -2 -11    9.80    0.82
   1  -2  11   10.46    1.03
   1  -2  11   10.08    0.88
   1  -2  11    8.85    1.16
   1   2  11   10.96    1.09
   2  -2  11   -0.43    0.45
   2  -2  11    0.95    0.94
   2  -2  11    0.37    0.65
  -2  -2 -11    0.53    0.46
   2   2  11   -1.65    0.75
  -3  -2 -11    7.99    0.81
   3  -2  11    4.24    1.16
   3  -2  11    6.77    0.97
  -3  -2 -11    4.78    0.76
  -3   2 -11    6.23    0.95
   3   2  11    5.96    1.21
  -4  -2 -11    3.61    0.53
   4  -2  11    4.20    0.73
  -4   2 -11    2.39    0.53
  -5  -3  11    0.24    0.48
  -5   3  11    0.53    0.28
   4  -3 -11   -0.65    0.72
  -4  -3  11   -0.16    0.42
  -4   3  11    0.96    0.40
  -3  -3  11    1.65    0.55
   3  -3 -11    1.48    0.76
  -3   3  11    1.69    0.52
  -2  -3  11    0.44    0.53
   2  -3 -11    0.52    0.94
  -2  -3  11    0.43    0.72
  -2   3  11   -0.06    0.49
  -1  -3  11   14.66    1.38
   1  -3 -11   11.90    1.10
  -1  -3  11   14.32    1.06
  -1  -3  11   14.76    1.11
  -1  -3  11   12.30    1.47
  -1   3  11   14.29    1.19
   0  -3  11    0.92    0.44
   0  -3  11    0.27    0.56
   0  -3 -11    1.85    0.52
   0  -3  11    0.99    0.71
   0  -3  11    1.58    0.64
   0   3  11    0.03    0.62
   0   3  11    0.42    0.98
  -1  -3 -11   11.79    0.88
   1  -3  11   11.85    1.11
   1  -3  11   11.32    0.92
   1  -3  11   11.01    1.18
   1   3  11    9.94    1.14
   2  -3  11    8.72    1.15
   2  -3  11   10.14    0.83
   2  -3  11    9.50    1.03
  -2  -3 -11   10.62    0.86
   2   3  11    8.23    1.18
  -3  -3 -11    0.77    0.57
   3  -3  11    1.34    0.72
  -3  -3 -11    1.22    0.53
   3  -3  11   -0.21    0.82
  -3   3 -11    1.80    0.73
   3   3  11   -0.07    1.09
   4  -3  11   -0.47    0.55
  -4  -3 -11    0.98    0.39
  -4   3 -11    0.04    0.39
  -4  -4  11    2.16    0.55
   4  -4 -11    1.36    0.79
  -4   4  11    2.36    0.50
  -3  -4  11   -0.06    0.53
   3  -4 -11    0.25    0.70
  -3   4  11   -0.88    0.49
   2  -4 -11   21.47    1.65
  -2  -4  11   21.38    1.53
  -2  -4  11   21.02    1.46
  -2   4  11   20.26    1.43
   1  -4 -11    6.29    1.14
  -1  -4  11    6.73    1.12
  -1  -4  11    4.96    0.84
  -1  -4  11    5.43    0.74
   1  -4 -11    2.83    1.08
  -1  -4  11    5.47    0.74
  -1   4  11    4.27    0.95
   0  -4  11    2.26    0.58
   0  -4  11    1.67    0.80
   0  -4  11    2.53    0.56
   0  -4  11    2.82    0.64
   0  -4 -11    2.66    0.63
   0   4  11    2.71    0.70
  -1  -4 -11    6.20    0.71
   1  -4  11    5.26    0.71
   1  -4  11    7.00    1.00
   1  -4  11    7.02    0.99
   1  -4  11    7.18    0.73
   1   4  11    4.67    1.02
  -2  -4 -11    6.20    0.69
   2  -4  11    6.05    0.93
  -2  -4 -11    5.05    0.75
   2  -4  11    6.52    0.71
   2  -4  11    6.51    1.00
   2   4  11    6.94    1.23
  -3  -4 -11   -0.15    0.55
   3  -4  11   -0.38    0.75
   3  -4  11   -0.07    0.64
  -3  -4 -11    0.36    0.52
  -3   4 -11    0.72    0.76
   3   4  11    0.73    1.21
   4  -4  11    2.58    0.73
   4  -4  11    2.99    0.66
  -4  -4 -11    2.43    0.72
  -4  -4 -11    3.09    0.51
  -4   4 -11    3.66    0.51
   4  -5 -11    4.37    0.85
  -4  -5  11    3.55    0.55
  -4   5  11    4.08    0.55
  -3  -5  11    0.38    0.55
   3  -5 -11    0.77    0.75
  -3   5  11    1.05    0.52
  -2  -5  11    3.10    0.72
  -2  -5  11    4.68    0.80
  -2  -5  11    3.94    0.79
   2  -5 -11    3.62    0.93
  -2   5  11    4.99    0.76
  -1  -5  11    0.64    0.54
  -1  -5  11    1.39    0.51
  -1  -5  11    0.33    0.50
   1  -5 -11   -0.24    0.84
  -1   5  11    1.34    0.80
   0  -5  11    2.62    0.87
   0  -5 -11    1.16    1.00
   0  -5  11    3.26    0.57
   0  -5  11    4.39    0.63
   0  -5  11    2.89    0.75
   0  -5 -11    1.73    0.60
   0   5  11    3.55    0.90
   1  -5  11   -0.55    0.47
  -1  -5 -11    0.16    0.45
   1  -5  11    0.06    0.51
   1  -5  11    0.31    0.64
   1  -5  11    0.08    0.77
   1   5  11   -0.40    0.76
   2  -5  11   41.53    2.37
  -2  -5 -11   40.81    2.38
   2  -5  11   35.61    2.47
   2  -5  11   38.42    2.46
  -2  -5 -11   37.76    2.42
   2   5  11   38.68    2.66
  -3  -5 -11    1.03    0.56
   3  -5  11    1.29    0.71
  -3  -5 -11    0.76    0.57
   3  -5  11    3.57    0.79
  -4  -5 -11    0.75    0.61
   4  -5  11    0.36    0.49
  -4  -5 -11    0.34    0.39
   4  -5  11    0.76    0.52
  -4  -6  11   -0.33    0.39
   4  -6 -11   -0.44    0.73
  -4   6  11    0.10    0.37
   3  -6 -11    0.48    0.72
  -3  -6  11    1.73    0.55
  -3   6  11    1.68    0.56
  -2  -6  11    3.57    0.73
  -2  -6  11    3.64    0.75
   2  -6 -11    3.65    1.00
  -2  -6  11    2.86    0.63
  -2   6  11    3.16    0.66
  -1  -6  11    1.11    0.50
   1  -6 -11    0.13    0.82
  -1  -6  11   -0.02    0.55
  -1  -6  11    1.35    0.51
  -1   6  11   -0.93    1.01
   0  -6 -11    0.75    0.93
   0  -6  11    0.65    0.47
   0  -6 -11    0.44    0.57
   0  -6  11   -0.11    0.58
   0  -6  11    0.98    0.89
   0  -6  11    0.25    0.43
  -1  -6 -11    0.17    0.47
  -1  -6 -11    0.72    1.06
   1  -6  11    0.44    0.61
   1  -6  11   -0.25    0.50
   1  -6  11   -0.15    0.41
   1  -6  11   -0.44    0.65
   1   6  11    0.26    0.77
  -2  -6 -11    0.71    0.48
  -2  -6 -11    0.92    0.63
   2  -6  11    1.23    0.67
   2  -6  11    0.82    0.48
   2  -6  11    1.33    0.65
   2   6  11    1.38    1.13
   3  -6  11    1.80    0.64
   3  -6  11    0.59    0.65
  -3  -6 -11    2.56    0.70
  -3  -6 -11    1.39    0.57
   4  -6  11   -0.29    0.44
  -4  -6 -11    0.67    0.55
  -4  -6 -11   -0.35    0.36
   4  -6  11    0.36    0.48
  -4  -7  11    2.32    0.51
   4  -7 -11    3.92    0.87
  -4   7  11    3.87    0.51
  -3  -7  11    3.11    0.93
  -3  -7  11    1.71    0.61
   3  -7 -11    2.46    0.80
  -3   7  11    2.16    0.58
   2  -7 -11    9.85    1.18
  -2  -7  11   10.23    0.98
  -2  -7  11    8.69    0.91
  -2  -7  11   10.07    0.92
  -2   7  11    8.96    1.00
  -1  -7  11    1.77    0.59
   1  -7 -11    2.30    0.85
  -1  -7  11    2.64    0.62
  -1  -7  11    2.47    0.58
   0  -7  11   27.14    1.75
   0  -7 -11   26.85    1.98
   0  -7 -11   27.32    1.79
   0  -7  11   26.09    1.79
   0  -7  11   29.00    1.72
   0  -7  11   27.50    1.94
   1  -7  11    7.24    0.94
  -1  -7 -11    7.58    1.30
   1  -7  11    8.43    0.76
   1  -7  11    8.46    1.03
  -1  -7 -11    9.15    0.80
   1  -7  11    7.70    0.78
   1   7  11    6.56    1.14
  -2  -7 -11   15.00    1.08
  -2  -7 -11   13.03    1.22
   2  -7  11   15.61    1.23
   2  -7  11   13.95    1.22
   2  -7  11   14.68    1.05
   2   7  11   12.69    1.69
  -3  -7 -11   -0.06    0.57
   3  -7  11   -0.43    0.59
  -3  -7 -11    0.26    0.50
   3  -7  11    0.54    0.60
   4  -7  11   -0.11    0.44
  -4  -7 -11    0.12    0.34
  -4  -7 -11    0.02    0.51
   4  -7  11    0.57    0.41
   4  -8 -11   -0.46    0.81
  -4   8  11    0.95    0.38
   3  -8 -11    1.15    0.68
  -3  -8  11   -0.09    0.57
  -3  -8  11    0.69    0.62
  -3  -8  11   -0.02    0.53
  -3   8  11    0.12    0.56
  -2  -8  11    3.77    0.65
   2  -8 -11    4.98    0.92
  -2  -8  11    3.34    0.80
  -2  -8  11    2.61    0.59
  -2   8  11    2.88    0.74
  -1  -8  11    4.33    0.86
  -1  -8  11    3.79    0.68
  -1  -8  11    4.83    0.65
   1  -8 -11    4.83    1.09
   0  -8 -11   -0.33    0.89
   0  -8  11    0.72    0.47
   0  -8  11    0.02    0.42
   0  -8 -11   -0.12    0.59
   0  -8  11   -0.31    0.51
   0  -8  11    2.06    0.91
   1  -8  11    6.67    0.87
   1  -8  11    7.40    1.02
  -1  -8 -11    6.89    1.29
   1  -8  11    7.52    0.69
   1  -8  11    7.72    0.77
  -1  -8 -11    7.01    0.76
   1   8  11    7.34    1.15
   2  -8  11   -1.49    0.62
  -2  -8 -11   -0.25    0.49
   2  -8  11    0.14    0.47
   2  -8  11    0.30    0.63
  -2  -8 -11   -0.50    0.68
   2   8  11    0.19    0.90
   3  -8  11   -0.33    0.44
   3  -8  11    0.22    0.59
  -3  -8 -11    0.17    0.48
   3  -8  11    0.05    0.54
  -3  -8 -11    0.33    0.46
  -4  -8 -11    1.05    0.45
   4  -8  11    0.33    0.38
   4  -8  11    1.02    0.39
  -4  -8 -11    0.23    0.35
  -4   8 -11    0.67    0.34
   4  -9 -11    0.88    0.91
  -4   9  11    0.75    0.40
   3  -9 -11    3.55    0.81
  -3  -9  11    3.49    0.56
  -3  -9  11    2.51    0.61
  -3  -9  11    3.01    0.67
  -3   9  11    3.21    0.62
  -2  -9  11    0.69    0.67
  -2  -9  11    0.14    0.51
   2  -9 -11    1.33    0.70
  -2  -9  11    0.37    0.46
  -2   9  11    2.33    0.87
  -1  -9  11   11.85    1.01
   1  -9 -11   10.86    1.31
  -1  -9  11    9.54    0.86
  -1  -9  11    9.34    0.85
   0  -9 -11   11.68    1.28
   0  -9  11    9.38    0.84
   0  -9  11    7.89    0.98
   0  -9  11    8.46    0.76
   0  -9 -11    8.22    0.99
   0   9  11   10.12    1.06
   1  -9  11   14.49    1.10
  -1  -9 -11   16.67    1.51
   1  -9  11   14.50    1.33
   1  -9  11   15.87    1.07
   1  -9  11   16.38    1.19
  -1  -9 -11   15.83    1.17
   1   9  11   12.72    1.53
   2  -9  11    0.60    0.44
   2  -9  11    0.86    0.58
  -2  -9 -11    0.59    0.49
   2  -9  11    1.37    0.67
   3  -9  11   -0.31    0.44
   3  -9  11   -0.57    0.42
  -3  -9 -11    0.57    0.49
  -3  -9 -11   -0.13    0.41
   4  -9  11    0.23    0.35
   4  -9  11    0.07    0.31
  -4  -9 -11    0.23    0.47
  -4  -9 -11   -0.56    0.32
  -4   9 -11    0.22    0.36
  -4  10  11    2.61    0.57
   3 -10 -11    0.98    0.68
  -3 -10  11    0.41    0.37
  -3 -10  11    0.25    0.46
  -3  10  11    0.52    0.49
  -2 -10  11    2.39    0.62
  -2 -10  11    2.54    0.72
   2 -10 -11    3.16    0.94
  -2 -10  11    2.54    0.58
  -1 -10  11    8.79    0.78
  -1 -10  11   10.50    1.01
   1 -10 -11    8.73    1.13
  -1 -10  11    9.67    0.83
   0 -10  11    0.46    0.37
   0 -10 -11    1.09    0.66
   0 -10  11    0.64    0.49
   0 -10  11   -0.02    0.60
   0 -10 -11    1.51    0.98
   0  10  11    1.00    0.78
   1 -10  11   17.13    1.22
  -1 -10 -11   16.17    1.46
  -1 -10 -11   17.17    1.28
   1 -10  11   17.94    1.17
   1 -10  11   17.34    1.39
   1 -10  11   17.33    1.29
   1  10  11   16.31    1.69
   2 -10  11    0.88    0.48
  -2 -10 -11    0.92    0.49
   2 -10  11    0.40    0.65
   2 -10  11    0.67    0.57
  -3 -10 -11   -0.19    0.40
   3 -10  11    0.39    0.41
  -3 -10 -11   -0.54    0.36
   3 -10  11   -0.22    0.44
   4 -10  11    0.01    0.31
  -4 -10 -11    0.65    0.48
  -4 -10 -11    0.27    0.38
   4 -10  11    0.19    0.32
  -4  10 -11    0.29    0.45
  -3 -11  11    1.21    0.35
   3 -11 -11    0.69    0.66
  -3 -11  11    1.43    0.42
  -2 -11  11    2.66    0.61
  -2 -11  11    2.09    0.59
   2 -11 -11    3.43    0.85
  -2 -11  11    3.46    0.54
  -1 -11  11   10.53    0.81
  -1 -11  11    9.71    1.09
  -1 -11  11   10.65    0.87
   1 -11 -11    9.42    1.14
   0 -11  11   18.18    1.20
   0 -11  11   19.11    1.36
   0 -11 -11   17.56    1.38
   0 -11  11   18.45    1.24
   0 -11 -11   15.99    1.51
   0  11  11   18.54    1.49
  -1 -11 -11    0.99    0.82
  -1 -11 -11    1.03    0.57
   1 -11  11    0.75    0.42
   1 -11  11    1.16    0.59
   1 -11  11    0.57    0.83
   1 -11  11    1.06    0.51
  -2 -11 -11   -0.38    0.49
   2 -11  11    0.02    0.50
   2 -11  11    0.55    0.44
   2 -11  11   -0.49    0.64
  -3 -11 -11    0.69    0.41
   3 -11  11    0.68    0.43
  -3 -11 -11    0.43    0.36
   3 -11  11   -0.15    0.36
  -3 -12  11    0.11    0.35
   3 -12 -11    0.14    0.66
  -3 -12  11   -0.01    0.31
  -2 -12  11    0.66    0.34
  -2 -12  11    0.12    0.36
  -2 -12  11    0.76    0.70
   2 -12 -11    0.08    0.69
  -1 -12  11    2.21    0.50
  -1 -12  11    1.88    0.51
  -1 -12  11    1.09    0.71
   1 -12 -11    2.28    0.79
   0 -12  11    3.96    0.55
   0 -12 -11    2.92    0.92
   0 -12  11    4.17    0.63
   0 -12 -11    5.33    0.86
   0 -12  11    4.20    0.86
   0  12  11    6.07    1.08
   1 -12  11    3.77    0.76
  -1 -12 -11    4.45    0.76
   1 -12  11    4.05    0.65
   1 -12  11    4.21    0.58
   2 -12  11    0.64    0.41
   2 -12  11    0.38    0.55
   2 -12  11    0.58    0.36
  -2 -12 -11   -0.45    0.37
   2  12  11    0.90    0.85
   3 -12  11    0.98    0.37
  -3 -12 -11    0.46    0.31
   3 -12  11   -0.14    0.34
  -3 -13  11    1.92    0.43
   3 -13 -11    2.39    0.89
  -3 -13  11    1.62    0.34
   2 -13 -11   -0.22    0.74
  -2 -13  11   -0.09    0.29
  -2 -13  11    0.18    0.35
  -1 -13  11    9.18    0.85
   1 -13 -11    6.64    1.07
  -1 -13  11    9.07    0.72
  -1 -13  11   10.17    0.76
   0 -13  11    0.82    0.44
   0 -13  11   -0.14    0.37
   0 -13  11    1.11    0.65
   0 -13 -11    0.07    0.70
   0 -13 -11   -0.45    0.57
   0  13  11   -0.99    0.87
   1 -13  11    0.53    0.49
  -1 -13 -11    0.89    0.51
   1 -13  11    1.50    0.43
   1 -13  11    0.26    0.36
  -2 -13 -11    0.90    0.37
   2 -13  11    0.54    0.35
   2 -13  11    0.50    0.40
   2 -13  11    0.21    0.47
   2  13  11   -0.04    0.88
   3 -13  11    0.47    0.36
   3 -13  11    0.95    0.34
  -3 -13 -11    0.11    0.30
  -3 -14  11   -0.06    0.25
  -3 -14  11    0.33    0.40
   2 -14 -11   -0.04    0.75
  -2 -14  11    0.57    0.30
  -2 -14  11    0.28    0.26
  -1 -14  11    0.05    0.27
   1 -14 -11    0.05    0.77
  -1 -14  11   -0.31    0.32
  -1  14  11   -1.30    0.53
   0 -14 -11    0.39    0.51
   0 -14  11    0.86    0.37
   0 -14 -11    0.30    0.70
   0 -14  11    1.22    0.52
   0 -14  11   -0.11    0.30
   1 -14  11    0.26    0.41
   1 -14  11    1.65    0.40
  -1 -14 -11    0.36    0.45
   1 -14  11    1.02    0.37
  -2 -14 -11    1.46    0.42
   2 -14  11    1.20    0.37
   2 -14  11    1.99    0.37
   2  14  11   -0.37    0.91
  -2 -15  11    0.00    0.23
  -2 -15  11    0.17    0.27
   2 -15 -11   -0.18    0.84
  -1 -15  11    1.21    0.32
  -1 -15  11    2.23    0.39
   1 -15 -11    2.04    0.77
  -1  15  11    0.80    0.64
   0 -15 -11    0.56    0.75
   0 -15  11    0.37    0.29
   0 -15  11    0.52    0.32
   0 -15  11    0.79    0.43
   1 -15  11   -0.47    0.36
   1 -15  11    0.13    0.28
  -1 -15 -11    0.19    0.39
   1 -15  11    0.45    0.39
  -2 -15 -11    0.07    0.30
   2 -15  11   -0.19    0.28
   2 -15  11    0.43    0.35
  -2 -16  11    0.22    0.21
  -2 -16  11   -0.25    0.23
  -2  16  11   -1.02    0.61
   1 -16 -11    2.98    0.88
  -1 -16  11    2.11    0.35
  -1 -16  11    1.68    0.31
   0 -16 -11    0.40    0.83
   0 -16  11    2.12    0.37
   0 -16  11    1.91    0.33
   1 -16  11    0.05    0.28
  -1 -16 -11    0.02    0.40
  -2 -16 -11    1.53    0.38
  -1 -17  11   -0.24    0.22
  -1 -17  11    0.07    0.22
   0 -17  11    0.74    0.28
   0 -17  11    0.81    0.29
   1 -17  11   -0.53    0.27
  -4   0  12   12.67    0.91
  -2   0  12    0.27    0.75
  -2   0  12    0.69    0.51
  -1   0  12    3.69    0.71
  -1   0  12    4.20    0.90
   0   0  12    6.20    0.95
   0   0  12    6.97    0.96
   1   0  12    7.07    1.00
   1   0  12    6.60    0.76
   1   0  12    9.35    1.26
   2   0  12    2.18    0.73
   2   0  12   -0.07    1.25
  -2   0 -12    2.04    0.59
  -3   0 -12   -0.30    0.57
   3   0  12    0.94    0.78
   4   0  12    1.09    0.64
  -4   0 -12    0.54    0.38
  -4  -1  12    2.63    0.48
  -4   1  12    0.74    0.37
  -3  -1  12    2.73    0.66
  -3   1  12    2.68    0.68
  -2  -1  12    4.90    1.01
  -2  -1  12    5.55    0.75
  -2   1  12    6.10    0.74
  -1  -1  12    5.76    0.98
  -1  -1  12    4.11    0.73
  -1   1  12    3.95    0.88
  -1   1  12    2.94    0.77
   0  -1  12    1.51    0.71
   0  -1  12    0.09    0.67
   0  -1  12    1.10    0.62
   0   1  12    1.21    0.66
   0   1  12    0.41    0.71
   1  -1  12    0.98    0.84
   1  -1  12    0.52    0.50
  -1  -1 -12   -0.15    0.39
   1  -1  12    1.80    0.63
   1   1  12    1.09    0.57
   1   1  12    0.12    1.06
   1   1  12    0.11    0.63
   2  -1  12    6.38    0.64
  -2  -1 -12    5.19    0.67
   2  -1  12    4.43    0.97
   2  -1  12    4.32    1.25
   2   1  12    3.98    1.03
  -2   1 -12    5.71    0.64
  -3  -1 -12    0.72    0.58
   3  -1  12    2.34    0.76
   3   1  12    0.60    0.89
  -3   1 -12    2.12    0.63
  -4  -1 -12    0.24    0.39
   4  -1  12    0.45    0.57
  -4   1 -12    0.39    0.35
   4   1  12   -0.30    0.83
  -4  -2  12   -0.23    0.37
  -4   2  12   -0.08    0.36
  -3  -2  12   18.61    1.29
  -3   2  12   17.51    1.28
  -2  -2  12   11.62    1.28
  -2  -2  12   12.55    1.02
  -2   2  12   13.32    1.02
  -1  -2  12    0.03    0.50
  -1  -2  12    0.65    0.57
  -1  -2  12    0.48    0.79
  -1   2  12    0.67    0.62
   0  -2  12    0.49    0.70
   0  -2  12    0.60    0.64
   0  -2  12   -0.03    0.67
   0   2  12    0.75    0.64
   0   2  12   -0.55    0.85
   1  -2  12    2.33    0.64
   1  -2  12    3.34    0.74
   1  -2  12    2.55    0.74
  -1  -2 -12    2.72    0.53
   1   2  12    3.00    0.86
   2  -2  12    0.28    0.47
   2  -2  12    0.68    0.86
   2  -2  12    0.73    0.71
  -2  -2 -12    0.37    0.49
  -2   2 -12    0.30    0.46
   2   2  12    0.53    0.79
  -3  -2 -12    0.66    0.57
  -3  -2 -12    0.27    0.53
   3  -2  12    0.22    0.70
   3  -2  12   -0.04    0.91
   3   2  12   -0.76    0.91
  -3   2 -12    0.49    0.62
   4  -2  12    1.38    0.58
  -4  -2 -12    0.53    0.39
  -4   2 -12    0.40    0.37
  -4  -3  12    0.14    0.41
  -4   3  12   -0.52    0.38
   3  -3 -12    1.97    1.00
  -3  -3  12    2.00    0.55
  -3   3  12    1.52    0.56
  -2  -3  12    0.49    0.74
  -2  -3  12   -0.78    0.48
  -2   3  12    0.12    0.53
  -1  -3  12    0.83    0.54
  -1  -3  12   -0.68    0.82
   1  -3 -12   -0.27    0.58
  -1  -3  12    0.66    0.52
  -1   3  12   -0.21    0.62
   0  -3 -12   14.71    1.09
   0  -3  12   15.82    1.13
   0  -3  12   16.03    1.24
   0  -3  12   15.70    1.12
   0  -3  12   15.48    1.33
   0   3  12   14.15    1.49
   0   3  12   16.11    1.24
   1  -3  12    4.38    0.95
  -1  -3 -12    3.93    0.60
   1  -3  12    2.96    0.60
   1  -3  12    3.57    0.92
   1   3  12    3.26    0.87
   2  -3  12   12.55    0.92
  -2  -3 -12   11.44    0.93
   2  -3  12   12.55    1.25
   2  -3  12   12.23    1.13
   2   3  12   10.46    1.21
  -3  -3 -12    0.30    0.52
  -3  -3 -12    0.50    0.55
   3  -3  12   -0.07    0.82
   3  -3  12    0.22    0.69
   3   3  12   -0.62    0.98
  -3   3 -12    0.17    0.66
   4  -3  12   -0.16    0.47
  -4  -3 -12   -0.43    0.37
  -4   3 -12   -0.12    0.35
   4  -4 -12    0.47    1.14
  -4  -4  12    0.32    0.36
  -4   4  12    0.12    0.38
  -3  -4  12    0.63    0.52
   3  -4 -12    1.34    0.87
  -3   4  12    0.62    0.50
   2  -4 -12    9.98    1.40
  -2  -4  12    9.09    0.99
  -2  -4  12   10.71    0.92
  -2   4  12    9.94    0.95
  -1  -4  12    6.29    1.07
  -1  -4  12    7.05    0.73
   1  -4 -12    5.51    0.91
  -1  -4  12    6.65    0.81
  -1  -4  12    5.67    0.80
  -1   4  12    7.25    0.94
   0  -4 -12   10.53    0.94
   0  -4  12   11.71    1.08
   0  -4  12   10.70    0.93
   0  -4  12   11.19    0.92
   0  -4  12   13.07    1.19
   0   4  12   12.12    1.10
   1  -4  12    0.98    0.48
   1  -4  12    2.16    0.76
  -1  -4 -12    0.97    0.47
   1  -4  12    1.25    0.65
   1   4  12    0.21    0.71
   2  -4  12    0.63    0.73
  -2  -4 -12    0.68    0.62
   2  -4  12    0.89    0.44
   2  -4  12    0.84    0.62
  -2  -4 -12    1.19    0.50
   2   4  12    1.25    0.87
  -3  -4 -12    0.13    0.54
   3  -4  12    0.60    0.67
   3  -4  12    1.58    0.75
  -3  -4 -12    1.21    0.58
   3   4  12   -0.14    1.09
  -3   4 -12    0.70    0.68
   4  -4  12    2.07    0.56
  -4  -4 -12    1.47    0.40
   4  -4  12    1.04    1.02
  -4  -4 -12    0.72    0.69
  -4   4 -12    1.07    0.32
  -4  -5  12   -0.30    0.36
   4  -5 -12    1.69    1.09
  -4   5  12    0.15    0.36
  -3  -5  12   -0.47    0.49
   3  -5 -12   -0.47    0.75
  -3   5  12    0.03    0.51
   2  -5 -12    0.26    1.04
  -2  -5  12    0.45    0.57
  -2  -5  12   -0.26    0.52
  -2   5  12    0.47    0.57
   1  -5 -12    3.09    1.25
  -1  -5  12    5.94    1.24
  -1  -5  12    6.99    0.85
  -1  -5  12    5.45    0.74
  -1  -5  12    6.13    0.71
  -1   5  12    6.92    1.07
   0  -5  12   -0.21    0.56
   0  -5  12    0.23    0.41
   0  -5 -12    1.07    0.54
   0  -5  12    0.93    0.48
   0   5  12    1.70    0.67
   1  -5  12   -0.13    0.45
   1  -5  12    0.17    0.74
  -1  -5 -12    0.44    0.47
   1  -5  12    0.93    0.63
   1   5  12    0.57    0.76
   2  -5  12    1.65    0.73
  -2  -5 -12    2.45    0.68
   2  -5  12    2.26    0.55
   2  -5  12    3.09    0.80
  -2  -5 -12    2.47    0.61
   2   5  12    2.45    0.94
  -3  -5 -12    1.57    0.57
   3  -5  12    0.18    0.69
  -3  -5 -12    0.56    0.58
   3  -5  12    1.25    0.62
  -3   5 -12    1.19    0.74
   4  -5  12   -0.61    0.44
   4  -5  12    0.15    0.53
  -4  -5 -12    1.04    0.61
  -4  -5 -12    0.28    0.35
  -4   5 -12    0.08    0.33
   4  -6 -12   -0.48    1.09
  -4  -6  12    0.60    0.38
  -4   6  12   -0.18    0.36
   3  -6 -12    1.00    0.73
  -3  -6  12    1.00    0.52
  -3   6  12    1.46    0.55
  -2  -6  12    6.05    0.79
  -2  -6  12    5.16    0.84
   2  -6 -12    6.56    1.22
  -2  -6  12    6.07    0.83
  -2   6  12    6.88    0.88
  -1  -6  12    3.31    0.76
  -1  -6  12    3.83    0.66
  -1  -6  12    3.72    0.61
   1  -6 -12    4.20    1.27
   0  -6  12    8.43    0.74
   0  -6  12    7.09    1.12
   0  -6  12    7.70    0.78
   0  -6  12    7.43    0.87
   0  -6 -12    7.97    0.86
   0   6  12    8.04    0.97
   1  -6  12    3.53    0.59
   1  -6  12    1.87    0.73
   1  -6  12    2.77    0.62
   1  -6  12    2.68    0.66
  -1  -6 -12    1.72    0.51
   1   6  12    3.66    0.97
   2  -6  12   -0.10    0.64
  -2  -6 -12   -0.05    0.46
   2  -6  12    0.21    0.64
   2  -6  12   -0.31    0.44
  -2  -6 -12    0.00    0.65
   2   6  12    1.10    1.01
   3  -6  12    0.40    0.57
  -3  -6 -12    0.36    0.52
   3  -6  12    0.81    0.62
  -3  -6 -12    0.54    0.50
   4  -6  12    1.48    0.46
  -4  -6 -12    1.98    0.58
   4  -6  12    0.88    0.43
  -4  -6 -12    1.07    0.35
  -4   6 -12    1.85    0.39
  -4  -7  12    0.66    0.42
   4  -7 -12    0.46    1.18
  -4   7  12    0.67    0.35
  -3  -7  12    3.95    0.66
   3  -7 -12    3.07    0.90
  -3   7  12    4.29    0.66
  -2  -7  12   -0.02    0.54
  -2  -7  12   -0.33    0.55
   2  -7 -12    0.44    0.83
  -2  -7  12   -0.23    0.55
  -2   7  12   -0.31    0.68
   1  -7 -12    4.01    1.27
  -1  -7  12    4.86    0.67
  -1  -7  12    5.51    0.86
  -1  -7  12    5.84    0.71
   0  -7  12    0.07    0.82
   0  -7  12   -0.04    0.47
   0  -7 -12    1.03    1.17
   0  -7  12    0.91    0.49
   0  -7 -12   -0.39    0.51
   0  -7  12    0.80    0.42
   0   7  12    0.24    0.68
   1  -7  12    3.40    0.59
   1  -7  12    2.40    0.58
   1  -7  12    3.19    0.61
   1  -7  12    1.67    0.76
  -1  -7 -12    3.18    0.59
   1   7  12    2.44    0.84
   2  -7  12    1.90    0.66
  -2  -7 -12    0.17    0.76
   2  -7  12    1.56    0.69
  -2  -7 -12    1.11    0.48
   2  -7  12    0.68    0.44
   2   7  12    1.37    1.14
  -3  -7 -12   -0.34    0.45
   3  -7  12   -0.16    0.50
   3  -7  12    0.42    0.48
  -3  -7 -12    0.17    0.40
  -4  -7 -12    1.76    0.41
   4  -7  12    1.32    0.38
   4  -7  12    0.77    0.41
  -4  -7 -12    0.71    0.53
  -4   7 -12    0.88    0.32
  -4   8  12   -0.32    0.35
   3  -8 -12    3.09    0.89
  -3  -8  12    3.19    0.62
  -3   8  12    4.36    0.62
  -2  -8  12    6.71    0.76
   2  -8 -12    6.91    1.03
  -2  -8  12    8.25    0.88
  -2  -8  12    7.34    0.81
  -2   8  12    6.17    1.04
  -1  -8  12    1.73    0.62
   1  -8 -12    1.43    1.03
  -1  -8  12    2.28    0.58
  -1  -8  12    2.25    0.56
   0  -8 -12    1.45    0.61
   0  -8  12    1.75    0.61
   0  -8 -12    2.56    1.18
   0  -8  12    1.86    0.45
   0  -8  12    0.64    0.83
   0  -8  12    1.95    0.56
   0   8  12    1.97    0.70
   1  -8  12    7.02    0.89
   1  -8  12    7.10    0.75
   1  -8  12    5.42    1.03
  -1  -8 -12    7.49    0.79
   1  -8  12    7.71    0.72
   1   8  12    8.88    1.15
   2  -8  12    0.53    0.69
   2  -8  12    1.30    0.46
   2  -8  12    0.77    0.61
  -2  -8 -12    1.04    0.49
  -3  -8 -12   -0.05    0.39
  -3  -8 -12   -0.93    0.44
   3  -8  12    0.31    0.44
   3  -8  12    0.04    0.45
  -4  -8 -12   -0.02    0.32
   4  -8  12    0.35    0.37
   4  -8  12    0.05    0.33
  -4  -8 -12   -0.10    0.52
  -4   8 -12    0.20    0.29
  -4   9  12    0.57    0.43
  -3  -9  12    0.85    0.59
  -3  -9  12    0.78    0.47
   3  -9 -12    0.03    0.74
  -3  -9  12    1.86    0.51
  -3   9  12    0.74    0.47
  -2  -9  12    0.06    0.61
  -2  -9  12    0.24    0.46
   2  -9 -12    0.17    0.73
  -2  -9  12    0.10    0.52
  -1  -9  12    5.17    0.69
   1  -9 -12    5.90    1.11
  -1  -9  12    5.16    0.81
  -1  -9  12    6.07    0.65
   0  -9  12    0.76    0.60
   0  -9 -12   -0.68    0.66
   0  -9  12    0.33    0.47
   0  -9 -12   -2.14    1.00
   0  -9  12    0.75    0.40
   0   9  12    0.42    0.73
  -1  -9 -12    0.30    0.52
   1  -9  12    0.63    0.77
   1  -9  12   -0.41    0.42
   1  -9  12    0.04    0.47
   1  -9  12    0.06    0.56
   1   9  12   -0.25    0.90
   2  -9  12    1.58    0.68
   2  -9  12    1.94    0.63
  -2  -9 -12    2.37    0.61
   2  -9  12    2.30    0.53
  -3  -9 -12    2.11    0.50
   3  -9  12    2.84    0.55
  -3  -9 -12    2.30    0.49
   3  -9  12    2.11    0.53
   4  -9  12    0.20    0.32
  -4  -9 -12   -0.28    0.54
  -4  -9 -12    0.41    0.43
   4  -9  12   -0.14    0.30
  -4   9 -12    0.18    0.34
  -3 -10  12    2.65    0.58
   3 -10 -12    3.18    0.90
  -3 -10  12    3.71    0.50
  -3 -10  12    2.13    0.57
  -3  10  12    3.47    0.71
  -2 -10  12    0.19    0.42
  -2 -10  12    0.33    0.48
  -2 -10  12    0.31    0.56
   2 -10 -12   -0.05    0.74
  -1 -10  12    0.24    0.40
   1 -10 -12    0.85    0.84
  -1 -10  12   -0.19    0.45
  -1 -10  12   -0.54    0.64
   0 -10 -12    4.44    0.85
   0 -10  12    2.51    0.69
   0 -10 -12    5.92    1.00
   0 -10  12    3.77    0.53
   0 -10  12    3.39    0.62
   0  10  12    5.79    0.97
   1 -10  12    8.76    0.83
  -1 -10 -12    8.93    0.90
   1 -10  12    8.64    1.09
   1 -10  12    8.71    0.92
   1 -10  12    9.50    0.77
   1  10  12    7.27    1.31
  -2 -10 -12    2.16    0.51
   2 -10  12    2.64    0.66
   2 -10  12    1.88    0.63
   2 -10  12    1.63    0.44
   3 -10  12    2.44    0.52
   3 -10  12    2.50    0.49
  -3 -10 -12    3.43    0.65
  -3 -10 -12    2.61    0.45
  -3 -11  12    0.52    0.34
   3 -11 -12    1.02    0.82
  -3 -11  12    0.02    0.45
  -2 -11  12    0.64    0.38
  -2 -11  12    0.37    0.49
   2 -11 -12    0.03    0.73
  -2 -11  12    0.75    0.35
   1 -11 -12    0.73    0.84
  -1 -11  12    0.04    0.64
  -1 -11  12    0.41    0.40
  -1 -11  12    0.24    0.47
   0 -11 -12    0.07    0.67
   0 -11 -12    0.24    0.75
   0 -11  12    0.28    0.40
   0 -11  12   -0.03    0.45
   0 -11  12    0.09    0.59
   0  11  12    0.33    0.80
  -1 -11 -12    1.16    0.55
   1 -11  12    1.38    0.48
   1 -11  12    1.37    0.86
   1 -11  12    1.46    0.47
   1 -11  12    1.10    0.58
   2 -11  12    2.26    0.42
  -2 -11 -12    2.42    0.50
   2 -11  12    2.42    0.63
   2 -11  12    1.39    0.44
   2  11  12    0.03    0.91
   3 -11  12   -0.26    0.39
  -3 -11 -12    0.40    0.33
   3 -11  12    0.11    0.34
  -3 -12  12    0.98    0.46
   3 -12 -12    0.57    1.03
  -3 -12  12    0.83    0.33
  -2 -12  12    0.95    0.45
  -2 -12  12    0.41    0.37
   2 -12 -12    0.10    0.79
  -2 -12  12   -0.11    0.30
   1 -12 -12    2.35    0.88
  -1 -12  12    1.38    0.36
  -1 -12  12    1.20    0.55
  -1 -12  12    1.62    0.43
   0 -12  12    0.18    0.63
   0 -12 -12    0.18    0.76
   0 -12  12    0.79    0.43
   0 -12 -12   -0.50    0.53
   0 -12  12   -0.11    0.36
   0  12  12   -0.13    0.83
   1 -12  12    0.64    0.44
  -1 -12 -12    0.74    0.45
   1 -12  12    0.54    0.38
   1 -12  12    0.72    0.42
   2 -12  12    0.18    0.38
  -2 -12 -12   -0.04    0.36
   2 -12  12    0.18    0.31
   2 -12  12   -0.18    0.50
   2  12  12   -0.02    0.98
   3 -12  12    0.62    0.33
  -3 -12 -12    0.94    0.29
   3 -12  12    0.92    0.37
  -3 -13  12   -0.21    0.60
  -3 -13  12    0.29    0.33
  -2 -13  12    1.23    0.28
  -2 -13  12    0.96    0.34
   2 -13 -12    1.87    0.84
  -1 -13  12    0.15    0.27
  -1 -13  12    0.32    0.36
  -1 -13  12   -0.43    0.49
   1 -13 -12    0.75    0.90
  -1  13  12   -0.72    0.51
   0 -13 -12    6.51    1.07
   0 -13  12    6.35    0.56
   0 -13 -12    4.79    0.76
   0 -13  12    7.46    0.59
   0 -13  12    7.92    0.78
   0  13  12    7.07    0.99
   1 -13  12    1.15    0.47
   1 -13  12    1.69    0.38
   1 -13  12    1.04    0.37
  -1 -13 -12    0.93    0.49
   2 -13  12    1.70    0.46
   2 -13  12    0.51    0.45
   2 -13  12    1.85    0.36
  -2 -13 -12    2.51    0.44
   2  13  12    1.82    1.36
   3 -13  12    0.59    0.44
  -3 -13 -12    0.21    0.29
   2 -14 -12    3.68    1.01
  -2 -14  12    3.86    0.41
  -2 -14  12    3.36    0.36
  -1 -14  12    2.69    0.37
  -1 -14  12    4.81    0.62
   1 -14 -12    2.21    0.84
  -1  14  12    3.38    0.62
   0 -14  12    1.76    0.41
   0 -14 -12    1.54    0.86
   0 -14  12    1.00    0.49
   0 -14  12    1.96    0.37
   1 -14  12    0.56    0.38
   1 -14  12    1.28    0.32
  -1 -14 -12    0.86    0.40
   2 -14  12    0.05    0.28
  -2 -14 -12    0.29    0.32
   2 -14  12   -0.35    0.34
  -2 -15  12    0.14    0.22
  -2 -15  12    0.20    0.25
  -2  15  12   -0.34    0.45
  -1 -15  12    0.92    0.25
  -1 -15  12    1.11    0.32
   1 -15 -12    1.66    0.89
  -1  15  12    0.41    0.68
   0 -15  12    2.84    0.37
   0 -15  12    3.32    0.41
   0 -15 -12    4.28    1.12
   0 -15  12    2.58    0.51
   1 -15  12    0.49    0.39
   1 -15  12    0.41    0.27
  -1 -15 -12   -0.34    0.35
   2 -15  12    3.20    0.36
   2 -15  12    1.82    0.44
  -2 -15 -12    3.07    0.42
  -1 -16  12    1.38    0.28
  -1 -16  12    1.94    0.30
   0 -16  12    1.70    0.34
   0 -16  12    1.34    0.32
   1 -16  12    0.41    0.25
  -1 -16 -12    0.30    0.45
   1 -16  12    1.30    0.54
  -4   0  13    0.31    0.35
  -3   0  13    1.15    0.89
  -3   0  13    0.19    0.51
  -2   0  13    1.03    0.52
  -2   0  13    1.00    0.72
  -1   0  13    4.26    0.85
  -1   0  13    2.50    0.69
   0   0  13    1.34    0.70
   0   0  13    3.16    0.82
   1   0  13   -0.63    0.52
   1   0  13    0.05    0.90
   1   0  13   -0.64    0.67
  -2   0 -13   -0.08    0.44
   2   0  13    0.31    0.72
  -3   0 -13    0.93    0.56
   3   0  13    0.45    0.74
   4   0  13   -0.32    0.61
  -4   0 -13   -0.12    0.32
  -4  -1  13    2.87    0.47
  -4   1  13    2.48    0.47
  -3  -1  13    0.69    0.51
  -3   1  13    0.52    0.75
  -3   1  13    0.95    0.49
  -2  -1  13   12.73    1.01
  -2  -1  13   12.20    1.21
  -2   1  13   12.78    1.02
  -2   1  13   12.47    1.13
  -1  -1  13   25.63    1.70
  -1  -1  13   24.30    1.61
  -1   1  13   22.66    1.59
  -1   1  13   23.30    1.66
   0  -1  13    7.98    1.01
   0  -1  13   10.26    0.99
   0  -1  13    7.85    1.09
   0   1  13   10.74    1.05
   0   1  13   10.26    1.03
   1  -1  13    2.38    0.62
  -1  -1 -13    2.09    0.58
   1  -1  13    1.56    0.70
   1  -1  13    1.80    0.82
   1   1  13    2.24    0.72
   1   1  13    1.02    1.02
  -2  -1 -13    2.77    0.62
   2  -1  13    4.39    0.90
   2  -1  13    4.03    1.02
  -2   1 -13    2.55    0.58
   2   1  13    3.34    0.81
   3  -1  13    1.82    0.68
  -3  -1 -13    1.68    0.54
  -3  -1 -13    1.69    0.55
  -3   1 -13    0.94    0.57
   3   1  13    2.65    0.81
  -4  -1 -13    1.79    0.42
   4  -1  13    2.53    0.58
   4   1  13    1.00    0.83
  -4   1 -13    1.85    0.41
  -4  -2  13    0.57    0.35
  -4   2  13    0.88    0.35
  -3  -2  13    6.30    0.75
  -3   2  13    6.56    0.76
  -3   2  13    7.49    0.98
  -2  -2  13    7.53    0.80
  -2  -2  13    6.58    1.09
  -2   2  13    7.24    0.83
  -1  -2  13    7.65    0.79
   1  -2 -13    6.43    0.83
  -1  -2  13    5.66    1.02
  -1   2  13    5.66    0.87
  -1   2  13    6.72    0.85
   0  -2  13   11.81    1.11
   0  -2 -13   11.32    0.91
   0  -2  13    9.19    1.07
   0  -2  13   11.13    1.01
   0   2  13   11.23    1.19
   0   2  13   12.27    1.08
  -1  -2 -13    4.64    0.63
   1  -2  13    4.47    0.67
   1  -2  13    5.32    0.90
   1  -2  13    4.16    1.00
   1   2  13    5.34    0.84
   2  -2  13    5.21    0.89
   2  -2  13    5.44    0.62
   2  -2  13    4.13    1.09
  -2  -2 -13    5.72    0.69
  -2   2 -13    5.45    0.64
   2   2  13    4.30    0.98
   3  -2  13    1.59    0.70
   3  -2  13    0.83    0.83
  -3  -2 -13    0.50    0.53
  -3  -2 -13    0.89    0.51
  -3   2 -13    1.27    0.57
   3   2  13   -0.93    0.83
  -4  -2 -13    0.63    0.36
   4  -2  13    0.50    0.49
  -4   2 -13   -0.22    0.34
  -4  -3  13   -0.03    0.31
  -4   3  13    0.37    0.36
  -3  -3  13    1.10    0.52
  -3   3  13    0.99    0.52
  -2  -3  13    3.10    0.67
  -2   3  13    3.43    0.69
   1  -3 -13    0.63    0.59
  -1  -3  13    0.54    0.49
  -1  -3  13    0.71    0.54
  -1  -3  13   -0.11    0.78
  -1   3  13    0.75    0.63
  -1   3  13    0.94    0.64
   0  -3  13    9.24    0.91
   0  -3  13    8.15    1.04
   0  -3  13   10.02    1.00
   0  -3 -13   10.59    0.82
   0   3  13    7.14    1.27
   0   3  13    8.16    1.01
   1  -3  13    7.02    0.92
   1  -3  13    6.25    0.92
   1  -3  13    5.79    0.72
  -1  -3 -13    7.00    0.73
   1   3  13    5.37    0.91
   2  -3  13    0.53    0.46
  -2  -3 -13    0.59    0.49
  -2  -3 -13    0.79    0.58
   2  -3  13   -0.23    0.75
   2  -3  13   -0.02    0.65
   2   3  13   -0.01    0.80
  -2   3 -13   -0.11    0.43
  -3  -3 -13    0.14    0.52
  -3  -3 -13    2.41    0.62
   3  -3  13    1.72    0.67
   3  -3  13    0.97    0.64
   3   3  13    1.21    0.76
  -3   3 -13    1.54    0.49
  -4  -3 -13   -0.18    0.35
   4  -3  13   -0.08    0.44
  -4   3 -13    0.20    0.33
  -4  -4  13   -0.40    0.35
  -4   4  13   -0.45    0.53
  -4   4  13    1.08    0.36
  -3  -4  13    3.68    0.64
  -3   4  13    4.10    0.65
  -2  -4  13    3.11    0.67
  -2  -4  13    3.78    0.78
  -2   4  13    3.08    0.71
  -1  -4  13   10.64    0.86
  -1  -4  13   10.83    1.14
  -1  -4  13    8.15    0.95
  -1  -4  13   10.22    0.96
   1  -4 -13    9.31    1.01
  -1   4  13    9.58    0.96
  -1   4  13    9.80    1.06
   0  -4  13   24.94    1.60
   0  -4  13   24.64    1.62
   0  -4 -13   24.24    1.63
   0  -4  13   24.98    1.79
   0  -4  13   25.92    1.69
   0   4  13   25.64    1.73
   1  -4  13    0.03    0.61
   1  -4  13   -0.08    0.46
   1  -4  13    0.08    0.68
  -1  -4 -13    0.06    0.46
   1   4  13    0.69    0.65
   2  -4  13    4.31    0.92
   2  -4  13    4.38    0.58
   2  -4  13    2.68    0.72
  -2  -4 -13    3.66    0.60
  -2  -4 -13    3.40    0.78
   2   4  13    5.26    1.07
  -3  -4 -13    1.16    0.49
   3  -4  13    2.91    0.74
  -3  -4 -13    1.32    0.44
   3  -4  13    1.53    0.61
   3   4  13    3.75    0.81
  -3   4 -13    1.58    0.52
   4  -4  13    0.18    0.43
  -4  -4 -13    0.56    0.34
  -4   4 -13   -0.16    0.31
  -4  -5  13    0.93    0.36
  -4   5  13    1.21    0.35
  -4   5  13    0.65    0.45
  -3  -5  13    0.02    0.49
  -3   5  13    0.50    0.46
  -2  -5  13   -1.07    0.58
  -2  -5  13   -0.06    0.52
  -2   5  13    0.08    0.58
  -1  -5  13   13.70    1.07
   1  -5 -13   11.04    1.25
  -1  -5  13   13.91    0.97
  -1  -5  13   13.37    1.04
  -1  -5  13   11.39    1.26
  -1   5  13   13.20    1.30
   0  -5  13   25.14    1.72
   0  -5  13   26.43    1.64
   0  -5 -13   25.37    1.68
   0  -5  13   25.69    1.64
   0  -5  13   26.74    1.82
   0   5  13   25.10    1.75
   1  -5  13    6.55    0.93
   1  -5  13    6.07    0.98
   1  -5  13    5.61    0.70
  -1  -5 -13    6.77    0.70
   1   5  13    6.42    0.99
   2  -5  13    1.40    0.67
  -2  -5 -13    1.30    0.69
   2  -5  13    0.51    0.70
  -2  -5 -13    0.14    0.46
   2  -5  13    1.34    0.43
   2   5  13    0.86    0.88
  -3  -5 -13    0.50    0.49
   3  -5  13    0.56    0.54
   3  -5  13    0.11    0.48
  -3  -5 -13    0.36    0.44
  -3   5 -13   -0.24    0.56
  -4  -5 -13    0.51    0.35
  -4  -5 -13    0.41    0.93
   4  -5  13   -0.04    0.40
  -4   5 -13   -0.06    0.28
  -4  -6  13    0.58    0.37
  -4   6  13    1.54    0.46
  -4   6  13    1.06    0.36
   3  -6 -13    0.45    1.15
  -3  -6  13    1.67    0.48
  -3   6  13    2.29    0.57
  -2  -6  13    0.43    0.55
  -2  -6  13    0.36    0.56
   2  -6 -13    0.25    1.08
  -2   6  13   -0.02    0.63
  -1  -6  13    0.17    0.45
  -1  -6  13    0.24    0.53
  -1  -6  13    0.09    0.50
   0  -6 -13    0.49    0.53
   0  -6  13    0.94    0.45
   0  -6  13    0.83    0.47
   0  -6  13    0.63    0.84
   0  -6  13    0.30    0.51
   0   6  13    0.48    0.65
  -1  -6 -13    2.36    0.62
   1  -6  13    2.10    0.67
   1  -6  13    2.38    0.55
   1  -6  13    2.74    0.76
   1   6  13    2.90    0.77
   2  -6  13    1.98    0.47
   2  -6  13    1.76    0.65
   2  -6  13    1.54    0.66
  -2  -6 -13    0.92    0.74
  -2  -6 -13    1.70    0.51
   2   6  13    2.93    1.00
  -3  -6 -13   -0.39    0.39
   3  -6  13   -0.53    0.45
   3  -6  13    0.11    0.49
  -3  -6 -13   -0.27    0.47
   4  -6  13    1.05    0.57
  -4  -6 -13    0.28    0.34
   4  -6  13    0.41    0.36
  -4  -6 -13    0.75    0.66
  -4   6 -13    0.07    0.28
  -4  -7  13    2.81    0.60
  -4   7  13    2.33    0.49
  -4   7  13    2.94    0.45
  -3  -7  13    0.45    0.42
   3  -7 -13    1.16    1.06
  -3   7  13    0.33    0.43
  -2  -7  13    3.18    0.72
  -2  -7  13    2.93    0.65
   2  -7 -13    1.61    1.02
  -2  -7  13    1.88    0.59
  -2   7  13    1.63    0.75
  -1  -7  13    8.06    0.75
  -1  -7  13    7.52    0.76
  -1  -7  13    7.84    0.91
   1  -7 -13    9.60    1.70
   0  -7  13   21.60    1.60
   0  -7  13   20.84    1.46
   0  -7  13   20.51    1.35
   0  -7 -13   19.13    1.41
   0  -7  13   20.56    1.36
   0   7  13   20.95    1.49
   1  -7  13   35.73    2.32
   1  -7  13   37.23    2.18
   1  -7  13   36.51    2.28
  -1  -7 -13   32.96    2.21
   1   7  13   36.69    2.35
   2  -7  13    0.64    0.43
   2  -7  13    1.28    0.60
   2  -7  13   -0.03    0.67
  -2  -7 -13    0.96    0.49
   2   7  13    2.03    1.06
   3  -7  13    0.32    0.43
  -3  -7 -13    0.80    0.46
   3  -7  13    0.64    0.44
  -3  -7 -13    0.13    0.36
  -4  -7 -13    0.35    0.36
   4  -7  13    0.86    0.50
   4  -7  13    0.09    0.32
  -4  -7 -13    0.62    0.87
  -4   7 -13    0.00    0.28
  -4   8  13    0.23    0.40
  -4   8  13   -0.13    0.42
  -3  -8  13    1.90    0.54
   3  -8 -13    2.07    1.04
  -3   8  13    2.49    0.53
  -2  -8  13    2.89    0.64
   2  -8 -13    1.52    0.91
  -2  -8  13    3.12    0.64
  -2  -8  13    3.30    0.75
  -2   8  13    2.97    0.83
   1  -8 -13    0.57    1.09
  -1  -8  13    0.63    0.61
  -1  -8  13    0.62    0.44
  -1  -8  13    0.20    0.44
   0  -8  13   14.03    1.36
   0  -8 -13   13.19    1.10
   0  -8  13   12.83    1.00
   0  -8  13   14.07    1.14
   0  -8  13   13.40    0.97
   0   8  13   12.68    1.19
  -1  -8 -13    2.30    0.61
   1  -8  13    1.51    0.61
   1  -8  13    1.84    0.45
   1  -8  13    0.85    0.51
   1  -8  13    4.07    0.88
   1   8  13    2.30    0.81
   2  -8  13    1.04    0.58
  -2  -8 -13    1.21    0.50
   2  -8  13    1.23    0.65
   2  -8  13    1.12    0.42
  -3  -8 -13    3.16    0.48
   3  -8  13    1.53    0.45
   3  -8  13    2.53    0.51
  -3  -8 -13    2.57    0.46
  -3  -9  13    0.37    0.39
   3  -9 -13   -1.02    1.04
  -3   9  13    1.58    0.55
  -2  -9  13    0.67    0.41
   2  -9 -13    0.29    0.87
  -2  -9  13    1.19    0.45
  -2  -9  13    0.41    0.50
   1  -9 -13    1.98    1.00
  -1  -9  13    2.19    0.59
  -1  -9  13    2.43    0.62
  -1  -9  13    2.98    0.54
   0  -9 -13    0.95    0.67
   0  -9 -13   -1.41    1.01
   0  -9  13    0.60    0.41
   0  -9  13    0.19    0.45
   0  -9  13    0.31    0.58
   0   9  13    1.02    0.71
   1  -9  13   10.08    1.00
   1  -9  13   11.12    0.84
   1  -9  13   10.38    0.88
   1  -9  13    9.66    1.14
  -1  -9 -13   10.54    0.95
   1   9  13   10.80    1.18
   2  -9  13    0.69    0.50
   2  -9  13   -0.77    0.50
   2  -9  13   -0.45    0.36
  -2  -9 -13    0.42    0.42
   3  -9  13    0.71    0.39
   3  -9  13    0.71    0.40
  -3  -9 -13    0.77    0.34
  -3 -10  13    5.72    0.61
   3 -10 -13    3.14    1.20
   2 -10 -13    0.87    0.88
  -2 -10  13    1.08    0.40
  -2 -10  13    2.16    0.58
  -2 -10  13    0.78    0.37
  -1 -10  13    0.65    0.43
  -1 -10  13    0.25    0.58
   1 -10 -13   -0.25    0.93
  -1 -10  13    1.15    0.40
   0 -10  13   -0.03    0.38
   0 -10  13   -0.17    0.42
   0 -10 -13   -1.65    0.96
   0 -10 -13    0.60    0.64
   0 -10  13   -0.24    0.54
   0  10  13    1.77    0.78
  -1 -10 -13    3.03    0.67
   1 -10  13    3.32    0.53
   1 -10  13    1.64    0.78
   1 -10  13    2.58    0.67
   1 -10  13    2.62    0.59
   1  10  13    4.90    1.05
   2 -10  13    0.54    0.41
   2 -10  13   -0.11    0.32
   2 -10  13    0.85    0.53
  -2 -10 -13    0.26    0.38
  -3 -10 -13    0.29    0.32
   3 -10  13    0.36    0.39
   3 -10  13    0.13    0.34
  -2 -11  13    1.57    0.38
   2 -11 -13    1.19    0.96
  -2 -11  13    2.00    0.48
  -2 -11  13    1.61    0.43
  -1 -11  13    2.11    0.43
   1 -11 -13    3.20    1.01
  -1 -11  13    3.61    0.52
  -1 -11  13    3.38    0.70
  -1  11  13    3.25    0.68
   0 -11 -13    2.27    0.96
   0 -11 -13    3.70    0.68
   0 -11  13    3.40    0.51
   0 -11  13    3.36    0.74
   0 -11  13    4.37    0.59
   0  11  13    3.31    0.85
   1 -11  13    3.99    0.62
   1 -11  13    3.21    0.71
   1 -11  13    4.27    0.48
  -1 -11 -13    5.22    0.63
   1 -11  13    4.91    0.57
   2 -11  13    2.13    0.40
   2 -11  13    2.29    0.57
  -2 -11 -13    1.86    0.44
   2 -11  13    1.72    0.48
  -3 -11 -13   -0.04    0.31
   3 -11  13   -0.17    0.32
   3 -11  13    0.17    0.37
  -3  12  13    0.03    0.35
   2 -12 -13    5.00    1.20
  -2 -12  13    4.83    0.47
  -2 -12  13    4.77    0.45
  -2 -12  13    3.80    0.60
   1 -12 -13   -1.07    0.95
  -1 -12  13    0.34    0.34
  -1 -12  13    0.09    0.28
  -1 -12  13    0.03    0.46
  -1  12  13   -1.06    0.49
   0 -12 -13   -0.07    1.00
   0 -12  13    0.24    0.48
   0 -12  13    0.52    0.31
   0 -12 -13    1.35    0.52
   0 -12  13   -0.22    0.32
   0  12  13    1.47    0.62
   1 -12  13   -0.04    0.42
  -1 -12 -13    0.38    0.42
   1 -12  13   -0.31    0.31
   2 -12  13    1.01    0.49
  -2 -12 -13    1.18    0.37
   2 -12  13    0.83    0.29
   2 -12  13    1.08    0.36
   2 -13 -13    0.18    1.21
  -2 -13  13    0.24    0.28
  -2 -13  13    0.21    0.25
  -2  13  13    0.24    0.40
   1 -13 -13    0.71    0.92
  -1 -13  13    0.27    0.30
  -1 -13  13    0.64    0.46
  -1 -13  13    0.29    0.26
  -1  13  13    1.01    0.49
   0 -13 -13    1.69    0.75
   0 -13  13    4.71    0.61
   0 -13 -13    5.46    1.28
   0 -13  13    3.88    0.46
   0 -13  13    3.54    0.42
   0  13  13    6.33    0.94
  -1 -13 -13    1.14    0.44
   1 -13  13    1.36    0.41
   1 -13  13    1.43    0.35
   2 -13  13   -0.03    0.28
   2 -13  13    0.08    0.33
  -2 -13 -13    0.14    0.32
  -2 -14  13    7.08    0.53
  -2 -14  13    6.97    0.52
  -2  14  13    7.18    0.63
  -1 -14  13    0.18    0.25
   1 -14 -13   -0.96    1.05
  -1 -14  13   -0.05    0.52
  -1 -14  13    0.02    0.27
  -1  14  13   -0.45    0.47
   0 -14  13    9.01    0.62
   0 -14  13    7.69    0.72
   0 -14  13    8.81    0.64
   1 -14  13   -0.11    0.26
  -1 -14 -13    0.47    0.37
   1 -14  13   -0.16    0.36
   2 -14  13    0.28    0.31
  -2 -14 -13    0.18    0.29
   2 -14  13    0.27    0.25
  -1 -15  13    1.20    0.27
  -1 -15  13    1.37    0.31
   0 -15  13    0.65    0.26
   0 -15  13    2.22    0.50
   0 -15  13    0.35    0.27
  -1 -15 -13   -0.44    0.41
   1 -15  13    0.34    0.38
   1 -15  13    0.19    0.25
   0 -16  13    0.46    0.23
  -4   0  14    1.41    0.34
  -3   0  14    3.00    0.60
  -2   0  14    4.72    0.70
  -2   0  14    4.44    0.93
  -1   0  14    1.68    0.58
  -1   0  14    1.43    0.70
   0   0  14   28.56    1.94
   0   0  14   30.10    1.97
  -1   0 -14   15.97    1.13
   1   0  14   15.57    1.43
   1   0  14   16.11    1.30
  -2   0 -14   13.83    1.05
   2   0  14   14.38    1.23
   3   0  14    0.14    0.54
  -3   0 -14    0.73    0.44
  -3   0 -14    0.33    0.39
  -4   0 -14    0.12    0.31
   4   0  14    0.59    0.76
  -4  -1  14    2.51    0.41
  -4   1  14    2.12    0.44
  -3  -1  14    0.70    0.45
  -3   1  14    1.02    0.46
  -3   1  14   -0.41    0.58
  -2  -1  14    9.92    0.85
  -2  -1  14    8.40    1.07
  -2   1  14    9.18    0.86
  -2   1  14    8.40    0.97
   1  -1 -14    1.18    0.54
  -1  -1  14    1.00    0.68
  -1  -1  14    1.17    0.55
  -1   1  14    3.31    0.73
  -1   1  14    1.51    0.65
   0  -1  14    3.81    0.83
   0  -1  14    4.02    0.84
   0  -1 -14    0.34    0.43
   0   1  14    0.27    0.73
   1  -1  14    0.33    0.52
   1  -1  14    1.89    0.77
   1  -1  14    1.57    0.69
   1   1  14    0.89    0.66
   1   1  14    2.03    1.01
   2  -1  14    0.80    0.95
   2  -1  14    0.69    0.67
  -2  -1 -14    1.17    0.50
   2   1  14   -0.11    0.71
  -2   1 -14    0.73    0.47
   3  -1  14    0.11    0.55
  -3  -1 -14    0.38    0.45
  -3  -1 -14    0.26    0.40
  -3   1 -14    0.06    0.43
   3   1  14    0.15    0.58
   4  -1  14    0.21    0.57
  -4  -1 -14    0.99    0.33
  -4   1 -14   -0.15    0.30
  -4  -2  14    0.06    0.32
  -4   2  14    0.02    0.31
  -3  -2  14    0.88    0.41
  -3   2  14    1.25    0.41
  -3   2  14    0.07    0.58
  -2  -2  14   -1.65    0.87
  -2  -2  14    0.01    0.48
  -2   2  14    0.14    0.51
  -2   2  14    0.59    0.66
   1  -2 -14   23.73    1.57
  -1  -2  14   24.34    1.60
  -1  -2  14   22.26    1.68
  -1   2  14   23.79    1.62
  -1   2  14   24.63    1.64
   0  -2  14    3.73    0.83
   0  -2  14    3.15    0.78
   0  -2 -14    4.36    0.63
   0  -2  14    3.65    0.80
   0   2  14    3.92    0.78
   0   2  14    3.74    0.88
   1  -2  14   13.09    1.20
   1  -2  14   13.88    1.22
  -1  -2 -14   13.17    1.01
   1  -2  14   13.11    1.00
   1   2  14   12.82    1.15
   2  -2  14    9.34    1.13
  -2  -2 -14    7.32    0.77
   2  -2  14    8.15    0.97
  -2   2 -14    7.01    0.74
   2   2  14    8.00    1.01
  -3  -2 -14    0.15    0.48
   3  -2  14    0.67    0.51
  -3  -2 -14   -0.03    0.39
   3   2  14    0.12    0.59
  -3   2 -14   -0.37    0.40
  -4  -2 -14   -0.03    0.33
   4  -2  14    0.09    0.49
  -4   2 -14    0.00    0.30
  -4  -3  14    9.36    0.74
  -4   3  14   11.28    0.75
  -3  -3  14   -0.14    0.38
  -3   3  14    0.22    0.56
  -3   3  14   -0.31    0.40
  -2  -3  14    2.91    0.65
  -2   3  14    1.76    0.57
  -2   3  14    1.44    0.66
   1  -3 -14    4.34    0.80
  -1  -3  14    6.21    0.98
  -1  -3  14    5.91    0.77
  -1   3  14    6.21    0.89
  -1   3  14    6.37    0.83
   0  -3  14   -0.57    0.58
   0  -3  14   -0.03    0.57
   0  -3 -14   -0.19    0.45
   0  -3  14    0.17    0.70
   0   3  14   -0.42    0.62
   0   3  14    1.03    0.93
   1  -3  14    7.88    0.98
   1  -3  14    7.84    0.73
  -1  -3 -14    6.84    0.75
   1  -3  14    7.26    1.00
   1   3  14    7.67    0.93
   2  -3  14    0.03    0.44
  -2  -3 -14    0.56    0.64
   2  -3  14   -0.17    0.66
   2  -3  14    0.31    0.77
  -2  -3 -14    0.40    0.50
  -2   3 -14    0.51    0.44
   2   3  14    0.56    0.78
  -3  -3 -14    0.41    0.45
   3  -3  14    0.25    0.70
   3  -3  14    1.13    0.51
   3   3  14   -0.61    0.60
  -3   3 -14    0.09    0.43
   4  -3  14   -0.06    0.42
  -4  -3 -14    0.57    0.34
  -4   3 -14    0.40    0.30
  -4  -4  14    0.81    0.34
  -4   4  14    0.91    0.32
  -3  -4  14    3.57    0.55
  -3   4  14    3.28    0.67
  -3   4  14    3.46    0.58
  -2  -4  14    2.42    0.68
  -2   4  14    2.09    0.63
  -2   4  14    2.48    0.66
   1  -4 -14    7.30    0.89
  -1  -4  14    7.58    0.82
  -1  -4  14    7.75    1.04
  -1  -4  14    7.19    0.75
  -1   4  14    7.26    0.99
  -1   4  14    5.89    0.88
   0  -4 -14    1.95    0.56
   0  -4  14    0.18    0.60
   0  -4  14    2.08    0.78
   0  -4  14    1.00    0.54
   0   4  14    2.28    0.66
   1  -4  14    0.16    0.47
   1  -4  14    0.37    0.64
  -1  -4 -14    0.01    0.48
   1  -4  14    0.66    0.67
   1   4  14    0.10    0.62
   2  -4  14    2.49    0.67
  -2  -4 -14    2.34    0.71
   2  -4  14    3.07    0.75
  -2  -4 -14    1.88    0.52
   2  -4  14    2.40    0.55
   2   4  14    1.60    0.83
  -2   4 -14    2.36    0.56
  -3  -4 -14    3.72    0.56
  -3  -4 -14    3.63    0.51
   3  -4  14    2.59    0.62
   3  -4  14    2.28    0.62
   3   4  14    2.60    0.74
  -3   4 -14    2.01    0.55
  -4  -4 -14   -0.71    0.33
   4  -4  14    0.50    0.40
  -4   4 -14   -0.36    0.28
  -4  -5  14    0.55    0.33
  -4   5  14    0.88    0.32
  -3  -5  14    0.59    0.39
  -3   5  14    0.48    0.40
  -3   5  14    0.22    0.52
  -2  -5  14    5.60    0.75
  -2   5  14    5.07    0.83
  -1  -5  14   -2.21    0.88
  -1  -5  14    0.57    0.56
   1  -5 -14    0.38    0.74
  -1  -5  14    0.52    0.51
  -1  -5  14    0.24    0.49
  -1   5  14    0.22    0.80
  -1   5  14    0.66    0.59
   0  -5 -14    2.20    0.55
   0  -5  14    1.41    0.48
   0  -5  14    2.67    0.65
   0  -5  14    1.75    0.57
   0  -5  14    2.86    0.83
   0   5  14    2.55    0.65
   1  -5  14   -0.93    0.68
  -1  -5 -14   -0.12    0.47
   1  -5  14   -0.51    0.44
   1  -5  14    0.78    0.55
   1   5  14    0.35    0.65
   2  -5  14    3.53    0.55
   2  -5  14    2.45    0.71
  -2  -5 -14    3.29    0.59
   2  -5  14    2.23    0.72
   2   5  14    2.51    0.87
  -2   5 -14    2.67    0.55
   3  -5  14    0.25    0.48
  -3  -5 -14   -0.05    0.38
   3  -5  14   -0.13    0.44
  -3  -5 -14    0.77    0.45
  -3   5 -14    0.27    0.53
   4  -5  14    0.01    0.37
  -4  -5 -14    0.07    0.34
  -4   5 -14   -0.11    0.28
  -4  -6  14    0.76    0.40
  -4   6  14    0.50    0.36
  -4   6  14    0.16    0.61
  -3  -6  14    4.32    0.58
  -3   6  14    4.50    0.59
  -2  -6  14    5.40    0.72
  -2  -6  14    4.99    0.73
  -2   6  14    3.68    0.81
  -1  -6  14   -0.18    0.56
  -1  -6  14   -0.39    0.54
  -1  -6  14   -0.57    0.44
  -1   6  14   -0.43    0.61
   0  -6  14    2.75    0.63
   0  -6  14    2.25    0.60
   0  -6 -14    3.67    0.71
   0  -6  14    2.46    0.65
   0  -6  14    2.69    0.87
   0   6  14    3.58    0.78
   1  -6  14   -0.33    0.71
   1  -6  14    0.14    0.55
   1  -6  14    0.29    0.46
  -1  -6 -14    0.00    0.47
   1   6  14   -0.03    0.65
  -2  -6 -14    1.67    0.49
   2  -6  14    3.19    0.73
   2  -6  14    1.29    0.45
   2  -6  14    1.78    0.64
   2   6  14    1.05    0.85
  -3  -6 -14    3.92    0.51
   3  -6  14    3.97    0.59
   3  -6  14    4.00    0.58
  -3  -7  14    0.18    0.40
  -3   7  14   -0.77    0.43
  -2  -7  14    3.72    0.68
  -2  -7  14    3.30    0.64
  -2   7  14    3.78    0.80
  -1  -7  14    0.32    0.49
  -1  -7  14    1.02    0.46
  -1  -7  14    0.32    0.55
  -1   7  14    0.50    0.61
   0  -7 -14    0.71    0.56
   0  -7  14    0.37    0.84
   0  -7  14   -0.43    0.43
   0  -7  14   -0.40    0.43
   0  -7  14   -0.75    0.58
   0   7  14   -0.04    0.61
   1  -7  14    1.45    0.46
  -1  -7 -14    1.94    0.51
   1  -7  14    2.30    0.76
   1  -7  14    2.19    0.65
   1   7  14    0.46    0.69
   2  -7  14    1.68    0.57
   2  -7  14    1.77    0.46
   2  -7  14    2.02    0.60
  -2  -7 -14    1.09    0.46
   2   7  14    0.34    0.78
  -3  -7 -14   -0.17    0.42
   3  -7  14   -0.23    0.40
  -3  -7 -14    0.19    0.33
   3  -7  14    0.35    0.40
  -3  -8  14    1.49    0.37
  -3   8  14    1.65    0.49
  -2  -8  14   -0.44    0.45
  -2  -8  14    0.90    0.41
  -2  -8  14    0.28    0.46
  -1  -8  14    1.47    0.57
  -1  -8  14    0.77    0.46
  -1  -8  14    0.71    0.47
  -1   8  14    0.73    0.63
   0  -8 -14    1.61    0.63
   0  -8  14    0.81    0.45
   0  -8  14    1.75    0.63
   0  -8  14    1.87    0.50
   0  -8  14    1.66    0.91
   0   8  14    1.65    0.64
  -1  -8 -14    1.14    0.52
   1  -8  14    1.82    0.73
   1  -8  14    1.52    0.59
   1  -8  14    1.30    0.44
   1   8  14    0.92    0.75
   2  -8  14    7.95    0.82
   2  -8  14    8.74    0.66
   2  -8  14    7.63    0.75
  -2  -8 -14    7.78    0.73
  -3  -8 -14   -0.10    0.34
   3  -8  14    0.28    0.39
   3  -8  14    0.49    0.37
  -3  -9  14    2.41    0.50
  -3   9  14    3.11    0.53
  -2  -9  14    0.43    0.39
  -2  -9  14    0.81    0.38
  -2  -9  14    1.76    0.48
  -1  -9  14    5.12    0.62
  -1  -9  14    4.79    0.80
  -1  -9  14    5.22    0.62
  -1   9  14    4.18    0.80
   0  -9  14    0.39    0.39
   0  -9  14   -0.23    0.43
   0  -9  14    0.70    0.61
   0  -9 -14    0.58    0.65
   0   9  14    0.88    0.64
   1  -9  14    0.52    0.62
   1  -9  14    1.10    0.56
  -1  -9 -14    0.62    0.53
   1  -9  14    2.17    0.48
   1   9  14    1.57    0.69
  -2  -9 -14    4.35    0.53
   2  -9  14    3.56    0.65
   2  -9  14    3.71    0.45
   2  -9  14    3.37    0.55
  -3  -9 -14   -0.08    0.31
   3  -9  14   -0.37    0.37
   3  -9  14   -0.05    0.32
  -3  10  14    0.18    0.39
  -2 -10  14    0.10    0.42
  -2 -10  14    0.55    0.35
  -2 -10  14    0.60    0.32
  -2  10  14    0.31    0.42
  -1 -10  14    3.54    0.49
  -1 -10  14    4.53    0.48
  -1 -10  14    3.98    0.69
  -1  10  14    3.40    0.66
   0 -10  14    7.70    0.65
   0 -10  14    7.61    0.79
   0 -10 -14    6.88    0.76
   0 -10  14    8.03    0.69
   0  10  14    7.97    0.88
  -1 -10 -14    1.25    0.43
   1 -10  14    1.01    0.35
   1 -10  14   -0.12    0.56
   1 -10  14    0.73    0.46
   1  10  14    0.75    0.73
   2 -10  14    2.42    0.47
   2 -10  14    1.48    0.49
   2 -10  14    1.97    0.37
  -2 -10 -14    3.02    0.46
  -3 -10 -14   -0.08    0.29
   3 -10  14    0.36    0.34
   3 -10  14    0.16    0.30
  -3  11  14    0.43    0.37
  -2 -11  14    0.17    0.31
  -2 -11  14    0.39    0.32
  -2 -11  14    0.48    0.43
  -2  11  14   -0.36    0.39
  -1 -11  14    0.30    0.30
  -1 -11  14    0.13    0.33
   1 -11 -14   -1.76    1.54
  -1 -11  14    0.13    0.44
  -1  11  14    0.68    0.49
   0 -11  14    2.54    0.60
   0 -11  14    1.91    0.38
   0 -11  14    1.72    0.39
   0 -11 -14    1.70    0.47
   0  11  14    2.35    0.67
   1 -11  14   -0.38    0.41
  -1 -11 -14   -0.16    0.42
   1 -11  14   -0.58    0.27
   1 -11  14   -0.13    0.60
   2 -11  14    0.12    0.45
  -2 -11 -14    0.13    0.30
   2 -11  14    0.10    0.27
   2 -11  14    0.09    0.33
  -2  11 -14    0.25    0.38
  -2 -12  14    0.00    0.28
  -2 -12  14    0.93    0.45
  -2 -12  14    0.10    0.28
  -2  12  14    0.04    0.38
  -1 -12  14    1.93    0.37
  -1 -12  14    1.66    0.36
  -1 -12  14    1.88    0.52
   1 -12 -14    1.47    1.82
  -1  12  14    0.92    0.50
   0 -12  14    5.85    0.55
   0 -12 -14    7.31    0.69
   0 -12  14    5.40    0.67
   0 -12  14    6.17    0.52
   0  12  14    6.65    0.80
  -1 -12 -14    2.98    0.50
   1 -12  14    3.38    0.40
   1 -12  14    3.04    0.53
   2 -12  14    1.63    0.31
  -2 -12 -14    1.48    0.39
   2 -12  14    0.66    0.34
   2 -12  14    1.99    0.55
  -2 -13  14    0.77    0.29
  -2 -13  14    0.94    0.29
  -2  13  14    1.53    0.44
  -1 -13  14    0.32    0.43
  -1 -13  14   -0.17    0.25
  -1 -13  14   -0.18    0.26
  -1  13  14    0.14    0.43
   0 -13  14    0.00    0.27
   0 -13  14   -0.16    0.26
   0 -13  14    0.12    0.41
   1 -13  14    0.84    0.28
  -1 -13 -14    0.25    0.36
   1 -13  14    0.97    0.36
   2 -13  14   -0.39    0.31
  -2 -13 -14    0.24    0.30
   2 -13  14   -0.11    0.24
  -1 -14  14    0.75    0.25
  -1 -14  14    1.05    0.30
  -1  14  14    1.92    0.60
   0 -14  14    0.08    0.38
   0 -14  14    0.25    0.26
   0 -14  14   -0.36    0.21
  -1 -14 -14   -0.29    0.40
   1 -14  14    0.89    0.36
   1 -14  14    0.24    0.24
   0 -15  14    0.55    0.23
  -4   0  15    0.12    0.30
  -3   0  15   -0.05    0.36
  -2   0  15    0.50    0.48
  -2   0  15    0.81    0.71
   1   0 -15    0.03    0.52
  -1   0  15   -0.22    0.64
  -1   0  15   -0.18    0.53
   0   0  15    0.01    0.58
   0   0  15   -0.13    0.66
  -1   0 -15    0.34    0.43
   1   0  15    1.22    0.66
   1   0  15   -0.39    0.83
   2   0  15   -0.61    0.62
  -2   0 -15   -0.36    0.45
  -3   0 -15   -0.74    0.35
   3   0  15   -0.53    0.50
  -3   0 -15    0.17    0.40
  -4  -1  15    5.17    0.48
  -4   1  15    4.95    0.48
  -3  -1  15    0.03    0.36
  -3   1  15    1.19    0.53
  -3   1  15    0.41    0.38
  -2  -1  15    9.47    0.82
  -2  -1  15    6.51    1.07
  -2   1  15    8.13    0.97
  -2   1  15    7.62    0.79
   1  -1 -15   -0.56    0.53
  -1  -1  15   -0.33    0.53
  -1  -1  15   -0.05    0.67
  -1   1  15    0.17    0.57
  -1   1  15    1.48    0.65
   0  -1  15    0.79    0.61
   0  -1  15    1.85    0.66
   0  -1 -15    1.14    0.47
   0   1  15    2.06    0.74
   0   1  15    1.44    0.63
   1  -1  15   -0.82    0.72
  -1  -1 -15    0.47    0.44
   1  -1  15   -0.12    0.68
  -1   1 -15   -0.13    0.44
   1   1  15   -0.98    1.08
   1   1  15   -0.14    0.64
  -2  -1 -15    0.54    0.46
   2  -1  15    1.05    0.91
   2  -1  15   -0.01    0.63
  -2   1 -15    0.06    0.47
   2   1  15    0.70    0.71
   3  -1  15    0.04    0.45
  -3  -1 -15    0.13    0.42
  -3  -1 -15    0.02    0.37
  -3   1 -15   -0.19    0.40
  -3   1 -15   -0.68    0.35
   3   1  15    0.95    0.51
  -4  -2  15    0.89    0.30
  -4   2  15    0.23    0.29
  -3  -2  15    0.52    0.37
  -3   2  15    0.12    0.38
  -3   2  15   -0.39    0.46
  -2  -2  15    0.39    0.78
  -2  -2  15    0.06    0.49
  -2   2  15    0.90    0.65
  -2   2  15   -0.16    0.48
   1  -2 -15    7.60    0.89
  -1  -2  15    9.31    1.03
  -1  -2  15    9.29    0.88
  -1   2  15    9.20    0.95
  -1   2  15    9.26    0.95
   0  -2 -15    3.11    0.58
   0  -2  15    3.46    0.89
   0  -2  15    2.06    0.68
   0  -2  15    2.65    0.74
   0   2  15    2.80    0.80
   0   2  15    1.62    0.82
   1  -2  15    0.73    0.70
  -1  -2 -15    0.93    0.49
   1  -2  15    0.15    0.68
   1  -2  15    0.58    0.52
   1   2  15    0.07    0.63
  -2  -2 -15    0.69    0.58
  -2  -2 -15    0.02    0.47
   2  -2  15    0.46    0.65
   2  -2  15    1.85    0.80
  -2   2 -15    0.18    0.42
   2   2  15    0.97    0.71
  -3  -2 -15    2.28    0.44
  -3  -2 -15    2.10    0.50
   3  -2  15    1.48    0.49
   3   2  15    0.23    0.54
  -3   2 -15    1.77    0.40
  -4  -3  15    2.57    0.38
  -4   3  15    2.09    0.38
  -3  -3  15    0.81    0.37
  -3   3  15   -0.58    0.50
  -3   3  15    0.63    0.39
  -2  -3  15    1.86    0.54
  -2   3  15    1.09    0.53
  -2   3  15    1.39    0.64
  -1  -3  15    0.00    0.50
  -1  -3  15   -0.26    0.72
   1  -3 -15    0.62    0.68
  -1   3  15   -0.83    0.58
  -1   3  15    0.74    0.67
   0  -3  15    8.12    1.01
   0  -3 -15    7.67    0.77
   0  -3  15    6.85    0.83
   0  -3  15    6.71    0.80
   0   3  15    5.49    0.86
   0   3  15    5.49    1.50
   1  -3  15    6.00    0.88
   1  -3  15    3.62    0.62
  -1  -3 -15    4.75    0.67
   1  -3  15    4.40    0.87
   1   3  15    5.47    0.86
  -2  -3 -15    0.14    0.55
   2  -3  15    1.19    0.61
  -2  -3 -15    0.76    0.50
   2  -3  15    0.64    0.68
   2   3  15    0.60    0.69
  -2   3 -15    0.87    0.44
  -3  -3 -15    0.73    0.42
   3  -3  15    0.12    0.44
  -3  -3 -15    0.82    0.37
  -3   3 -15   -0.06    0.39
   3   3  15    0.26    0.55
  -3  -4  15    1.14    0.37
  -3   4  15    0.78    0.41
  -3   4  15    0.73    0.49
  -2  -4  15   -0.34    0.49
  -2   4  15    0.03    0.54
  -2   4  15    0.06    0.57
  -1  -4  15    1.90    0.56
   1  -4 -15    0.48    0.71
  -1  -4  15    1.12    0.84
  -1   4  15    1.61    0.63
  -1   4  15    1.23    0.76
   0  -4  15    0.17    0.50
   0  -4  15   -0.61    0.76
   0  -4 -15    0.27    0.54
   0  -4  15    0.00    0.55
   0   4  15   -0.03    0.61
   1  -4  15   -0.22    0.64
   1  -4  15    0.23    0.46
   1  -4  15    0.37    0.71
  -1  -4 -15    0.44    0.49
   1   4  15   -0.37    0.59
   2  -4  15   -1.10    0.59
  -2  -4 -15    0.54    0.43
   2  -4  15    0.97    0.54
  -2  -4 -15   -0.49    0.53
   2   4  15   -0.12    0.64
  -2   4 -15    0.20    0.40
   3  -4  15   -0.14    0.59
   3  -4  15    0.63    0.42
  -3  -4 -15    0.85    0.36
  -3  -4 -15    1.08    0.43
   3   4  15    1.01    0.68
  -3   4 -15    0.18    0.43
  -3  -5  15    0.37    0.35
  -3   5  15    0.09    0.38
  -3   5  15   -0.12    0.46
  -2  -5  15    0.21    0.47
  -2   5  15    1.13    0.58
  -2   5  15   -0.53    0.47
  -1  -5  15    5.88    1.20
  -1  -5  15   10.12    0.91
  -1   5  15    7.96    1.12
  -1   5  15    8.01    0.95
   0  -5  15    0.56    0.80
   0  -5 -15    1.18    0.57
   0  -5  15    1.03    0.58
   0  -5  15    2.00    0.53
   0   5  15    1.68    0.62
  -1  -5 -15   14.57    1.06
   1  -5  15   13.84    0.99
   1  -5  15   13.46    1.12
   1  -5  15   13.91    1.22
   1   5  15   13.21    1.17
  -2  -5 -15    0.05    0.35
   2  -5  15    0.37    0.52
   2  -5  15   -0.23    0.33
   2  -5  15   -0.21    0.49
   2   5  15   -0.17    0.62
  -2   5 -15    0.24    0.36
   3  -5  15    0.47    0.47
  -3  -5 -15    0.29    0.34
   3  -5  15    1.07    0.43
  -3  -5 -15    0.94    0.43
  -3   5 -15    1.45    0.54
  -3  -6  15   -0.07    0.35
  -3   6  15   -0.68    0.42
  -3   6  15   -0.24    0.37
  -2  -6  15   -0.83    0.40
  -2   6  15    0.15    0.48
  -2   6  15    0.39    0.51
  -1  -6  15    0.30    0.53
  -1  -6  15    0.28    0.60
  -1   6  15   -0.16    0.60
   0  -6  15    1.90    0.84
   0  -6 -15    2.57    0.65
   0  -6  15    2.44    0.53
   0  -6  15    2.48    0.63
   0   6  15    2.94    0.77
   1  -6  15    0.28    0.42
  -1  -6 -15   -0.06    0.46
   1  -6  15    0.46    0.55
   1  -6  15   -0.51    0.63
   1   6  15    0.93    0.64
  -2  -6 -15    0.55    0.38
   2  -6  15   -0.11    0.34
   2  -6  15    0.11    0.49
   2  -6  15    0.26    0.47
  -2   6 -15   -0.26    0.34
   2   6  15   -1.44    0.62
   3  -6  15   -0.40    0.41
  -3  -6 -15    0.00    0.31
   3  -6  15    0.05    0.38
  -3  -7  15    0.89    0.36
  -3   7  15    1.57    0.43
  -3   7  15    1.49    0.46
  -2  -7  15    1.50    0.43
  -2   7  15    1.80    0.49
  -1  -7  15    4.77    0.72
  -1  -7  15    5.31    0.61
  -1   7  15    5.51    0.80
   0  -7  15    2.45    0.58
   0  -7  15    1.52    0.46
   0  -7  15    0.73    0.83
   0  -7 -15    1.48    0.58
   0   7  15    1.32    0.62
  -1  -7 -15    4.35    0.63
   1  -7  15    3.48    0.84
   1  -7  15    4.38    0.71
   1  -7  15    3.54    0.54
   1   7  15    4.51    0.80
  -2  -7 -15    0.27    0.38
   2  -7  15    0.45    0.49
   2  -7  15    0.56    0.44
   2  -7  15    0.30    0.31
   2   7  15    1.27    0.69
  -2   7 -15    0.23    0.34
   3  -7  15    0.02    0.38
   3  -7  15   -0.88    0.38
  -3  -7 -15    0.37    0.32
  -3  -8  15    2.26    0.42
  -3   8  15    1.77    0.42
  -2  -8  15    0.00    0.41
  -2   8  15    0.23    0.48
  -1  -8  15   -0.16    0.43
  -1  -8  15   -0.12    0.38
  -1  -8  15    0.17    0.34
  -1   8  15    0.31    0.53
   0  -8 -15    2.30    0.63
   0  -8  15    2.62    0.51
   0  -8  15    2.50    0.70
   0   8  15    1.89    0.64
   1  -8  15   -1.21    0.56
  -1  -8 -15   -0.54    0.41
   1  -8  15   -0.39    0.42
   1  -8  15   -0.21    0.34
   1   8  15   -0.40    0.57
   2  -8  15    0.51    0.29
  -2  -8 -15    0.08    0.35
   2  -8  15    0.26    0.46
   2  -8  15    1.00    0.41
  -2   8 -15    0.39    0.32
   3  -8  15    0.68    0.35
   3  -8  15    0.45    0.35
  -3  -8 -15    0.08    0.30
  -3  -9  15   -0.61    0.42
  -3   9  15    0.08    0.36
  -2  -9  15    2.50    0.54
  -2   9  15    2.95    0.53
  -1  -9  15   -0.28    0.33
  -1  -9  15    0.39    0.44
  -1  -9  15   -0.44    0.33
  -1   9  15    0.62    0.50
   0  -9  15    0.62    0.42
   0  -9  15    0.88    0.36
   0  -9 -15    0.10    0.49
   0   9  15    0.80    0.55
   1  -9  15    0.64    0.56
   1  -9  15    0.44    0.45
  -1  -9 -15   -0.34    0.40
   1  -9  15    0.24    0.33
   1   9  15   -0.04    0.57
   2  -9  15    0.64    0.28
  -2  -9 -15    0.34    0.33
   2  -9  15    0.13    0.32
   2  -9  15    0.58    0.45
  -2   9 -15    0.47    0.32
   3  -9  15    0.40    0.36
  -3  -9 -15   -0.03    0.32
   3  -9  15    0.40    0.34
  -2 -10  15    1.02    0.39
  -2 -10  15    1.17    0.46
  -2  10  15    1.22    0.40
  -1 -10  15    1.46    0.40
  -1 -10  15    2.49    0.40
  -1 -10  15    1.94    0.55
  -1  10  15    2.41    0.60
   0 -10  15    4.41    0.59
   0 -10 -15    3.92    0.59
   0 -10  15    4.94    0.48
   0  10  15    4.75    0.74
  -1 -10 -15    0.23    0.39
   1 -10  15    0.43    0.30
   1 -10  15   -0.03    0.42
   1 -10  15   -0.52    0.49
   1  10  15    1.10    0.73
   2 -10  15   -0.13    0.31
   2 -10  15    0.28    0.41
  -2 -10 -15   -0.04    0.32
   2 -10  15   -0.03    0.26
  -2  10 -15    0.32    0.32
  -2 -11  15    7.09    0.63
  -2 -11  15    5.75    0.66
  -2  11  15    7.59    0.62
  -1 -11  15    0.54    0.30
  -1 -11  15    0.67    0.40
  -1 -11  15    0.07    0.28
  -1  11  15    0.45    0.42
   0 -11 -15    2.39    0.53
   0 -11  15    0.82    0.41
   0 -11  15    0.74    0.30
   0  11  15    0.77    0.53
  -1 -11 -15    1.13    0.38
   1 -11  15    1.79    0.35
   1 -11  15    1.80    0.44
  -2 -11 -15    0.57    0.33
   2 -11  15    0.11    0.31
   2 -11  15    0.66    0.25
   2 -11  15    0.37    0.47
  -2  11 -15    0.40    0.47
  -2 -12  15   -0.26    0.45
  -2  12  15    0.37    0.36
  -1 -12  15    0.39    0.27
  -1 -12  15    0.77    0.28
  -1 -12  15    0.22    0.37
  -1  12  15    0.74    0.40
   0 -12  15   -0.27    0.25
   0 -12  15    0.75    0.40
   0  12  15    0.41    0.56
  -1 -12 -15    2.94    0.47
   1 -12  15    2.45    0.34
   1 -12  15    2.52    0.44
  -2 -12 -15    0.93    0.33
  -1 -13  15   -0.25    0.25
  -1  13  15   -0.23    0.47
   0 -13  15    0.43    0.37
   0 -13  15   -0.03    0.23
   1 -13  15    0.02    0.21
  -1 -13 -15   -0.28    0.37
   1 -13  15    0.32    0.33
   0 -14  15    0.33    0.22
   0 -14  15   -0.40    0.40
  -3   0  16   -0.31    0.32
  -2   0  16    3.80    0.58
  -2   0  16    4.08    0.75
  -1   0  16    0.40    0.53
   1   0 -16   -0.44    0.54
  -1   0  16    1.46    0.64
   0   0 -16    3.71    0.63
   0   0  16    3.44    0.80
   0   0  16    5.85    0.86
  -1   0 -16    7.68    0.73
   1   0  16    6.03    0.87
   1   0  16    6.26    1.06
   2   0  16   -0.05    0.49
  -2   0 -16    0.30    0.38
   3   0  16    0.80    0.44
  -3   0 -16    0.51    0.39
  -3   0 -16    1.05    0.34
  -3  -1  16    0.52    0.35
  -3   1  16    0.76    0.37
  -2  -1  16    4.61    0.70
  -2  -1  16    5.61    0.59
  -2   1  16    4.32    0.65
  -2   1  16    5.79    0.75
  -1  -1  16    5.93    0.76
   1  -1 -16    5.36    0.75
  -1  -1  16    5.04    0.87
  -1   1  16    6.26    0.83
  -1   1  16    5.96    0.87
   1   1 -16    6.77    0.72
   0  -1 -16    1.40    0.47
   0  -1  16    1.87    0.67
   0  -1  16    1.91    0.62
   0   1  16    1.81    0.63
   0   1 -16    2.57    0.57
   0   1  16    2.05    0.72
   1  -1  16    9.57    1.05
   1  -1  16    9.69    0.98
  -1  -1 -16    8.83    0.84
   1   1  16    7.77    0.97
  -1   1 -16    9.64    0.81
  -2  -1 -16   -0.37    0.37
  -2  -1 -16    0.66    0.47
   2  -1  16    0.11    0.52
   2   1  16    0.91    0.53
  -2   1 -16    0.30    0.38
  -3  -1 -16    0.11    0.35
   3  -1  16    0.22    0.39
  -3  -1 -16   -0.85    0.37
  -3   1 -16   -0.04    0.38
   3   1  16   -0.18    0.44
  -3   1 -16   -0.67    0.34
  -3  -2  16    0.61    0.35
  -3   2  16    0.73    0.51
  -3   2  16    0.13    0.34
  -2  -2  16    1.08    0.40
  -2  -2  16    0.32    0.53
  -2   2  16    0.87    0.45
  -2   2  16    1.35    0.54
  -1  -2  16    3.42    0.70
  -1  -2  16    3.42    0.85
   1  -2 -16    3.87    0.75
  -1   2  16    3.30    0.76
  -1   2  16    3.62    0.76
   0  -2 -16    5.93    0.74
   0  -2  16    7.73    0.93
   0  -2  16    5.92    0.82
   0   2  16    5.91    0.85
   0   2  16    5.50    1.08
   1  -2  16    1.20    0.66
  -1  -2 -16    1.37    0.49
   1  -2  16    0.80    0.67
  -1   2 -16    2.01    0.54
   1   2  16    0.51    0.65
   2  -2  16    2.06    0.69
  -2  -2 -16    1.08    0.39
   2  -2  16    0.63    0.50
  -2  -2 -16    1.04    0.49
   2   2  16    1.36    0.54
  -2   2 -16    0.64    0.38
  -3  -2 -16    0.74    0.40
  -3  -2 -16    0.23    0.34
   3  -2  16    0.15    0.39
   3   2  16    0.70    0.47
  -3   2 -16    0.10    0.36
  -3   2 -16    0.38    0.35
  -3  -3  16    0.05    0.32
  -3   3  16    0.37    0.46
  -3   3  16   -0.08    0.34
  -2  -3  16    0.96    0.40
  -2   3  16    1.17    0.47
  -2   3  16    1.59    0.53
  -1  -3  16    4.49    0.67
  -1  -3  16    5.17    0.94
   1  -3 -16    2.57    0.75
  -1   3  16    3.08    0.76
  -1   3  16    3.48    0.89
   0  -3 -16    0.97    0.52
   0  -3  16    0.31    0.70
   0  -3  16    1.37    0.59
   0  -3  16    0.46    0.64
   0   3  16    1.56    0.62
   1  -3  16    6.14    0.71
  -1  -3 -16    7.56    0.75
   1  -3  16    7.38    0.87
   1  -3  16    7.27    0.93
  -1   3 -16    8.36    0.72
   1   3  16    6.21    0.87
  -2  -3 -16    0.72    0.37
   2  -3  16    0.18    0.51
   2  -3  16    0.62    0.53
   2   3  16    0.24    0.50
  -2   3 -16    0.12    0.34
  -3  -3 -16    0.25    0.43
   3  -3  16    0.04    0.36
  -3  -3 -16   -0.43    0.32
   3   3  16    0.25    0.56
  -3   3 -16    0.55    0.41
  -3   3 -16   -0.20    0.34
  -3  -4  16    3.55    0.47
  -3   4  16    3.53    0.56
  -3   4  16    3.81    0.49
  -2  -4  16    0.66    0.39
  -2   4  16   -0.46    0.47
  -2   4  16    0.40    0.45
   1  -4 -16   -0.62    0.55
  -1  -4  16    0.06    0.50
  -1  -4  16   -0.98    0.64
  -1   4  16   -0.12    0.55
  -1   4  16   -0.21    0.65
   0  -4 -16   -0.24    0.51
   0  -4  16    0.42    0.72
   0  -4  16   -0.18    0.55
   0  -4  16   -0.03    0.55
   0   4  16    0.20    0.60
  -1  -4 -16   -0.48    0.43
   1  -4  16    0.42    0.46
   1  -4  16    0.14    0.56
   1  -4  16    0.68    0.64
   1   4  16    0.86    0.62
   2  -4  16    1.35    0.50
   2  -4  16    1.41    0.50
  -2  -4 -16    1.24    0.37
  -2   4 -16    2.00    0.44
   2   4  16    0.78    0.52
  -3  -4 -16    3.46    0.45
  -3  -4 -16    2.46    0.61
   3  -4  16    3.36    0.48
  -3   4 -16    3.83    0.41
  -3   4 -16    3.98    0.60
  -3  -5  16   -0.20    0.33
  -3   5  16    0.62    0.38
  -3   5  16    0.00    0.41
  -2  -5  16    1.64    0.43
  -2   5  16    1.53    0.49
  -2   5  16    1.49    0.48
  -1  -5  16    2.36    0.62
  -1   5  16    3.04    0.69
   0  -5  16   -0.07    0.53
   0  -5  16   -0.72    0.50
   0  -5 -16    0.84    0.53
   0  -5  16   -0.34    0.76
   0   5  16    0.46    0.60
   1  -5  16    0.46    0.44
   1  -5  16    0.15    0.54
  -1  -5 -16    0.83    0.40
   1  -5  16    0.47    0.38
   1   5  16    0.03    0.54
   2  -5  16    0.24    0.45
  -2  -5 -16    0.35    0.35
   2  -5  16    0.07    0.45
   2   5  16    1.13    0.54
  -2   5 -16    0.06    0.31
   3  -5  16    0.30    0.35
  -3  -5 -16   -0.30    0.31
  -3  -6  16    6.41    0.53
  -3   6  16    4.75    0.69
  -3   6  16    5.81    0.61
  -2  -6  16    0.81    0.38
  -2   6  16    0.60    0.61
  -2   6  16    0.81    0.47
  -1  -6  16    6.23    0.67
  -1   6  16    6.70    0.75
   0  -6 -16    0.77    0.45
   0  -6  16   -0.70    0.62
   0  -6  16    0.24    0.49
   0  -6  16   -0.57    0.40
   0   6  16   -0.47    0.55
   1  -6  16   -0.26    0.57
   1  -6  16   -0.08    0.46
   1  -6  16    0.50    0.36
  -1  -6 -16    0.07    0.38
   1   6  16   -0.27    0.53
  -2  -6 -16    0.43    0.37
   2  -6  16    0.50    0.39
   2  -6  16    0.24    0.43
   2   6  16    0.13    0.53
  -2   6 -16    0.46    0.29
  -3  -6 -16    1.56    0.38
   3  -6  16    1.54    0.61
   3  -6  16    2.32    0.43
  -3  -7  16   -0.47    0.32
  -3   7  16    0.07    0.38
  -2  -7  16    1.25    0.38
  -2   7  16    1.10    0.45
  -1  -7  16   -0.16    0.48
  -1  -7  16    0.37    0.42
  -1   7  16   -0.61    0.43
   0  -7 -16   -0.05    0.46
   0  -7  16    0.09    0.37
   0  -7  16    0.33    0.58
   0  -7  16    0.28    0.46
   0   7  16   -0.17    0.49
  -1  -7 -16    0.74    0.42
   1  -7  16    1.01    0.34
   1  -7  16    1.29    0.53
   1  -7  16    1.05    0.42
   1   7  16    0.60    0.53
   2  -7  16    0.97    0.37
  -2  -7 -16    1.30    0.37
   2  -7  16    1.30    0.45
  -2   7 -16    1.50    0.36
   2   7  16    2.50    0.70
   3  -7  16    0.51    0.34
  -3  -7 -16    0.62    0.30
  -3   8  16    0.05    0.37
  -2  -8  16    0.86    0.37
  -2   8  16    1.17    0.42
  -1  -8  16    0.10    0.40
  -1  -8  16   -0.04    0.39
  -1   8  16    0.54    0.44
   0  -8 -16   -0.29    0.47
   0  -8  16   -0.31    0.32
   0  -8  16    0.17    0.43
   0   8  16    0.18    0.48
  -1  -8 -16    0.72    0.39
   1  -8  16    0.54    0.32
   1  -8  16    0.10    0.39
   1  -8  16   -0.20    0.48
   1   8  16    0.32    0.54
  -2  -8 -16    1.29    0.35
   2  -8  16    0.17    0.42
   2  -8  16    0.54    0.33
  -2   8 -16    0.10    0.28
  -2  -9  16    2.09    0.46
  -2   9  16    1.32    0.41
  -1  -9  16    2.49    0.43
  -1  -9  16    2.58    0.50
  -1   9  16    1.68    0.47
   0  -9  16    1.91    0.36
   0  -9  16    2.80    0.51
   0  -9 -16    1.92    0.51
   0   9  16    1.07    0.50
   1  -9  16   -0.82    0.45
  -1  -9 -16    0.06    0.36
   1  -9  16   -0.26    0.26
   1  -9  16   -0.12    0.39
   1   9  16    0.19    0.54
   2  -9  16    0.66    0.31
  -2  -9 -16    0.48    0.33
   2  -9  16    0.44    0.41
  -2   9 -16    0.58    0.31
  -2 -10  16    1.24    0.36
  -2  10  16    1.94    0.42
  -1 -10  16    0.70    0.31
  -1 -10  16    0.54    0.36
  -1  10  16    0.69    0.42
   0 -10  16    3.62    0.40
   0 -10 -16    2.76    0.56
   0 -10  16    3.50    0.51
   0  10  16    3.30    0.59
   1 -10  16    3.04    0.92
   1 -10  16    1.58    0.45
   1 -10  16    1.22    0.32
  -1 -10 -16    1.56    0.44
   1  10  16    3.14    0.86
  -2 -10 -16    0.26    0.29
   2 -10  16   -0.62    0.44
   2 -10  16    0.15    0.29
  -2  10 -16   -0.22    0.45
  -2  11  16    0.56    0.33
  -1 -11  16    0.05    0.35
  -1 -11  16   -0.03    0.29
  -1  11  16   -0.41    0.38
   0 -11  16    0.31    0.25
   0 -11  16    0.67    0.35
   0  11  16   -0.79    0.47
  -1 -11 -16    0.51    0.35
   1 -11  16    0.72    0.24
   1 -11  16    0.57    0.33
  -1 -12  16    0.73    0.35
  -1 -12  16    0.07    0.29
  -1  12  16    0.32    0.41
   0 -12  16    2.06    0.31
   0 -12  16    2.20    0.43
   0  12  16    2.98    0.81
   1 -12  16   -0.01    0.21
  -1 -12 -16    0.27    0.40
   1 -12  16   -0.22    0.30
  -3   0  17    0.23    0.30
  -2   0  17    0.31    0.37
  -2   0  17    0.34    0.49
   1   0 -17    0.32    0.42
  -1   0  17    0.04    0.51
  -1   0  17    0.85    0.48
   0   0  17    1.38    0.57
   0   0  17    0.38    0.58
   0   0 -17    0.26    0.43
   1   0  17    0.88    0.53
  -1   0 -17    0.38    0.38
   1   0  17   -0.06    1.07
  -2   0 -17    0.24    0.36
   2   0  17    1.03    0.46
  -2   0 -17    0.59    0.43
   3   0  17    0.07    0.38
  -3   0 -17   -0.58    0.37
  -3   0 -17   -0.29    0.41
  -3  -1  17    0.88    0.31
  -3   1  17    0.53    0.32
  -2  -1  17   -0.49    0.48
  -2  -1  17    0.79    0.37
  -2   1  17    0.94    0.48
  -2   1  17    0.86    0.40
  -1  -1  17    1.32    0.47
  -1  -1  17    1.03    0.55
   1  -1 -17    0.94    0.46
  -1   1  17    2.76    0.59
   1   1 -17    1.05    0.43
  -1   1  17    1.35    0.51
   0  -1  17    4.67    0.75
   0  -1 -17    4.04    0.61
   0  -1  17    4.28    0.69
   0   1  17    3.71    0.72
   0   1 -17    4.54    0.60
   0   1  17    6.00    0.79
   1  -1  17    5.43    0.71
   1  -1  17    3.49    0.74
  -1  -1 -17    3.22    0.53
  -1   1 -17    4.64    0.55
   1   1  17    3.68    0.69
   2  -1  17    4.36    0.60
  -2  -1 -17    4.17    0.50
  -2  -1 -17    4.13    0.57
  -2   1 -17    4.81    0.57
   2   1  17    3.53    0.59
  -2   1 -17    4.68    0.50
  -3  -1 -17   -0.20    0.36
  -3  -1 -17    0.53    0.49
   3  -1  17    0.28    0.36
  -3   1 -17    0.59    0.37
  -3   1 -17    0.60    0.40
   3   1  17   -0.35    0.43
  -3  -2  17    2.61    0.40
  -3   2  17    2.07    0.41
  -2  -2  17   -0.01    0.35
  -2   2  17    0.70    0.41
  -2   2  17    0.69    0.47
  -1  -2  17    5.92    0.74
  -1  -2  17    5.55    0.62
   1  -2 -17    6.50    0.65
   1   2 -17    5.41    0.60
  -1   2  17    4.74    0.68
  -1   2  17    5.57    0.72
   0  -2  17    1.66    0.56
   0  -2  17    1.22    0.49
   0  -2 -17    2.64    0.53
   0   2  17    1.60    0.85
   0   2  17    2.38    0.63
   0   2 -17    2.14    0.48
  -1  -2 -17   -0.28    0.37
   1  -2  17    0.58    0.50
   1  -2  17   -0.06    0.54
  -1   2 -17   -0.02    0.35
   1   2  17    0.40    0.51
   2  -2  17    0.26    0.42
  -2  -2 -17    0.06    0.32
  -2   2 -17   -0.07    0.34
   2   2  17   -0.05    0.45
   3  -2  17   -0.08    0.35
  -3  -2 -17    0.00    0.33
  -3   2 -17    0.73    0.46
   3   2  17    0.96    0.52
  -3   2 -17    0.13    0.34
  -3  -3  17   -0.04    0.30
  -3   3  17   -0.87    0.56
  -3   3  17    0.30    0.33
  -2  -3  17    0.67    0.37
  -2   3  17    1.15    0.50
  -2   3  17    0.26    0.42
  -1  -3  17    3.52    0.70
  -1  -3  17    3.73    0.56
  -1   3  17    3.44    0.62
  -1   3  17    3.18    0.68
   0  -3  17    3.43    0.60
   0  -3  17    3.31    0.73
   0  -3 -17    3.25    0.56
   0   3  17    2.73    0.64
   1  -3  17   -0.21    0.47
   1  -3  17    0.41    0.49
  -1  -3 -17    0.34    0.37
   1   3  17    0.53    0.49
  -1   3 -17    0.42    0.33
   2  -3  17   -0.81    0.55
   2  -3  17    0.54    0.41
  -2  -3 -17    0.22    0.32
   2   3  17    0.34    0.46
  -2   3 -17    0.68    0.33
   3  -3  17    0.00    0.33
  -3  -3 -17   -0.23    0.31
  -3   3 -17    0.41    0.35
  -3  -4  17   -0.09    0.29
  -3   4  17   -0.06    0.38
  -3   4  17   -0.45    0.48
  -2  -4  17    0.25    0.35
  -2   4  17   -0.07    0.43
  -2   4  17    0.20    0.42
  -1  -4  17    1.36    0.42
  -1  -4  17    1.75    0.58
  -1   4  17    1.20    0.49
   0  -4  17    4.16    0.60
   0  -4  17    3.63    0.69
   0  -4 -17    4.31    0.59
   0   4  17    3.81    0.65
   1  -4  17   -0.53    0.45
   1  -4  17   -0.10    0.52
  -1  -4 -17   -0.08    0.34
  -1   4 -17    0.32    0.35
   1   4  17    0.27    0.49
   2  -4  17   -0.06    0.42
   2  -4  17   -0.10    0.38
  -2  -4 -17    0.36    0.32
   2   4  17    0.11    0.46
  -2   4 -17    0.12    0.32
  -3  -5  17   -0.25    0.28
  -3   5  17   -0.05    0.53
  -3   5  17    1.17    0.46
  -2  -5  17    0.91    0.36
  -2   5  17    0.58    0.43
  -2   5  17    1.09    0.58
  -1  -5  17    6.54    0.63
  -1   5  17    5.25    0.68
   0  -5  17    5.79    0.63
   0  -5  17    4.91    0.73
   0  -5  17    5.61    0.64
   0  -5 -17    4.97    0.61
   0   5  17    6.02    0.68
   1  -5  17    0.22    0.51
   1  -5  17    0.31    0.35
  -1  -5 -17    1.27    0.37
   1  -5  17    0.34    0.43
  -1   5 -17    0.27    0.32
   1   5  17    0.50    0.50
   2  -5  17   -0.17    0.40
   2  -5  17   -0.23    0.38
  -2  -5 -17    0.16    0.33
   2   5  17   -0.51    0.48
  -2   5 -17   -0.17    0.28
  -2  -6  17   -0.09    0.32
  -2   6  17   -0.11    0.39
  -1  -6  17    0.12    0.35
  -1   6  17    0.27    0.42
   0  -6 -17    3.52    0.55
   0  -6  17    3.68    0.49
   0  -6  17    3.29    0.67
   0  -6  17    3.23    0.54
   0   6  17    3.53    0.58
   1  -6  17    0.41    0.34
  -1  -6 -17    0.38    0.37
   1  -6  17   -0.11    0.46
   1  -6  17    0.71    0.40
  -1   6 -17    0.43    0.31
   1   6  17    0.83    0.49
   2  -6  17   -0.30    0.36
  -2  -6 -17   -0.34    0.32
   2  -6  17   -0.60    0.37
   2   6  17    0.13    0.54
  -2   6 -17   -0.30    0.28
  -2  -7  17    0.17    0.32
  -2   7  17    0.09    0.39
  -1  -7  17    9.68    0.80
  -1   7  17   11.27    0.85
   0  -7 -17    6.59    0.68
   0  -7  17    7.50    0.66
   0  -7  17    7.02    0.58
   0  -7  17    5.77    0.71
   0   7  17    7.94    0.70
  -1  -7 -17    0.20    0.36
   1  -7  17    0.18    0.45
   1  -7  17   -0.04    0.30
   1  -7  17    0.09    0.37
   1   7  17   -0.35    0.47
  -2  -7 -17   -0.02    0.30
   2  -7  17   -0.22    0.36
   2  -7  17   -0.14    0.32
  -2   7 -17    0.18    0.29
  -2  -8  17   -0.28    0.31
  -2   8  17   -0.59    0.36
  -1  -8  17    1.31    0.36
  -1   8  17    0.65    0.41
   0  -8 -17    0.86    0.40
   0  -8  17    2.04    0.45
   0  -8  17    1.39    0.37
   0   8  17    1.62    0.46
  -1  -8 -17   -0.04    0.34
   1  -8  17    0.52    0.28
   1  -8  17   -0.13    0.35
   1  -8  17    0.27    0.44
   1   8  17   -0.02    0.51
   2  -8  17    0.06    0.30
   2  -8  17    0.55    0.38
  -2  -8 -17    0.67    0.31
  -2   8 -17    0.61    0.34
  -2  -9  17    0.87    0.33
  -2   9  17    0.06    0.34
  -1  -9  17    1.11    0.35
  -1   9  17    1.37    0.42
   0  -9  17    0.78    0.36
   0  -9 -17   -0.12    0.49
   0  -9  17    0.45    0.29
   0   9  17    0.37    0.43
   1  -9  17    1.76    0.40
   1  -9  17    1.66    0.31
   1  -9  17    1.35    0.53
  -1  -9 -17    0.85    0.36
   1   9  17    1.60    0.65
  -1 -10  17   -0.43    0.31
  -1 -10  17    0.66    0.67
  -1  10  17    0.40    0.37
   0 -10  17    0.47    0.33
   0 -10  17    0.06    0.27
   0  10  17    0.53    0.43
   1 -10  17    0.53    0.25
  -1 -10 -17    0.67    0.34
   1 -10  17    0.26    0.30
  -1  10 -17    0.30    0.24
   0 -11  17    0.21    0.32
   0 -11  17    0.13    0.27
   0  11  17   -0.17    0.60
  -2   0  18    1.62    0.43
  -2   0  18    1.17    0.48
  -1   0  18    7.47    0.68
   1   0 -18    6.50    0.61
  -1   0  18    6.19    0.71
   0   0 -18   12.18    0.84
   0   0  18   10.31    0.93
   0   0  18   11.27    0.91
  -1   0 -18    7.68    0.63
   1   0  18    6.15    0.68
   2   0  18    0.09    0.37
  -2   0 -18   -0.09    0.29
  -2  -1  18    0.67    0.35
  -2   1  18    1.21    0.39
  -2   1  18    0.63    0.42
  -1  -1  18    0.63    0.48
  -1  -1  18    0.44    0.38
   1  -1 -18    0.36    0.43
  -1   1  18   -0.12    0.41
   1   1 -18    1.77    0.47
  -1   1  18    0.02    0.41
   0  -1 -18    0.37    0.39
   0  -1  18    0.21    0.47
   0  -1  18    0.98    0.49
   0   1  18   -0.34    0.43
   0   1  18   -1.04    0.68
   0   1 -18    0.78    0.37
  -1  -1 -18    0.78    0.38
   1  -1  18    0.84    0.43
   1  -1  18   -0.17    0.74
  -1   1 -18    1.16    0.37
   1   1  18    0.29    0.45
  -2  -1 -18   -0.63    0.30
   2  -1  18    0.55    0.37
   2   1  18    0.04    0.38
  -2   1 -18    0.48    0.29
  -2  -2  18    0.88    0.34
  -2   2  18    1.81    0.47
  -2   2  18    1.01    0.42
  -1  -2  18    2.32    0.59
  -1  -2  18    3.60    0.50
  -1   2  18    3.61    0.54
   1   2 -18    2.70    0.45
  -1   2  18    2.95    0.60
   0  -2 -18    0.15    0.38
   0  -2  18    1.01    0.52
   0  -2  18    0.55    0.46
   0   2 -18    0.15    0.35
   0   2  18   -0.49    0.43
   1  -2  18    3.01    0.57
  -1  -2 -18    3.66    0.49
   1  -2  18    2.94    0.59
  -1   2 -18    3.52    0.49
   1   2  18    3.04    0.55
   2  -2  18    0.44    0.35
  -2  -2 -18    0.57    0.31
  -2   2 -18   -0.36    0.45
  -2   2 -18   -0.04    0.30
   2   2  18   -0.52    0.37
  -2  -3  18    3.08    0.43
  -2   3  18    2.62    0.56
  -2   3  18    2.85    0.50
  -1  -3  18   -0.14    0.49
  -1  -3  18    0.75    0.36
  -1   3  18   -0.25    0.75
   1   3 -18    1.08    0.34
  -1   3  18    0.31    0.41
   0  -3 -18    0.40    0.37
   0  -3  18    0.08    0.51
   0  -3  18    0.34    0.43
   0   3 -18   -0.05    0.32
   0   3  18   -0.20    0.44
   1  -3  18    0.43    0.44
   1  -3  18    0.21    0.45
  -1  -3 -18    0.27    0.33
  -1   3 -18   -0.39    0.30
   1   3  18    0.17    0.41
   2  -3  18    0.45    0.36
  -2  -3 -18    0.61    0.32
  -2   3 -18    0.97    0.43
  -2   3 -18    0.58    0.31
   2   3  18    0.39    0.40
  -2  -4  18    2.28    0.40
  -2   4  18    2.59    0.66
  -2   4  18    1.76    0.47
  -1  -4  18   -0.31    0.33
  -1  -4  18    2.09    0.58
   1   4 -18   -0.24    0.31
  -1   4  18    0.12    0.40
   0  -4 -18    0.54    0.37
   0  -4  18    0.00    0.45
   0  -4  18    0.24    0.38
   0   4  18    0.17    0.43
   0   4 -18    0.40    0.33
   1  -4  18   -0.21    0.42
   1  -4  18    0.88    0.41
  -1  -4 -18    1.02    0.34
   1   4  18    0.87    0.44
  -1   4 -18    0.30    0.30
  -2  -4 -18    1.68    0.39
   2  -4  18    1.11    0.37
  -2   4 -18    2.20    0.34
   2   4  18    2.11    0.51
  -2  -5  18   -0.16    0.32
  -2   5  18    0.87    0.39
  -1  -5  18   -0.46    0.33
  -1   5  18   -0.21    0.38
   1   5 -18   -0.06    0.31
   0  -5 -18    1.20    0.38
   0  -5  18    1.30    0.46
   0  -5  18    1.92    0.45
   0   5  18    1.55    0.44
   0   5 -18    2.13    0.39
   1  -5  18   -0.18    0.41
   1  -5  18    0.37    0.40
  -1  -5 -18    0.67    0.33
   1   5  18   -0.68    0.41
  -1   5 -18    0.36    0.29
  -2  -5 -18   -0.11    0.29
   2  -5  18    0.59    0.57
   2  -5  18   -0.12    0.34
  -2   5 -18   -0.12    0.28
   2   5  18   -0.42    0.51
  -2  -6  18    0.64    0.31
  -2   6  18   -0.42    0.35
  -1  -6  18    0.02    0.33
  -1   6  18    0.01    0.37
   0  -6  18   -0.41    0.46
   0  -6  18   -0.15    0.35
   0  -6 -18    0.29    0.41
   0   6  18   -0.02    0.39
  -1  -6 -18    2.78    0.44
   1  -6  18    2.38    0.46
   1  -6  18    3.14    0.53
   1   6  18    3.03    0.52
  -1   6 -18    2.38    0.38
   2  -6  18    3.04    0.56
  -2  -6 -18    3.44    0.41
   2  -6  18    2.88    0.43
  -2   6 -18    1.86    0.37
  -2  -7  18    3.02    0.41
  -2   7  18    2.36    0.46
  -1  -7  18   -0.15    0.29
  -1   7  18   -0.01    0.37
   0  -7 -18    0.75    0.41
   0  -7  18    0.19    0.31
   0  -7  18    0.70    0.47
   0   7  18   -0.35    0.40
  -1  -7 -18    0.34    0.34
   1  -7  18    0.63    0.33
   1  -7  18    0.80    0.42
  -1   7 -18    0.11    0.25
   1   7  18    0.55    0.45
  -1  -8  18    0.20    0.30
  -1   8  18   -0.11    0.34
   0  -8  18    0.23    0.31
   0  -8  18   -0.44    0.44
   0   8  18   -0.15    0.37
   1  -8  18    0.30    0.30
  -1  -8 -18    1.36    0.40
   1  -8  18    0.11    0.55
  -1   8 -18    0.43    0.24
   1   8  18    0.63    0.56
  -1  -9  18    0.53    0.30
  -1   9  18    0.13    0.34
   0  -9  18   -0.70    0.41
   0  -9  18    0.85    0.30
   0   9  18    0.66    0.40
  -2   0  19   -0.11    0.34
   1   0 -19    1.13    0.56
  -1   0  19    0.03    0.41
  -1   0  19    0.91    0.43
   0   0  19    0.83    0.62
   0   0  19   -0.26    0.41
   0   0 -19    0.23    0.36
   1   0  19   -0.02    0.37
  -1   0 -19    0.24    0.31
  -2   0 -19   -0.27    0.27
   2   0  19   -0.25    0.32
  -2  -1  19    0.52    0.33
  -2   1  19    0.69    0.62
  -2   1  19    1.32    0.41
  -1  -1  19    0.00    0.38
  -1  -1  19   -0.12    0.42
  -1   1  19    0.40    0.42
   1   1 -19    1.70    0.46
  -1   1  19   -0.38    0.51
   0  -1  19    0.58    0.43
   0  -1  19    1.16    0.48
   0  -1 -19    0.17    0.36
   0   1  19    0.30    0.40
   0   1 -19    0.66    0.34
  -1  -1 -19    0.99    0.33
   1  -1  19    0.95    0.38
  -1   1 -19    1.05    0.32
   1   1  19    0.85    0.38
  -2  -2  19    0.18    0.30
  -2   2  19   -0.04    0.53
  -2   2  19    0.45    0.50
  -1  -2  19    0.02    0.48
  -1  -2  19   -0.07    0.34
   1   2 -19    0.85    0.38
  -1   2  19   -0.07    0.37
   0  -2 -19   -0.36    0.34
   0  -2  19    0.19    0.40
   0  -2  19    0.46    0.40
   0   2 -19    0.17    0.31
   0   2  19    0.08    0.36
   1  -2  19   -0.40    0.34
  -1  -2 -19    0.23    0.30
   1   2  19    0.06    0.37
  -1   2 -19   -0.02    0.30
  -2  -3  19    0.73    0.31
  -2   3  19   -0.41    0.40
  -1  -3  19    0.21    0.32
  -1  -3  19    0.09    0.54
  -1   3  19   -0.56    0.38
   1   3 -19    0.60    0.37
   0  -3  19    3.80    0.52
   0  -3  19    3.48    0.55
   0  -3 -19    4.48    0.49
   0   3 -19    5.73    0.48
   0   3  19    4.70    0.55
   1  -3  19    0.22    0.59
  -1  -3 -19    1.06    0.32
   1  -3  19    0.82    0.39
   1   3  19    0.58    0.37
  -1   3 -19    1.02    0.31
  -1  -4  19    1.20    0.32
   1   4 -19    1.56    0.41
  -1   4  19    0.51    0.36
   0  -4 -19    0.44    0.37
   0  -4  19   -0.27    0.42
   0  -4  19    0.23    0.34
   0   4  19    0.17    0.38
   0   4 -19    0.48    0.29
  -1  -4 -19    0.40    0.32
   1  -4  19    0.53    0.36
   1  -4  19    0.18    0.46
   1   4  19   -0.14    0.38
  -1   4 -19    0.27    0.29
  -1  -5  19   -0.64    0.29
   1   5 -19    0.37    0.32
  -1   5  19    0.05    0.32
   0  -5  19    2.65    0.43
   0  -5  19    1.91    0.48
   0  -5 -19    3.16    0.49
   0   5  19    2.46    0.47
   0   5 -19    3.07    0.39
  -1  -5 -19    0.14    0.32
   1  -5  19    0.23    0.37
   1  -5  19    0.23    0.40
  -1   5 -19   -0.37    0.26
   1   5  19    0.10    0.38
  -1  -6  19    0.12    0.27
   1   6 -19   -0.06    0.30
  -1   6  19    0.26    0.32
   0  -6 -19   -0.77    0.57
   0  -6  19   -0.03    0.31
   0   6  19    0.19    0.35
   0   6 -19   -0.04    0.26
  -1  -6 -19    1.42    0.38
   1  -6  19    0.41    0.36
   1  -6  19    0.45    0.42
  -1   6 -19    1.41    0.31
   1   6  19    1.54    0.41
   0  -7  19    0.85    0.31
   0   7 -19    0.78    0.26
   0   7  19    0.97    0.37
  -1   0  20    2.01    0.47
   0   0 -20    0.35    0.33
   0   0  20    1.90    0.40
  -1  -1  20    0.70    0.48
  -1  -1  20    1.30    0.55
  -1   1  20   -0.01    0.41
   0  -1  20    0.40    0.37
   0  -1 -20   -0.22    0.33
   0   1 -20    1.06    0.33
   0   1  20    0.19    0.36
  -1   2  20    0.84    0.40
   0  -2 -20    0.87    0.38
   0  -2  20    1.52    0.42
   0  -2  20    1.06    0.65
   0   2 -20    0.84    0.34
   0   2  20    1.03    0.35
   0  -3 -20    3.11    0.58
   0  -3  20    2.02    0.57
   0  -3  20    2.72    0.53
   0   3  20    2.56    0.45
   0   3 -20    2.83    0.40
   0   0   0    0.00    0.00
;
_shelx_hkl_checksum              85016
_shelx_res_file
;
    SKM232_0m.res created by SHELXL-2014/7
TITL SKM232_0m_a.res in P2(1)/c
REM Old TITL SKM232_0m in P2(1)/c
REM SHELXT solution in P2(1)/c
REM R1 0.207,  Rweak 0.026,  Alpha 0.039,  Orientation as input
REM Formula found by SHELXT:  C13 N4 O Cl2
CELL  1.54178   4.9309  17.1173  16.6517   90.000   91.189   90.000
ZERR    4.000   0.0002   0.0008   0.0007    0.000    0.003    0.000
LATT  1
SYMM -X, 1/2+Y, 1/2-Z
SFAC C H N O S CL
UNIT 52 44 16 4 4 4
TEMP -123
SIZE 0.023 0.045 0.204
L.S. 8
BOND $H
LIST 4
FMAP 2
PLAN 5
EADP C8A C8B
EADP C9A C9B
EADP C10A C10B
EADP C11A C11B
EADP C12A C12B
EADP C13A C13B
EADP Cl1A Cl1B
SADI 0.003 C4 C8A C4 C8B
SADI 0.003 C11A Cl1A C11B Cl1B
CONF
EQIV $1 -x+2, -y+2, -z+1
HTAB N1 N4_$1
EQIV $2 -x+1, -y+2, -z+1
HTAB C3 N2_$2
EQIV $3 -x+1, -y+1, -z+1
HTAB C5 Cl1A_$3
EQIV $4 x+1, -y+3/2, z-1/2
HTAB C7 Cl1A_$4
HTAB C7 Cl1B_$4
EQIV $5 -x, -y+1, -z+1
HTAB C12B Cl1B_$5
ACTA 140.2
WGHT    0.106000    0.452400
FVAR       0.17523   0.50576
S1    5    1.323899    0.908397    0.715457    11.00000    0.05864    0.06667 =
         0.05473    0.00611    0.00906    0.00805
O1    4    0.933470    0.867222    0.609874    11.00000    0.04784    0.03547 =
         0.06651   -0.00051    0.01495    0.00063
N1    3    0.988813    0.991434    0.616713    11.00000    0.05460    0.04136 =
         0.05154   -0.00189    0.00350   -0.00319
AFIX  43
H1    2    1.049482    1.037946    0.630656    11.00000   -1.20000
AFIX   0
N2    3    0.785630    0.979500    0.559749    11.00000    0.05067    0.04186 =
         0.05243   -0.00233    0.00748   -0.00126
N3    3    0.715985    0.811745    0.449145    11.00000    0.04908    0.03767 =
         0.06056   -0.00689    0.01393   -0.00723
N4    3    0.859659    0.848989    0.391387    11.00000    0.05066    0.03713 =
         0.06594    0.00246    0.01333   -0.00131
C1    1    1.082915    0.925334    0.648208    11.00000    0.04776    0.04208 =
         0.05264    0.00158    0.01852    0.00213
C2    1    0.758066    0.905065    0.558144    11.00000    0.04343    0.04203 =
         0.05783   -0.00045    0.01534    0.00143
C3    1    0.570270    0.859186    0.507247    11.00000    0.05198    0.04134 =
         0.07388   -0.01231    0.01448   -0.00294
AFIX  23
H3A   2    0.460788    0.824639    0.541546    11.00000   -1.20000
H3B   2    0.444736    0.894982    0.478201    11.00000   -1.20000
AFIX   0
C4    1    0.708487    0.733395    0.437806    11.00000    0.05046    0.04171 =
         0.06613   -0.00522    0.01269   -0.00302
C5    1    0.850436    0.719139    0.368569    11.00000    0.06011    0.03825 =
         0.07188   -0.00437    0.02310    0.00255
AFIX  43
H5    2    0.879817    0.669952    0.343795    11.00000   -1.20000
AFIX   0
C6    1    0.941681    0.791890    0.342564    11.00000    0.05131    0.04110 =
         0.06620    0.00293    0.01534   -0.00179
C7    1    1.120900    0.809948    0.274179    11.00000    0.06584    0.05071 =
         0.06815    0.00860    0.02417    0.00164
AFIX 137
H7A   2    1.072089    0.776431    0.228407    11.00000   -1.50000
H7B   2    1.310296    0.800445    0.290316    11.00000   -1.50000
H7C   2    1.098327    0.864860    0.258785    11.00000   -1.50000
AFIX   0
PART 1
CL1A  6    0.198541    0.499458    0.654362    21.00000    0.06855    0.03730 =
         0.05666    0.00975    0.00065    0.00018
AFIX  66
C8A   1    0.567705    0.678596    0.491232    21.00000    0.03773    0.03591 =
         0.06441   -0.00293    0.01178    0.00091
C9A   1    0.599375    0.683142    0.574241    21.00000    0.02458    0.06972 =
         0.05349   -0.02316    0.02255   -0.00990
AFIX  43
H9A   2    0.696735    0.725473    0.597873    21.00000   -1.20000
AFIX  65
C10A  1    0.488595    0.625753    0.622673    21.00000    0.03565    0.06905 =
         0.04986   -0.00791    0.00943   -0.00437
AFIX  43
H10A  2    0.510241    0.628861    0.679406    21.00000   -1.20000
AFIX  65
C11A  1    0.346142    0.563817    0.588096    21.00000    0.04638    0.02784 =
         0.05152   -0.00569    0.00908    0.00736
C12A  1    0.314469    0.559269    0.505087    21.00000    0.04530    0.03966 =
         0.05765    0.00194    0.00163   -0.00273
AFIX  43
H12A  2    0.217110    0.516939    0.481456    21.00000   -1.20000
AFIX  65
C13A  1    0.425249    0.616658    0.456654    21.00000    0.03111    0.03993 =
         0.05848    0.00769   -0.00470    0.00926
AFIX  43
H13A  2    0.403602    0.613550    0.399921    21.00000   -1.20000
AFIX   0
PART 2
CL1B  6    0.121984    0.513453    0.652977   -21.00000    0.06855    0.03730 =
         0.05666    0.00975    0.00065    0.00018
AFIX  66
C8B   1    0.583350    0.677078    0.493432   -21.00000    0.03773    0.03591 =
         0.06441   -0.00293    0.01178    0.00091
C9B   1    0.680537    0.664984    0.571396   -21.00000    0.02458    0.06972 =
         0.05349   -0.02316    0.02255   -0.00990
AFIX  43
H9B   2    0.841185    0.690590    0.589702   -21.00000   -1.20000
AFIX  65
C10B  1    0.542673    0.615425    0.622574   -21.00000    0.03565    0.06905 =
         0.04986   -0.00791    0.00943   -0.00437
AFIX  43
H10B  2    0.609097    0.607159    0.675859   -21.00000   -1.20000
AFIX  65
C11B  1    0.307620    0.577959    0.595790   -21.00000    0.04638    0.02784 =
         0.05152   -0.00569    0.00908    0.00736
C12B  1    0.210430    0.590052    0.517826   -21.00000    0.04530    0.03966 =
         0.05765    0.00194    0.00163   -0.00273
AFIX  43
H12B  2    0.049781    0.564446    0.499520   -21.00000   -1.20000
AFIX  65
C13B  1    0.348292    0.639612    0.466647   -21.00000    0.03111    0.03993 =
         0.05848    0.00769   -0.00470    0.00926
AFIX  43
H13B  2    0.281867    0.647877    0.413362   -21.00000   -1.20000
AFIX   0
HKLF 4
REM  SKM232_0m_a.res in P2(1)/c
REM R1 =  0.0681 for    1759 Fo > 4sig(Fo)  and  0.1009 for all    2632 data
REM    180 parameters refined using      2 restraints
END
WGHT      0.1055      0.4732
REM Highest difference peak  0.511,  deepest hole -0.489,  1-sigma level  0.082
Q1    1   1.3383  0.9079  0.7830  11.00000  0.05    0.51
Q2    1   0.1619  0.5065  0.7161  11.00000  0.05    0.50
Q3    1   1.3125  0.9106  0.6544  11.00000  0.05    0.41
Q4    1   0.1306  0.5084  0.5939  11.00000  0.05    0.39
Q5    1   0.3314  0.5695  0.5237  11.00000  0.05    0.34
;
_shelx_res_checksum              64380
loop_
_space_group_symop_operation_xyz
'x, y, z'
'-x, y+1/2, -z+1/2'
'-x, -y, -z'
'x, -y-1/2, z-1/2'
loop_
_atom_site_type_symbol
_atom_site_label
_atom_site_fract_x
_atom_site_fract_y
_atom_site_fract_z
_atom_site_U_iso_or_equiv
_atom_site_adp_type
_atom_site_calc_flag
_atom_site_occupancy
_atom_site_disorder_assembly
_atom_site_disorder_group
S S1 1.3239(3) 0.90840(8) 0.71546(7) 0.0599(4) Uani d 1 . .
O O1 0.9335(6) 0.86722(16) 0.60987(18) 0.0498(7) Uani d 1 . .
N N1 0.9888(7) 0.9914(2) 0.6167(2) 0.0491(8) Uani d 1 . .
H H1 1.0495 1.0379 0.6307 0.059 Uiso calc 1 . .
N N2 0.7856(7) 0.9795(2) 0.5597(2) 0.0482(8) Uani d 1 . .
N N3 0.7160(7) 0.8117(2) 0.4491(2) 0.0489(9) Uani d 1 . .
N N4 0.8597(7) 0.8490(2) 0.3914(2) 0.0511(9) Uani d 1 . .
C C1 1.0829(8) 0.9253(2) 0.6482(2) 0.0473(10) Uani d 1 . .
C C2 0.7581(8) 0.9051(2) 0.5581(3) 0.0476(10) Uani d 1 . .
C C3 0.5703(9) 0.8592(3) 0.5072(3) 0.0556(11) Uani d 1 . .
H H3A 0.4608 0.8246 0.5415 0.067 Uiso calc 1 . .
H H3B 0.4447 0.8950 0.4782 0.067 Uiso calc 1 . .
C C4 0.7085(9) 0.7334(3) 0.4378(3) 0.0526(11) Uani d 1 . .
C C5 0.8504(10) 0.7191(3) 0.3686(3) 0.0564(12) Uani d 1 . .
H H5 0.8798 0.6700 0.3438 0.068 Uiso calc 1 . .
C C6 0.9417(9) 0.7919(3) 0.3426(3) 0.0527(11) Uani d 1 . .
C C7 1.1209(10) 0.8099(3) 0.2742(3) 0.0613(12) Uani d 1 . .
H H7A 1.0721 0.7764 0.2284 0.092 Uiso calc 1 . .
H H7B 1.3103 0.8004 0.2903 0.092 Uiso calc 1 . .
H H7C 1.0983 0.8649 0.2588 0.092 Uiso calc 1 . .
Cl Cl1A 0.1985(12) 0.4995(3) 0.6544(5) 0.0542(10) Uani d 0.506(5) A 1
C C8A 0.5677(16) 0.6786(3) 0.4912(5) 0.0459(10) Uani d 0.506(5) A 1
C C9A 0.5994(16) 0.6831(4) 0.5742(5) 0.049(2) Uani d 0.506(5) A 1
H H9A 0.6967 0.7255 0.5979 0.059 Uiso calc 0.506(5) A 1
C C10A 0.4886(18) 0.6258(5) 0.6227(3) 0.0514(17) Uani d 0.506(5) A 1
H H10A 0.5102 0.6289 0.6794 0.062 Uiso calc 0.506(5) A 1
C C11A 0.3461(18) 0.5638(4) 0.5881(4) 0.0418(16) Uani d 0.506(5) A 1
C C12A 0.3145(15) 0.5593(4) 0.5051(5) 0.0475(15) Uani d 0.506(5) A 1
H H12A 0.2171 0.5169 0.4815 0.057 Uiso calc 0.506(5) A 1
C C13A 0.4252(16) 0.6167(4) 0.4567(3) 0.0433(18) Uani d 0.506(5) A 1
H H13A 0.4036 0.6136 0.3999 0.052 Uiso calc 0.506(5) A 1
Cl Cl1B 0.1220(12) 0.5135(4) 0.6530(5) 0.0542(10) Uani d 0.494(5) A 2
C C8B 0.5833(15) 0.6771(4) 0.4934(5) 0.0459(10) Uani d 0.494(5) A 2
C C9B 0.6805(13) 0.6650(5) 0.5714(6) 0.049(2) Uani d 0.494(5) A 2
H H9B 0.8412 0.6906 0.5897 0.059 Uiso calc 0.494(5) A 2
C C10B 0.5427(17) 0.6154(5) 0.6226(4) 0.0514(17) Uani d 0.494(5) A 2
H H10B 0.6091 0.6072 0.6759 0.062 Uiso calc 0.494(5) A 2
C C11B 0.3076(16) 0.5780(4) 0.5958(4) 0.0418(16) Uani d 0.494(5) A 2
C C12B 0.2104(13) 0.5901(4) 0.5178(5) 0.0475(15) Uani d 0.494(5) A 2
H H12B 0.0498 0.5644 0.4995 0.057 Uiso calc 0.494(5) A 2
C C13B 0.3483(16) 0.6396(5) 0.4666(4) 0.0433(18) Uani d 0.494(5) A 2
H H13B 0.2819 0.6479 0.4134 0.052 Uiso calc 0.494(5) A 2
loop_
_atom_site_aniso_label
_atom_site_aniso_U_11
_atom_site_aniso_U_22
_atom_site_aniso_U_33
_atom_site_aniso_U_12
_atom_site_aniso_U_13
_atom_site_aniso_U_23
S1 0.0586(7) 0.0667(8) 0.0547(6) 0.0081(5) 0.0091(5) 0.0061(5)
O1 0.0478(16) 0.0355(15) 0.0665(19) 0.0006(12) 0.0149(14) -0.0005(13)
N1 0.055(2) 0.041(2) 0.0515(19) -0.0032(16) 0.0035(17) -0.0019(15)
N2 0.051(2) 0.042(2) 0.052(2) -0.0013(15) 0.0075(16) -0.0023(14)
N3 0.049(2) 0.0377(19) 0.061(2) -0.0072(15) 0.0139(17) -0.0069(15)
N4 0.051(2) 0.0371(19) 0.066(2) -0.0013(15) 0.0133(17) 0.0025(15)
C1 0.048(2) 0.042(2) 0.053(2) 0.0021(17) 0.0185(19) 0.0016(17)
C2 0.043(2) 0.042(2) 0.058(2) 0.0014(17) 0.0153(19) -0.0005(18)
C3 0.052(3) 0.041(2) 0.074(3) -0.0029(19) 0.014(2) -0.012(2)
C4 0.050(2) 0.042(2) 0.066(3) -0.0030(18) 0.013(2) -0.0052(19)
C5 0.060(3) 0.038(2) 0.072(3) 0.0026(19) 0.023(2) -0.004(2)
C6 0.051(3) 0.041(2) 0.066(3) -0.0018(18) 0.015(2) 0.0029(19)
C7 0.066(3) 0.051(3) 0.068(3) 0.002(2) 0.024(2) 0.009(2)
Cl1A 0.069(3) 0.0373(19) 0.0567(7) 0.0002(16) 0.001(2) 0.0098(13)
C8A 0.038(2) 0.036(2) 0.064(3) 0.0009(16) 0.0118(19) -0.0029(18)
C9A 0.025(5) 0.070(5) 0.053(3) -0.010(4) 0.023(3) -0.023(3)
C10A 0.036(4) 0.069(4) 0.050(3) -0.004(3) 0.009(2) -0.008(2)
C11A 0.046(3) 0.028(3) 0.052(3) 0.007(3) 0.009(2) -0.006(2)
C12A 0.045(4) 0.040(4) 0.058(4) -0.003(3) 0.002(3) 0.002(3)
C13A 0.031(5) 0.040(5) 0.058(3) 0.009(3) -0.005(3) 0.008(3)
Cl1B 0.069(3) 0.0373(19) 0.0567(7) 0.0002(16) 0.001(2) 0.0098(13)
C8B 0.038(2) 0.036(2) 0.064(3) 0.0009(16) 0.0118(19) -0.0029(18)
C9B 0.025(5) 0.070(5) 0.053(3) -0.010(4) 0.023(3) -0.023(3)
C10B 0.036(4) 0.069(4) 0.050(3) -0.004(3) 0.009(2) -0.008(2)
C11B 0.046(3) 0.028(3) 0.052(3) 0.007(3) 0.009(2) -0.006(2)
C12B 0.045(4) 0.040(4) 0.058(4) -0.003(3) 0.002(3) 0.002(3)
C13B 0.031(5) 0.040(5) 0.058(3) 0.009(3) -0.005(3) 0.008(3)
loop_
_atom_type_symbol
_atom_type_description
_atom_type_scat_dispersion_real
_atom_type_scat_dispersion_imag
_atom_type_scat_source
C C 0.0181 0.0091 'International Tables Vol C Tables 4.2.6.8 and 6.1.1.4'
H H 0.0000 0.0000 'International Tables Vol C Tables 4.2.6.8 and 6.1.1.4'
N N 0.0311 0.0180 'International Tables Vol C Tables 4.2.6.8 and 6.1.1.4'
O O 0.0492 0.0322 'International Tables Vol C Tables 4.2.6.8 and 6.1.1.4'
S S 0.3331 0.5567 'International Tables Vol C Tables 4.2.6.8 and 6.1.1.4'
Cl Cl 0.3639 0.7018 'International Tables Vol C Tables 4.2.6.8 and 6.1.1.4'
loop_
_geom_angle_atom_site_label_1
_geom_angle_atom_site_label_2
_geom_angle_atom_site_label_3
_geom_angle
C2 O1 C1 105.8(3)
C1 N1 N2 112.8(4)
C1 N1 H1 123.6
N2 N1 H1 123.6
C2 N2 N1 103.7(3)
C4 N3 N4 112.2(3)
C4 N3 C3 129.0(4)
N4 N3 C3 118.4(3)
C6 N4 N3 104.8(3)
N1 C1 O1 104.6(4)
N1 C1 S1 131.5(4)
O1 C1 S1 123.9(3)
N2 C2 O1 113.0(4)
N2 C2 C3 127.5(4)
O1 C2 C3 119.5(4)
N3 C3 C2 111.5(4)
N3 C3 H3A 109.3
C2 C3 H3A 109.3
N3 C3 H3B 109.3
C2 C3 H3B 109.3
H3A C3 H3B 108.0
N3 C4 C5 106.1(4)
N3 C4 C8A 123.8(5)
C5 C4 C8A 130.0(5)
N3 C4 C8B 124.6(5)
C5 C4 C8B 129.2(5)
C4 C5 C6 105.9(4)
C4 C5 H5 127.1
C6 C5 H5 127.1
N4 C6 C5 111.1(4)
N4 C6 C7 120.3(4)
C5 C6 C7 128.5(4)
C6 C7 H7A 109.5
C6 C7 H7B 109.5
H7A C7 H7B 109.5
C6 C7 H7C 109.5
H7A C7 H7C 109.5
H7B C7 H7C 109.5
C9A C8A C13A 120.0
C9A C8A C4 121.3(7)
C13A C8A C4 118.4(7)
C10A C9A C8A 120.0
C10A C9A H9A 120.0
C8A C9A H9A 120.0
C11A C10A C9A 120.0
C11A C10A H10A 120.0
C9A C10A H10A 120.0
C10A C11A C12A 120.0
C10A C11A Cl1A 115.9(6)
C12A C11A Cl1A 123.9(6)
C13A C12A C11A 120.0
C13A C12A H12A 120.0
C11A C12A H12A 120.0
C12A C13A C8A 120.0
C12A C13A H13A 120.0
C8A C13A H13A 120.0
C9B C8B C13B 120.0
C9B C8B C4 122.8(7)
C13B C8B C4 117.1(7)
C8B C9B C10B 120.0
C8B C9B H9B 120.0
C10B C9B H9B 120.0
C11B C10B C9B 120.0
C11B C10B H10B 120.0
C9B C10B H10B 120.0
C10B C11B C12B 120.0
C10B C11B Cl1B 124.4(6)
C12B C11B Cl1B 115.6(6)
C13B C12B C11B 120.0
C13B C12B H12B 120.0
C11B C12B H12B 120.0
C12B C13B C8B 120.0
C12B C13B H13B 120.0
C8B C13B H13B 120.0
loop_
_geom_bond_atom_site_label_1
_geom_bond_atom_site_label_2
_geom_bond_distance
S1 C1 1.642(5)
O1 C2 1.371(5)
O1 C1 1.386(5)
N1 C1 1.327(5)
N1 N2 1.380(5)
N1 H1 0.8800
N2 C2 1.282(5)
N3 C4 1.355(6)
N3 N4 1.364(5)
N3 C3 1.463(5)
N4 C6 1.339(6)
C2 C3 1.470(6)
C3 H3A 0.9900
C3 H3B 0.9900
C4 C5 1.383(6)
C4 C8A 1.476(5)
C4 C8B 1.480(5)
C5 C6 1.396(6)
C5 H5 0.9500
C6 C7 1.488(6)
C7 H7A 0.9800
C7 H7B 0.9800
C7 H7C 0.9800
Cl1A C11A 1.730(3)
C8A C9A 1.3900
C8A C13A 1.3900
C9A C10A 1.3900
C9A H9A 0.9500
C10A C11A 1.3900
C10A H10A 0.9500
C11A C12A 1.3900
C12A C13A 1.3900
C12A H12A 0.9500
C13A H13A 0.9500
Cl1B C11B 1.732(3)
C8B C9B 1.3900
C8B C13B 1.3900
C9B C10B 1.3900
C9B H9B 0.9500
C10B C11B 1.3900
C10B H10B 0.9500
C11B C12B 1.3900
C12B C13B 1.3900
C12B H12B 0.9500
C13B H13B 0.9500
loop_
_geom_hbond_atom_site_label_D
_geom_hbond_atom_site_label_H
_geom_hbond_atom_site_label_A
_geom_hbond_site_symmetry_A
_geom_hbond_distance_DH
_geom_hbond_distance_HA
_geom_hbond_distance_DA
_geom_hbond_angle_DHA
N1 H1 N4 3_776 0.88 2.02 2.836(5) 153
C3 H3B N2 3_676 0.99 2.51 3.445(6) 158
C7 H7C Cl1B 4_675 0.98 2.73 3.635(10) 153
loop_
_geom_torsion_atom_site_label_1
_geom_torsion_atom_site_label_2
_geom_torsion_atom_site_label_3
_geom_torsion_atom_site_label_4
_geom_torsion
C1 N1 N2 C2 0.5(5)
C4 N3 N4 C6 0.5(5)
C3 N3 N4 C6 -172.9(4)
N2 N1 C1 O1 0.0(4)
N2 N1 C1 S1 178.6(3)
C2 O1 C1 N1 -0.5(4)
C2 O1 C1 S1 -179.2(3)
N1 N2 C2 O1 -0.8(4)
N1 N2 C2 C3 -179.3(4)
C1 O1 C2 N2 0.8(4)
C1 O1 C2 C3 179.5(3)
C4 N3 C3 C2 123.0(5)
N4 N3 C3 C2 -64.9(5)
N2 C2 C3 N3 113.1(5)
O1 C2 C3 N3 -65.3(5)
N4 N3 C4 C5 -1.0(5)
C3 N3 C4 C5 171.5(4)
N4 N3 C4 C8A 179.9(6)
C3 N3 C4 C8A -7.6(9)
N4 N3 C4 C8B 175.8(6)
C3 N3 C4 C8B -11.7(9)
N3 C4 C5 C6 1.1(6)
C8A C4 C5 C6 -179.9(7)
C8B C4 C5 C6 -175.5(6)
N3 N4 C6 C5 0.3(5)
N3 N4 C6 C7 -176.2(4)
C4 C5 C6 N4 -0.9(6)
C4 C5 C6 C7 175.3(5)
N3 C4 C8A C9A -46.9(7)
C5 C4 C8A C9A 134.3(6)
N3 C4 C8A C13A 140.1(5)
C5 C4 C8A C13A -38.8(9)
C13A C8A C9A C10A 0.0
C4 C8A C9A C10A -173.0(7)
C8A C9A C10A C11A 0.0
C9A C10A C11A C12A 0.0
C9A C10A C11A Cl1A -175.9(7)
C10A C11A C12A C13A 0.0
Cl1A C11A C12A C13A 175.6(7)
C11A C12A C13A C8A 0.0
C9A C8A C13A C12A 0.0
C4 C8A C13A C12A 173.2(7)
N3 C4 C8B C9B -64.5(7)
C5 C4 C8B C9B 111.6(7)
N3 C4 C8B C13B 111.0(6)
C5 C4 C8B C13B -72.9(7)
C13B C8B C9B C10B 0.0
C4 C8B C9B C10B 175.4(7)
C8B C9B C10B C11B 0.0
C9B C10B C11B C12B 0.0
C9B C10B C11B Cl1B 178.6(7)
C10B C11B C12B C13B 0.0
Cl1B C11B C12B C13B -178.7(7)
C11B C12B C13B C8B 0.0
C9B C8B C13B C12B 0.0
C4 C8B C13B C12B -175.7(6)

_cod_database_fobs_code 1545500
