#------------------------------------------------------------------------------
#$Date: 2017-03-04 14:54:48 +0200 (Sat, 04 Mar 2017) $
#$Revision: 193365 $
#$URL: file:///home/coder/svn-repositories/cod/cif/1/54/54/1545443.cif $
#------------------------------------------------------------------------------
#
# This file is available in the Crystallography Open Database (COD),
# http://www.crystallography.net/
#
# All data on this site have been placed in the public domain by the
# contributors.
#
data_1545443
loop_
_publ_author_name
'Kaneda, Kyosuke'
'Naruse, Risa'
'Yamamoto, Syota'
_publ_section_title
;
 2-Aminobenzenesulfonamide-Containing Cyclononyne as Adjustable Click
 Reagent for Strain-Promoted Azide-Alkyne Cycloaddition.
;
_journal_issue                   5
_journal_name_full               'Organic letters'
_journal_page_first              1096
_journal_page_last               1099
_journal_paper_doi               10.1021/acs.orglett.7b00123
_journal_volume                  19
_journal_year                    2017
_chemical_formula_sum            'C10 H10 N2 O2 S'
_chemical_formula_weight         222.26
_chemical_name_systematic
;
 ?
;
_space_group_crystal_system      monoclinic
_space_group_IT_number           4
_space_group_name_Hall           'P 2yb'
_space_group_name_H-M_alt        'P 1 21 1'
_symmetry_space_group_name_Hall  'P 2yb'
_symmetry_space_group_name_H-M   'P 1 21 1'
_atom_sites_solution_hydrogens   mixed
_audit_creation_method           SHELXL-2013
_cell_angle_alpha                90
_cell_angle_beta                 90.005(5)
_cell_angle_gamma                90
_cell_formula_units_Z            4
_cell_length_a                   9.067(3)
_cell_length_b                   8.352(3)
_cell_length_c                   13.405(4)
_cell_measurement_reflns_used    3675
_cell_measurement_temperature    93(2)
_cell_measurement_theta_max      27.49
_cell_measurement_theta_min      3.04
_cell_volume                     1015.1(6)
_computing_cell_refinement       CrystalClear
_computing_data_collection       'CrystalClear (Rigaku Inc., 2008)'
_computing_data_reduction        CrystalClear
_computing_molecular_graphics    'CrystalStructure 4.2'
_computing_publication_material  'CrystalStructure 4.2 (Rigaku, 2015)'
_computing_structure_refinement  'SHELXL-2013 (Sheldrick, 2013)'
_computing_structure_solution    SIR97
_diffrn_ambient_temperature      93(2)
_diffrn_detector_area_resol_mean 7.111
_diffrn_measured_fraction_theta_full 0.987
_diffrn_measured_fraction_theta_max 0.989
_diffrn_measurement_device_type  'Rigaku Saturn724'
_diffrn_measurement_method       \w
_diffrn_radiation_type           MoK\a
_diffrn_radiation_wavelength     0.71075
_diffrn_reflns_av_R_equivalents  0.0300
_diffrn_reflns_av_unetI/netI     0.0434
_diffrn_reflns_Laue_measured_fraction_full 0.987
_diffrn_reflns_Laue_measured_fraction_max 0.989
_diffrn_reflns_limit_h_max       11
_diffrn_reflns_limit_h_min       -8
_diffrn_reflns_limit_k_max       10
_diffrn_reflns_limit_k_min       -10
_diffrn_reflns_limit_l_max       17
_diffrn_reflns_limit_l_min       -17
_diffrn_reflns_number            8055
_diffrn_reflns_point_group_measured_fraction_full 0.977
_diffrn_reflns_point_group_measured_fraction_max 0.966
_diffrn_reflns_theta_full        25.242
_diffrn_reflns_theta_max         27.488
_diffrn_reflns_theta_min         3.039
_exptl_absorpt_coefficient_mu    0.298
_exptl_absorpt_correction_T_max  0.974
_exptl_absorpt_correction_T_min  0.912
_exptl_absorpt_correction_type   multi-scan
_exptl_absorpt_process_details   'REQAB (Rigaku, 1998)'
_exptl_crystal_colour            colorless
_exptl_crystal_density_diffrn    1.454
_exptl_crystal_density_method    'not measured'
_exptl_crystal_description       prism
_exptl_crystal_F_000             464
_exptl_crystal_size_max          0.310
_exptl_crystal_size_mid          0.140
_exptl_crystal_size_min          0.090
_refine_diff_density_max         0.387
_refine_diff_density_min         -0.278
_refine_diff_density_rms         0.058
_refine_ls_abs_structure_details
;
 Flack x determined using 1752 quotients [(I+)-(I-)]/[(I+)+(I-)]
 (Parsons and Flack (2004), Acta Cryst. A60, s61).
;
_refine_ls_abs_structure_Flack   0.90(3)
_refine_ls_extinction_method     none
_refine_ls_goodness_of_fit_ref   1.059
_refine_ls_hydrogen_treatment    mixed
_refine_ls_matrix_type           full
_refine_ls_number_parameters     279
_refine_ls_number_reflns         4499
_refine_ls_number_restraints     1
_refine_ls_restrained_S_all      1.059
_refine_ls_R_factor_all          0.0406
_refine_ls_R_factor_gt           0.0384
_refine_ls_shift/su_max          0.000
_refine_ls_shift/su_mean         0.000
_refine_ls_structure_factor_coef Fsqd
_refine_ls_weighting_details
;
 w=1/[\s^2^(Fo^2^)+(0.0264P)^2^+1.1637P]
 where P=(Fo^2^+2Fc^2^)/3
;
_refine_ls_weighting_scheme      calc
_refine_ls_wR_factor_gt          0.0903
_refine_ls_wR_factor_ref         0.0918
_reflns_Friedel_coverage         0.827
_reflns_Friedel_fraction_full    0.966
_reflns_Friedel_fraction_max     0.940
_reflns_number_gt                4268
_reflns_number_total             4499
_reflns_threshold_expression     'I > 2\s(I)'
_cod_data_source_file            ol7b00123_si_002.cif
_cod_data_source_block           shelxl
_cod_original_cell_volume        1015.1(5)
_cod_database_code               1545443
_shelx_space_group_comment
;
The symmetry employed for this shelxl refinement is uniquely defined
by the following loop, which should always be used as a source of
symmetry information in preference to the above space-group names.
They are only intended as comments.
;
_shelx_estimated_absorpt_t_min   0.913
_shelx_estimated_absorpt_t_max   0.974
_shelxl_version_number           2013-2
_shelx_res_file
;
TITL v16121001
CELL  0.71075 9.06700 8.35180 13.40540 90.00000 90.00530 90.00000
ZERR  4 0.00260 0.00250 0.00410 0.00000 0.00450 0.00000
LATT -1
SYMM    -X, .50+Y,    -Z
SFAC C H N O S
UNIT 40 40 8 8 4
L.S. 5
FMAP 2
PLAN 25
WPDB -2
HTAB
BOND $H
CONF
LIST 4
TEMP -179.8
ACTA
SIZE 0.310 0.140 0.090
WGHT    0.026400    1.163700
FVAR       3.14555
S29   5    0.889736    0.774321    0.071430    11.00000    0.01380    0.01445 =
         0.01041    0.00197    0.00126    0.00288
S30   5    1.313532    0.191150    0.416662    11.00000    0.01205    0.01332 =
         0.01227    0.00250   -0.00046    0.00202
O25   4    0.946286    0.883323    0.145529    11.00000    0.01641    0.01901 =
         0.01425    0.00082   -0.00075    0.00000
O26   4    0.993077    0.679186    0.015929    11.00000    0.01946    0.02341 =
         0.01578    0.00123    0.00388    0.00890
O27   4    1.302132    0.073277    0.339148    11.00000    0.01979    0.01298 =
         0.01865    0.00127    0.00294    0.00318
O28   4    1.453723    0.219460    0.462756    11.00000    0.01490    0.02064 =
         0.02452    0.00511   -0.00512    0.00228
N21   3    0.791674    0.863699   -0.011248    11.00000    0.02446    0.01570 =
         0.00875    0.00007    0.00001    0.00531
AFIX  43
H21   2    0.791835    0.825550   -0.072439    11.00000   -1.20000
AFIX   0
N22   3    0.744197    0.780925    0.297036    11.00000    0.01757    0.01711 =
         0.01309    0.00067    0.00358   -0.00377
N23   3    1.204183    0.140344    0.506090    11.00000    0.02001    0.01860 =
         0.00898    0.00190   -0.00046   -0.00259
AFIX  43
H23   2    1.230019    0.166237    0.567278    11.00000   -1.20000
AFIX   0
N24   3    1.125709    0.279076    0.213834    11.00000    0.01597    0.01240 =
         0.01133   -0.00038   -0.00173    0.00059
C1    1    0.769150    0.637343    0.131962    11.00000    0.01728    0.01088 =
         0.01371    0.00407   -0.00118    0.00144
C2    1    0.716167    0.650173    0.230177    11.00000    0.01351    0.01527 =
         0.01516    0.00283   -0.00363    0.00375
C3    1    0.624270    0.528281    0.266637    11.00000    0.01779    0.01940 =
         0.01514    0.00283    0.00391    0.00246
AFIX  43
H3    2    0.590768    0.533047    0.333716    11.00000   -1.20000
AFIX   0
C4    1    0.581391    0.401276    0.206985    11.00000    0.01601    0.01528 =
         0.02755    0.00111   -0.00112   -0.00014
AFIX  43
H4    2    0.518399    0.320510    0.232961    11.00000   -1.20000
AFIX   0
C5    1    0.630774    0.392186    0.108881    11.00000    0.02178    0.01199 =
         0.02383   -0.00384   -0.00283    0.00167
AFIX  43
H5    2    0.599096    0.307066    0.067038    11.00000   -1.20000
AFIX   0
C6    1    0.725716    0.506976    0.072638    11.00000    0.02301    0.01494 =
         0.01388   -0.00158    0.00067    0.00648
AFIX  43
H6    2    0.762398    0.497855    0.006502    11.00000   -1.20000
AFIX   0
C7    1    0.701717    1.005838    0.009974    11.00000    0.01489    0.01645 =
         0.01541    0.00177    0.00005    0.00399
AFIX  23
H7A   2    0.624494    1.017485   -0.041734    11.00000   -1.20000
H7B   2    0.764598    1.102711    0.008384    11.00000   -1.20000
AFIX   0
C8    1    0.632515    0.990480    0.108624    11.00000    0.01360    0.01229 =
         0.02226   -0.00003    0.00214    0.00148
C9    1    0.604913    0.961896    0.194253    11.00000    0.01539    0.01569 =
         0.01925   -0.00366    0.00194    0.00336
C10   1    0.618309    0.897432    0.295974    11.00000    0.02334    0.01662 =
         0.01426   -0.00083    0.00383    0.00390
AFIX  23
H10A  2    0.525784    0.842861    0.315503    11.00000   -1.20000
H10B  2    0.637148    0.985343    0.343849    11.00000   -1.20000
AFIX   0
C11   1    1.258250    0.380917    0.367065    11.00000    0.01225    0.01143 =
         0.01110    0.00354    0.00056    0.00225
C12   1    1.177593    0.403114    0.278542    11.00000    0.01074    0.01610 =
         0.01146   -0.00130    0.00234   -0.00131
C13   1    1.146196    0.560096    0.248806    11.00000    0.01500    0.01480 =
         0.01521    0.00419   -0.00180   -0.00080
AFIX  43
H13   2    1.091937    0.577269    0.189129    11.00000   -1.20000
AFIX   0
C14   1    1.192211    0.691378    0.304172    11.00000    0.01734    0.01271 =
         0.01936    0.00256    0.00125   -0.00226
AFIX  43
H14   2    1.168672    0.796692    0.282637    11.00000   -1.20000
AFIX   0
C15   1    1.272857    0.668330    0.391244    11.00000    0.01379    0.01290 =
         0.01730   -0.00360   -0.00054   -0.00434
AFIX  43
H15   2    1.304719    0.757509    0.429597    11.00000   -1.20000
AFIX   0
C16   1    1.306247    0.513728    0.421461    11.00000    0.01038    0.02050 =
         0.00969    0.00068    0.00047   -0.00133
AFIX  43
H16   2    1.362841    0.497830    0.480276    11.00000   -1.20000
AFIX   0
C17   1    1.065123    0.054283    0.492698    11.00000    0.01620    0.01567 =
         0.01663    0.00072    0.00182   -0.00083
AFIX  23
H17A  2    1.003963    0.066250    0.553416    11.00000   -1.20000
H17B  2    1.085630   -0.061140    0.483187    11.00000   -1.20000
AFIX   0
C18   1    0.983279    0.115809    0.405841    11.00000    0.01406    0.01718 =
         0.01645   -0.00191    0.00398   -0.00182
C19   1    0.948326    0.172430    0.326990    11.00000    0.01314    0.01919 =
         0.01899   -0.00218    0.00118   -0.00198
C20   1    0.965013    0.245840    0.227354    11.00000    0.01574    0.02069 =
         0.01477   -0.00089   -0.00343   -0.00290
AFIX  23
H20A  2    0.907585    0.346443    0.223255    11.00000   -1.20000
H20B  2    0.929348    0.171784    0.174975    11.00000   -1.20000
AFIX   0
H33   2    0.799518    0.822989    0.280621    11.00000    0.00537
H34   2    1.177016    0.204433    0.225897    11.00000    0.00357
HKLF 4

REM  v16121001
REM R1 =  0.0384 for    4268 Fo > 4sig(Fo)  and  0.0406 for all    4499 data
REM    279 parameters refined using      1 restraints

END

WGHT      0.0265      1.1630

REM Instructions for potential hydrogen bonds
EQIV $1 -x+2, y+1/2, -z
HTAB N21 N24_$1
EQIV $2 -x+2, y-1/2, -z+1
HTAB N23 N22_$2
HTAB C7 O26_$1
HTAB C13 S29
HTAB C13 O26
EQIV $3 -x+3, y+1/2, -z+1
HTAB C16 O28_$3
EQIV $4 x, y-1, z
HTAB C20 O25_$4
EQIV $5 -x+2, y-1/2, -z
HTAB C20 O26_$5
HTAB N22 S29
HTAB N22 O25
HTAB N24 S30
HTAB N24 O27

REM Highest difference peak  0.387,  deepest hole -0.278,  1-sigma level  0.058
Q1    1   0.8261  0.6994  0.1039  11.00000  0.05    0.39
Q2    1   0.6841  0.9958  0.1598  11.00000  0.05    0.29
Q3    1   1.2396  0.1686  0.4622  11.00000  0.05    0.29
Q4    1   0.8425  0.8931 -0.0640  11.00000  0.05    0.28
Q5    1   1.2764  0.2949  0.3950  11.00000  0.05    0.25
Q6    1   0.7143  0.6590  0.1751  11.00000  0.05    0.25
Q7    1   0.8357  0.8354  0.0321  11.00000  0.05    0.24
Q8    1   0.5400  0.6830  0.2812  11.00000  0.05    0.24
Q9    1   0.6410  0.4409  0.2362  11.00000  0.05    0.23
Q10   1   1.1854  0.2210  0.5641  11.00000  0.05    0.23
Q11   1   1.3034  0.2001  0.1771  11.00000  0.05    0.22
Q12   1   1.3007  0.1210  0.1924  11.00000  0.05    0.22
Q13   1   0.9221  0.8129  0.1273  11.00000  0.05    0.22
Q14   1   1.1268  0.4783  0.2772  11.00000  0.05    0.22
Q15   1   1.2804  0.6648  0.3322  11.00000  0.05    0.21
Q16   1   0.9379  0.6796  0.0667  11.00000  0.05    0.20
Q17   1   0.7297  0.7714  0.3652  11.00000  0.05    0.20
Q18   1   0.9624  0.2172  0.1635  11.00000  0.05    0.20
Q19   1   0.7373  0.5859  0.0974  11.00000  0.05    0.20
Q20   1   0.6639  0.3740  0.1628  11.00000  0.05    0.19
Q21   1   0.8213  0.7588  0.3378  11.00000  0.05    0.19
Q22   1   0.9549  0.7592  0.0401  11.00000  0.05    0.19
Q23   1   1.2783  0.4457  0.3978  11.00000  0.05    0.19
Q24   1   0.9191  0.1927  0.0943  11.00000  0.05    0.19
Q25   1   0.7472  0.5572  0.1996  11.00000  0.05    0.19
;
_shelx_res_checksum              80341
_shelx_hkl_file
;
   0   0  -2  224.49   37.84
   0   0   2  213.23   39.42
   0   0  -2  187.93   18.64
   0   0   2  280.44   22.33
   0   0  -3 4424.68  107.75
   0   0   3 4589.68  114.70
   0   0  -3 4313.80  110.29
   0   0   3 4440.84  112.40
   0   0  -4 9060.76  212.44
   0   0   4 9761.79  227.35
   0   0  -4 9736.97  232.64
   0   0   4 9551.46  231.57
   0   0  -5   32.24   32.48
   0   0   5   30.32   16.25
   0   0  -5   55.34   31.33
   0   0   5   44.93   21.03
   0   0  -6 2832.64   79.77
   0   0   6 2853.16   81.17
   0   0   6 2793.94  103.84
   0   0   7  527.36  113.36
   0   0  -7  364.11   53.95
   0   0  -8   18.27   22.84
   0   0  -8   16.31   33.25
   0   0  -9  461.09   35.91
   0   0  -9  735.78   56.76
   0   0 -10 8212.25  212.26
   0   0 -10 7795.20  273.51
   0   0 -11 2939.48  102.43
   0   0 -11 2800.97  111.97
   0   0 -12 4750.24  237.67
   0   0 -12 5264.86  272.86
   0   0 -13  267.38  109.45
   0   0 -13  360.73   95.69
   0   0 -1410507.01  563.75
   0   0 -14 9882.59  630.34
   0   0 -15 1908.33  115.96
   0   0 -15 1508.77  110.90
   0   0 -16   28.44   24.47
   0   0 -17 1294.24  101.39
   0   0  17 1782.72  145.57
   0   1  -226339.52  586.76
   0  -1   227410.75  610.55
   0   1   3 3960.36   96.36
   0   1  -3 3879.02  101.05
   0   1   3 4133.29  104.38
   0  -1   3 4265.15  109.02
   0  -1   3 4222.10  131.55
   0  -1  -3 3816.89   99.95
   0  -1  -3 3968.86   93.86
   0  -1   3 4285.16  110.11
   0   1  -442643.61  949.51
   0  -1   444579.67  928.53
   0   1   515929.71  369.79
   0   1  -514719.96  344.50
   0   1   515636.94  358.91
   0   1  -515827.65  374.66
   0  -1   515276.70  356.86
   0  -1   515739.27  367.23
   0  -1  -515253.33  359.45
   0  -1  -514849.25  336.78
   0   1   6 5157.38  138.01
   0   1  -6 4997.60  130.03
   0   1  -6 4935.33  140.37
   0  -1   6 4847.18  125.25
   0  -1  -6 4830.16  121.29
   0  -1  -6 4897.06  133.48
   0   1  -7 5286.85  157.56
   0   1  -7 5118.51  155.77
   0   1   7 5908.12  162.84
   0  -1  -7 5702.57  154.20
   0  -1  -7 5170.44  157.39
   0   1  -8 2701.79  147.25
   0   1  -8 3098.84  128.16
   0   1   8 2976.15  124.95
   0  -1  -8 2993.36  119.17
   0  -1  -8 2846.30  143.32
   0   1  -9 1394.87   71.01
   0   1  -9 1516.20   85.54
   0  -1  -9 1591.77   72.11
   0  -1  -9 1289.30   72.06
   0   1 -10 7164.19  192.64
   0   1 -10 7495.15  210.05
   0  -1 -10 7227.58  208.15
   0  -1 -10 7571.03  211.46
   0   1 -11  278.62   43.29
   0   1 -11  105.67   34.69
   0  -1 -11  175.80   30.82
   0  -1 -11  199.51   53.84
   0   1 -12 2674.80  147.80
   0  -1 -12 2595.66  123.43
   0  -1 -12 2595.43  141.56
   0   1 -13 1828.98   87.90
   0  -1 -13 1721.82   60.44
   0  -1 -13 1530.51  216.29
   0  -1  13 1737.68   95.13
   0   1 -14 2873.50  171.17
   0  -1 -14 2538.92  159.36
   0  -1 -14 2796.57  294.44
   0  -1  14 2838.51  187.79
   0   1 -15  573.43   59.20
   0  -1 -15  657.96   76.77
   0  -1 -15  579.30  174.99
   0  -1  15  476.59   90.79
   0   1 -16 1319.78  114.03
   0  -1 -16 1242.72   96.23
   0  -1 -16 1194.19  300.52
   0  -1  16 1365.41  124.32
   0   1 -17 3175.14  189.39
   0  -1 -17 2601.35  173.56
   0  -1  17 2640.44  236.43
   0   2   018897.91  421.40
   0   2  -213257.55  304.08
   0   2   212508.01  280.99
   0  -2   213239.56  306.10
   0  -2  -212688.42  288.46
   0  -2   213444.03  303.41
   0   2  -3  462.03   43.67
   0   2  -3  503.45   27.23
   0   2   3  530.48   24.00
   0  -2   3  475.70   28.96
   0  -2   3  512.14   72.26
   0  -2  -3  414.72   33.35
   0   2  -4  513.91   36.86
   0   2   4  463.41   16.70
   0   2   4  476.25   42.57
   0  -2  -4  485.28   22.64
   0  -2   4  439.05   31.68
   0  -2  -4  433.02   34.98
   0  -2   4  495.39   33.30
   0   2   5 2751.26   68.89
   0   2   5 2914.37   80.05
   0  -2  -5 2681.66   64.03
   0  -2   5 3001.62   88.25
   0  -2   5 2750.02   91.78
   0  -2  -5 2770.89   86.57
   0  -2   5 2932.65   85.68
   0   2  -6 5081.60  139.87
   0   2   6 5053.32  126.74
   0  -2  -6 4998.06  114.39
   0  -2  -6 4975.62  135.18
   0  -2   6 4972.57  130.95
   0   2  -7  190.24   37.70
   0   2   7  234.93   47.76
   0  -2  -7  176.16   38.40
   0  -2  -7  163.77   58.91
   0  -2   7  257.06   43.27
   0   2  -8 7962.16  297.67
   0   2   8 7865.42  281.84
   0  -2  -8 8244.29  294.14
   0  -2  -8 7388.92  291.46
   0  -2   8 7075.85  267.10
   0   2  -9  263.45  117.97
   0   2   9  165.09   72.63
   0  -2  -9  308.06   25.00
   0  -2  -9  295.05   96.62
   0  -2   9  312.46   37.88
   0   2 -10  272.02   48.04
   0  -2 -10  177.60   23.68
   0  -2 -10  191.49   70.27
   0  -2  10  253.90   43.92
   0   2 -11 8650.28  282.95
   0  -2 -1110226.46  310.41
   0  -2 -1110116.35  331.71
   0  -2  11 8480.57  278.56
   0   2 -12 6752.54  270.41
   0  -2 -12 6237.61  225.38
   0  -2 -12 6028.63  242.41
   0  -2  12 6581.81  255.29
   0   2 -13 6558.46  268.47
   0  -2 -13 6593.39  253.74
   0  -2 -13 6798.78  286.21
   0  -2  13 6114.84  255.00
   0   2 -14 2526.91  114.47
   0  -2 -14 2646.12  113.03
   0  -2 -14 2906.96  137.25
   0  -2  14 3018.68  134.05
   0   2 -15   91.36   32.35
   0  -2 -15   36.71   25.69
   0  -2 -15  187.63   86.20
   0  -2  15  166.59   51.61
   0   2 -16  253.58   57.91
   0  -2 -16   97.30   65.58
   0  -2  16  129.49   43.14
   0   2 -17  897.57   96.27
   0  -2 -17  550.90  273.87
   0  -2  17 1019.31   95.88
   0   3   0   32.92   14.90
   0   3   0   32.81   14.48
   0  -3   0   13.00   16.46
   0  -3   0    3.59    8.45
   0   3   1  520.05   21.38
   0   3  -1  522.45   31.80
   0   3  -1  531.58   22.70
   0   3   1  518.96   18.48
   0  -3  -1  512.84   24.26
   0  -3   1  478.55   26.69
   0  -3  -1  557.42   22.42
   0   3   211088.77  245.58
   0   3  -210519.22  248.39
   0   3   211689.11  263.56
   0   3  -210836.00  254.46
   0  -3  -210871.15  241.26
   0  -3   210957.54  258.28
   0  -3   210245.77  233.12
   0  -3  -210148.02  236.79
   0   3  -311366.64  279.37
   0   3  -311124.67  246.73
   0   3   311785.72  272.55
   0  -3   311341.74  271.09
   0  -3   310592.87  245.08
   0  -3  -310735.00  252.01
   0   3  -434796.36  739.40
   0   3  -435931.93  757.82
   0   3   436960.91  897.75
   0  -3   437354.31  906.76
   0  -3  -438223.35  931.53
   0   3  -5 5286.37  154.83
   0  -3  -5 5750.81  167.52
   0  -3   5 5139.85  150.09
   0   3  -6 6536.66  187.66
   0   3   6 6187.58  153.33
   0  -3  -6 6152.34  151.21
   0  -3  -6 5880.83  169.41
   0  -3   6 6159.28  169.87
   0   3  -7  625.02   58.35
   0   3   7  562.71   40.45
   0  -3  -7  614.74   31.74
   0  -3  -7  699.18   49.98
   0  -3   7  559.49   41.32
   0   3  -8 2858.97  125.71
   0   3   8 3219.35  119.91
   0  -3  -8 2947.61  110.83
   0  -3  -8 3157.20  134.70
   0  -3   8 3089.44  129.29
   0   3  -910169.82  263.18
   0   3   9 9838.12  229.11
   0  -3  -910012.65  233.66
   0  -3  -910280.95  277.39
   0  -3   910014.49  256.08
   0   3 -10 3542.31  139.10
   0   3  10 4012.79  128.19
   0  -3 -10 4078.19  132.77
   0  -3 -10 4151.13  160.03
   0  -3  10 4098.84  161.43
   0   3 -1113119.01  623.69
   0  -3 -1114762.38  679.96
   0  -3 -1112858.62  638.33
   0  -3  1114576.78  687.79
   0   3 -12 1681.78  109.02
   0  -3 -12 1651.62   88.50
   0  -3 -12 1996.49  330.85
   0  -3  12 1411.87  100.55
   0   3 -13   42.80   58.69
   0  -3 -13   26.47   22.54
   0  -3 -13  107.34   62.82
   0  -3  13  134.11   52.18
   0   3 -14 2098.65  128.73
   0  -3 -14 2053.39  169.76
   0  -3  14 2140.37  131.28
   0   3 -15  627.57   57.48
   0  -3 -15  455.20  215.82
   0  -3  15  685.24   64.50
   0   3 -16  946.02  106.23
   0  -3 -16  410.31  178.69
   0  -3  16  590.02   74.28
   0   4   0 5619.36  132.04
   0   4   0 5683.69  127.14
   0  -4   0 5569.56  131.93
   0   4   1 5603.59  131.30
   0   4  -1 5463.16  132.60
   0   4  -1 5348.79  125.15
   0   4   1 5894.87  132.70
   0  -4  -1 5803.07  133.55
   0  -4   1 5972.17  142.91
   0   4   2 2880.47   66.76
   0   4  -2 3159.29   89.50
   0   4  -2 2838.73   75.44
   0   4   2 2874.87   68.95
   0  -4  -2 2907.84   68.63
   0  -4   2 2910.28   82.83
   0   4  -3  493.52   40.69
   0   4   3  622.45   25.20
   0  -4   3  597.69   51.95
   0   4  -4 3510.95  111.97
   0  -4   4 3659.68  105.16
   0   4  -5 5962.79  228.80
   0  -4  -5 5942.78  222.62
   0  -4   5 6178.61  227.10
   0   4  -6 9167.98  341.71
   0  -4  -6 9547.01  350.85
   0  -4   610350.76  372.32
   0   4  -712638.00  453.85
   0  -4  -712001.66  427.86
   0  -4   711545.55  420.27
   0   4  -8 9189.28  241.48
   0  -4  -8 9198.58  279.40
   0  -4   8 9246.65  234.15
   0   4  -9  455.08   56.06
   0   4   9  481.50   32.09
   0  -4  -9  520.57   29.85
   0  -4  -9  514.40   53.94
   0  -4   9  490.79  105.92
   0   4 -10 3009.85  169.22
   0  -4 -10 2736.65  130.54
   0  -4 -10 2749.25  159.62
   0  -4  10 2595.59  128.95
   0   4 -11 1951.63  104.58
   0  -4 -11 1841.17  116.03
   0  -4  11 1636.58   94.69
   0   4 -12  789.36   81.31
   0  -4 -12  721.82  223.60
   0  -4  12  794.55   56.25
   0   4 -13 1129.97   79.80
   0  -4 -13  835.00  118.53
   0  -4  13  917.61   61.83
   0   4 -14  623.10  102.11
   0  -4 -14  440.52  180.23
   0  -4  14  679.88   77.46
   0   4 -15  675.51   69.25
   0  -4 -15  385.13  190.90
   0  -4  15  470.13   55.79
   0   4 -16  669.08   76.84
   0  -4 -16  621.59  106.89
   0  -4  16  629.83   66.52
   0   5   0   17.05   13.71
   0  -5   0    8.60    9.54
   0  -5   0   12.66   11.98
   0   5   1 1813.48   66.01
   0   5  -1 1713.55   62.55
   0  -5   1 1836.48   75.04
   0  -5  -1 1833.31   60.13
   0  -5  -1 1653.47   55.95
   0  -5   1 1615.88   62.37
   0   5   2  101.68   16.64
   0   5  -2   87.06   22.90
   0  -5  -2  108.14   23.93
   0  -5  -2  159.54   33.74
   0  -5   2  135.53   35.79
   0   5   3 5766.36  200.02
   0   5  -3 5459.70  206.59
   0  -5  -3 5834.58  202.75
   0  -5  -3 5777.50  213.24
   0  -5   3 5749.43  207.03
   0   5  -4 2473.89  105.64
   0  -5  -4 2948.94  119.03
   0  -5   4 2933.31  112.01
   0   5  -5 3588.58  144.87
   0  -5  -5 3599.51  146.84
   0  -5   5 3733.04  142.70
   0   5  -6  407.64   45.71
   0  -5  -6  486.32   55.11
   0  -5   6  472.37   32.61
   0   5  -7  873.00   68.00
   0  -5  -7  698.07   75.24
   0  -5   7  807.80   50.26
   0   5  -8  906.73   69.42
   0  -5  -8  924.46   82.27
   0  -5   8 1118.71   71.94
   0   5  -9 6380.54  320.28
   0  -5  -9 5678.05  298.84
   0  -5   9 5551.45  285.20
   0   5 -10 1592.59  110.95
   0  -5 -10 1636.23  113.51
   0  -5  10 1593.28   97.71
   0   5 -11 2179.63  114.98
   0  -5 -11 2106.46  119.07
   0  -5  11 2214.30  111.60
   0   5 -12 1518.98   91.40
   0  -5 -12 1407.82   90.17
   0  -5  12 1298.20   72.76
   0   5 -13   99.62   36.81
   0  -5 -13   15.88   73.94
   0  -5  13   27.34   26.88
   0   5 -14  558.59   72.43
   0  -5 -14  406.40  241.85
   0  -5  14  604.06   59.98
   0   5 -15  249.91   51.31
   0  -5 -15  193.90   97.11
   0  -5  15  170.56   38.84
   0   6   0 5855.03  210.76
   0  -6   0 6051.87  218.57
   0  -6   0 5785.40  205.04
   0   6   1 3908.90  143.06
   0   6  -1 3417.58  132.67
   0  -6  -1 4054.06  148.83
   0  -6  -1 3792.66  139.71
   0  -6   1 3666.15  139.84
   0   6   2 4726.87  114.06
   0   6  -2 4479.70  137.11
   0  -6  -2 5110.06  130.77
   0  -6  -2 4975.07  139.39
   0  -6   2 4758.26  119.27
   0   6   3 2002.99   49.01
   0   6  -3 1893.11   73.44
   0  -6  -3 2062.54   54.27
   0  -6  -3 1873.77   86.63
   0  -6   3 1963.98   59.00
   0   6  -4  149.04   37.78
   0  -6  -4  168.35   47.97
   0  -6   4  116.16   38.22
   0   6  -5 4296.14  130.99
   0  -6  -5 4116.50  132.16
   0  -6   5 3928.95  150.47
   0   6  -6  225.45   42.02
   0  -6  -6  266.21   31.95
   0  -6   6  327.82   38.29
   0   6  -713033.52  618.63
   0  -6  -713206.57  636.69
   0  -6   712067.66  566.99
   0   6  -8 1554.22   96.33
   0  -6  -8 1664.34   98.73
   0  -6   8 1725.24  155.57
   0   6  -9  981.07   84.40
   0  -6  -9  764.62  106.01
   0  -6   9  880.28  134.29
   0   6 -10 1371.13  201.37
   0  -6 -10 1666.17  114.39
   0  -6  10 1504.02   95.24
   0   6 -11  613.53   77.86
   0  -6 -11  554.62   77.05
   0  -6  11  238.69  124.42
   0   6 -12 1804.78  137.86
   0  -6 -12 1582.35  197.68
   0  -6  12 2104.87  141.62
   0   6 -13 1088.05  111.54
   0  -6 -13  912.39  194.11
   0  -6  13 1083.39   67.65
   0   6 -14  352.47   53.88
   0  -6 -14  240.08  159.06
   0  -6  14  360.57   44.31
   0   7   0   25.94   21.22
   0  -7   0    9.67   12.40
   0   7   1 3327.99  117.91
   0   7  -1 3156.40  112.00
   0  -7  -1 3174.99  108.19
   0  -7  -1 3557.01  118.47
   0  -7   1 3444.57  111.97
   0   7   2  536.88   33.41
   0  -7  -2  440.77   47.14
   0  -7  -2  497.27   45.00
   0  -7   2  603.21   74.05
   0   7   310190.05  292.78
   0   7  -3 9653.19  303.25
   0  -7  -310342.26  298.07
   0  -7  -3 9919.10  312.10
   0  -7   310507.29  314.72
   0   7  -4  507.64   44.61
   0  -7  -4  362.32  106.93
   0  -7   4  551.99   67.06
   0   7  -5 2131.39  101.66
   0  -7  -5 1903.08  128.10
   0  -7   5 2093.62   86.25
   0   7  -6  872.06   94.18
   0  -7  -6  941.97   62.15
   0  -7   6  994.36   55.81
   0   7  -7  539.44  164.46
   0  -7  -7  575.48  150.58
   0  -7   7  591.19   57.15
   0   7  -8  817.91   69.42
   0  -7  -8  512.76  161.58
   0  -7   8  596.66   40.40
   0   7  -9 1485.41   92.18
   0  -7  -9 1570.06   89.03
   0  -7   9 1453.68   90.99
   0   7 -10  505.10   91.92
   0  -7 -10  469.49  154.49
   0  -7  10  588.77   44.47
   0   7 -11 4955.35  329.39
   0  -7 -11 4763.97  320.15
   0  -7  11 4689.11  308.20
   0   7 -12 2446.92  113.27
   0  -7 -12 2635.13  125.44
   0  -7  12 2670.71  104.71
   0   7 -13  147.07   43.46
   0  -7 -13   29.61   37.31
   0  -7  13  142.15   42.95
   0   8   010425.89  294.03
   0  -8   0 9578.30  268.44
   0   8   1 6838.50  194.76
   0   8  -1 6936.90  205.79
   0  -8  -1 6888.62  214.98
   0  -8   1 7084.61  208.71
   0   8  -2  663.92   54.01
   0  -8  -2  661.30  109.26
   0  -8   2  649.70   59.98
   0   8  -3  890.19   63.50
   0  -8  -3  826.15   56.69
   0  -8   3  806.21   57.61
   0  -8  -4  212.18   73.86
   0  -8   4  272.83   51.76
   0   8  -5 2269.40  140.04
   0  -8  -5 1981.38  120.76
   0  -8   5 2120.86  117.70
   0   8  -6 1160.15   72.35
   0  -8  -6  881.02   56.37
   0  -8   6 1246.93   75.40
   0   8  -7  985.49   61.72
   0  -8  -7 1253.26   85.69
   0  -8   7 1051.50   43.05
   0   8  -8 1022.31   79.71
   0  -8  -8  901.21   87.15
   0  -8   8 1067.18   68.33
   0   8  -9 1281.57  112.01
   0  -8  -9 1092.36  211.00
   0  -8   9 1075.16  111.06
   0   8 -10  443.12   68.46
   0  -8 -10  260.93  121.02
   0  -8  10  293.56   92.08
   0   8 -11  752.99   93.95
   0  -8 -11  554.34   68.06
   0  -8  11  636.51  106.24
   0  -9   0   14.53   22.57
   0   9  -1 2129.75   84.58
   0  -9  -1 2221.52   91.09
   0  -9   1 2162.80   82.64
   0   9  -2  572.82   40.32
   0  -9  -2  498.33  122.23
   0  -9   2  555.48  110.31
   0   9  -3 1855.84   85.00
   0  -9   3 2256.84  120.82
   0   9  -4 1951.30  112.50
   0  -9  -4 2259.04  129.24
   0  -9   4 2023.21  105.01
   0   9  -5 1268.16   98.32
   0  -9  -5 1352.30  143.55
   0  -9   5 1436.73  125.79
   0   9  -6  284.26   50.78
   0  -9  -6  201.39   34.26
   0  -9   6  185.32   66.06
   0   9  -7  294.21   47.29
   0  -9  -7  352.85  164.97
   0  -9   7  497.89   98.53
   0   9  -8  502.42   57.12
   0  -9  -8  603.78  229.41
   0  -9   8  414.01   49.91
   0   9  -9  997.17   90.34
   0  -9  -9 1124.51   96.51
   0  -9   9 1135.80   81.96
   0 -10   0 9033.20  406.76
   0 -10  -1  641.76   41.96
   0 -10   1  531.15   57.97
   0 -10  -2   99.28   54.21
   0 -10   2  102.78   48.98
   0 -10  -3 1887.50   80.72
   0 -10   3 1947.65   69.80
   0  10  -4 1895.22   92.73
   0 -10  -4 1877.77   94.23
   0 -10   4 1882.29   76.27
   0  10  -5   15.99   39.25
   0 -10  -5   26.29   18.40
   0  10  -6 1059.51   90.52
   0 -10  -6  930.87   83.19
   0 -10   6 1074.78   98.45
   1   0 -17 1284.08  100.68
   1   0 -17 1074.47  108.86
   1   0 -16  154.07   46.19
   1   0 -16  151.21   81.28
   1   0 -15 1549.05  155.95
   1   0 -15 1308.83  105.48
   1   0 -14  496.01   58.33
   1   0 -14  125.83   97.15
   1   0 -13 9489.48  286.83
   1   0 -13 9629.49  308.53
   1   0 -12 6186.31  304.67
   1   0 -12 6043.36  307.21
   1   0 -11 2719.68  144.92
   1   0 -11 2561.45  191.76
   1   0 -10 1763.82   71.20
   1   0 -10 1655.40  157.55
   1   0  -9 1506.60   71.88
   1   0  -9 1702.77   90.09
   1   0  -8 8419.56  308.08
   1   0  -8 8620.35  322.97
  -1   0   7 2399.58   97.49
   1   0  -7 2594.88   94.40
   1   0  -6 7673.72  191.78
  -1   0   6 8250.33  201.13
   1   0  -6 7839.72  192.19
   1   0  -5   16.43   16.36
  -1   0   5   19.67   21.51
   1   0  -5   32.19   32.70
  -1   0   5   21.86   24.61
   1   0  -4 6858.06  177.55
  -1   0   4 6749.93  165.12
   1   0  -4 6492.72  176.10
  -1   0   4 7215.96  175.93
   1   0  -3 4513.95  111.80
  -1   0   3 4737.09  115.19
   1   0  -3 4559.59  141.25
  -1   0   3 5110.28  129.55
  -1   0  -3  368.80   55.06
   1   0   3  349.54   22.25
  -1   0  -3  306.54   31.18
   1   0   3  299.50   53.96
  -1   0  -437353.49  829.75
   1   0   440189.49  890.67
  -1   0  -440851.25  911.79
  -1   0  -5   34.95   19.46
   1   0   5   29.20   35.21
  -1   0  -5    7.37   27.26
   1   0   5   34.59   17.87
  -1   0  -6  474.72   34.16
   1   0   6  437.31   28.06
  -1   0  -6  749.73  136.16
   1   0   6  479.89   39.05
   1   0   7  692.21   37.01
  -1   0  -7  762.13   96.78
  -1   0  -8  986.39   51.50
  -1   0  -8  945.32   63.86
  -1   0  -9 1368.70   66.33
  -1   0  -9 1454.55   80.31
  -1   0 -10 4841.99  138.23
  -1   0 -10 4468.13  143.75
  -1   0 -11  779.30   70.27
  -1   0 -11  679.62   63.94
  -1   0 -12   93.55   34.94
  -1   0 -13  477.15   45.70
  -1   0 -13  487.19   62.80
  -1   0 -14 5452.10  308.14
   1   0  14 5783.23  322.77
  -1   0 -15  106.87   63.44
   1   0  15   45.82   39.33
  -1   0 -16 2044.76  146.21
   1   0  16 1874.99  255.42
  -1   0 -17   39.40   46.58
   1   0  17   89.47   53.15
   1   1 -17 5237.24  294.75
   1  -1 -17 5243.51  334.21
  -1  -1  17 5061.18  302.02
   1   1 -16  772.89   69.15
   1  -1 -16  807.31   63.19
   1  -1 -16  626.59  253.04
  -1  -1  16  631.31   73.17
   1   1 -15  628.06   91.93
   1  -1 -15  782.57   75.05
   1  -1 -15  618.50  231.82
  -1  -1  15  725.56  213.93
   1   1 -14 6701.42  361.47
   1   1 -14 6481.05  358.93
   1  -1 -14 6566.04  360.21
   1  -1 -14 6316.03  352.57
   1   1 -13  654.43   62.23
   1   1 -13  595.95  167.67
   1  -1 -13  573.12   53.31
   1  -1 -13  588.64  202.15
   1   1 -12 4248.14  219.42
   1   1 -12 4192.87  221.66
   1  -1 -12 4379.33  219.16
   1   1 -11 3517.64  138.86
   1   1 -11 3459.46  154.69
   1  -1 -11 3837.96  142.65
   1  -1 -11 3526.11  145.69
   1   1 -10  599.56   45.48
   1   1 -10  807.91  139.12
   1  -1 -10  646.13   40.81
   1  -1 -10  724.12   60.22
   1   1  -9   66.23   36.26
   1   1  -9   69.11   33.01
   1  -1  -9   72.58   27.84
   1  -1  -9  163.72   54.58
   1   1  -8  257.75   33.22
  -1   1   8  276.26   29.90
   1  -1  -8  199.50   61.54
   1  -1  -8  110.28   84.31
   1   1  -7 3728.45  117.38
  -1   1   7 3884.50  111.46
   1   1  -7 3773.33  122.11
   1  -1  -7 3556.15  112.20
   1  -1  -7 4127.54  133.04
   1   1  -6 3932.93  108.72
  -1   1   6 3919.70  108.89
   1   1  -6 3492.09  102.79
   1  -1  -6 3752.45   95.41
   1  -1  -6 3962.48  173.90
   1   1  -5 4853.40  130.57
   1   1  -5 4802.14  130.59
  -1   1   5 4966.42  132.78
  -1   1   5 4704.43  138.50
  -1  -1   5 5026.35  135.34
  -1  -1   5 4918.44  133.22
   1  -1  -5 4964.31  133.94
   1  -1  -5 4810.94  124.61
   1   1  -4 2856.44   84.57
  -1   1   4 3004.16   79.78
   1   1  -4 2875.54   83.94
  -1   1   4 2714.76   75.79
  -1  -1   4 2879.44   92.48
  -1  -1   4 2739.56   79.48
   1  -1  -4 2936.74   86.76
   1   1  -217083.04  387.62
   1   1  -217647.56  397.11
  -1   1   218019.18  403.08
  -1  -1   217834.80  401.21
  -1  -1   217046.96  383.42
   1  -1  -217099.16  384.82
  -1   1   1 3734.64   85.26
  -1  -1   1 3905.21   94.81
   1  -1  -1 3806.06   87.34
  -1  -1   1 3753.83   88.33
  -1  -1   1 3972.21   92.86
  -1   1  -1 1719.47   47.15
   1   1   1 1752.04   42.59
  -1  -1  -1 1643.44   39.70
  -1  -1  -1 1641.26   41.92
   1  -1   1 1706.92   44.47
  -1   1  -2 2583.82   68.27
   1   1   2 2465.13   59.11
  -1   1  -2 2531.32   75.37
   1   1   2 2450.99   62.60
   1  -1   2 2337.50   65.25
  -1  -1  -2 2533.57   66.49
   1  -1   2 2437.58   64.40
  -1  -1  -2 2462.80   62.98
  -1  -1  -335224.20  782.39
  -1   1  -4 2182.59   67.95
   1   1   4 2341.02   67.33
   1  -1   4 2261.00   68.36
   1  -1   4 2169.35   67.40
  -1  -1  -4 2168.20   68.72
   1  -1   4 2109.68   66.66
  -1   1  -511545.80  283.00
   1   1   511383.58  262.71
   1   1   511117.91  265.84
   1  -1   511859.18  285.00
  -1  -1  -511127.38  268.63
   1  -1   512129.64  287.32
   1  -1   511840.01  289.14
  -1   1  -6  342.52   48.26
   1   1   6  317.19   23.10
   1   1   6  215.64   80.76
  -1  -1  -6  229.16   21.94
   1  -1   6  223.43   69.02
  -1  -1  -6  339.94   96.10
   1  -1   6  212.63   83.48
  -1   1  -711024.38  303.04
   1   1   710717.54  275.53
  -1  -1  -710774.22  274.18
  -1  -1  -7 9881.37  266.88
   1  -1   710502.12  281.21
  -1   1  -8 1144.50   61.33
   1   1   8  995.54   51.23
  -1  -1  -8 1049.35   53.29
  -1  -1  -8  893.38   80.88
   1  -1   8 1090.12   81.19
  -1   1  -9  508.93   43.63
  -1  -1  -9  430.99   38.12
  -1  -1  -9  447.48   44.94
   1  -1   9  598.34   66.63
  -1   1 -10 3331.14  108.74
  -1  -1 -10 3671.51  123.96
  -1  -1 -10 3445.61  122.02
   1  -1  10 3638.18  124.24
  -1   1 -11 4344.95  155.17
  -1  -1 -11 4380.42  164.17
  -1  -1 -11 4488.45  170.94
   1  -1  11 4363.14  168.69
  -1   1 -12 1740.02  102.54
  -1  -1 -12 1697.49   87.90
  -1  -1 -12 1918.54  113.95
   1  -1  12 1817.82  107.10
  -1   1 -13  949.22   69.57
  -1  -1 -13  947.27  103.13
  -1  -1 -13  910.59   86.52
   1  -1  13 1065.15   88.48
  -1   1 -14 7385.30  393.60
  -1  -1 -14 7124.32  385.69
  -1  -1 -14 6869.59  377.05
   1  -1  14 6274.83  344.79
  -1   1 -15  291.64  167.62
  -1  -1 -15  365.16   97.38
  -1  -1 -15  318.00   45.59
   1  -1  15  351.64   69.57
  -1   1 -16  578.98   58.90
  -1  -1 -16  541.30   50.55
  -1  -1 -16  503.87   72.23
   1  -1  16  458.55   65.46
  -1   1 -17  226.71  146.47
   1   1  17  437.29   69.47
   1  -1  17  365.02   59.20
   1   2 -17  147.19   96.84
   1  -2 -17   85.11   66.11
  -1  -2  17  226.90   57.96
   1   2 -16  109.36   41.43
   1  -2 -16  212.08   90.03
  -1  -2  16  136.37   51.20
   1   2 -15 1014.53  104.21
   1  -2 -15 1095.11   83.18
   1  -2 -15 1317.17  246.00
  -1  -2  15 1033.38  220.93
   1   2 -14 2415.65  113.78
   1  -2 -14 2501.57   99.68
   1  -2 -14 2887.35  147.57
  -1  -2  14 2904.17  135.67
   1   2 -13 1628.97   94.78
   1  -2 -13 1859.21   88.54
   1  -2 -13 1920.37  114.95
  -1  -2  13 1625.39  194.11
   1   2 -12 1503.30  131.93
   1  -2 -12 1599.06   85.40
   1  -2 -12 1305.63  108.09
  -1  -2  12 1449.79   96.30
   1   2 -11 3382.97  136.78
   1  -2 -11 3545.01  133.43
   1  -2 -11 3309.53  141.16
  -1  -2  11 3383.96  142.32
   1   2 -10 8436.26  222.56
   1  -2 -10 7644.85  197.55
   1  -2 -10 8055.43  222.01
  -1  -2  10 7863.74  216.34
   1   2  -9 4530.40  179.97
  -1   2   9 4859.81  177.40
   1  -2  -9 4587.18  169.62
   1  -2  -9 4418.39  184.78
  -1  -2   9 3874.51  158.76
   1   2  -8  777.44  115.63
  -1   2   8  773.89   41.12
   1  -2  -8  720.34   44.80
   1  -2  -8  820.31   71.65
  -1  -2   8  729.25   56.50
   1   2  -7 7329.08  206.68
  -1   2   7 7590.12  198.30
   1  -2  -7 6817.82  177.87
   1  -2  -7 7924.19  225.70
  -1  -2   7 7184.96  203.16
   1   2  -6  288.37   68.22
  -1   2   6  296.14   46.16
   1  -2  -6  246.70   36.08
   1  -2  -6  293.90   91.08
   1   2  -5  179.89   55.72
  -1   2   5  252.57   17.23
   1  -2  -5  243.18   38.96
  -1  -2   5  281.30   69.84
   1  -2  -5  321.04   29.74
  -1  -2   5  338.12   79.52
   1   2  -4 7089.74  178.84
  -1   2   4 6859.49  156.67
  -1   2   4 7041.57  169.98
  -1  -2   4 6826.86  170.87
   1  -2  -4 6713.66  154.47
  -1  -2   4 6484.56  161.30
   1  -2  -4 6740.47  169.23
  -1  -2   4 6532.28  162.22
   1   2  -318635.04  431.83
  -1   2   319240.42  431.64
  -1  -2   319327.83  442.54
  -1  -2   319453.81  441.23
   1  -2  -320309.85  459.92
   1  -2  -318898.59  417.59
  -1  -2   319435.61  437.49
   1   2  -2 8474.29  204.46
   1   2  -2 8207.94  190.62
  -1   2   2 8188.49  186.80
  -1  -2   2 8644.82  204.07
  -1  -2   2 8471.93  194.53
   1  -2  -2 8407.04  196.35
  -1   2  -2 8719.80  206.34
   1   2   2 8990.91  201.28
  -1   2  -2 9668.94  223.88
   1  -2   2 9050.87  212.97
  -1  -2  -2 8384.06  193.25
   1  -2   2 8571.68  197.21
   1   2   3 1895.37   46.77
  -1   2  -3 2103.35   67.50
   1   2   3 1948.18   54.14
   1   2   3 2040.35   48.47
  -1   2  -3 1903.72   59.42
   1  -2   3 1912.33   64.93
   1  -2   3 1977.71   58.03
  -1  -2  -3 1863.81   56.73
   1   2   4 9453.06  214.03
  -1   2  -4 9607.06  236.06
   1   2   4 8786.00  207.32
  -1  -2  -4 8955.73  200.05
   1  -2   4 9370.90  226.99
  -1  -2  -4 9480.81  230.06
  -1   2  -5   91.32   29.97
   1   2   5   71.75   12.58
   1   2   5   57.14   25.08
  -1  -2  -5   61.40    9.43
  -1  -2  -5   25.84   24.07
   1  -2   5   20.59   25.99
  -1   2  -6 4021.87  123.32
   1   2   6 4026.23  112.46
  -1  -2  -6 3663.65  107.97
  -1  -2  -6 3716.50  116.13
   1  -2   6 3524.19  109.70
  -1   2  -7 1794.35   73.19
   1   2   7 1842.10   58.62
  -1  -2  -7 1920.46   71.58
  -1  -2  -7 1763.38   90.59
   1  -2   7 2101.80   86.69
  -1   2  -8 3192.48  135.98
   1   2   8 3539.56  136.45
  -1  -2  -8 3276.65  127.53
  -1  -2  -8 3559.46  162.92
   1  -2   8 3403.92  145.52
  -1   2  -911153.88  405.48
   1   2   911577.61  405.69
  -1  -2  -911555.64  400.10
  -1  -2  -911378.44  410.72
   1  -2   911242.57  403.16
  -1   2 -10 1945.36  102.53
  -1  -2 -10 1786.19   85.98
  -1  -2 -10 2213.39   92.56
   1  -2  10 1760.45   96.78
  -1   2 -11 1547.15  101.57
  -1  -2 -11 1248.25   78.42
  -1  -2 -11 1365.71   95.37
   1  -2  11 1213.48   93.21
  -1   2 -12  557.27   54.84
  -1  -2 -12  448.23   47.83
  -1  -2 -12  551.27   72.26
   1  -2  12  547.90   59.23
  -1   2 -13 1088.69   69.70
  -1  -2 -13 1305.62   68.79
  -1  -2 -13 1094.75   84.52
   1  -2  13 1040.89   67.92
  -1   2 -14 1767.39  132.59
  -1  -2 -14 2027.87   85.98
  -1  -2 -14 1924.61  109.30
   1  -2  14 1761.52   98.43
  -1   2 -15  548.61   65.28
  -1  -2 -15  474.39   79.97
  -1  -2 -15  454.97   98.13
   1  -2  15  546.00   78.74
  -1   2 -16 1239.31   78.78
  -1  -2 -16  819.36  304.05
   1  -2  16 1029.52   77.44
  -1   2 -17   43.37   21.48
  -1  -2 -17   32.61   57.24
   1  -2  17  114.95   39.88
   1   3 -16  533.60  140.02
   1  -3 -16  621.67   94.69
  -1  -3  16  657.96   83.89
   1   3 -15  510.75   53.25
   1  -3 -15  384.61  156.52
  -1  -3  15  676.22   65.31
   1   3 -14   93.14   31.03
   1  -3 -14  109.33   54.07
  -1  -3  14  143.06   33.02
   1   3 -13 4290.14  244.52
   1  -3 -13 4073.09  228.97
   1  -3 -13 4217.09  248.83
  -1  -3  13 4223.05  239.76
   1   3 -12 3168.37  131.17
   1  -3 -12 3452.66  118.91
   1  -3 -12 3671.45  151.33
  -1  -3  12 3959.50  151.20
   1   3 -11 1240.16   93.84
   1  -3 -11 1457.25   70.99
   1  -3 -11 1382.34   98.08
  -1  -3  11 1362.55   86.91
   1   3 -10 3241.95  131.27
   1  -3 -10 2895.21  152.03
   1  -3 -10 2685.44  159.28
  -1  -3  10 2988.16  145.04
   1   3  -9 6406.40  186.86
  -1   3   9 5798.04  149.84
   1  -3  -9 5960.76  144.81
   1  -3  -9 5782.64  175.23
  -1  -3   9 5926.82  166.10
   1   3  -8 4343.04  174.75
  -1   3   8 4448.94  168.75
   1  -3  -8 4239.81  157.75
   1  -3  -8 4590.23  183.76
  -1  -3   8 4321.91  170.47
   1   3  -7 4164.99  171.10
  -1   3   7 4379.75  156.76
   1  -3  -7 4548.81  163.68
   1  -3  -7 4281.12  208.38
  -1  -3   7 4471.11  174.65
   1   3  -620566.80  521.21
  -1   3   619777.66  476.80
   1  -3  -620480.11  495.92
   1  -3  -619363.62  493.31
  -1  -3   621119.77  528.07
   1   3  -528042.38  697.69
   1  -3  -529599.52 1018.36
   1  -3  -528809.93  723.46
   1   3  -4 3653.70  105.62
   1  -3  -4 3680.42   78.44
   1  -3  -4 3726.55   82.61
  -1  -3   4 3786.49  101.00
   1  -3  -4 3537.58   97.49
   1   3  -322399.22  483.75
   1   3  -321597.02  459.64
  -1   3   323342.69  490.05
   1  -3  -323212.97  478.35
   1  -3  -323760.90  505.87
  -1  -3   322802.92  490.81
  -1   3   2 1042.41   32.41
   1   3  -2 1048.52   38.62
   1  -3  -2 1016.13   38.30
   1  -3  -2  933.72   31.88
  -1  -3   2  992.98   40.47
  -1   3   1 9194.39  208.21
  -1   3   1 9393.50  213.56
   1   3  -1 8934.09  211.65
   1   3  -1 8917.67  206.49
   1  -3  -1 9221.09  211.41
   1  -3  -1 9008.26  206.55
  -1   3   0  978.58   61.32
   1   3   0  774.66   37.07
   1   3   0  930.06   27.44
  -1   3   0  967.46   30.24
   1  -3   0  832.92   35.13
   1  -3   0  783.19   27.81
  -1  -3   0  877.30   58.61
  -1   3  -1 3756.58   97.59
   1   3   1 3587.36   89.30
   1   3   1 3857.21   91.43
  -1  -3  -1 3291.94   80.61
  -1   3  -226700.73  600.87
  -1   3  -228954.45  646.20
   1  -3   227908.09  637.53
  -1   3  -333976.57  716.04
  -1   3  -338533.12  935.49
   1  -3   337006.42  903.78
   1   3   4 3667.14   79.50
  -1   3  -4 3419.36   97.78
   1   3   4 3839.73   83.81
   1   3   4 3793.95   96.47
   1  -3   4 4074.59  106.83
  -1   3  -5 2478.31   89.51
   1   3   5 2264.70   60.24
   1   3   5 2374.18   61.52
   1   3   5 2265.97   70.40
  -1  -3  -5 2140.31   80.58
   1  -3   5 2177.44   75.00
  -1   3  -6 8057.94  224.12
   1   3   6 8178.86  202.80
  -1  -3  -6 7965.68  238.06
   1  -3   6 7878.62  213.07
  -1   3  -7 1553.96   80.67
   1   3   7 1452.25   84.06
  -1  -3  -7 1325.92   54.76
  -1  -3  -7 1310.63   77.73
   1  -3   7 1421.33   93.58
  -1   3  -8 7329.90  273.94
   1   3   8 7501.99  262.11
  -1  -3  -8 7640.25  262.49
  -1  -3  -8 7221.97  283.28
   1  -3   8 7101.28  261.47
  -1   3  -9 3644.78  120.23
   1   3   9 3474.56   94.88
  -1  -3  -9 3519.02   94.11
  -1  -3  -9 3212.93  152.42
   1  -3   9 3352.94  157.54
  -1   3 -10 5036.88  187.17
  -1  -3 -10 5111.87  165.09
  -1  -3 -10 4764.37  275.89
   1  -3  10 4558.97  192.84
  -1   3 -11 5867.23  294.78
  -1  -3 -11 5650.78  271.08
  -1  -3 -11 5758.95  295.00
   1  -3  11 6389.45  317.51
  -1   3 -12 1177.39   87.56
  -1  -3 -12  941.62   56.24
  -1  -3 -12 1049.18  124.41
   1  -3  12 1029.82   84.63
  -1   3 -13 4577.66  257.31
  -1  -3 -13 5233.41  279.35
  -1  -3 -13 5061.85  286.64
   1  -3  13 5504.01  307.18
  -1   3 -14  386.88  104.91
  -1  -3 -14  302.85  104.55
   1  -3  14  383.59   53.02
  -1   3 -15 2054.48  153.20
  -1  -3 -15 1831.45  180.77
   1  -3  15 1940.44  150.72
  -1   3 -16   79.14   74.22
  -1  -3 -16   38.40   45.90
   1  -3  16  100.65   55.81
   1   4 -16  887.00   87.80
   1  -4 -16  515.88  197.91
  -1  -4  16 1105.71  119.92
   1   4 -15  450.74  119.56
   1  -4 -15  324.71   85.57
  -1  -4  15  571.96   66.86
   1   4 -14  652.28   79.72
   1  -4 -14  718.98  163.77
  -1  -4  14  446.83   64.43
   1   4 -13  718.95   61.73
   1  -4 -13  762.50   75.18
  -1  -4  13  962.69   59.88
   1   4 -12 1198.44  249.33
   1  -4 -12 1450.83   93.18
  -1  -4  12 1450.29   75.90
   1   4 -11   70.36   34.71
   1  -4 -11   25.50   12.89
   1  -4 -11  -10.26   33.65
  -1  -4  11   87.00   34.51
   1   4 -10 6591.88  330.02
   1  -4 -10 6443.76  297.96
   1  -4 -10 6748.68  339.29
  -1  -4  10 6641.88  325.15
   1   4  -9 3119.62  128.72
  -1   4   9 2680.95  127.31
   1  -4  -9 2378.54  113.82
   1  -4  -9 3002.06  170.51
  -1  -4   9 2733.85  190.29
   1   4  -812903.73  325.14
  -1   4   812349.83  266.33
   1  -4  -812786.54  277.64
   1  -4  -812406.84  344.06
  -1  -4   812349.76  297.28
   1   4  -7 8800.08  324.87
   1  -4  -7 8385.49  345.25
  -1  -4   7 8986.80  320.16
   1   4  -6 8863.84  331.47
   1  -4  -6 9281.12  349.58
  -1  -4   6 9982.50  358.22
   1   4  -5 2647.37  115.93
   1  -4  -5 2592.47  110.54
  -1  -4   5 2514.72  103.65
   1   4  -4 9172.72  260.80
   1  -4  -4 8997.01  236.47
  -1  -4   4 9792.27  248.50
   1   4  -327355.90  685.09
   1   4  -327947.62  685.72
   1  -4  -327917.36  671.24
   1  -4  -326855.55  660.79
  -1  -4   326840.43  657.08
  -1   4   2 9584.60  205.92
   1   4  -2 9347.78  224.66
   1   4  -2 9555.95  212.81
   1  -4  -2 9668.75  208.59
   1  -4  -2 8717.37  198.12
  -1  -4   2 9226.51  199.80
  -1  -4   2 9757.65  230.41
  -1   4   1 2200.44   64.34
   1   4  -1 2176.09   66.70
   1   4  -1 2289.62   61.18
   1  -4  -1 2204.55   65.29
   1  -4  -1 2115.41   56.88
  -1  -4   1 2070.92   51.78
  -1  -4   1 2139.40   63.54
  -1   4   0 5289.23  124.08
   1   4   0 5262.83  117.83
   1   4   0 4875.49  117.85
  -1  -4   0 4977.60  113.76
   1  -4   0 5368.90  128.44
  -1   4  -1 4072.04  103.16
   1   4   1 4100.16  104.88
   1  -4   1 3838.58   99.86
  -1  -4  -1 3971.62   93.47
  -1  -4  -1 3735.19   86.91
   1  -4   1 3913.81   94.52
  -1   4  -2 5196.19  128.98
   1   4   2 5008.52  116.56
   1   4   2 5412.29  121.34
   1  -4   2 5169.98  130.07
  -1  -4  -2 5213.82  114.99
  -1  -4  -2 5481.62  133.69
   1  -4   2 4886.83  113.98
  -1   4  -3 2938.77   95.10
   1   4   3 2833.72   75.16
   1   4   3 3085.87   83.70
  -1  -4  -3 2876.79   72.03
  -1  -4  -3 2782.50   85.27
   1  -4   3 2977.23   89.43
  -1   4  -417971.68  455.63
   1   4   417142.76  419.48
  -1  -4  -418442.28  463.97
   1  -4   418224.81  452.25
  -1   4  -5 3667.88  158.83
  -1  -4  -5 3353.31  134.64
   1  -4   5 3925.26  151.27
  -1   4  -6 8933.94  330.94
  -1  -4  -6 8800.57  327.22
   1  -4   6 9569.26  353.72
  -1   4  -711855.23  437.32
  -1  -4  -711065.35  395.54
   1  -4   710737.31  400.60
  -1   4  -8 3336.73  116.86
   1   4   8 3701.16   84.01
   1   4   8 3837.22   85.40
  -1  -4  -8 3383.60  114.14
   1  -4   8 3813.91  116.62
  -1   4  -9 6706.62  227.90
   1   4   9 6411.21  185.33
  -1  -4  -9 7327.59  253.10
   1  -4   9 6214.42  206.92
  -1   4 -10 3463.22  186.65
  -1  -4 -10 3902.93  208.58
   1  -4  10 3200.02  204.90
  -1   4 -11  472.69   59.95
  -1  -4 -11  455.61   29.28
  -1  -4 -11  363.87  151.27
   1  -4  11  486.92   50.88
  -1   4 -12  377.96   51.78
  -1  -4 -12  302.78   77.75
   1  -4  12  207.25   94.68
  -1   4 -13  830.23   63.86
  -1  -4 -13  650.20  222.72
   1  -4  13  915.87   91.39
  -1   4 -14 2221.98  155.88
  -1  -4 -14 1652.08  168.99
   1  -4  14 1770.69  174.42
  -1   4 -15  685.44  248.00
  -1  -4 -15  801.49  162.00
   1  -4  15  898.36  106.26
  -1   4 -16 2012.95  139.44
  -1  -4 -16 1855.39  140.39
   1  -4  16 1680.28  182.72
   1   5 -15  215.10  149.87
   1  -5 -15  255.45  102.30
  -1  -5  15  343.35   47.16
   1   5 -14   76.64   39.71
   1  -5 -14  242.57   84.47
  -1  -5  14   98.14   36.18
   1  -5 -13  246.66   46.64
   1   5 -12 2504.92  124.40
   1  -5 -12 2107.65  116.22
  -1  -5  12 1968.51   91.64
   1   5 -11 2423.21  131.38
   1  -5 -11 2264.26  128.91
  -1  -5  11 2291.49  109.77
   1   5 -10 1299.25   92.81
   1  -5 -10 1136.99  159.61
  -1  -5  10 1371.97   87.23
   1   5  -9 1766.04  104.94
   1  -5  -9 1806.90  115.56
  -1  -5   9 1820.40   99.70
   1   5  -8 6741.44  234.85
   1  -5  -8 6340.29  222.21
  -1  -5   8 7029.17  227.31
   1   5  -7 3612.05  148.28
   1  -5  -7 3830.35  150.86
  -1  -5   7 3513.56  104.20
   1   5  -6 2580.91   97.74
   1  -5  -6 2163.26  104.39
  -1  -5   6 2296.74   88.76
   1   5  -5 2231.54  108.31
   1  -5  -5 2076.63  130.25
  -1  -5   5 2063.30  107.44
   1   5  -4 7579.95  278.63
   1  -5  -4 7850.28  287.69
  -1  -5   4 7096.55  253.64
   1   5  -3 6119.94  231.85
   1  -5  -3 6309.78  222.20
   1  -5  -3 6226.90  217.00
   1  -5  -3 6653.93  244.38
  -1  -5   3 6239.03  223.66
  -1   5   2 3150.55  114.15
   1   5  -2 2783.37  114.68
   1  -5  -2 3310.37  150.92
   1  -5  -2 3181.61  121.80
  -1  -5   2 3144.83  117.00
  -1   5   1 1117.05   73.67
   1   5  -1 1032.96   72.28
   1   5  -1 1105.68   72.35
   1  -5  -1 1125.91   97.01
   1  -5  -1 1172.79   51.68
  -1  -5   1 1045.98   57.30
  -1  -5   1 1083.51   65.90
  -1   5   0  635.06   37.65
   1   5   0  672.57   43.96
   1   5   0  584.88   41.47
   1  -5   0  741.91   74.26
   1  -5   0  627.47   37.08
  -1  -5   0  659.41   35.90
  -1  -5   0  705.39   40.95
  -1   5  -1 4917.40  183.65
   1   5   1 4854.92  177.83
   1   5   1 5011.48  181.48
   1  -5   1 4923.76  202.01
  -1  -5  -1 4764.71  176.09
   1  -5   1 4789.37  175.50
  -1  -5  -1 5045.62  183.56
  -1   5  -2  146.68   24.07
   1   5   2  137.81   18.26
   1   5   2  140.86   38.47
  -1  -5  -2  148.14   29.09
   1  -5   2  161.49   40.54
  -1  -5  -2  130.24   15.92
  -1   5  -3 1438.45   69.41
   1   5   3 1286.91   49.92
  -1  -5  -3 1416.55   52.57
  -1  -5  -3 1258.68   56.76
   1  -5   3 1227.74   53.81
  -1   5  -415436.56  538.92
  -1  -5  -414566.72  510.01
   1  -5   414833.17  509.72
  -1   5  -5 6946.03  258.79
  -1  -5  -5 7311.80  265.84
   1  -5   5 6558.77  238.90
  -1   5  -6 2142.46  183.36
  -1  -5  -6 1808.28   70.37
   1  -5   6 1864.21   63.89
  -1   5  -7 5383.97  158.57
  -1  -5  -7 5187.68  169.64
  -1   5  -8 1472.41   97.02
  -1  -5  -8 1693.74  101.20
   1  -5   8 1662.15   94.40
  -1   5  -9 1965.45  113.68
  -1  -5  -9 1864.33  105.16
   1  -5   9 1957.40  112.02
  -1   5 -10 6083.01  207.83
  -1  -5 -10 6789.67  226.64
   1  -5  10 6519.27  205.41
  -1   5 -11 5796.87  244.80
  -1  -5 -11 4881.84  215.85
   1  -5  11 4798.16  253.57
  -1   5 -12  357.33   54.83
  -1  -5 -12   84.68   46.32
   1  -5  12  191.62   40.04
  -1   5 -13 1536.91  121.09
  -1  -5 -13 1297.65  166.82
   1  -5  13 1404.85  108.08
  -1   5 -14  163.94   99.09
  -1  -5 -14  264.63   75.96
   1  -5  14  309.11   49.30
  -1   5 -15 2135.95  143.67
  -1  -5 -15 2446.91  168.70
   1  -5  15 2266.02  145.74
   1   6 -14  740.65   88.23
   1  -6 -14  845.33  119.95
  -1  -6  14 1001.25  139.02
   1   6 -13   24.89   40.03
   1  -6 -13   67.20   53.90
  -1  -6  13   28.29   43.10
   1   6 -12 2104.95  156.59
   1  -6 -12 1774.48  137.92
  -1  -6  12 1819.98  125.17
   1   6 -11  454.61   59.83
   1  -6 -11  410.16  141.26
  -1  -6  11  609.53   44.17
   1   6 -10  223.00   59.86
   1  -6 -10  188.18   62.03
  -1  -6  10  134.22   44.72
   1   6  -9 1996.10  108.71
   1  -6  -9 1611.11  114.47
  -1  -6   9 1732.97   73.88
   1   6  -8 5726.69  229.14
   1  -6  -8 5631.33  297.21
  -1  -6   8 5373.70  257.76
   1   6  -7  283.13   63.61
   1  -6  -7  332.27  125.27
  -1  -6   7  226.80   58.09
   1   6  -6 9707.89  312.48
   1  -6  -6 9131.78  302.84
  -1  -6   6 9204.61  305.66
   1   6  -5 1029.89  146.49
   1  -6  -5 1119.92   83.14
  -1  -6   5 1319.80   83.01
   1   6  -4  757.80  126.64
   1  -6  -4  868.23   64.57
  -1  -6   4  715.13   40.03
   1   6  -3 8045.20  241.96
   1  -6  -3 9103.04  204.69
   1  -6  -3 9226.89  225.81
  -1  -6   3 9023.06  211.91
  -1   6   2 5660.79  132.37
   1   6  -2 5520.01  152.40
   1  -6  -2 5595.66  141.07
   1  -6  -2 5425.03  137.86
  -1  -6   2 5676.67  139.41
  -1   6   1 7923.53  185.95
   1   6  -1 8164.54  202.60
   1  -6  -1 8418.02  212.46
   1  -6  -1 7736.76  189.15
  -1  -6   1 8194.04  189.89
  -1   6   0 2848.09   81.66
   1   6   0 2853.45   84.47
   1  -6   0 2754.71   82.61
  -1  -6   0 2908.61   89.23
  -1  -6   0 3005.32   84.85
   1  -6   0 2849.65   93.00
  -1   6  -1 1645.82   58.32
   1   6   1 1708.52   66.22
  -1  -6  -1 1674.84   56.13
  -1  -6  -1 1902.18   88.04
   1  -6   1 1655.17   68.61
  -1   6  -2  938.12   49.93
   1   6   2  862.34   37.94
  -1  -6  -2  864.35   48.91
  -1  -6  -2  839.62   54.03
   1  -6   2  970.98   38.18
   1   6   3 4820.17  115.59
  -1   6  -3 5138.94  143.97
  -1  -6  -3 5020.48  114.65
  -1  -6  -3 5146.86  134.14
   1  -6   3 5131.96  128.06
  -1   6  -4 1241.76   73.25
  -1  -6  -4 1152.10   61.96
   1  -6   4 1092.28   61.92
  -1   6  -5 1286.99   81.68
  -1  -6  -5 1202.78   68.12
   1  -6   5 1035.92   61.41
  -1   6  -6 8210.36  266.93
  -1  -6  -6 8506.74  271.67
   1  -6   6 8159.52  250.97
  -1   6  -7 1188.55   97.72
  -1  -6  -7 1316.31  142.94
   1  -6   7 1293.22   69.95
  -1   6  -8 2720.48  126.56
  -1  -6  -8 2162.60  161.20
   1  -6   8 2590.79  118.76
  -1   6  -9 8264.58  262.69
  -1  -6  -9 8371.22  264.01
   1  -6   9 8779.22  260.46
  -1   6 -10  298.33   56.95
  -1  -6 -10  270.39   97.43
   1  -6  10  289.49   37.55
  -1  -6 -11  220.86   84.02
   1  -6  11  345.95  114.94
  -1   6 -12   19.31   39.08
  -1  -6 -12   56.91   38.72
   1  -6  12  224.94   40.83
  -1   6 -13   87.28   53.56
  -1  -6 -13   34.03   93.20
   1  -6  13   69.88   58.44
  -1   6 -14  588.25   73.76
  -1  -6 -14  632.75   77.29
   1  -6  14  521.97  185.41
   1   7 -13 1908.10  212.71
   1  -7 -13 2171.16  161.96
  -1  -7  13 2305.34  141.14
   1   7 -12 1472.89  224.08
   1  -7 -12 1495.86  110.87
  -1  -7  12 1682.42  137.64
   1   7 -11  326.22   60.01
   1  -7 -11   96.47   43.85
  -1  -7  11  306.36   86.72
   1   7 -10 2703.22  157.43
   1  -7 -10 2836.15  163.25
  -1  -7  10 2532.72  166.43
   1   7  -9 2880.13  134.52
   1  -7  -9 3453.66  149.90
  -1  -7   9 2801.46  124.94
   1   7  -8 1753.43  123.92
   1  -7  -8 1818.26  134.75
  -1  -7   8 1657.41  109.98
   1   7  -7 2304.25  106.85
  -1  -7   7 2654.18  130.14
   1   7  -6  542.43   60.09
   1  -7  -6  600.42   80.23
  -1  -7   6  704.58   79.96
   1   7  -5 7418.55  278.08
   1  -7  -5 7153.07  265.69
  -1  -7   5 7116.77  253.58
   1   7  -4 6077.58  301.81
   1  -7  -4 6169.64  337.95
  -1  -7   4 6411.08  303.94
   1   7  -3 2616.62  128.54
   1  -7  -3 2856.52  148.39
  -1  -7   3 2837.19  137.94
  -1   7   2 1265.33   69.83
   1  -7  -2 1060.56   74.88
   1  -7  -2 1171.08   84.95
  -1  -7   2 1300.74   95.72
  -1   7   1 1079.78   79.60
   1   7  -1 1177.65   72.08
   1  -7  -1  939.65   56.60
  -1  -7   1 1025.06   68.13
  -1   7   0  151.87   39.10
   1   7   0  178.56   32.70
  -1  -7   0  154.71   43.75
   1  -7   0  130.70   35.60
  -1   7  -1 3934.56  136.11
   1   7   1 3814.44  138.98
  -1  -7  -1 3931.41  134.56
   1  -7   1 3951.82  128.12
   1   7   211801.55  348.86
  -1  -7  -212595.24  370.67
  -1  -7  -212027.49  359.71
   1  -7   211754.06  352.42
   1   7   3 3357.02  158.84
  -1   7  -3 3044.76  159.40
  -1  -7  -3 3258.72  170.66
   1  -7   3 3441.77  167.59
  -1   7  -4  218.19   76.91
  -1  -7  -4  295.42   76.03
   1  -7   4  370.01   50.48
  -1   7  -5 4676.33  199.45
  -1  -7  -5 4824.40  186.62
   1  -7   5 4848.51  222.29
  -1   7  -6 3446.22  131.36
  -1  -7  -6 3323.19  119.91
   1  -7   6 3381.02  111.30
  -1   7  -7 2112.65   96.75
  -1  -7  -7 2559.17  104.44
   1  -7   7 2525.98  124.08
  -1   7  -8 2256.44  147.91
  -1  -7  -8 1827.52  117.16
   1  -7   8 1832.34  108.20
  -1   7  -9 1266.56   72.23
  -1  -7  -9 1516.63   88.43
   1  -7   9 1277.74   71.94
  -1   7 -10  721.24   63.62
  -1  -7 -10  571.75   49.83
   1  -7  10  668.61   53.84
  -1   7 -11  760.88  151.90
  -1  -7 -11  826.13   67.46
   1  -7  11  824.53   88.36
  -1   7 -12  774.88  103.49
  -1  -7 -12 1007.30   76.85
   1  -7  12  879.83   65.26
  -1   7 -13 4479.98  263.84
  -1  -7 -13 4610.57  270.62
   1  -7  13 4419.56  243.37
   1   8 -11  399.79   62.00
   1  -8 -11  251.10  191.74
  -1  -8  11  457.16   45.37
   1   8 -10 1269.19  147.22
   1  -8 -10 1602.02  129.15
  -1  -8  10 1424.29   62.72
   1   8  -9  253.41   50.80
   1  -8  -9  122.83   59.58
  -1  -8   9  293.92   95.83
   1   8  -8 1243.21  102.72
   1  -8  -8 1012.84  100.98
  -1  -8   8  863.79   80.34
   1   8  -7 2609.29  119.34
   1  -8  -7 2635.52  117.36
  -1  -8   7 2346.76   88.98
   1   8  -6  460.90   49.83
   1  -8  -6  454.01  136.93
  -1  -8   6  468.83   42.22
   1   8  -5 1461.64   98.87
   1  -8  -5 1798.55  145.71
  -1  -8   5 1440.07  103.06
   1  -8  -4 2389.99  165.66
  -1  -8   4 2523.10  105.59
   1   8  -3 4039.36  140.74
   1  -8  -3 3191.79  168.57
  -1  -8   3 3676.39  136.57
   1   8  -2  310.34   42.24
   1  -8  -2  206.62   49.29
  -1  -8   2  165.83   49.93
  -1   8   1 4322.14  136.28
   1   8  -1 4111.36  135.40
   1  -8  -1 4506.15  148.79
  -1  -8   1 4577.08  136.11
  -1   8   0 1735.60   65.83
   1   8   0 2081.06   79.08
  -1  -8   0 1756.18   63.54
   1  -8   0 1714.91   79.46
  -1   8  -1 4238.36  136.54
   1  -8   1 4294.33  155.19
  -1   8  -2 2276.99   86.93
  -1  -8  -2 2534.43   91.43
   1  -8   2 2196.61   78.55
  -1   8  -3  853.24  114.65
  -1  -8  -3  830.89   57.29
   1  -8   3  974.14   84.37
  -1  -8  -4 2154.05  131.15
   1  -8   4 2362.07  100.87
  -1   8  -5 2246.18  138.30
  -1  -8  -5 2291.70  134.91
   1  -8   5 2106.54  138.71
  -1   8  -6 1999.69  126.72
  -1  -8  -6 2032.95  133.99
   1  -8   6 1793.55  118.88
  -1   8  -7  682.98   80.37
  -1  -8  -7  742.84   52.37
   1  -8   7  672.16   38.00
  -1   8  -8 1110.36  160.33
  -1  -8  -8  846.32  138.53
   1  -8   8 1214.12   83.61
  -1   8  -9 1845.15  219.74
  -1  -8  -9 1937.56  143.81
   1  -8   9 1608.15  144.95
  -1   8 -10  276.18  126.72
  -1  -8 -10  191.60   87.37
  -1   8 -11 1441.24   94.13
   1  -8  11 1504.50   78.35
   1   9  -9  519.49   83.98
  -1  -9   9  364.20   35.70
   1  -9  -8  999.58  103.74
  -1  -9   8  939.74   84.74
   1   9  -7  825.68   59.92
   1  -9  -7  836.41  108.65
  -1  -9   7 1006.96   82.75
   1   9  -6 1043.43   92.59
   1  -9  -6 1177.03  102.15
  -1  -9   6 1066.62   75.91
   1   9  -5 2004.95  141.36
   1  -9  -5 2518.12  168.22
  -1  -9   5 2329.94  143.91
   1   9  -4 1990.29  120.81
   1  -9  -4 2038.09  117.31
  -1  -9   4 2253.63  114.19
   1   9  -3 2971.39  158.64
   1  -9  -3 3249.84  170.02
  -1  -9   3 3330.10  163.89
   1   9  -2 1389.07   70.11
   1  -9  -2 1329.26   86.36
  -1  -9   2 1398.45   66.67
   1   9  -1  831.65   44.06
   1  -9  -1  758.11  117.69
  -1  -9   1  905.77   37.33
  -1  -9   0 2790.60  103.57
   1  -9   0 2527.90   95.80
  -1   9  -1 5153.76  177.43
  -1  -9  -1 5511.04  180.78
   1  -9   1 5246.90  169.51
  -1   9  -2 1124.00   51.98
  -1  -9  -2 1216.66   53.86
  -1   9  -3  379.36  100.33
  -1  -9  -3  385.00   65.98
   1  -9   3  355.80   51.98
  -1   9  -4  101.88   38.03
  -1  -9  -4   57.35   38.57
   1  -9   4   76.39   29.24
  -1   9  -5  557.32   96.44
  -1  -9  -5  453.42  143.31
   1  -9   5  596.45   97.73
  -1   9  -6 2622.46  182.88
  -1  -9  -6 2249.48  165.27
   1  -9   6 2516.11  174.42
  -1  -9  -7 1913.64  166.43
   1  -9   7 2251.60  158.31
  -1  -9  -8 1662.98   96.19
   1  -9   8 1550.46   80.34
  -1   9  -9  122.74  101.69
  -1  -9  -9   97.24   69.59
   1  -9   9  233.70   94.60
   1  10  -6  256.79  128.26
   1 -10  -6  273.35  145.54
  -1 -10   6  288.24   90.93
   1  10  -5 1169.34  114.93
   1 -10  -5  952.40  165.86
  -1 -10   5  887.40   91.10
   1  10  -4 1723.55   93.69
   1 -10  -4 1806.15   88.98
  -1 -10   4 1635.21   69.14
   1 -10  -3  193.67   62.33
  -1 -10   3  172.08   64.54
   1 -10  -2 2883.01  106.66
  -1 -10   2 2489.99   80.97
   1 -10  -1 2820.48  101.58
  -1 -10   1 2700.30  104.62
  -1 -10   0 2867.22  191.34
   1 -10   0 2332.57  204.39
  -1 -10  -1  119.40   78.42
   1 -10   1  203.11   74.58
  -1 -10  -2 2925.05  101.52
   1 -10   2 2872.03   93.44
  -1 -10  -3   76.76   58.13
   1 -10   3  108.37   52.17
  -1  10  -4 2256.62  106.37
  -1 -10  -4 2355.13  108.20
   1 -10   4 2245.68   98.48
  -1  10  -5   77.92   47.86
  -1 -10  -5   74.88   28.21
   1 -10   5   85.34   49.02
  -1  10  -6  322.53  117.11
  -1 -10  -6  437.82  154.85
   1 -10   6  432.25   63.97
   2   0 -17 4030.49  233.43
   2   0 -17 4080.55  253.06
   2   0 -16  618.39   61.25
   2   0 -16 1006.91  256.69
   2   0 -15  386.16   58.94
   2   0 -15  334.80  183.44
   2   0 -14  155.01   81.30
   2   0 -14  192.06   69.80
   2   0 -13  403.34  156.74
   2   0 -13  401.83  143.79
   2   0 -12 1878.89  150.94
   2   0 -12 1563.81   94.85
   2   0 -1115811.10  484.67
   2   0 -1115745.11  495.05
   2   0 -10 1632.54  117.28
   2   0 -10 1765.80  111.05
   2   0  -9 1861.05  128.36
   2   0  -9 1978.55  107.31
   2   0  -8 1386.54   68.30
   2   0  -8 1435.07   80.58
   2   0  -7 5612.30  167.08
   2   0  -6  802.27   39.18
  -2   0   6  709.13   33.51
   2   0  -6  865.15   51.55
   2   0  -5  264.64   82.14
  -2   0   5  261.12   53.53
   2   0  -5  313.94  113.58
  -2   0   5  261.09   65.44
   2   0  -4 5271.08  134.45
  -2   0   4 5132.44  127.11
   2   0  -4 5126.83  134.51
  -2   0   4 5109.25  132.98
   2   0  -211358.20  264.64
  -2   0   211421.73  259.74
   2   0  -211034.11  254.72
  -2   0   210728.92  242.72
   2   0   1 3819.31   91.68
   2   0   1 3837.60   95.78
   2   0   1 3592.88   82.79
  -2   0  -1 3343.29   83.29
  -2   0  -210246.31  233.76
   2   0   210313.48  235.11
   2   0   210186.75  230.41
  -2   0  -211112.49  253.49
  -2   0  -320199.01  452.33
   2   0   319809.70  445.13
   2   0   319659.33  443.25
   2   0   319699.95  442.92
  -2   0  -4  175.91   21.78
   2   0   4  160.93   49.78
   2   0   4  117.99   30.74
   2   0   4  188.02   24.77
  -2   0  -5  152.06   40.17
   2   0   5  172.38   20.52
   2   0   5  112.60   33.62
   2   0   5  135.71   50.55
   2   0   6 4348.36  113.03
   2   0   6 4313.43  119.96
   2   0   7  827.62   47.65
  -2   0  -8   22.08   18.21
   2   0   8   70.05   38.70
  -2   0  -9  355.59   45.13
   2   0   9  315.46   46.50
  -2   0 -10 2045.77  138.18
   2   0  10 2116.66  124.66
  -2   0 -1110827.00  334.97
   2   0  1110927.41  350.14
  -2   0 -12 8745.90  333.98
   2   0  12 8709.47  327.38
  -2   0 -13 1251.99   55.01
   2   0  13  882.65  112.04
  -2   0 -14 4090.52  149.15
   2   0  14 4623.35  184.13
  -2   0 -15 3309.54  225.92
   2   0  15 2990.81  201.27
  -2   0 -16   24.25   32.17
   2   0  16  163.09   64.68
  -2   0 -17  104.37   53.93
   2   0  17  178.18   56.24
   2   1 -17  159.00   47.40
   2  -1 -17   92.52   71.02
  -2  -1  17  146.93   66.41
   2   1 -16 1673.76   88.10
   2   1 -16 1752.43  108.89
   2  -1 -16 1337.18   71.69
   2  -1 -16 1487.69  296.55
   2   1 -15 6941.53  423.72
   2   1 -15 6475.76  404.90
   2  -1 -15 5988.86  388.01
   2  -1 -15 6133.11  389.39
   2   1 -14 1644.61   92.31
   2   1 -14 1512.65  156.71
   2  -1 -14 1512.15   79.36
   2  -1 -14 1337.68  130.68
   2   1 -13 2420.41  121.97
   2   1 -13 2494.71  134.23
   2  -1 -13 2437.15  114.83
   2  -1 -13 2306.48  151.34
   2   1 -12 2899.17  133.01
   2   1 -12 2806.44  216.52
   2  -1 -12 2654.23  115.12
   2  -1 -12 2483.86  141.75
   2   1 -11  246.09   50.22
   2   1 -11  326.78   58.18
   2  -1 -11  227.16   37.65
   2  -1 -11  324.08   89.66
   2   1 -10 5646.28  190.71
   2   1 -10 5655.85  177.43
   2  -1 -10 6026.61  190.68
   2  -1 -10 6372.93  191.90
   2   1  -9 1348.38   88.29
   2   1  -9 1162.23  112.89
   2  -1  -9 1379.65  123.98
   2  -1  -9 1277.00  103.27
   2   1  -8 4281.25  170.59
   2   1  -8 3471.90  151.98
   2  -1  -8 3905.79  152.07
   2  -1  -8 4414.31  204.96
   2   1  -7 9395.50  257.30
  -2   1   7 9119.80  236.99
   2   1  -7 9356.39  270.66
   2  -1  -7 9545.46  253.31
   2  -1  -7 8951.60  248.14
   2   1  -6 7596.19  185.29
  -2   1   6 7929.89  181.89
   2   1  -6 8651.71  207.83
   2  -1  -6 7987.73  196.93
   2  -1  -6 8153.39  217.03
   2   1  -5 3384.71  107.28
   2   1  -5 3460.87  124.91
  -2   1   5 3630.94   90.19
  -2   1   5 3592.52   94.44
  -2  -1   5 3324.69  115.75
   2  -1  -5 3281.41   85.34
   2  -1  -5 3454.40  101.67
   2   1  -4 1184.62   64.35
  -2   1   4 1151.97   44.37
   2   1  -4 1197.93   46.31
  -2   1   4 1254.89   53.43
   2  -1  -4 1376.35   93.44
   2   1  -312479.90  296.01
   2   1  -312827.82  297.34
  -2   1   312940.63  291.88
  -2   1   313548.66  308.88
   2  -1  -313265.78  301.86
  -2  -1   313685.40  318.34
   2  -1  -312291.74  285.11
   2   1  -220903.92  475.46
   2   1  -220844.97  466.09
  -2  -1   222400.97  504.09
   2  -1  -221001.38  469.82
   2   1   0 8142.49  188.32
  -2   1   0 8524.11  192.02
   2  -1   0 8126.06  187.70
  -2  -1   0 8203.24  187.42
   2  -1   0 8096.93  184.88
  -2   1  -218682.31  421.44
  -2   1  -219180.14  429.33
   2   1   218265.76  407.38
   2  -1   218737.18  418.61
   2  -1   218714.50  421.99
  -2   1  -322925.64  516.31
   2   1   321427.14  476.93
  -2   1  -322077.62  496.42
   2   1   322610.12  506.13
  -2  -1  -320666.78  459.16
   2  -1   321383.77  479.69
   2  -1   321830.90  493.24
   2   1   4  974.55   43.12
  -2   1  -4  894.38   61.55
  -2   1  -4  963.80   72.04
   2   1   4  890.21   37.48
   2  -1   4  959.44   64.27
   2  -1   4  872.29   87.54
  -2  -1  -4  878.54   40.21
  -2   1  -5  270.81   61.82
   2   1   5  233.81   24.42
   2   1   5  218.36   54.88
  -2  -1  -5  255.36   17.22
   2  -1   5  219.30   20.82
   2  -1   5  276.18   25.27
   2  -1   5  286.42   31.26
   2   1   6 6049.90  171.13
  -2   1  -6 5962.90  150.35
   2   1   6 6396.20  155.97
  -2  -1  -6 5876.43  142.20
   2  -1   6 5740.01  146.13
  -2   1  -710245.05  270.61
   2   1   711127.30  287.56
  -2  -1  -710345.18  263.79
   2  -1   7 9529.59  255.50
  -2   1  -8 2721.35  115.09
  -2  -1  -8 2445.92   98.19
  -2  -1  -8 2989.05  143.71
   2  -1   8 2794.24  120.97
  -2   1  -9 1087.35   64.02
  -2  -1  -9 1107.13   58.50
  -2  -1  -9 1146.48   67.74
   2  -1   9 1181.82   78.00
  -2   1 -10  582.25   68.33
  -2  -1 -10  713.31   53.07
  -2  -1 -10  790.20   70.93
   2  -1  10  911.03   74.43
  -2   1 -11 4396.37  178.26
  -2  -1 -11 4445.12  166.71
  -2  -1 -11 4153.22  159.05
   2  -1  11 3856.61  147.49
  -2   1 -12 6995.83  286.46
  -2  -1 -12 7360.62  289.28
  -2  -1 -12 7088.67  350.46
   2  -1  12 6722.26  261.61
  -2   1 -13  812.87   52.49
  -2  -1 -13  856.40  109.20
  -2  -1 -13 1129.38   74.31
   2  -1  13 1075.13   80.84
  -2   1 -14 3852.97  153.36
  -2  -1 -14 3705.31  177.10
   2  -1  14 4469.80  177.16
   2   1  15  938.52  100.17
  -2   1 -15  868.67  127.56
   2  -1  15 1045.12   78.19
  -2  -1 -15  840.37   99.13
   2   1  16  610.94  117.55
  -2   1 -16  805.03   77.43
   2  -1  16  572.52   68.63
  -2  -1 -16  615.97   54.25
  -2   1 -17 3371.40  234.15
   2   1  17 3065.14  196.05
   2  -1  17 3687.63  230.71
   2   2 -16  470.07   68.48
   2  -2 -16  363.18  202.26
  -2  -2  16  615.75   79.76
   2   2 -15  809.50   87.01
   2  -2 -15  592.51  103.68
   2  -2 -15  873.71  139.52
  -2  -2  15  471.00  213.88
   2   2 -14  844.32   60.49
   2  -2 -14  783.61   46.17
   2  -2 -14  668.29  165.84
  -2  -2  14  732.00   67.47
   2  -2 -13  127.93   45.55
   2  -2 -13  191.21   48.64
  -2  -2  13  180.27   51.37
   2   2 -12 2579.62  121.93
   2  -2 -12 2492.57  123.56
   2  -2 -12 2604.29  250.45
   2   2 -11 6198.83  309.54
   2   2 -11 6443.27  322.61
   2  -2 -11 5893.75  307.34
   2  -2 -11 6364.13  335.01
   2   2 -10  870.27   97.24
   2   2 -10  854.66   64.89
   2  -2 -10  788.41   48.21
   2  -2 -10  728.24   82.42
   2   2  -9 8623.27  228.59
   2   2  -9 8316.11  251.54
   2  -2  -9 8102.21  230.77
   2  -2  -9 8065.92  221.85
   2   2  -8  277.78  112.59
  -2   2   8  223.45   39.78
   2   2  -8  244.60  100.04
   2  -2  -8  254.14   27.62
   2  -2  -8  309.90   52.61
   2   2  -7  287.15  106.55
  -2   2   7  256.70   50.56
   2   2  -7  270.61   78.79
   2  -2  -7  260.91   30.65
   2  -2  -7  398.40   76.57
   2   2  -6 2161.59   83.87
  -2   2   6 2138.30   62.87
   2   2  -6 2333.54  101.75
   2  -2  -6 2277.85   70.93
   2  -2  -6 2155.64   83.20
  -2   2   5 6815.37  152.41
   2   2  -5 6461.63  157.60
  -2  -2   5 6797.93  173.33
   2  -2  -5 6159.33  154.57
   2   2  -4 6491.39  161.06
   2   2  -4 6334.72  149.50
  -2   2   4 6409.86  140.59
  -2   2   4 5864.91  137.86
   2  -2  -4 6281.84  145.77
  -2  -2   4 6345.30  150.31
   2  -2  -4 6543.82  157.81
  -2  -2   4 6560.65  159.11
   2   2  -3 9044.13  227.21
  -2   2   3 9317.48  212.46
  -2   2   3 9446.01  220.70
  -2  -2   3 9464.66  226.17
   2  -2  -3 9241.26  211.13
  -2  -2   3 9945.37  233.80
   2  -2  -3 9147.88  226.93
   2   2  -215325.16  353.06
  -2   2   216113.59  362.99
  -2  -2   215715.56  354.06
   2  -2  -216381.93  370.66
  -2  -2   215833.90  369.85
   2   2  -1 5018.37  127.16
  -2   2   1 5188.37  121.40
  -2  -2   1 4778.41  114.77
   2  -2  -1 5057.57  120.56
   2  -2  -1 4991.07  124.03
  -2  -2   1 4606.86  105.15
  -2   2   0 5460.86  128.67
   2   2   0 5400.47  133.74
   2   2   0 5729.50  128.06
  -2   2   0 5938.39  138.65
   2  -2   0 5668.19  135.55
   2  -2   0 5476.47  128.52
  -2  -2   0 5300.66  137.09
  -2   2  -212715.49  293.55
   2   2   212995.62  289.65
   2   2   213080.01  296.79
  -2   2  -214121.29  321.74
   2  -2   213928.48  321.92
   2  -2   213422.10  303.27
  -2  -2  -212989.95  293.68
  -2   2  -343451.66  966.00
   2  -2   346549.48  970.64
   2   2   4 7139.93  157.58
  -2   2  -4 6966.65  166.20
   2   2   4 7227.83  164.03
   2   2   4 7143.85  153.56
  -2   2  -4 7708.42  181.44
   2  -2   4 7059.39  183.89
   2  -2   4 6751.01  157.11
  -2  -2  -4 7234.65  167.17
  -2  -2  -5 9829.65  209.81
   2  -2   5 9337.17  214.38
  -2   2  -6  665.40   51.97
   2   2   6  636.77   35.59
   2   2   6  636.62   42.26
  -2  -2  -6  594.99   25.19
  -2  -2  -6  549.29   56.75
   2  -2   6  633.61   50.50
  -2   2  -7 5564.95  216.70
   2   2   7 5680.57  208.24
  -2  -2  -7 5783.80  207.22
  -2  -2  -7 6004.68  228.27
   2  -2   7 5773.17  219.93
  -2   2  -8  187.00   66.94
   2   2   8  170.39   30.19
  -2  -2  -8  135.16   14.94
   2  -2   8  158.73   45.93
  -2   2  -9 2225.29   84.44
  -2  -2  -9 1960.05   64.13
  -2  -2  -9 1836.01   79.04
   2  -2   9 2025.24   87.83
  -2   2 -1010697.47  292.30
  -2  -2 -1010865.78  256.18
  -2  -2 -1010591.67  306.09
   2  -2  1010433.49  264.24
  -2   2 -1112076.79  588.70
  -2  -2 -1112618.21  584.97
  -2  -2 -1113898.92  661.31
   2  -2  1113185.88  625.71
  -2   2 -12  290.32   94.94
  -2  -2 -12  175.60   52.09
  -2  -2 -12  371.75  154.32
   2  -2  12  180.51   45.18
  -2   2 -13 2412.56  136.20
  -2  -2 -13 2378.43  129.89
  -2  -2 -13 2351.19  172.54
   2  -2  13 2674.13  136.29
  -2   2 -14 2551.31  150.70
  -2  -2 -14 2558.92   98.15
  -2  -2 -14 2425.46  119.11
   2  -2  14 2267.87  119.29
  -2   2 -15 1779.38  129.59
  -2  -2 -15 1768.53  116.84
  -2  -2 -15 1752.61  183.61
   2  -2  15 1620.89  132.38
  -2   2 -16  325.34  168.59
  -2  -2 -16  436.87   82.16
   2  -2  16  263.73   49.44
   2   3 -16  549.44   75.27
   2  -3 -16  898.41  113.68
  -2  -3  16  702.48   83.47
   2   3 -15 1442.56  120.15
   2  -3 -15 1698.55  144.92
  -2  -3  15 1654.61  133.78
   2   3 -14 2441.05  144.69
   2  -3 -14 2664.20  165.65
  -2  -3  14 2682.51  156.94
   2   3 -13 3161.24  192.53
   2  -3 -13 3122.49  171.60
   2  -3 -13 3460.57  213.25
  -2  -3  13 2637.91  161.76
   2   3 -12  164.87   45.28
   2  -3 -12   62.13   18.28
   2  -3 -12   36.14   28.54
  -2  -3  12  143.09   49.56
   2   3 -11  210.95   57.37
   2  -3 -11   72.13   25.16
  -2  -3  11  105.91   36.63
   2   3 -10  861.50   74.62
   2  -3 -10  786.26   73.71
   2  -3 -10  858.39   75.62
  -2  -3  10  901.79   71.92
   2   3  -911256.69  293.49
  -2   3   911300.17  254.81
   2  -3  -910967.39  252.45
   2  -3  -910473.38  296.17
  -2  -3   910930.78  270.65
   2   3  -8 7655.23  209.49
  -2   3   8 7452.54  179.45
   2  -3  -8 7717.04  183.39
   2  -3  -8 7294.66  252.18
  -2  -3   8 7597.95  199.63
   2   3  -717303.57  418.27
  -2   3   716363.28  555.57
   2  -3  -717479.83  389.00
   2  -3  -715846.89  565.31
  -2  -3   717082.33  396.10
   2   3  -6 1897.27   92.78
  -2   3   6 1774.83   67.59
   2  -3  -6 1634.25   68.18
   2  -3  -6 1631.19   89.48
  -2  -3   6 1585.88   73.26
   2   3  -5 1545.77   88.47
  -2   3   5 1573.34   44.01
   2  -3  -5 1546.59   55.31
  -2  -3   5 1541.82   58.60
   2  -3  -5 1763.73   69.63
  -2  -3   5 1579.39   58.82
   2   3  -4 2399.47  119.20
   2  -3  -4 2591.94   60.85
   2  -3  -4 2481.43   68.80
  -2  -3   4 2635.07   84.72
   2  -3  -4 2661.11   97.77
  -2  -3   4 2384.07   66.95
   2   3  -312006.02  272.72
   2  -3  -311959.73  252.58
   2  -3  -311956.84  253.01
  -2  -3   312301.55  269.75
   2  -3  -312141.18  268.81
  -2  -3   311707.59  258.42
   2   3  -2 3136.28   79.88
   2   3  -2 2883.01   81.72
  -2   3   2 3108.87   78.98
   2  -3  -2 3054.52   73.61
   2  -3  -2 3021.65   78.18
  -2  -3   2 3174.22   85.25
  -2  -3   2 3165.47   74.05
   2  -3  -2 3024.93   72.87
  -2   3   1 8057.45  177.77
   2   3  -1 7590.55  188.49
  -2   3   1 7769.01  174.57
   2   3  -1 7560.13  164.17
   2  -3  -1 7879.02  178.06
  -2  -3   1 7989.39  168.73
  -2   3  -117632.89  376.57
   2   3   117624.95  380.71
  -2   3  -118089.70  385.18
  -2  -3  -116620.56  346.99
   2  -3   116823.03  355.83
  -2  -3  -118292.19  385.59
  -2   3  -211688.31  259.64
   2   3   211175.80  240.29
   2   3   211749.73  246.76
   2  -3   211901.98  266.35
  -2  -3  -211644.26  247.82
  -2  -3  -211708.48  251.42
   2  -3   211688.79  256.40
  -2   3  -3  531.97   35.21
   2   3   3  658.32   29.91
   2   3   3  614.28   23.05
  -2  -3  -3  645.67   25.82
  -2  -3  -3  586.27   28.23
   2  -3   3  637.49   29.86
   2   3   4 5092.79  112.91
  -2   3  -4 5059.75  149.75
   2   3   4 4915.32  109.67
   2   3   4 5061.21  117.74
  -2  -3  -4 4996.64  125.68
   2  -3   4 5057.04  125.94
   2   3   514670.53  359.86
  -2   3  -513460.48  349.16
   2   3   513588.09  330.79
   2   3   514242.06  356.41
  -2  -3  -513312.55  355.07
   2  -3   514684.51  372.60
  -2   3  -6 6213.78  236.25
   2   3   6 6175.55  224.84
   2   3   6 6083.66  213.95
  -2  -3  -6 6585.80  258.36
   2  -3   6 5848.73  217.66
  -2   3  -7 1474.27   93.82
   2   3   7 1717.42   77.23
   2   3   7 1573.65   62.25
  -2  -3  -7 1720.21  113.20
   2  -3   7 1629.15   82.32
  -2   3  -8 5151.36  148.34
   2   3   8 5081.81  133.84
  -2  -3  -8 4925.81  122.50
  -2  -3  -8 5314.75  203.95
   2  -3   8 4935.80  173.52
  -2   3  -9 1125.04   70.65
   2   3   9 1114.35   74.15
  -2  -3  -9 1375.68   61.66
  -2  -3  -9 1353.97   80.95
   2  -3   9 1404.91   80.86
  -2   3 -10 3869.20  148.28
  -2  -3 -10 3807.17  143.07
  -2  -3 -10 3985.92  152.20
   2  -3  10 3816.71  153.61
  -2   3 -11 3238.60  143.69
  -2  -3 -11 3306.80  138.01
  -2  -3 -11 3529.49  155.25
   2  -3  11 3419.38  156.25
  -2   3 -12 3405.88  157.24
  -2  -3 -12 3075.17  116.18
   2  -3  12 3295.84  141.42
  -2   3 -13  189.66   81.89
  -2  -3 -13  151.89   67.73
  -2  -3 -13  287.86   98.95
   2  -3  13  299.83   53.45
  -2   3 -14 2385.01  166.27
  -2  -3 -14 2291.84  143.91
   2  -3  14 2043.91  126.26
  -2   3 -15 1435.80  115.59
  -2  -3 -15 2194.52  169.97
   2  -3  15 1495.61  133.09
  -2   3 -16 1985.18  152.96
  -2  -3 -16 2007.72  118.53
   2  -3  16 1869.85  101.15
   2   4 -15  322.70   60.11
   2  -4 -15  390.74  198.12
  -2  -4  15  499.66   70.42
   2   4 -14  277.44   59.12
  -2  -4  14  188.60   79.93
   2   4 -13 1023.42   84.39
   2  -4 -13  844.84  173.10
  -2  -4  13  897.25   73.49
   2   4 -12  151.02  132.97
   2  -4 -12  376.35  192.63
  -2  -4  12  197.60   46.99
   2   4 -11 3141.30  132.02
   2  -4 -11 3241.89  100.37
   2  -4 -11 3186.67  140.14
   2   4 -10 3902.25  167.87
   2  -4 -10 4236.52  153.76
   2  -4 -10 4587.98  194.19
  -2  -4  10 3750.74  156.62
   2   4  -9 2494.79  143.65
   2  -4  -9 2897.61  142.97
   2  -4  -9 2483.55  220.88
  -2  -4   9 2771.95  149.79
   2   4  -8 4830.44  173.88
  -2   4   8 5040.23  114.85
   2  -4  -8 4944.58  116.91
   2  -4  -8 4771.46  189.04
  -2  -4   8 4829.39  136.07
   2   4  -7 4158.53  134.58
   2  -4  -7 3900.03  102.80
   2  -4  -7 3931.45  129.64
  -2  -4   7 4072.20  119.80
   2   4  -6 7664.43  285.86
   2  -4  -6 7971.86  271.28
   2  -4  -6 7861.43  270.06
   2  -4  -6 7355.86  270.51
  -2  -4   6 7370.75  271.08
   2   4  -5 8164.05  304.98
   2  -4  -5 8364.68  291.51
   2  -4  -5 7898.24  278.10
   2  -4  -5 7369.48  310.83
  -2  -4   5 7395.16  267.41
   2   4  -413520.61  353.23
   2  -4  -414385.45  352.05
   2  -4  -413986.59  341.47
  -2  -4   413988.39  360.14
   2  -4  -414802.22  397.31
  -2  -4   414108.59  356.42
   2   4  -3 6045.75  174.69
   2   4  -3 6363.32  183.10
   2  -4  -3 6489.21  164.83
   2  -4  -3 5689.09  164.61
  -2  -4   3 5926.05  152.72
   2  -4  -3 6100.95  152.24
   2   4  -2 1985.63   78.01
   2   4  -2 2122.50   65.93
   2  -4  -2 2141.35   68.75
   2  -4  -2 2160.13   69.08
  -2  -4   2 2015.45   56.64
   2  -4  -2 2233.38   63.68
  -2   4   1 5879.35  154.16
   2   4  -1 5619.17  157.25
   2   4  -1 5884.12  152.13
   2  -4  -1 5985.62  157.63
   2  -4  -1 5421.69  143.94
  -2  -4   1 5718.44  143.03
  -2  -4   1 5789.50  157.97
  -2   4   0  542.45   30.82
   2   4   0  524.47   28.62
   2   4   0  606.56   31.95
   2  -4   0  479.26   27.26
  -2  -4   0  495.24   23.44
   2  -4   0  539.71   64.00
  -2  -4   0  489.32   51.80
  -2   4  -1 4715.91  148.41
   2   4   1 4658.92  143.75
   2   4   1 4969.33  125.23
   2  -4   1 4543.37  127.90
  -2  -4  -1 4535.99  122.69
   2  -4   1 4366.51  116.28
  -2  -4  -1 4440.95  117.79
  -2   4  -2 3995.69  118.05
   2   4   2 4015.29  113.79
   2   4   2 4187.39  106.05
  -2  -4  -2 4104.91  109.39
  -2  -4  -2 4228.48  115.00
   2  -4   2 4195.17  116.94
  -2   4  -3 3975.71  124.11
   2   4   3 3681.13  106.66
   2   4   3 4002.38  108.28
  -2  -4  -3 3832.95   98.88
  -2  -4  -3 3693.20  105.91
   2  -4   3 3640.04  102.02
   2   4   4 7560.69  187.68
  -2   4  -4 7120.23  196.29
   2   4   4 7430.14  186.85
   2   4   4 7906.72  199.26
  -2  -4  -4 7521.36  207.28
   2  -4   4 7267.55  191.35
   2   4   5 3553.69  128.12
  -2   4  -5 3185.10  155.06
   2   4   5 3655.13  132.11
  -2  -4  -5 3184.88  128.19
   2  -4   5 3392.25  133.51
  -2   4  -6 4589.84  216.22
   2   4   6 5158.89  178.91
   2   4   6 5056.72  175.14
  -2  -4  -6 4789.31  182.43
   2  -4   6 5483.11  202.70
  -2   4  -7 3433.20  115.63
   2   4   7 3573.97   87.62
   2   4   7 3540.40   86.75
  -2  -4  -7 3588.89  160.17
   2  -4   7 3477.20  104.26
  -2   4  -8 2856.07  101.94
   2   4   8 2822.85   72.88
   2   4   8 2887.31   74.13
  -2  -4  -8 2928.16  101.01
   2  -4   8 3062.61  102.61
  -2   4  -9 5845.78  203.16
   2   4   9 5462.80  161.19
  -2  -4  -9 4889.90  175.53
   2  -4   9 5604.45  204.15
  -2   4 -10 2078.44  120.37
   2   4  10 1816.06   78.06
  -2  -4 -10 1989.53  102.84
   2  -4  10 1548.03   88.53
  -2   4 -11 1109.36  108.26
  -2  -4 -11 1334.71  143.84
   2  -4  11 1515.75  121.27
  -2   4 -12 1466.88  107.82
  -2  -4 -12 1510.38  107.33
   2  -4  12 1849.22  119.44
  -2   4 -13 2759.81  161.09
  -2  -4 -13 2532.88  151.91
   2  -4  13 2333.77  134.67
  -2   4 -14 1295.44  107.89
  -2  -4 -14 1394.06  121.15
   2  -4  14 1409.39  114.66
  -2   4 -15  299.40  156.97
  -2  -4 -15  487.41  230.53
   2  -4  15  508.87   70.32
   2   5 -15  907.06   92.67
   2  -5 -15  735.23  197.66
  -2  -5  15  801.54  123.73
   2   5 -14 1580.91   94.79
   2  -5 -14 1525.48  207.41
  -2  -5  14 1424.70  112.62
   2   5 -13  944.90  128.29
   2  -5 -13  945.28  206.66
  -2  -5  13  638.10   83.48
   2   5 -12   46.45   51.25
   2  -5 -12   42.94   52.39
  -2  -5  12  100.64   55.80
   2   5 -11 2833.92  206.17
   2  -5 -11 2539.36  220.87
  -2  -5  11 2927.11  194.79
   2   5 -10 1014.17   90.21
   2  -5 -10  964.95  135.68
  -2  -5  10  862.26   64.47
   2   5  -9 3214.00  148.10
   2  -5  -9 2639.82  202.52
  -2  -5   9 2914.02  178.52
   2   5  -826479.48 1079.35
   2  -5  -826574.14 1098.13
  -2  -5   825453.82 1171.14
   2   5  -7 1918.32  103.75
   2  -5  -7 1727.38  129.07
  -2  -5   7 1986.26   96.79
   2   5  -6 3037.16  109.52
   2  -5  -6 2976.01  102.07
  -2  -5   6 3096.27   88.21
   2   5  -5 1404.80   69.03
   2  -5  -5 1569.09   41.24
   2  -5  -5 1723.47   49.83
   2  -5  -5 1552.41   71.21
  -2  -5   5 1636.11   56.81
   2   5  -4 1117.57   96.65
   2  -5  -4 1235.48   53.00
   2  -5  -4 1119.21   45.23
   2  -5  -4 1320.00   65.07
  -2  -5   4 1105.91   47.81
   2   5  -3  186.12   34.73
   2   5  -3   81.32   17.31
   2  -5  -3  149.62   15.78
   2  -5  -3   86.14   57.50
  -2  -5   3  142.73   40.84
   2  -5  -3  172.19   28.40
  -2   5   2 2235.48   85.20
   2   5  -2 2189.44   96.81
   2   5  -2 2235.15   90.34
   2  -5  -2 2389.57   93.88
   2  -5  -2 2083.23  100.55
  -2  -5   2 2222.20   86.13
  -2   5   1 4239.77  157.15
   2   5  -1 3930.39  153.97
   2   5  -1 4510.54  165.64
   2  -5  -1 4442.60  166.13
   2  -5  -1 3731.52  164.48
  -2  -5   1 4108.44  147.24
  -2   5   0  768.07   42.59
   2   5   0 1023.00  108.26
   2   5   0  866.49   40.86
   2  -5   0 1047.17   58.16
  -2  -5   0  879.22   42.00
   2  -5   0  897.47   50.95
  -2  -5   0  920.59   46.01
  -2   5  -1  462.24   56.53
   2   5   1  531.64   59.22
   2   5   1  506.80   25.07
  -2  -5  -1  481.23   31.36
   2  -5   1  498.32   58.87
  -2  -5  -1  421.44   32.67
  -2   5  -2 1453.99   66.98
   2   5   2 1381.92   72.81
   2   5   2 1298.34   70.36
  -2  -5  -2 1433.64   62.37
   2  -5   2 1419.83   60.86
  -2  -5  -2 1441.55   63.30
  -2   5  -3 1651.30  105.86
   2   5   3 1516.05   61.06
   2   5   3 1441.78   57.42
  -2  -5  -3 1524.46   58.99
  -2  -5  -3 1385.89   62.27
   2  -5   3 1442.62   61.16
   2   5   4  917.38   35.65
  -2   5  -4 1106.62  138.50
   2   5   4  995.53   44.40
  -2  -5  -4  858.59   44.40
   2  -5   4  915.05   47.00
   2   5   5  990.27   27.35
  -2   5  -5 1249.64  103.68
   2   5   5  994.36   32.76
  -2  -5  -5 1100.60   79.61
   2  -5   5 1031.74   52.55
  -2   5  -6 5438.99  156.64
  -2  -5  -6 6038.53  164.56
   2  -5   6 5784.54  150.44
  -2   5  -7 2760.56  115.19
  -2  -5  -7 3070.55  104.15
   2  -5   7 3065.90  119.33
  -2   5  -8 1701.44  189.83
  -2  -5  -8 1759.13  109.60
   2  -5   8 1975.77  122.17
  -2   5  -9  735.15  139.87
  -2  -5  -9  615.05   88.87
   2  -5   9  756.00  158.88
  -2   5 -10  989.87   95.43
  -2  -5 -10  970.30   93.50
   2  -5  10 1013.37   72.14
  -2   5 -11  197.71   66.67
  -2  -5 -11  150.78   50.62
   2  -5  11   86.64   56.87
  -2   5 -12 2833.47  129.28
  -2  -5 -12 2735.86  130.65
   2  -5  12 2890.84  117.74
  -2   5 -13 1216.73  112.03
  -2  -5 -13 1635.63  141.24
   2  -5  13 1605.94  120.74
  -2   5 -14 4315.87  171.77
  -2  -5 -14 5034.77  187.03
   2  -5  14 4278.33  214.57
  -2   5 -15 2049.60  141.93
  -2  -5 -15 2602.56  169.56
   2  -5  15 2737.60  166.46
   2   6 -14  232.82   62.85
   2  -6 -14   84.68   94.73
  -2  -6  14  137.38   31.17
   2   6 -13  794.58   78.12
   2  -6 -13  481.79  221.12
  -2  -6  13  807.81   69.80
   2   6 -12 2833.38  210.63
   2  -6 -12 3020.46  263.18
  -2  -6  12 3091.92  209.40
   2   6 -11  445.37   72.44
   2  -6 -11  410.49  151.41
  -2  -6  11  488.43   86.07
   2   6 -10 7390.18  401.77
   2  -6 -10 6438.43  355.80
  -2  -6  10 7145.55  375.54
   2   6  -9  800.42   72.12
   2  -6  -9  425.13  136.99
  -2  -6   9  593.75   53.80
   2   6  -8 1429.24  116.25
   2  -6  -8 1887.70   96.76
  -2  -6   8 1856.53   73.70
   2   6  -7  248.26   40.67
   2  -6  -7  487.81  178.79
  -2  -6   7  420.71   33.22
   2   6  -6 5402.55  286.43
   2  -6  -6 5442.03  302.77
  -2  -6   6 5559.08  266.53
   2   6  -5 2061.30  125.49
   2  -6  -5 2078.10  182.61
  -2  -6   5 2245.31  119.00
   2   6  -419516.69  470.18
   2  -6  -420756.23  950.99
   2  -6  -420650.86  944.54
   2  -6  -417659.75  435.51
  -2  -6   420486.16  944.68
   2   6  -3 9337.32  238.60
   2  -6  -3 9403.65  220.09
   2  -6  -3 9097.74  199.17
   2  -6  -3 9478.05  240.85
  -2  -6   3 9310.74  212.17
  -2   6   2  750.40   29.63
   2   6  -2  665.33   82.12
   2  -6  -2  658.38   33.34
   2  -6  -2  701.43   81.75
  -2  -6   2  756.32   29.07
  -2   6   1  368.55   23.89
   2   6  -1  435.40   59.36
   2  -6  -1  328.02   36.65
   2  -6  -1  456.73   79.08
  -2  -6   1  317.05   22.72
  -2   6   0 4790.94  122.32
   2   6   0 4818.82  130.24
  -2  -6   0 4573.40  120.27
   2  -6   0 4824.21  130.19
  -2   6  -1  960.03   42.73
   2   6   1  811.38   38.66
  -2  -6  -1  769.00   87.55
  -2  -6  -1  757.89   36.37
   2  -6   1  699.56   58.89
  -2   6  -2 8899.01  255.31
   2   6   2 9015.03  218.68
  -2  -6  -2 8526.27  198.67
  -2  -6  -2 8959.18  215.71
   2  -6   2 8545.61  216.74
  -2   6  -3 3318.60  105.00
   2   6   3 3290.51   85.29
  -2  -6  -3 3457.79   85.26
  -2  -6  -3 3559.32  101.29
   2  -6   3 3231.97   89.10
  -2   6  -4 6706.87  182.16
   2   6   4 6218.91  140.88
  -2  -6  -4 6383.91  184.90
   2  -6   4 6421.20  164.44
  -2   6  -5 8494.79  330.18
  -2  -6  -5 8194.96  281.22
   2  -6   5 8317.17  263.87
  -2   6  -6 5185.76  259.54
  -2  -6  -6 5270.98  265.55
   2  -6   6 4780.30  230.87
  -2   6  -7  157.41   39.09
   2  -6   7  175.73   32.69
  -2   6  -8 2077.23   97.75
  -2  -6  -8 2043.62   91.10
   2  -6   8 2012.34   82.00
  -2   6  -9   16.79   37.33
  -2  -6  -9   64.57   41.32
   2  -6   9   15.35   40.28
  -2   6 -10 1532.48  168.84
  -2  -6 -10 1880.99  123.70
   2  -6  10 1687.65  110.10
  -2   6 -11 3424.63  210.73
  -2  -6 -11 2893.98  165.29
   2  -6  11 3699.69  214.04
  -2   6 -12  600.87   72.15
  -2  -6 -12  443.72  216.51
   2  -6  12  540.15   49.50
  -2   6 -13  527.35  118.42
  -2  -6 -13  395.14  145.89
   2  -6  13  356.56  136.74
  -2   6 -14 1738.02  129.25
  -2  -6 -14 1924.91  223.72
   2  -6  14 2230.08  143.03
   2   7 -12 1165.66  121.39
   2  -7 -12  612.42  274.87
  -2  -7  12 1064.73   98.03
   2   7 -11  180.69   59.63
   2  -7 -11  151.00   78.86
  -2  -7  11   27.34   36.83
   2   7 -10 1643.00  257.04
   2  -7 -10 1963.78  147.35
  -2  -7  10 1641.42  112.41
   2   7  -9  815.77   67.36
   2  -7  -9  759.77  178.57
  -2  -7   9  776.28   38.34
   2   7  -8 3446.56  207.10
   2  -7  -8 3219.42  219.05
  -2  -7   8 3540.53  215.50
   2   7  -7  408.02   61.69
   2  -7  -7  261.32  119.31
  -2  -7   7  293.64   26.36
   2   7  -6 5132.46  180.91
   2  -7  -6 5561.08  187.10
  -2  -7   6 5464.63  159.20
   2   7  -5 1074.32   76.10
   2  -7  -5  980.91   66.55
  -2  -7   5 1042.07   53.81
   2   7  -4  640.55   92.39
   2  -7  -4  635.83   31.29
   2  -7  -4  610.81   81.59
  -2  -7   4  657.00   41.86
   2   7  -3  973.07   62.43
   2  -7  -3 1100.32   54.33
   2  -7  -3 1196.82  117.87
  -2  -7   3 1096.04   52.45
  -2   7   2 1638.48   78.31
   2  -7  -2 1680.02   94.72
  -2  -7   2 1858.67   83.21
  -2   7   1 2556.19  118.09
   2   7  -1 2395.26  117.74
   2  -7  -1 2453.59  113.91
  -2  -7   1 2476.82  113.41
  -2   7   017705.39  516.96
   2   7   016841.51  505.80
  -2  -7   015967.67  465.65
   2  -7   017636.15  526.36
  -2   7  -1 3177.41  159.12
   2   7   1 2983.16  148.81
  -2  -7  -1 2974.65  148.58
   2  -7   1 3025.54  150.97
   2   7   2  324.00   50.67
  -2  -7  -2  294.73   69.30
   2  -7   2  329.76   38.70
  -2   7  -3  594.69   57.25
   2   7   3  503.54   51.51
  -2  -7  -3  637.04   47.17
   2  -7   3  616.11  113.69
  -2   7  -4 3437.46  148.25
  -2  -7  -4 3436.70  135.39
   2  -7   4 3480.28  134.21
  -2   7  -5 1819.11   99.67
  -2  -7  -5 1624.38   88.68
   2  -7   5 1724.75   87.02
  -2   7  -6 2025.25   94.77
  -2  -7  -6 2192.42   91.56
   2  -7   6 1963.77   77.09
  -2   7  -7 1223.33  213.90
  -2  -7  -7 1254.96   61.21
   2  -7   7 1250.86   47.90
  -2   7  -8  297.95   47.47
  -2  -7  -8  329.38  108.72
   2  -7   8  266.95   97.50
  -2  -7  -9  211.39   37.87
   2  -7   9  284.31   96.67
  -2   7 -10 2898.98  271.44
  -2  -7 -10 3362.71  221.14
   2  -7  10 3418.78  212.78
  -2   7 -11  173.73   60.22
  -2  -7 -11  126.65   63.68
   2  -7  11  196.84   40.14
  -2   7 -12  694.15  221.65
  -2  -7 -12  504.59  246.55
   2  -7  12  942.43  128.31
   2   8 -11 1667.58  124.93
   2  -8 -11 1777.28  132.71
  -2  -8  11 1964.69  118.44
   2   8 -10 1258.18  127.33
   2  -8 -10 1047.41  127.69
  -2  -8  10 1073.06  100.90
   2   8  -9 1654.66  135.00
   2  -8  -9 1695.68  149.78
  -2  -8   9 1846.84  124.56
   2   8  -8  546.77   74.01
   2  -8  -8  460.04  202.94
  -2  -8   8  576.41   66.19
   2   8  -7  203.92  105.25
   2  -8  -7  239.42   94.21
  -2  -8   7  224.45   74.17
   2   8  -6 2566.27  115.64
   2  -8  -6 2483.36  109.17
  -2  -8   6 2245.75   82.92
   2   8  -5  214.47   56.89
   2  -8  -5  161.28   82.66
  -2  -8   5  200.21   22.00
   2  -8  -4 2760.54  126.17
  -2  -8   4 2897.89  114.49
   2   8  -3 2204.50  111.27
   2  -8  -3 1996.51  149.95
  -2  -8   3 2027.92   93.58
   2   8  -2 4199.57  145.52
   2  -8  -2 4269.04  143.42
  -2  -8   2 3927.51  130.13
  -2   8   1 3602.55  110.23
   2   8  -1 3765.98  129.54
   2  -8  -1 3844.41  128.63
  -2  -8   1 3727.12  112.93
  -2   8   0  674.74   45.34
   2   8   0  616.96   88.27
  -2  -8   0  637.00   43.70
   2  -8   0  708.48   59.17
  -2   8  -1 2279.31  100.69
   2   8   1 2497.82   89.04
  -2  -8  -1 2600.68   95.11
   2  -8   1 2337.83  126.21
  -2   8  -2 1865.62   87.88
  -2  -8  -2 1906.50   93.51
   2  -8   2 1926.11  119.52
  -2   8  -3 6134.80  243.37
  -2  -8  -3 6125.42  235.02
   2  -8   3 5949.13  233.54
  -2  -8  -4 1323.23   50.96
   2  -8   4 1306.84  100.17
  -2   8  -5  733.69  106.93
  -2  -8  -5  710.37   46.73
   2  -8   5  499.58   65.76
  -2   8  -6 3156.88  194.02
  -2  -8  -6 3129.37  121.71
   2  -8   6 2912.86  114.56
  -2   8  -7  876.04   66.34
  -2  -8  -7  822.98  160.32
   2  -8   7  665.91   45.70
  -2   8  -8 2005.65  142.10
  -2  -8  -8 2064.26  143.10
   2  -8   8 1950.79  127.28
  -2   8  -9  156.24   60.80
  -2  -8  -9  173.84   72.33
   2  -8   9  282.29   43.44
  -2   8 -10 2173.95  120.52
  -2  -8 -10 1996.92  104.87
   2  -8  10 2188.61   93.39
  -2   8 -11 3397.04  205.62
  -2  -8 -11 2776.13  187.66
   2  -8  11 2817.19  160.66
   2   9  -9  493.02   69.55
   2  -9  -9  195.28  153.24
  -2  -9   9  230.90   97.82
   2  -9  -8  798.37  116.83
  -2  -9   8  949.90   87.46
   2   9  -7 4880.66  177.90
   2  -9  -7 4594.16  161.91
  -2  -9   7 4864.36  131.69
   2   9  -6  207.02   42.59
   2  -9  -6  352.05   98.97
  -2  -9   6  199.69   71.91
   2   9  -5  262.61   45.00
   2  -9  -5  188.16   85.85
  -2  -9   5  267.76   51.01
   2   9  -4  224.43   46.09
   2  -9  -4  162.25   91.35
  -2  -9   4  125.67   42.57
   2   9  -3  239.82   46.28
   2  -9  -3  225.24   89.42
  -2  -9   3  238.02   49.20
   2   9  -2 2746.02  174.21
   2  -9  -2 2904.99  153.02
  -2  -9   2 2673.51  139.44
   2   9  -1 3950.99  199.55
   2  -9  -1 3637.23  185.68
  -2  -9   1 4251.80  203.48
  -2  -9   0 2391.53  105.16
   2  -9   0 2362.72   92.43
  -2   9  -1  551.81   80.48
  -2  -9  -1  543.64  127.27
   2  -9   1  680.16   59.36
  -2   9  -2 1020.82   66.19
  -2  -9  -2  943.22   82.67
   2  -9   2 1057.87   64.34
  -2   9  -3 6548.50  316.05
  -2  -9  -3 6561.50  311.78
   2  -9   3 6955.36  528.08
  -2   9  -4 2020.18  137.46
  -2  -9  -4 1905.36  127.68
   2  -9   4 1735.69  112.22
  -2   9  -5  971.85  111.47
  -2  -9  -5  813.42   83.31
   2  -9   5  781.64   75.79
  -2   9  -6  204.27   38.09
  -2  -9  -6  251.13   74.58
   2  -9   6  235.53   75.78
  -2   9  -7 1833.75   89.38
  -2  -9  -7 2055.61   92.88
   2  -9   7 1810.68   70.52
  -2  -9  -8  718.18  126.87
   2  -9   8  769.64   73.96
  -2   9  -9  598.28  192.65
   2  -9   9  630.67   86.00
   2  10  -6   41.29   33.55
   2 -10  -6   33.14   30.72
   2  10  -5  792.53   94.79
   2 -10  -5  745.11  168.34
   2  10  -4 2061.18  104.22
   2 -10  -4 2176.72  106.04
   2 -10  -3 3854.71  154.10
   2 -10  -2  344.58  159.99
   2 -10  -1 1422.25   73.90
   2 -10   0  544.13  117.61
   2 -10   1 2311.64   86.90
   2 -10   2  785.36  137.55
   2 -10   3  154.36   87.47
  -2  10  -4 3652.04  146.81
   2 -10   4 3586.55  132.13
  -2  10  -5  162.67   83.70
   2 -10   5  251.76   93.11
  -2  10  -6 1194.73   94.54
   2 -10   6 1529.49   95.05
   3   0 -16 3580.01  166.04
   3   0 -16 3849.93  182.22
   3   0 -15  866.12  103.74
   3   0 -15  998.56  112.06
   3   0 -14   87.49   57.89
   3   0 -14   92.73   44.09
   3   0 -13 2380.14  115.71
   3   0 -13 2438.16  187.08
   3   0 -12 2355.59  121.18
   3   0 -12 2270.61  117.63
   3   0 -11  340.20   52.83
   3   0 -11  185.37  105.79
   3   0 -10 1407.72   79.90
   3   0 -10 1296.50   84.37
   3   0  -914305.41  344.29
   3   0  -913537.62  384.82
   3   0  -8  404.88  111.26
   3   0  -8  376.56   96.66
   3   0  -712218.25  442.32
   3   0  -711562.46  433.07
   3   0  -6 8501.89  228.70
   3   0  -6 8355.57  240.04
   3   0  -526582.70  568.68
   3   0  -526307.29  570.77
   3   0  -430582.91  648.19
  -3   0   431002.61  651.99
   3   0  -429359.80  623.16
   3   0  -3 1649.54   65.94
  -3   0   3 1756.17   53.53
   3   0  -3 1738.93   55.00
   3   0  -2 5001.99  126.90
  -3   0   2 5183.94  129.45
   3   0  -2 5167.52  131.44
   3   0   117378.76  389.79
   3   0   117318.00  382.61
   3   0   2  788.66   44.45
   3   0   2  777.96   29.80
   3   0   2  723.45   28.43
  -3   0  -2  776.43   38.50
  -3   0  -322325.62  499.82
   3   0   323709.40  532.30
   3   0   323960.36  534.12
  -3   0  -4 6106.17  141.49
   3   0   4 5883.68  140.95
   3   0   4 6194.94  159.25
   3   0   4 5421.21  129.73
  -3   0  -5 5000.04  125.48
   3   0   5 5006.08  141.39
   3   0   5 5235.31  128.95
   3   0   6 1292.33   54.36
  -3   0  -7 2721.36  116.97
   3   0   7 2437.44  102.45
  -3   0  -8  837.08   53.28
   3   0   8  843.67   53.60
  -3   0  -9  485.35   58.52
   3   0   9  616.07   50.63
  -3   0 -10 1072.47   64.11
   3   0  10  963.24   67.17
  -3   0 -11 8815.16  418.35
   3   0  11 8689.07  420.46
  -3   0 -12 3803.36  156.03
   3   0  12 3770.98  163.41
  -3   0 -13 2392.58  138.24
   3   0  13 2492.88  135.94
  -3   0 -14  281.74  112.76
   3   0  14  558.86   57.12
  -3   0 -15   21.85   30.22
   3   0  15  109.64   41.43
  -3   0 -16  166.22   50.16
   3   0  16  258.51   55.51
   3   1 -16 1536.67   94.73
   3   1 -16 2054.35  132.08
   3  -1 -16 1871.46   96.60
   3  -1 -16 1496.26  161.50
   3   1 -15 1851.88  144.95
   3   1 -15 1523.85  193.88
   3  -1 -15 1612.70  121.48
   3  -1 -15 1392.81  260.89
   3   1 -14 3106.15  203.92
   3   1 -14 2842.07  241.13
   3  -1 -14 3586.07  188.43
   3  -1 -14 3499.28  325.94
   3   1 -13 1279.81   93.27
   3   1 -13 1412.89  111.66
   3  -1 -13 1429.43   94.86
   3  -1 -13 1286.23   98.99
   3   1 -12  936.14   75.00
   3   1 -12  872.81  169.38
   3  -1 -12  710.03   56.00
   3  -1 -12  801.40  240.29
   3   1 -11 8064.48  392.71
   3   1 -11 8186.55  413.82
   3  -1 -11 8292.18  401.74
   3  -1 -11 8840.16  434.33
   3   1 -10 1568.80   99.13
   3   1 -10 1481.92  100.76
   3  -1 -10 1497.29   94.34
   3  -1 -10 1493.29  153.60
   3   1  -9 1295.15   65.37
   3   1  -9 1404.01   69.94
   3  -1  -9 1231.42   55.52
   3  -1  -9 1495.78  200.44
   3   1  -8 2824.48  159.19
   3   1  -8 3054.13  140.39
   3  -1  -8 3056.07  124.08
   3  -1  -8 3327.72  144.53
   3   1  -7  320.82   84.52
   3   1  -7  298.73   94.63
   3  -1  -7  241.22   90.60
   3  -1  -7  227.90   67.16
   3   1  -6 1116.16   74.31
   3   1  -6 1436.63   84.88
   3  -1  -6 1449.86   63.26
   3  -1  -6 1381.84   64.21
   3   1  -5 6580.94  164.62
  -3   1   5 6829.59  157.32
   3   1  -5 6736.88  164.63
  -3  -1   5 7117.06  183.15
   3  -1  -5 6600.21  176.86
   3   1  -4 4387.75  116.63
  -3   1   4 4604.06  109.48
   3   1  -4 4153.68  121.18
  -3   1   4 4525.85  110.06
  -3  -1   4 4232.88  174.42
   3  -1  -4 4138.70  145.79
   3   1  -317751.88  409.70
   3   1  -318366.06  417.41
  -3   1   318442.68  415.30
  -3   1   318091.99  406.14
  -3  -1   318328.69  417.69
  -3  -1   319402.80  436.67
   3  -1  -317000.56  391.40
   3  -1  -317639.43  401.95
   3   1  -223678.36  534.95
  -3   1   224070.56  535.20
   3   1  -223933.37  535.71
  -3   1   225583.97  567.38
  -3  -1   224660.01  553.06
  -3  -1   225228.55  558.93
   3   1  -120384.13  462.44
  -3   1   120377.71  456.60
  -3  -1   119909.46  446.67
   3  -1  -120246.26  453.56
  -3   1   0 2671.05   65.75
   3   1   0 2633.94   73.32
   3   1   0 2658.99   62.05
  -3  -1   0 2980.64   78.56
   3  -1   0 2875.93   76.57
   3  -1   0 2715.47   72.50
   3  -1   0 2805.79   73.85
  -3  -1   0 2823.43   64.21
  -3   1  -111424.20  259.19
   3   1   110398.22  238.67
   3   1   111124.48  245.01
   3  -1   110777.28  247.96
   3  -1   110984.19  247.64
  -3  -1  -111286.17  256.17
   3  -1   110995.33  252.06
  -3  -1  -110438.23  233.06
   3   1   2  997.01   32.68
  -3   1  -2  947.67   53.44
   3   1   2  999.64   39.19
   3   1   2  815.73   34.66
  -3   1  -2  850.84   34.73
   3   1   2  826.39   29.75
   3  -1   2  939.08   36.05
   3  -1   2  917.89   40.22
   3   1   3 3746.20   94.58
  -3   1  -3 3556.88  102.30
   3   1   3 3758.12  101.36
   3   1   3 3750.52   99.25
   3   1   3 3625.04   90.70
   3  -1   3 4003.19  106.85
   3  -1   3 3958.77  108.51
  -3   1  -4 5317.21  130.36
   3   1   4 5396.47  126.75
   3   1   4 5801.53  142.62
   3   1   4 5662.93  132.51
   3  -1   4 5097.83  154.20
   3   1   5 1742.15   76.99
  -3   1  -5 1529.75   68.19
   3   1   5 1746.92   57.37
   3   1   5 1572.68   94.32
  -3  -1  -5 1675.66   59.54
   3  -1   5 1537.67   55.80
   3   1   6 1384.44   55.37
  -3   1  -6 1450.40   59.28
   3   1   6 1278.37   49.86
   3   1   6 1452.17   57.83
  -3  -1  -6 1339.18   46.19
   3  -1   6 1293.70   56.69
   3   1   7 6887.01  256.76
  -3   1  -7 6898.41  262.62
   3  -1   7 7225.77  272.04
  -3  -1  -7 6464.24  236.26
   3   1   8 5096.20  194.57
  -3   1  -8 4629.20  191.45
   3  -1   8 4644.27  178.31
  -3  -1  -8 4589.13  177.38
   3   1   915523.46  374.11
  -3   1  -914133.87  335.33
   3  -1   914749.80  354.18
  -3  -1  -914690.24  339.96
   3   1  10 2180.06  126.49
  -3   1 -10 2180.27  132.42
   3  -1  10 2058.80  123.78
  -3  -1 -10 2143.48  124.36
   3   1  11 2402.54  126.74
  -3   1 -11 2239.63  114.72
   3  -1  11 2227.68  116.05
  -3  -1 -11 2345.36  110.68
   3   1  12 1581.38  144.95
  -3   1 -12 1384.10  109.52
   3  -1  12 1437.63  101.89
  -3  -1 -12 1409.78   84.67
   3   1  13 3995.55  236.24
  -3   1 -13 4227.27  300.80
   3  -1  13 4625.76  261.73
  -3  -1 -13 4295.21  237.80
   3   1  14 1257.18   91.91
  -3   1 -14 1298.36   85.35
   3  -1  14 1564.29  112.27
  -3  -1 -14 1320.95  105.31
   3   1  15 2485.14  182.80
  -3   1 -15 2454.37  170.96
   3  -1  15 3156.46  219.98
  -3  -1 -15 2854.01  190.20
   3   1  16  589.42   74.60
  -3   1 -16  596.59  101.76
   3  -1  16  891.43   96.90
  -3  -1 -16  804.44  134.04
   3   2 -16 2509.90  126.64
   3  -2 -16 2308.42  154.68
  -3  -2  16 2412.03  126.22
   3   2 -15 3661.61  253.85
   3  -2 -15 3635.01  241.01
   3  -2 -15 4125.50  292.76
  -3  -2  15 3962.72  276.24
   3   2 -14 2088.05  139.05
   3  -2 -14 1648.52  106.42
   3  -2 -14 1598.37  114.15
   3   2 -13 3364.11  255.66
   3   2 -13 3580.01  209.92
   3  -2 -13 3795.89  215.77
   3  -2 -13 3379.01  210.58
   3   2 -12 5740.74  200.34
   3   2 -12 5726.04  200.45
   3  -2 -12 5795.16  188.76
   3  -2 -12 5071.11  201.29
   3   2 -11  588.32  188.90
   3   2 -11  855.36  175.06
   3  -2 -11  605.96   84.05
   3  -2 -11  684.60  187.61
   3   2 -10  727.26   82.15
   3   2 -10  688.74   63.98
   3  -2 -10  562.16   44.10
   3  -2 -10  933.08  210.11
   3   2  -9 3898.52  126.79
   3   2  -9 4500.47  169.04
   3  -2  -9 4144.92  117.89
   3  -2  -9 4291.05  142.16
   3   2  -8 2306.36  107.75
   3   2  -8 2593.51  115.19
   3  -2  -8 2289.21   95.47
   3  -2  -8 2378.77  131.09
   3   2  -7 5069.71  258.63
   3   2  -7 5786.65  229.65
   3  -2  -7 5298.25  197.59
   3  -2  -7 5209.70  207.79
   3   2  -6 8179.93  304.17
  -3   2   6 7643.18  273.00
   3   2  -6 8526.94  312.55
   3  -2  -6 8170.33  296.36
   3  -2  -6 8189.76  229.68
   3   2  -513152.21  342.58
  -3   2   514639.77  360.80
   3   2  -514128.73  359.78
   3  -2  -514527.37  367.71
  -3  -2   514206.02  360.91
   3  -2  -515106.86  395.11
   3   2  -4 4637.80  124.39
  -3   2   4 4654.16  110.21
   3   2  -4 4338.79  110.33
   3  -2  -4 4525.74  109.19
  -3  -2   4 4752.86  124.11
   3   2  -321088.53  456.86
  -3   2   321308.65  445.60
   3   2  -321566.20  459.71
   3  -2  -322018.01  463.60
  -3  -2   321570.47  460.34
   3  -2  -321666.52  462.82
   3   2  -231682.49  674.54
  -3  -2   231046.46  651.92
   3   2  -1 2478.26   74.84
  -3   2   1 2652.07   69.72
  -3  -2   1 2771.23   78.77
  -3  -2   1 2693.19   63.26
   3  -2  -1 2796.16   75.69
   3  -2  -1 2717.10   71.55
  -3  -2   1 2688.30   63.56
   3   2   022565.18  512.93
  -3   2   022091.40  491.19
   3  -2   022333.78  500.48
   3  -2   022091.82  493.69
   3  -2   021293.27  474.57
  -3  -2   021571.34  483.58
  -3   2  -113779.32  316.71
  -3   2  -114230.21  323.43
   3   2   113793.93  318.98
   3  -2   114317.11  323.03
   3  -2   114464.73  332.10
  -3   2  -2 9217.66  205.66
   3   2   210096.25  213.22
   3   2   2 9497.69  212.81
  -3   2  -2 9573.29  211.28
   3   2   2 9298.29  197.01
   3  -2   2 9755.53  213.34
  -3  -2  -2 9661.22  209.59
   3  -2   2 9484.58  217.15
   3   2   322664.69  474.82
  -3   2  -322073.30  470.01
   3   2   322906.45  481.67
   3   2   323828.18  500.80
  -3  -2  -322067.96  463.37
   3  -2   321667.76  460.55
   3   2   4 6227.20  141.35
  -3   2  -4 6245.35  175.35
   3   2   4 5927.14  133.90
   3   2   4 6209.51  148.69
  -3  -2  -4 6116.09  143.90
   3  -2   4 6487.13  157.70
   3   2   526163.07  640.62
   3   2   526231.18  644.24
  -3  -2  -526475.73  654.05
   3  -2   525834.23  635.20
  -3   2  -6 2176.45  109.54
   3   2   6 2182.63   70.02
   3   2   6 1969.62   89.21
  -3  -2  -6 1915.27   92.42
   3  -2   6 2231.73   79.60
  -3   2  -7 2024.35   94.83
   3   2   7 2168.88   91.04
  -3  -2  -7 2048.36   82.92
  -3  -2  -7 1907.88   87.84
   3  -2   7 2056.25   90.90
  -3   2  -8  982.62   54.69
  -3  -2  -8  912.80   59.03
  -3  -2  -8 1088.94   84.60
   3  -2   8 1007.03   60.64
  -3   2  -9 1617.51   88.29
  -3  -2  -9 1727.42   85.62
  -3  -2  -9 1658.77  115.88
   3  -2   9 1704.96  116.53
  -3   2 -10 2168.76  133.32
  -3  -2 -10 2056.46  116.80
  -3  -2 -10 2063.97  124.48
   3  -2  10 2021.82  114.39
  -3   2 -11 9100.98  376.83
  -3  -2 -11 9526.88  330.56
  -3  -2 -11 9235.80  340.98
   3  -2  1110035.92  364.54
  -3   2 -12 4248.76  175.89
  -3  -2 -12 3882.10  145.97
  -3  -2 -12 3908.05  151.11
   3  -2  12 4109.95  151.28
  -3   2 -13  269.09   89.13
  -3  -2 -13  484.04   52.43
  -3  -2 -13  396.35   54.88
   3  -2  13  312.76  105.86
   3   2  14  163.42   41.59
  -3   2 -14   76.70   29.04
   3  -2  14   44.92   29.20
  -3  -2 -14   39.96   32.30
   3   2  15  448.41   61.22
  -3   2 -15  553.50   55.69
   3  -2  15  501.99   61.49
  -3  -2 -15  256.80   98.00
  -3   2 -16 1258.47  135.58
   3   2  16 1282.04   80.07
   3  -2  16 1147.91  115.17
   3   3 -16  627.33  225.69
   3  -3 -16  782.67   96.53
  -3  -3  16  896.29   93.32
   3   3 -15 2287.93  117.73
   3  -3 -15 2370.73  121.41
  -3  -3  15 2246.47  109.41
   3   3 -14  222.62   52.57
   3  -3 -14  346.34  124.41
  -3  -3  14  258.30   48.19
   3  -3 -13 2212.10   90.09
   3  -3 -13 1992.41  169.76
  -3  -3  13 2769.91  140.99
   3   3 -12 1049.98   78.24
   3  -3 -12  935.72  119.55
   3  -3 -12 1197.91   84.37
  -3  -3  12 1105.13   64.85
   3   3 -11 7995.36  304.25
   3  -3 -11 7822.04  235.31
   3  -3 -11 7997.52  261.65
  -3  -3  11 7977.46  269.64
   3   3 -10  262.38   82.18
   3  -3 -10  281.51   90.20
   3  -3 -10  259.67  108.46
  -3  -3  10  362.09  112.51
   3   3  -9 8812.82  289.73
   3  -3  -9 8460.95  273.50
   3  -3  -9 9043.41  298.42
  -3  -3   9 8978.17  317.95
   3   3  -8 7159.71  202.34
  -3   3   8 7625.03  186.25
   3  -3  -8 7335.03  188.78
   3  -3  -8 7225.87  203.90
  -3  -3   8 7228.24  192.65
   3   3  -7 6044.23  232.60
  -3   3   7 6247.80  219.60
   3  -3  -7 6067.15  217.02
   3  -3  -7 6013.28  232.18
  -3  -3   7 5986.87  223.89
   3   3  -6 2618.07  124.97
  -3   3   6 2615.99  101.63
   3  -3  -6 2510.13   98.46
   3  -3  -6 2521.49  113.39
  -3  -3   6 2227.18   94.85
   3   3  -5 1167.00   87.11
  -3   3   5 1180.22   56.62
   3  -3  -5 1113.79   61.50
  -3  -3   5 1311.91  100.36
   3  -3  -5 1385.34   73.56
  -3  -3   5 1336.08   64.08
   3   3  -4 3510.79  134.27
   3  -3  -4 3043.87   88.84
  -3  -3   4 3055.64   91.61
   3  -3  -4 3042.03   96.48
  -3  -3   4 3073.64   89.41
   3   3  -3  441.44   53.10
   3  -3  -3  552.52   24.48
   3  -3  -3  492.37   27.57
  -3  -3   3  487.63   31.80
   3  -3  -3  429.34   39.27
  -3  -3   3  512.70   25.76
   3   3  -2 7608.87  181.94
   3  -3  -2 7104.55  162.75
   3  -3  -2 7062.50  158.39
  -3  -3   2 7364.49  166.24
   3  -3  -2 6945.02  162.53
  -3  -3   2 7074.09  152.89
   3   3  -1  713.34   36.48
   3  -3  -1  716.22   33.59
   3  -3  -1  733.88   27.68
  -3  -3   1  718.32   27.20
   3  -3  -1  676.48   52.86
  -3  -3   1  686.74   19.70
  -3   3   0 6221.85  149.34
   3   3   0 6386.17  155.99
   3  -3   0 6151.63  144.70
  -3  -3   0 6325.27  147.07
  -3  -3   0 6286.63  131.56
   3  -3   0 6089.57  138.11
  -3   3  -1 8330.48  190.88
   3   3   1 8052.97  183.24
   3   3   1 7417.08  153.85
  -3  -3  -1 7964.14  167.40
   3  -3   1 7313.86  169.25
  -3  -3  -1 8244.60  181.84
  -3   3  -210643.43  237.29
   3   3   210610.57  242.84
   3   3   210364.43  214.89
  -3  -3  -210642.46  228.51
  -3  -3  -210270.62  218.80
   3  -3   210761.83  237.75
  -3   3  -3 6198.18  184.98
   3   3   3 6121.92  160.27
   3   3   3 6326.78  157.65
  -3  -3  -3 6178.78  156.82
  -3  -3  -3 6005.63  157.33
   3  -3   3 6108.99  159.83
   3   3   4 3061.29   86.90
  -3   3  -4 3447.51  108.74
   3   3   4 3152.78   89.75
   3   3   4 3258.38   97.99
  -3  -3  -4 3133.93   90.98
   3  -3   4 2950.54   87.23
   3   3   5 1943.10   82.46
  -3   3  -5 1958.28   90.00
   3   3   5 1770.94   69.72
   3   3   5 1719.90   71.36
  -3  -3  -5 1933.63  100.47
   3  -3   5 1740.93   76.51
  -3   3  -6 2132.09   96.87
   3   3   6 2246.10   90.09
   3   3   6 1904.22   77.92
   3   3   6 2022.98   83.22
  -3  -3  -6 1843.02   82.94
   3  -3   6 2090.04  101.50
  -3   3  -7 9813.31  377.48
   3   3   710371.24  360.96
   3   3   7 9906.33  339.39
  -3  -3  -711468.99  407.57
   3  -3   710246.78  370.83
   3   3   8 4766.55  124.57
   3   3   8 4732.87  114.86
  -3  -3  -8 5166.58  148.87
   3  -3   8 4667.28  174.04
  -3   3  -9 3964.82  192.10
   3   3   9 4419.35  143.87
  -3  -3  -9 4437.40  167.08
   3  -3   9 4047.10  214.18
  -3   3 -10 2871.57  156.25
  -3  -3 -10 3068.38  155.57
  -3  -3 -10 2889.91  174.68
   3  -3  10 3062.16  188.53
  -3   3 -11  982.09   80.07
  -3  -3 -11  863.12   58.80
  -3  -3 -11  930.20  111.09
   3  -3  11 1031.91   75.88
  -3   3 -12 4194.99  194.73
  -3  -3 -12 4169.82  159.51
  -3  -3 -12 3780.60  172.36
   3  -3  12 4296.29  184.34
  -3   3 -13  230.82   45.80
  -3  -3 -13  151.98   45.65
  -3  -3 -13  185.32   68.60
   3  -3  13  198.21   92.04
  -3   3 -14 6034.23  384.44
  -3  -3 -14 6059.93  375.83
   3  -3  14 6430.11  394.84
  -3   3 -15 4946.32  167.15
  -3  -3 -15 4552.82  169.77
   3  -3  15 4742.68  161.93
  -3   3 -16  758.86   78.70
   3  -3  16  259.16  139.56
   3   4 -15   56.38   36.88
   3  -4 -15   63.94   59.31
  -3  -4  15   60.28   39.50
   3   4 -14 1673.72  136.02
   3  -4 -14 1420.66  212.95
  -3  -4  14 1669.06  137.85
   3   4 -13 1328.97  200.28
   3  -4 -13 1133.52  119.09
  -3  -4  13 1563.75  103.04
   3   4 -12 1831.58  105.25
   3  -4 -12 1744.95  105.71
  -3  -4  12 2091.59  104.25
   3   4 -11 8975.47  356.03
   3  -4 -11 9092.51  334.47
   3  -4 -11 9431.94  377.65
  -3  -4  11 8507.77  331.93
   3   4 -10  842.86  178.93
   3  -4 -10  588.66   66.70
   3  -4 -10  524.02  179.66
  -3  -4  10  638.51   52.85
   3   4  -9 3389.98  183.97
   3  -4  -9 2633.18  135.51
   3  -4  -9 2816.43  215.79
  -3  -4   9 2669.96  147.01
   3   4  -8 3720.80  190.02
  -3   4   8 3702.77  118.37
   3  -4  -8 4007.88  146.17
   3  -4  -8 3620.35  143.35
  -3  -4   8 4059.30  144.90
   3   4  -7 4143.20  134.78
  -3   4   7 4187.33  105.54
   3  -4  -7 4216.60  106.44
   3  -4  -7 4283.83  135.93
  -3  -4   7 4161.76  117.82
   3   4  -6 3884.49  127.34
   3  -4  -6 4103.65   98.51
   3  -4  -6 3994.75  105.48
  -3  -4   6 4232.58  120.99
   3   4  -511737.63  427.32
   3  -4  -511857.41  406.83
   3  -4  -511920.94  411.72
  -3  -4   511011.49  381.41
   3   4  -4 2344.53  104.97
   3  -4  -4 2688.94  101.37
   3  -4  -4 2702.58  104.96
  -3  -4   4 2563.70  116.58
   3  -4  -4 2890.67  120.73
  -3  -4   4 2768.25  105.44
   3   4  -3 1500.98   75.26
   3  -4  -3 1644.72   75.96
   3  -4  -3 1441.03   68.63
  -3  -4   3 1609.46   69.89
   3  -4  -3 1386.95   78.38
  -3  -4   3 1532.73   60.45
   3   4  -2 3556.32  115.00
   3  -4  -2 3806.56  106.43
   3  -4  -2 3391.08   93.65
  -3  -4   2 3825.17  108.13
   3  -4  -2 3512.34  130.21
  -3  -4   2 3404.88   87.83
  -3   4   1 1552.66   62.93
   3   4  -1 1627.63   75.97
   3   4  -1 1606.22   49.74
   3  -4  -1 1562.43   54.91
   3  -4  -1 1386.69   70.94
  -3  -4   1 1459.06   40.91
  -3   4   0 5068.35  135.15
   3   4   0 5234.95  146.37
   3   4   0 4969.17  125.66
   3  -4   0 5113.15  141.47
  -3  -4   0 5389.25  133.47
   3  -4   0 5700.52  152.87
  -3  -4   0 5271.47  141.51
  -3   4  -1 9690.35  256.44
   3   4   1 9669.04  249.75
   3   4   1 9477.28  231.21
  -3  -4  -110050.34  247.31
   3  -4   1 9783.65  246.81
  -3  -4  -1 9947.22  250.89
  -3   4  -2 4412.41  138.34
   3   4   2 4362.69  121.79
   3   4   2 4411.20  109.91
  -3  -4  -2 4418.87  119.05
  -3  -4  -2 4492.72  117.88
   3  -4   2 4395.07  120.33
  -3   4  -3  897.46   48.90
   3   4   3  924.63   48.84
   3   4   3  882.27   39.59
  -3  -4  -3  981.78   42.26
  -3  -4  -3  970.25   44.13
   3  -4   3  882.00   50.12
   3   4   4 4993.72  178.50
  -3   4  -4 4738.26  182.83
   3   4   4 4751.92  179.81
   3   4   4 5191.32  187.40
  -3  -4  -4 4826.35  180.34
   3  -4   4 4563.52  175.41
   3   4   5 5305.35  187.40
  -3   4  -5 5184.82  196.59
   3   4   5 5242.43  184.05
   3   4   5 5410.65  190.52
  -3  -4  -5 5343.76  195.77
   3  -4   5 5479.67  202.87
   3   4   6 4027.89  101.40
  -3   4  -6 3915.71  122.05
   3   4   6 3951.37   97.33
  -3  -4  -6 3959.86  113.02
   3  -4   6 4036.09  120.11
  -3   4  -7  468.93  108.11
   3   4   7  358.94   26.41
   3   4   7  392.00   38.44
  -3  -4  -7  285.19   83.11
   3  -4   7  564.28   54.96
  -3   4  -8  979.61  134.07
   3   4   8  810.16   47.47
   3   4   8  854.40   59.22
  -3  -4  -8  890.95   84.45
   3  -4   8  946.84   64.11
  -3   4  -9  445.14  129.33
   3   4   9  555.84   30.27
  -3  -4  -9  620.02   54.43
   3  -4   9  664.90   55.24
  -3   4 -10 2276.11  110.59
   3   4  10 2408.05   88.24
  -3  -4 -10 2494.01  116.83
   3  -4  10 2431.03  111.35
  -3   4 -11 1703.74  137.58
  -3  -4 -11 1608.44  164.63
   3  -4  11 1994.09  101.46
  -3   4 -12 1794.47   94.26
  -3  -4 -12 1759.85   91.93
   3  -4  12 1387.87  119.95
  -3   4 -13 1203.16   89.32
  -3  -4 -13 1237.32  208.04
   3  -4  13 1137.61   80.75
  -3   4 -14  177.57   51.94
  -3  -4 -14  169.92   84.58
   3  -4  14  242.44   48.44
  -3   4 -15  577.40   85.20
  -3  -4 -15  302.19  188.61
   3  -4  15  657.08   77.99
   3   5 -14  329.04   58.35
   3  -5 -14  327.11  144.47
  -3  -5  14  500.44   73.19
   3   5 -13  195.30   56.52
   3  -5 -13  258.85   99.99
  -3  -5  13  368.97   44.73
   3   5 -12 1831.78  194.71
   3  -5 -12 1724.24  141.91
  -3  -5  12 1631.44  100.67
   3   5 -11  889.65   75.86
   3  -5 -11  890.73  265.31
  -3  -5  11 1149.26   58.55
   3   5 -10 4007.50  183.22
   3  -5 -10 3368.22  248.23
  -3  -5  10 3391.82  145.29
   3   5  -9 1713.06   82.12
   3  -5  -9 2199.69  110.03
  -3  -5   9 1802.47   78.87
   3   5  -8 1601.59  140.24
   3  -5  -8 1396.53   71.82
   3  -5  -8 1303.20  167.11
  -3  -5   8 1417.14  102.99
   3   5  -711631.99  369.03
   3  -5  -711991.99  347.08
   3  -5  -712290.54  358.80
   3  -5  -712546.22  416.26
  -3  -5   712384.01  386.71
   3   5  -6 4841.82  148.49
   3  -5  -6 4535.11  107.53
   3  -5  -6 4390.34  110.61
   3  -5  -6 4936.04  147.79
  -3  -5   6 4999.81  128.52
   3   5  -5  477.83   50.88
   3  -5  -5  469.80   54.16
   3  -5  -5  696.76   62.21
   3  -5  -5  686.12  104.86
  -3  -5   5  629.08   44.99
   3   5  -4 3991.48  205.32
   3  -5  -4 4520.59  112.73
   3  -5  -4 4668.81  114.43
   3  -5  -4 4528.88  129.93
  -3  -5   4 4266.53  105.31
   3   5  -3  307.12   59.43
   3  -5  -3  327.99   31.51
   3  -5  -3  322.10   38.23
  -3  -5   3  293.06   55.39
   3  -5  -3  338.50   35.29
  -3  -5   3  350.33   22.09
   3   5  -2  536.61   89.33
   3   5  -2  507.79   35.17
   3  -5  -2  463.45   30.51
   3  -5  -2  566.09   93.99
  -3  -5   2  491.27   30.50
   3  -5  -2  509.13   26.37
  -3   5   1 1862.50   73.49
   3   5  -1 1649.03  119.72
   3   5  -1 1899.37   75.36
   3  -5  -1 1924.52   79.68
   3  -5  -1 2005.66   87.71
  -3  -5   1 1757.76   72.17
  -3   5   0 8398.54  305.40
   3   5   0 8866.72  317.91
   3   5   0 8892.01  305.22
  -3  -5   0 9366.73  321.02
   3  -5   0 8903.36  315.14
  -3   5  -1 3524.59  134.49
   3   5   1 3323.26  140.83
   3   5   1 3898.29  137.41
  -3  -5  -1 3564.64  127.16
   3  -5   1 3704.60  141.90
  -3   5  -2 7133.51  262.71
   3   5   2 6922.73  269.46
   3   5   2 7170.83  245.14
  -3  -5  -2 6814.47  237.48
   3  -5   2 6677.53  243.10
  -3  -5  -2 7218.72  250.45
  -3   5  -3 2598.24  107.38
   3   5   3 2457.21  108.64
   3   5   3 2547.58   97.03
  -3  -5  -3 2544.29   92.54
  -3  -5  -3 2575.05  100.00
   3  -5   3 2682.01  104.48
   3   5   4 4026.98   96.94
  -3   5  -4 3978.13  118.00
   3   5   4 4122.99  105.02
   3   5   4 3952.90   94.13
  -3  -5  -4 3931.52  106.89
   3  -5   4 3698.93  100.90
   3   5   5 1446.47   63.73
  -3   5  -5 1205.38   72.98
   3   5   5 1319.43   74.85
  -3  -5  -5 1275.24   66.04
   3  -5   5 1329.87   68.10
   3   5   6 3834.19   97.25
  -3   5  -6 3673.92  117.41
   3   5   6 3928.64   96.76
   3  -5   6 3977.70  110.52
  -3   5  -7 4168.50  166.50
   3   5   7 4264.38  129.92
  -3  -5  -7 4662.78  161.99
   3  -5   7 4363.82  157.17
  -3   5  -8 1110.02  156.22
   3   5   8 1028.46   46.49
  -3  -5  -8  998.41   87.65
   3  -5   8 1053.52   81.20
  -3   5  -9 2993.35  141.73
  -3  -5  -9 3098.55  119.34
   3  -5   9 2806.63  101.12
  -3   5 -10 1971.21  226.13
  -3  -5 -10 1881.30  153.85
   3  -5  10 2211.24  107.21
  -3   5 -11  422.89  119.01
  -3  -5 -11  333.20   97.32
   3  -5  11  362.41  113.54
  -3   5 -12  191.62   97.55
  -3  -5 -12  224.05   44.73
   3  -5  12  178.06   37.53
  -3   5 -13  354.10  137.15
  -3  -5 -13  412.26  199.54
   3  -5  13  522.57   50.16
  -3   5 -14 4857.33  197.61
  -3  -5 -14 4631.10  228.05
   3  -5  14 4902.68  188.30
   3   6 -13 1348.33   94.83
   3  -6 -13 1161.88  131.88
  -3  -6  13 1348.62   76.95
   3   6 -12  419.47   84.37
   3  -6 -12  344.86  247.59
  -3  -6  12  360.50  149.78
   3   6 -11 3601.93  241.08
   3  -6 -11 3380.65  228.80
  -3  -6  11 3888.79  242.42
   3   6 -10 2121.92  114.60
   3  -6 -10 2180.06  113.77
  -3  -6  10 2126.11   88.00
   3   6  -9  839.98  122.29
   3  -6  -9  637.29  158.16
  -3  -6   9  794.72   51.76
   3   6  -8 3826.69  152.60
   3  -6  -8 3744.13  147.94
  -3  -6   8 3910.04  143.40
   3   6  -7 1158.97   82.20
   3  -6  -7  895.43  115.47
  -3  -6   7 1006.51   57.78
   3   6  -6 1263.48   89.34
   3  -6  -6 1132.91   51.87
   3  -6  -6 1051.28   69.31
  -3  -6   6 1039.21   74.20
   3   6  -5 4032.35  209.65
   3  -6  -5 4561.85  214.38
   3  -6  -5 4201.02  213.56
  -3  -6   5 4516.94  215.69
   3   6  -4 1627.98  101.06
   3  -6  -4 1462.42   76.68
   3  -6  -4 1574.89   81.81
   3  -6  -4 1390.45   96.92
  -3  -6   4 1624.14   82.29
   3   6  -3  755.00  214.58
   3  -6  -3  770.27   49.55
   3  -6  -3  804.81   39.68
   3  -6  -3  869.26   79.13
  -3  -6   3  811.43   46.27
   3   6  -211814.43  288.23
   3   6  -212189.38  278.98
   3  -6  -211324.98  266.79
  -3  -6   211692.75  259.95
   3  -6  -212251.18  270.90
  -3   6   1 4219.91  106.22
   3   6  -1 4167.20  143.12
   3   6  -1 3901.41  101.65
   3  -6  -1 4008.42  121.90
  -3  -6   1 4212.76   99.31
   3   6   0 7190.61  189.47
   3   6   0 7001.33  163.86
  -3  -6   0 6893.89  163.40
   3  -6   0 7356.43  188.62
  -3   6  -1 2682.75   79.85
   3   6   1 2652.58   70.38
  -3  -6  -1 2431.19   72.51
   3  -6   1 2673.68   92.56
  -3   6  -2  474.79  110.61
   3   6   2  452.90   39.62
   3   6   2  422.08   35.61
  -3  -6  -2  523.75   54.25
   3  -6   2  580.48   38.79
  -3  -6  -2  424.86   38.34
  -3   6  -3 2169.47  118.57
   3   6   3 2246.01   79.77
   3   6   3 2102.27  101.70
  -3  -6  -3 2369.19   70.90
   3  -6   3 2222.10   70.39
  -3  -6  -3 2159.40  104.46
  -3   6  -4 1889.08  108.16
   3   6   4 2043.01  109.46
  -3  -6  -4 1867.78   90.35
  -3  -6  -4 2087.18  114.99
   3  -6   4 2050.58  137.49
  -3   6  -5 2035.17  105.60
   3   6   5 2263.61   96.90
  -3  -6  -5 2141.50  102.46
   3  -6   5 2088.48  110.04
  -3   6  -6 7130.71  346.96
  -3  -6  -6 7451.55  355.91
   3  -6   6 7271.89  363.25
  -3   6  -7  603.31   87.26
  -3  -6  -7  328.24   99.69
   3  -6   7  502.14  109.75
  -3   6  -8  632.11   72.98
  -3  -6  -8  774.33   57.21
   3  -6   8  867.79   85.56
  -3   6  -9   65.30   45.51
  -3  -6  -9   47.12   42.01
   3  -6   9   60.99   46.18
  -3   6 -10 3911.26  168.51
  -3  -6 -10 3976.12  174.45
   3  -6  10 4209.50  181.22
  -3   6 -11 1082.92  120.96
  -3  -6 -11  795.02  107.07
   3  -6  11 1125.11   91.32
  -3   6 -12 4117.54  278.14
  -3  -6 -12 4097.03  275.06
   3  -6  12 3314.71  219.91
  -3   6 -13 2496.74  125.21
  -3  -6 -13 2454.02  122.03
   3  -6  13 2195.21   98.43
   3   7 -12 1320.84  119.63
   3  -7 -12 1310.50  212.13
  -3  -7  12 1142.58   85.45
   3   7 -11  943.77  162.31
   3  -7 -11  460.58  197.21
  -3  -7  11  627.07  135.03
   3   7 -10  857.12   79.83
   3  -7 -10  541.13  118.75
  -3  -7  10  769.53   56.79
   3   7  -9  606.25  178.26
   3  -7  -9  903.68  143.06
  -3  -7   9  815.46   41.08
   3   7  -8   76.26   37.60
   3  -7  -8  211.68  138.14
  -3  -7   8  152.15   57.40
   3   7  -7 1685.66  114.44
   3  -7  -7 1508.57  210.75
  -3  -7   7 1562.32   94.88
   3   7  -6 2608.65  129.61
   3  -7  -6 2714.86  129.18
  -3  -7   6 2588.27  104.50
   3   7  -5 2868.13  119.13
   3  -7  -5 2666.93  140.77
  -3  -7   5 3040.42   94.74
   3   7  -4 1549.51   90.20
   3  -7  -4 1489.57   69.42
   3  -7  -4 1773.47  171.22
  -3  -7   4 1658.45   91.78
   3   7  -3  332.67  105.18
   3  -7  -3  465.79   33.64
   3  -7  -3  388.26  117.24
  -3  -7   3  396.07   26.16
   3  -7  -2 1997.73   81.83
   3  -7  -2 1939.39   90.50
  -3  -7   2 2003.75   87.82
  -3   7   1 4615.51  224.13
   3   7  -1 4354.52  228.60
  -3  -7   1 4420.94  213.23
   3  -7  -1 4483.42  219.54
  -3   7   0  295.69   27.85
   3   7   0  111.18   77.08
  -3  -7   0  329.45   39.89
   3  -7   0  268.02   73.59
  -3   7  -1  127.39   26.96
   3   7   1  114.07   45.42
  -3  -7  -1  107.05   42.54
   3  -7   1  170.71   44.06
   3   7   2 7016.25  251.31
  -3  -7  -2 7286.14  261.12
   3  -7   2 7253.32  263.72
  -3   7  -3 5489.53  204.64
   3   7   3 5794.66  219.95
  -3  -7  -3 5996.53  215.61
   3  -7   3 5522.95  222.75
  -3   7  -4  248.59   32.43
  -3  -7  -4  196.82   65.42
   3  -7   4  274.82   88.91
  -3   7  -5 1441.23  114.29
  -3  -7  -5 1485.80  102.54
   3  -7   5 1679.66  106.01
  -3   7  -6 1711.91   98.98
  -3  -7  -6 1742.26   84.97
   3  -7   6 1780.69  107.76
  -3   7  -7   63.37   44.21
  -3  -7  -7   23.27   20.85
   3  -7   7   34.02   23.29
  -3   7  -8 5528.37  200.21
  -3  -7  -8 5822.50  203.89
   3  -7   8 5455.74  180.51
  -3   7  -9  990.99  128.56
  -3  -7  -9  744.70  114.67
   3  -7   9  655.65   92.77
  -3   7 -10 3092.02  214.73
  -3  -7 -10 2481.79  293.30
   3  -7  10 3075.99  204.16
  -3   7 -11 1889.17   98.77
  -3  -7 -11 1779.61   93.13
   3  -7  11 1946.09   78.98
  -3   7 -12 2159.35  149.86
  -3  -7 -12 1675.67  117.86
   3  -7  12 1989.35  120.95
   3   8 -10 1066.49  113.33
   3  -8 -10 1296.49  177.09
  -3  -8  10 1450.56   67.88
   3   8  -9  801.68   84.96
   3  -8  -9  627.80   71.43
  -3  -8   9  804.18   51.52
   3   8  -8  749.17  104.67
   3  -8  -8  769.56  243.13
  -3  -8   8  810.00   36.04
   3   8  -7 1202.06  108.23
   3  -8  -7 1238.05  120.52
  -3  -8   7 1270.73   82.30
   3   8  -6  326.18  148.59
   3  -8  -6  492.44  133.95
  -3  -8   6  325.92   34.16
   3  -8  -5  730.95   59.02
  -3  -8   5  966.07   38.32
   3   8  -4  286.85   45.95
   3  -8  -4  217.36   78.01
  -3  -8   4  274.33   27.75
   3   8  -3  928.85   63.01
   3  -8  -3  908.40   77.11
  -3  -8   3  779.32   34.26
   3   8  -2 3663.01  178.11
   3  -8  -2 4146.63  161.89
   3  -8  -2 3876.16  162.12
  -3  -8   2 3663.93  144.36
  -3   8   1  690.91   53.19
   3   8  -1  808.27  109.51
  -3  -8   1  879.97   37.27
   3  -8  -1  954.03  108.41
  -3   8   0  264.10   44.29
   3   8   0  248.49   59.58
  -3  -8   0  209.69   68.08
   3  -8   0  254.64   76.12
  -3   8  -1  880.22   84.29
   3   8   1  891.61   99.50
  -3  -8  -1  948.21   35.60
   3  -8   1  995.88   50.39
  -3   8  -2  453.60   55.82
  -3  -8  -2  405.99   74.97
   3  -8   2  487.64   84.48
  -3   8  -3 2663.04  152.66
  -3  -8  -3 2773.24  153.10
   3  -8   3 2668.75  146.49
  -3   8  -4 1125.34   63.03
  -3  -8  -4 1274.42   81.60
   3  -8   4 1377.91   83.97
  -3  -8  -5  693.57   42.50
   3  -8   5  660.37  141.71
  -3   8  -6  284.11  128.01
  -3  -8  -6  192.44   96.40
   3  -8   6  229.78   85.29
  -3   8  -7  625.44  118.07
  -3  -8  -7  586.25   62.72
   3  -8   7  686.05  157.98
  -3   8  -8  396.26   59.36
  -3  -8  -8  221.05   94.26
   3  -8   8  246.69   79.11
  -3   8  -9  575.80   63.23
  -3  -8  -9  523.90  194.14
   3  -8   9  685.77   49.81
  -3   8 -10 2258.45  115.43
   3  -8  10 2374.09   99.21
   3  -9  -8  245.39  151.38
   3   9  -7  788.12  127.89
   3  -9  -7  799.11  111.72
   3   9  -6 1106.92   74.76
   3  -9  -6  860.34  112.96
   3   9  -5 1345.33  112.17
   3  -9  -5 1390.95  110.97
   3   9  -4 1657.46  130.00
   3  -9  -4 1247.16  186.93
   3   9  -3 2015.32  143.96
   3  -9  -3 1736.57  139.69
   3   9  -2 2430.05  163.60
   3  -9  -2 2516.96  165.20
   3   9  -1 1371.98   87.67
   3  -9  -1 1726.47  100.78
   3  -9   0  219.65   72.66
  -3   9  -1 2082.94  108.64
   3  -9   1 2239.52  117.81
  -3   9  -2 1477.97  102.54
   3  -9   2 1659.69  110.84
  -3   9  -3  724.40  105.70
   3  -9   3  831.46   74.59
  -3   9  -4  111.84   66.46
   3  -9   4   78.39   48.90
  -3   9  -5  111.78   59.36
   3  -9   5  128.84   64.49
  -3   9  -6 1059.32  126.06
   3  -9   6 1138.25   55.81
  -3   9  -7  252.65  147.01
   3  -9   7  694.97   90.81
   3  -9   8 3374.91  187.48
   3  10  -5  396.64   58.55
   3 -10  -5  304.33  160.43
   3  10  -4 1599.14  115.11
   3 -10  -4 1885.89  131.05
   3 -10  -3 3643.67  199.98
   3 -10  -2 1553.56  139.74
   3 -10  -1 2737.91  119.13
   3 -10   0 1250.08  152.59
   3 -10   1  459.00   68.28
   3 -10   2 1988.13  130.00
   3 -10   3 3325.13  130.55
  -3  10  -4  976.97   80.01
   3 -10   4 1154.30   91.43
  -3  10  -5   49.93   39.04
   3 -10   5  175.55   72.79
   4   0 -16 3754.00  220.22
   4   0 -16 3377.95  293.46
   4   0 -15   58.89   31.93
   4   0 -15   29.69   68.98
   4   0 -14 7559.01  213.47
   4   0 -14 7528.70  479.35
   4   0 -13 1396.93   78.51
   4   0 -13 1423.12  118.83
   4   0 -12  581.45  184.78
   4   0 -12  555.47  177.91
   4   0 -11 1441.33   87.63
   4   0 -11 1357.61   94.62
   4   0 -10 2029.21  116.73
   4   0 -10 1790.37  138.48
   4   0  -9 1428.46   81.12
   4   0  -9 1309.82  114.53
   4   0  -8 7409.72  205.51
   4   0  -8 7432.94  204.01
   4   0  -7 2503.08  105.93
   4   0  -7 2477.48  131.31
   4   0  -617618.28  631.63
   4   0  -617061.72  624.11
   4   0  -5 2104.90   75.53
   4   0  -5 2091.05   76.60
   4   0  -412465.77  320.88
   4   0  -412492.98  336.22
  -4   0   412782.46  319.99
   4   0  -323187.34  496.98
   4   0  -323348.91  499.12
  -4   0   323048.56  483.90
   4   0  -2 1654.24   56.21
   4   0  -2 1700.23   71.00
  -4   0   2 1735.32   55.61
   4   0  -116626.53  358.46
   4   0  -116070.33  340.25
  -4   0   116736.26  348.35
   4   0   0  486.23   28.97
  -4   0   0  441.00   21.68
   4   0   0  450.12   17.54
  -4   0   0  455.16   31.65
   4   0   1 2203.68   60.55
   4   0   1 1992.14   57.55
   4   0   1 2251.99   54.30
  -4   0  -1 2360.42   70.76
   4   0   3  719.25   42.30
   4   0   3  602.71   26.29
  -4   0  -3  563.01   28.54
  -4   0  -410958.41  277.27
   4   0   410737.56  269.44
  -4   0  -411159.41  285.88
  -4   0  -514303.85  358.43
   4   0   514949.88  381.76
   4   0   514224.34  356.43
  -4   0  -6 3759.77  163.21
   4   0   6 3516.34  143.67
  -4   0  -710463.55  370.82
   4   0   710576.22  398.29
  -4   0  -8 1910.73   78.06
   4   0   8 1865.61   72.99
  -4   0  -9 7242.23  183.00
   4   0   9 7187.54  192.92
  -4   0 -10 1340.16   79.53
   4   0  10 1308.74   87.08
  -4   0 -11  465.20   49.76
   4   0  11  402.97   45.86
  -4   0 -12 1054.37   50.16
   4   0  12 1163.99   69.57
  -4   0 -13   46.20   29.45
   4   0  13  136.84   44.99
  -4   0 -14 4984.20  303.97
   4   0  14 5116.30  343.25
  -4   0 -15 1619.32  119.58
   4   0  15 1564.35  125.46
  -4   0 -16 1573.55  112.32
   4   0  16 1465.34  106.74
   4   1 -16  550.74  104.40
   4  -1 -16  297.82  126.34
   4  -1 -16  352.49  185.87
   4   1 -15   47.10   72.99
   4  -1 -15   43.21   26.81
   4  -1 -15   44.04   43.38
   4   1 -14 2247.13  158.40
   4   1 -14 1998.25  151.84
   4  -1 -14 2072.88  152.07
   4  -1 -14 2181.02  164.20
   4   1 -13 1444.94   83.79
   4   1 -13 1239.07  166.02
   4  -1 -13 1409.87   83.14
   4  -1 -13 1084.70   70.90
   4   1 -12 3308.72  158.81
   4  -1 -12 3302.65  166.35
   4  -1 -12 3204.45  264.02
   4   1 -11 1777.98  110.91
   4   1 -11 1582.02   97.26
   4  -1 -11 1605.39  121.66
   4  -1 -11 1539.14  114.24
   4   1 -10 4074.09  212.36
   4   1 -10 3791.74  225.81
   4  -1 -10 3969.12  211.22
   4  -1 -10 4151.57  220.31
   4   1  -9  470.24   54.91
   4   1  -9  449.29  135.49
   4  -1  -9  451.77  139.67
   4  -1  -9  461.95   94.02
   4   1  -8  588.58   43.36
   4   1  -8  767.57   56.67
   4  -1  -8  757.20   92.60
   4  -1  -8  785.40   95.07
   4   1  -7  407.22   76.48
   4   1  -7  493.88   59.19
   4  -1  -7  471.08   35.24
   4  -1  -7  502.19  137.73
   4   1  -6 5917.78  225.98
   4   1  -6 5587.97  220.44
   4  -1  -6 6163.74  237.54
   4  -1  -6 5872.46  231.03
   4   1  -5 1822.76   77.19
   4   1  -5 1685.44   95.30
   4  -1  -5 1869.00   65.29
   4  -1  -5 1799.02   69.54
  -4  -1   5 1828.91   69.48
   4   1  -415596.50  407.79
   4   1  -414413.45  372.11
  -4  -1   415386.02  381.71
   4   1  -312090.41  273.96
   4   1  -312439.51  278.20
  -4   1   312631.55  270.13
   4  -1  -312046.97  274.27
   4  -1  -312372.42  274.59
  -4  -1   312058.67  258.25
   4   1  -2  202.08   70.37
  -4   1   2  168.17   54.72
   4   1  -2  244.42   43.56
  -4   1   2  217.47   24.99
   4  -1  -2  196.96   52.03
   4  -1  -2  175.21   43.06
  -4  -1   2  180.31   23.70
   4   1  -1 1185.99   46.05
  -4   1   1 1062.70   35.33
   4   1  -1 1089.87   50.32
  -4   1   1 1089.60   34.07
   4  -1  -1 1018.27   53.35
   4  -1  -1 1028.44   33.23
  -4  -1   1 1065.73   26.52
   4   1   0  768.29   50.68
  -4   1   0  859.54   32.45
   4   1   0  864.67   27.55
   4  -1   0  868.83   35.39
   4  -1   0  795.10   31.18
  -4  -1   0  884.21   31.46
  -4  -1   0  827.43   23.30
   4   1   1  568.44   30.61
  -4   1  -1  452.46   34.23
   4   1   1  506.95   18.31
  -4  -1  -1  523.11   46.38
   4  -1   1  481.05   18.99
   4  -1   1  480.89   61.11
  -4  -1  -1  489.92   32.91
   4   1   2 3497.79   87.57
   4   1   2 3769.67   98.45
  -4   1  -2 3819.69  106.84
   4   1   2 3676.36   82.87
   4  -1   2 3842.83   92.47
   4  -1   2 3775.61   94.61
  -4   1  -3 5303.34  142.13
   4   1   3 5602.73  134.63
   4   1   3 5746.19  148.80
   4   1   3 5530.18  126.80
  -4   1  -3 5941.16  140.92
   4  -1   3 5351.42  131.80
  -4   1  -4 1280.94   50.72
   4   1   4 1324.05   50.02
   4   1   4 1335.52   58.89
   4  -1   4 1449.93   78.15
  -4   1  -5 4134.56  139.63
   4   1   5 4155.07  124.01
   4   1   5 4491.50  129.91
   4   1   5 4122.70  120.41
   4  -1   5 4265.13  128.25
   4   1   6 3042.62  121.36
  -4   1  -6 2891.85  126.54
   4  -1   6 3003.79  121.39
  -4  -1  -6 2757.32  115.85
   4   1   7 1546.26   72.20
  -4   1  -7 1395.16   92.20
   4  -1   7 1511.98   68.77
  -4  -1  -7 1473.73   63.83
   4   1   8 5077.40  142.89
  -4   1  -8 5181.51  155.63
   4  -1   8 5069.78  152.09
  -4  -1  -8 4962.32  128.63
   4   1   9 1287.56   75.37
  -4   1  -9 1419.30   79.01
   4  -1   9 1382.68   79.39
  -4  -1  -9 1462.98   72.81
   4   1  10 3015.49  162.34
  -4   1 -10 3004.51  217.36
   4  -1  10 3078.87  161.94
  -4  -1 -10 3283.41  169.81
   4   1  1110173.16  367.71
  -4   1 -11 9665.18  347.61
   4  -1  1110568.69  382.71
  -4  -1 -11 9939.46  372.28
   4   1  12  882.22   58.41
  -4  -1 -12  738.65   98.89
   4  -1  12  934.67  160.38
   4   1  13  197.06   47.43
  -4   1 -13  196.25  108.02
   4  -1  13  218.62   89.10
  -4  -1 -13  188.53   83.68
   4   1  14 1327.85  107.81
  -4   1 -14 1516.56  109.19
   4  -1  14 1425.52  238.50
  -4  -1 -14 1458.41  104.63
   4   1  15   85.75   38.78
  -4   1 -15   78.43   56.44
   4  -1  15  124.83   45.16
  -4  -1 -15  110.27   66.90
   4   1  16  180.74   55.23
  -4   1 -16  127.16   32.29
   4  -1  16  124.84   38.06
  -4  -1 -16   36.07   39.32
   4   2 -16  436.14   68.37
   4  -2 -16  580.49  176.41
  -4  -2  16  539.72   71.13
   4   2 -15 4730.28  170.43
   4  -2 -15 4489.43  165.01
   4  -2 -15 4585.82  252.09
   4   2 -14 4838.24  306.40
   4   2 -14 4625.87  303.45
   4  -2 -14 4916.78  304.13
   4  -2 -14 4306.17  286.13
   4   2 -13  460.86  125.81
   4   2 -13  501.17  159.15
   4  -2 -13  485.20  121.47
   4  -2 -13  492.96  175.49
   4   2 -12  108.22   53.51
   4   2 -12  204.91   95.38
   4  -2 -12  178.73   51.84
   4  -2 -12  236.84  166.44
   4   2 -11 2129.79  104.22
   4   2 -11 2220.95  135.95
   4  -2 -11 1947.03  124.65
   4  -2 -11 2149.09  154.12
   4   2 -10 3914.59  209.43
   4   2 -10 4041.16  210.59
   4  -2 -10 3796.66  205.31
   4  -2 -10 3688.40  200.28
   4   2  -9  373.81   66.46
   4   2  -9  409.14  138.65
   4  -2  -9  405.06  111.95
   4  -2  -9  337.69  141.58
   4   2  -818317.24  442.81
   4   2  -817953.33  419.36
   4  -2  -818172.72  425.10
   4  -2  -818336.70  435.55
   4   2  -7 1194.72   66.71
   4   2  -7 1109.61   58.58
   4  -2  -7 1108.60   56.67
   4  -2  -7 1143.59   67.36
   4   2  -6 3768.55  154.02
   4   2  -6 3668.13  149.13
   4  -2  -6 3746.74  150.48
   4  -2  -6 3837.42  154.77
   4   2  -5  433.66   75.32
   4   2  -5  450.20   60.88
   4  -2  -5  454.61   44.73
  -4  -2   5  422.64   82.56
   4  -2  -5  401.72  110.60
   4   2  -4  967.33   85.74
   4   2  -4  823.98   49.23
   4  -2  -4  864.38   38.91
  -4  -2   4  891.25   58.61
   4  -2  -4  899.00   73.01
   4   2  -3 5898.53  169.02
   4   2  -3 5434.24  144.20
   4  -2  -3 5609.58  150.22
  -4  -2   3 5566.76  150.65
   4  -2  -3 5171.96  142.58
   4   2  -2 5118.25  146.63
   4   2  -2 5397.87  140.07
  -4  -2   2 5949.74  148.29
   4  -2  -2 5892.15  165.48
   4   2  -111370.28  257.16
   4   2  -111318.61  235.80
   4  -2  -111830.99  257.28
   4  -2  -111101.76  242.40
  -4  -2   111135.73  229.00
   4   2   019374.86  425.32
   4  -2   018956.40  403.47
   4  -2   019727.06  414.63
   4   2   1  319.26   36.54
   4  -2   1  354.86   25.42
   4  -2   1  378.14   25.19
  -4   2  -2 5579.57  151.03
   4   2   2 5590.40  157.01
   4   2   2 5503.85  133.76
   4   2   2 5831.94  145.91
   4  -2   2 5548.95  143.43
  -4  -2  -2 5627.75  152.65
  -4   2  -312877.90  325.16
   4   2   312628.41  315.45
   4   2   313372.54  329.79
   4   2   313477.61  328.65
   4  -2   312403.26  310.43
  -4   2  -4 4541.91  130.30
   4   2   4 4130.69  116.72
   4   2   4 4415.77  120.43
   4   2   4 4242.61  114.65
   4  -2   4 4376.54  130.15
  -4   2  -5  138.89   74.87
   4   2   5  221.82   29.62
   4   2   5  223.65   45.85
   4   2   5  211.71   22.37
   4  -2   5  215.90   60.11
  -4   2  -6 1397.82   69.08
   4   2   6 1178.14   70.12
   4   2   6 1290.47   59.57
   4   2   6 1328.01   60.17
   4  -2   6 1324.07   72.60
  -4   2  -717650.86  706.50
   4   2   717466.23  691.08
   4   2   717053.19  400.29
   4  -2   716848.45  387.94
  -4   2  -8 4531.50  129.41
   4   2   8 4898.07  153.51
   4  -2   8 5068.48  172.97
   4   2   9 1208.51  130.96
  -4   2  -9 1282.64   80.78
   4  -2   9 1334.16   82.51
  -4  -2  -9 1152.26   66.71
   4   2  10  874.02  109.61
  -4   2 -10 1189.20  102.77
   4  -2  10  823.11   56.25
  -4  -2 -10  991.36   58.97
   4   2  11  109.74   42.73
  -4   2 -11  174.71   92.58
   4  -2  11  164.13   51.55
  -4  -2 -11  210.35   63.71
   4   2  12 2593.69  128.31
  -4   2 -12 3170.94  164.67
   4  -2  12 2800.16  204.89
  -4  -2 -12 2827.85  138.62
   4   2  13 1811.58   99.81
  -4   2 -13 2180.82   98.31
   4  -2  13 2015.69  125.69
  -4  -2 -13 2291.88   98.18
  -4   2 -14 2564.55  167.72
  -4  -2 -14 3010.07  199.40
   4  -2  14 3129.66  207.42
  -4   2 -15 2883.73  200.02
   4  -2  15 2830.46  175.53
  -4   2 -16   28.21   38.08
   4   2  16   55.54   38.60
   4  -2  16   97.56   44.77
   4   3 -15   64.68   39.25
   4  -3 -15   29.58   64.14
  -4  -3  15   57.81   74.40
   4   3 -14 1822.60  160.44
   4  -3 -14 1864.66  151.95
  -4  -3  14 1862.95  145.88
   4  -3 -13  221.65   70.23
   4  -3 -13  258.98   55.59
  -4  -3  13  207.20  115.70
   4   3 -12 2807.99  172.92
   4  -3 -12 2577.69  183.73
   4  -3 -12 2620.86  259.55
  -4  -3  12 3061.31  182.64
   4   3 -11 2725.79  216.08
   4  -3 -11 2736.55  123.27
   4  -3 -11 2802.72  145.43
  -4  -3  11 2757.25  136.93
   4   3 -10 5380.95  219.37
   4  -3 -10 5049.52  227.59
   4  -3 -10 5483.10  240.29
  -4  -3  10 4997.95  200.08
   4   3  -9 6819.24  338.02
   4  -3  -9 7111.95  338.81
   4  -3  -9 7518.62  370.53
  -4  -3   9 7046.87  342.12
   4   3  -8  521.44  150.19
   4  -3  -8  504.83   40.35
   4  -3  -8  561.20  122.92
  -4  -3   8  613.93   52.46
   4   3  -710551.24  297.64
   4  -3  -710143.26  241.97
   4  -3  -710303.93  280.53
  -4  -3   710401.07  254.63
   4   3  -6 2901.30  121.82
   4  -3  -6 2924.24   92.13
   4  -3  -6 3104.99  167.87
  -4  -3   6 2741.89   95.07
   4   3  -512573.06  461.78
   4  -3  -512583.27  440.62
  -4  -3   513578.87  470.72
   4  -3  -512135.30  444.79
  -4  -3   513435.67  464.62
   4   3  -4 2120.02   97.72
   4  -3  -4 2319.43   98.50
  -4  -3   4 2576.23  116.64
   4  -3  -4 2271.40  119.55
  -4  -3   4 2482.20   96.62
   4   3  -3 6209.45  237.08
   4  -3  -3 6139.64  221.26
  -4  -3   3 6460.06  234.71
   4  -3  -3 6514.13  240.43
  -4  -3   3 6465.98  229.52
   4   3  -2 3151.55  101.81
   4  -3  -2 3052.58   99.22
  -4  -3   2 3349.92   89.37
   4  -3  -2 3049.18   91.36
  -4  -3   2 3157.37   82.49
   4   3  -1 2827.52   94.43
   4  -3  -1 2935.38   98.91
   4  -3  -1 2853.34   84.46
   4   3   0  142.21   26.56
   4  -3   0  185.70   37.02
  -4   3  -1  381.56   83.86
   4   3   1  357.24   58.27
   4  -3   1  549.03   59.72
  -4   3  -216044.53  400.96
   4   3   215972.18  401.21
   4  -3   215652.68  386.40
  -4   3  -318024.42  635.17
   4   3   318805.43  659.04
   4   3   320657.81  711.88
   4   3   318103.09  625.79
   4  -3   318520.18  645.03
   4   3   4  257.74   51.56
  -4   3  -4  332.63   68.24
   4   3   4  301.77   36.74
   4   3   4  276.93   17.70
   4  -3   4  295.14   32.35
  -4   3  -5 4616.89  175.50
   4   3   5 4423.22  170.78
   4   3   5 4545.54  164.55
  -4  -3  -5 4658.92  169.01
   4  -3   5 4495.00  164.47
  -4   3  -6 9383.55  233.97
   4   3   6 9499.93  221.90
   4   3   6 9730.70  236.22
  -4  -3  -6 9712.87  232.21
   4  -3   6 9355.71  224.37
  -4   3  -710807.49  312.44
  -4  -3  -711272.92  270.19
   4  -3   711971.60  287.05
  -4   3  -8 7300.45  195.42
   4   3   8 6870.85  166.74
  -4  -3  -8 6969.24  181.73
   4  -3   8 6628.82  183.21
  -4   3  -9 2231.40  115.55
   4   3   9 2121.65  102.45
  -4  -3  -9 1976.45  107.29
   4  -3   9 2267.69  119.54
  -4   3 -10 2505.74  117.38
   4   3  10 2225.35   96.12
  -4  -3 -10 2658.83  122.28
   4  -3  10 2479.00  109.19
  -4   3 -11 1048.31   98.15
   4   3  11 1162.37   45.40
  -4  -3 -11 1190.30   66.26
   4  -3  11 1027.80   65.27
  -4   3 -12 1308.92  125.62
   4   3  12 1359.39   88.27
   4  -3  12 1586.40  108.51
  -4   3 -13 1815.22  112.10
   4   3  13 1560.48  237.70
   4  -3  13 1642.32  104.84
  -4   3 -14  160.92   91.73
   4   3  14  143.16   40.28
   4  -3  14  192.05   45.54
  -4   3 -15 1017.47  148.22
   4   3  15 1070.95  185.57
   4  -3  15  988.69  194.88
   4   4 -15 2147.70  150.83
   4  -4 -15 1830.64  322.14
  -4  -4  15 2196.77  146.37
   4   4 -14  791.16   78.93
   4  -4 -14  827.07   99.93
  -4  -4  14  742.48   69.60
   4   4 -13 1240.49  113.82
   4  -4 -13  884.91  350.02
  -4  -4  13  950.59   88.86
   4   4 -12  371.01   57.60
   4  -4 -12  311.94  154.10
  -4  -4  12  490.59   49.83
   4   4 -11  212.03   94.71
   4  -4 -11  175.67   59.34
   4  -4 -11  326.95  139.35
  -4  -4  11  314.97   41.86
   4   4 -10 1743.92   99.54
   4  -4 -10 1681.60   96.27
   4  -4 -10 1541.81  139.90
  -4  -4  10 1503.43   94.73
   4   4  -9 3451.28  188.56
   4  -4  -9 3125.75  121.72
   4  -4  -9 3099.06  196.66
  -4  -4   9 3546.82  149.18
   4   4  -8 5566.78  300.16
   4  -4  -8 4793.81  231.68
   4  -4  -8 5526.98  288.80
  -4  -4   8 6118.06  296.59
   4   4  -7 7593.56  287.02
   4  -4  -7 7783.31  242.26
   4  -4  -7 7908.06  262.62
  -4  -4   7 7926.84  250.04
   4   4  -6   98.02   38.09
   4  -4  -6  104.54   48.79
   4  -4  -6  147.58   46.91
   4  -4  -6  141.64   97.70
  -4  -4   6  167.51   23.44
   4   4  -5 4132.35  158.77
   4  -4  -5 4424.00  109.67
   4  -4  -5 4275.30  118.28
  -4  -4   5 4751.96  131.63
   4  -4  -5 4641.99  200.28
  -4  -4   5 4455.52  118.90
   4   4  -4 1638.99   95.26
   4  -4  -4 1373.47   59.04
   4  -4  -4 1476.52   61.60
  -4  -4   4 1407.92  108.28
   4  -4  -4 1600.50   78.04
  -4  -4   4 1458.17   70.67
   4   4  -3 3886.54  174.94
   4  -4  -3 4260.98  153.73
  -4  -4   3 4291.50  161.44
   4  -4  -3 4023.72  208.06
  -4  -4   3 4189.65  147.37
   4   4  -2 2218.50  131.23
   4  -4  -2 2197.61   85.95
  -4  -4   2 2630.94   97.97
   4  -4  -2 2452.48  147.12
  -4  -4   2 2335.52   83.12
   4   4  -1  805.65   50.88
   4  -4  -1  850.34   47.76
  -4  -4   1  814.16   35.73
  -4  -4   1  773.88   29.10
   4  -4  -1  784.42   45.02
  -4   4   010523.79  372.79
   4   4   0 9964.52  359.27
   4  -4   010299.36  373.36
  -4   4  -1 2175.92   91.40
   4   4   1 2053.50   95.69
   4  -4   1 2109.41   84.56
  -4   4  -2  608.80   59.98
   4   4   2  551.41   43.49
   4   4   2  527.77   26.98
  -4  -4  -2  522.59   22.55
   4  -4   2  568.20   49.84
  -4   4  -3 2721.43  109.64
   4   4   3 2360.04   98.30
   4   4   3 2636.71   91.82
  -4  -4  -3 2512.97   92.21
   4  -4   3 2836.98  113.18
  -4   4  -4 9902.37  350.52
   4   4   4 9778.65  351.08
   4   4   410094.96  343.82
  -4  -4  -410053.36  347.16
   4  -4   4 9919.81  348.93
   4   4   5  517.64   43.74
  -4   4  -5  740.63   47.86
   4   4   5  647.95   45.16
   4   4   5  573.62   33.64
  -4  -4  -5  681.36   54.14
   4  -4   5  672.83   86.94
  -4   4  -6 5137.74  146.77
   4   4   6 5188.54  133.36
   4   4   6 5338.25  129.21
   4   4   6 5501.01  135.93
  -4  -4  -6 5436.08  144.84
   4  -4   6 5211.24  139.65
  -4   4  -7 3604.59  134.77
   4   4   7 3713.48  126.52
  -4  -4  -7 3744.07  145.41
   4  -4   7 3802.05  151.59
  -4   4  -8 4856.86  280.73
   4   4   8 4920.36  232.59
  -4  -4  -8 5911.95  288.47
   4  -4   8 5269.48  255.51
  -4   4  -9 1709.58   98.10
   4   4   9 1844.92   84.31
  -4  -4  -9 1850.74  103.03
   4  -4   9 1974.89   96.56
  -4   4 -10 2041.25   94.93
   4   4  10 1604.58   81.56
  -4  -4 -10 1941.44  161.74
   4  -4  10 1793.19  129.13
  -4   4 -11  321.83   82.70
  -4  -4 -11  230.87   75.82
   4  -4  11  424.48   45.23
  -4   4 -12 1442.58  200.93
  -4  -4 -12 1828.58  125.39
   4  -4  12 1675.63  102.62
  -4   4 -13  551.96   69.64
  -4  -4 -13  489.78   50.22
   4  -4  13  416.09  162.18
  -4   4 -14 1117.89   72.25
  -4  -4 -14  959.14   66.05
   4  -4  14  780.29  104.44
  -4   4 -15 1464.37  154.08
   4   4  15 1506.46  155.71
   4  -4  15 1724.66  136.90
   4   5 -14  375.03   66.62
   4  -5 -14  130.43   74.10
  -4  -5  14  148.43  100.07
   4   5 -13  236.20   62.62
   4  -5 -13  286.20   65.06
  -4  -5  13  196.57   88.19
   4   5 -12 1519.69  122.52
   4  -5 -12 1260.95  124.19
  -4  -5  12 1378.95  122.50
   4   5 -11 6228.64  316.77
   4  -5 -11 4986.07  265.18
  -4  -5  11 6620.66  323.15
   4   5 -10  472.52  125.90
   4  -5 -10  562.60  187.24
  -4  -5  10  481.56   38.27
   4   5  -9 2697.65  138.80
   4  -5  -9 2743.78  111.41
   4  -5  -9 2510.61  131.99
  -4  -5   9 2618.52  126.01
   4   5  -8 1837.78  108.91
   4  -5  -8 1691.09   80.85
   4  -5  -8 1552.30  191.39
  -4  -5   8 1621.92   85.59
   4   5  -7  380.97  138.49
   4  -5  -7  354.02   68.04
   4  -5  -7  318.16  107.16
  -4  -5   7  306.32   35.66
   4   5  -6 1001.00   86.85
   4  -5  -6  761.49   66.43
   4  -5  -6  763.46  134.84
  -4  -5   6  792.01   89.37
   4   5  -510241.61  348.13
   4  -5  -5 9680.36  293.82
   4  -5  -5 9791.61  316.54
  -4  -5   510286.50  303.40
   4   5  -4  719.25   77.19
   4  -5  -4  644.65   59.82
  -4  -5   4  621.16   97.08
   4  -5  -4  689.13   86.64
  -4  -5   4  721.25   37.20
   4   5  -3 1629.17   88.90
   4  -5  -3 1474.14   46.71
  -4  -5   3 1542.28   76.39
   4  -5  -3 1537.68   81.25
  -4  -5   3 1610.65   43.24
   4   5  -2 2746.05   94.31
   4  -5  -2 3117.15   82.73
  -4  -5   2 3161.26   88.78
   4  -5  -2 3057.24   93.04
  -4  -5   2 3105.80   72.47
   4   5  -1 2703.03  148.82
   4  -5  -1 2827.40   77.64
  -4  -5   1 2979.27   81.34
   4  -5  -1 2773.68  126.16
  -4  -5   1 2644.75   65.39
  -4   5   0  313.21   34.04
   4   5   0  417.64   33.74
  -4  -5   0  423.71   22.60
   4  -5   0  511.70   48.44
  -4   5  -1 3433.61  125.46
   4   5   1 3213.83  105.52
   4   5   1 3205.93   75.75
  -4  -5  -1 3243.65   77.64
   4  -5   1 3289.55   91.63
  -4   5  -2 8782.56  230.44
   4   5   2 8689.90  216.11
   4   5   2 9200.79  202.82
  -4  -5  -2 9278.84  212.60
   4  -5   2 8820.00  214.84
  -4   5  -314977.50  393.95
   4   5   315232.40  330.65
  -4  -5  -316334.77  362.05
   4  -5   316779.48  382.70
  -4   5  -4 4007.15  119.01
   4   5   4 3580.30   96.53
   4   5   4 3668.14   84.79
  -4  -5  -4 3980.41  103.67
   4  -5   4 4092.94  135.03
   4   5   5  739.66   43.75
  -4   5  -5  836.47   59.14
   4   5   5  829.20   70.90
   4   5   5  715.66   44.85
  -4  -5  -5  664.68   93.54
   4  -5   5  813.99   97.71
  -4   5  -6 4406.59  208.02
   4   5   6 4773.55  149.24
  -4  -5  -6 4877.41  160.67
   4  -5   6 4593.99  155.69
  -4   5  -7 4460.35  290.64
   4   5   7 5030.20  238.53
  -4  -5  -7 4886.77  241.18
   4  -5   7 5068.80  253.58
  -4   5  -8  161.55   37.38
   4   5   8   59.04   37.55
  -4  -5  -8   52.43   30.43
   4  -5   8   72.69   48.69
  -4   5  -9  190.11   66.61
  -4  -5  -9  134.33   63.70
   4  -5   9  176.83   45.29
  -4   5 -10  773.76  198.52
  -4  -5 -10  553.69   88.85
   4  -5  10  741.63   99.72
  -4   5 -11 1296.48  181.37
  -4  -5 -11 1188.53  186.27
   4  -5  11 1287.20  165.01
  -4  -5 -12  147.10   69.43
   4  -5  12  240.11   84.04
  -4   5 -13 1869.88  178.89
  -4  -5 -13 1890.42  213.40
   4  -5  13 2008.73   92.41
  -4   5 -14  986.06   87.69
  -4  -5 -14  804.43   87.80
   4  -5  14  913.46  112.25
   4   6 -13 2139.87  152.01
   4  -6 -13 1805.32  136.67
  -4  -6  13 1871.77  139.45
   4   6 -12   94.85   42.70
   4  -6 -12   61.80   45.82
  -4  -6  12   24.34   18.63
   4   6 -11  127.72   46.13
   4  -6 -11  180.42   87.16
  -4  -6  11  161.84   80.96
   4   6 -10   57.34   40.54
   4  -6 -10   21.96   33.25
  -4  -6  10   58.28   38.36
   4   6  -9 3046.43  194.36
   4  -6  -9 3678.55  161.58
  -4  -6   9 3204.73  115.54
   4   6  -8 1727.00  231.94
   4  -6  -8 1758.71  153.41
  -4  -6   8 1909.03  123.60
   4   6  -711551.23  350.01
   4  -6  -711766.23  355.07
  -4  -6   712284.05  131.05
   4   6  -6 1932.10  104.35
   4  -6  -6 1861.64   93.26
   4  -6  -6 1931.57  116.23
  -4  -6   6 2257.07   87.82
   4   6  -5 3874.32  164.40
   4  -6  -5 3858.05  145.84
   4  -6  -5 3736.59  154.96
  -4  -6   5 3969.73  141.28
   4   6  -4 1595.91  119.25
   4  -6  -4 1656.41   81.35
   4  -6  -4 1910.59  150.91
  -4  -6   4 1732.25   84.80
   4   6  -3 5544.77  275.97
   4  -6  -3 5612.61  263.14
   4  -6  -3 5703.51  284.27
  -4  -6   3 5539.57  257.11
   4   6  -2  252.24   65.73
   4  -6  -2  281.85   44.81
  -4  -6   2  125.39   27.04
   4  -6  -2  280.95   67.70
  -4  -6   2  242.93   24.21
   4   6  -1 3916.11  142.11
   4  -6  -1 4232.90  134.15
  -4  -6   1 4213.89  130.61
   4  -6  -1 3811.11  129.33
  -4  -6   0 4349.76  133.15
   4  -6   0 4223.28  165.05
  -4   6  -1 2590.22  131.21
   4   6   1 2784.06  149.91
  -4  -6  -1 2756.62  132.21
   4  -6   1 2621.27  167.36
  -4   6  -2 7186.62  225.06
   4   6   2 7567.88  243.57
  -4  -6  -2 8158.05  242.50
   4  -6   2 7591.85  232.84
  -4   6  -3 1530.26  128.96
   4   6   3 1376.87   96.29
  -4  -6  -3 1470.56   69.07
   4  -6   3 1532.54   76.59
  -4   6  -4 4187.13  209.39
   4   6   4 3994.43  193.50
  -4  -6  -4 3893.09  188.41
   4  -6   4 3891.65  190.36
  -4   6  -5 1166.27   72.76
   4   6   5 1124.04   58.85
  -4  -6  -5  941.62   71.62
   4  -6   5  897.27   55.02
  -4   6  -6  669.21   57.65
   4   6   6  697.28   42.71
  -4  -6  -6  716.56  101.05
   4  -6   6  588.16   49.24
  -4   6  -7 1787.22   89.92
  -4  -6  -7 1607.60   95.14
   4  -6   7 1505.22   96.93
  -4   6  -8 4242.73  238.02
  -4  -6  -8 3832.44  211.41
   4  -6   8 3782.47  204.43
  -4   6  -9 3774.57  152.05
  -4  -6  -9 4049.31  150.56
   4  -6   9 3602.18  208.58
  -4   6 -10 1111.44  170.52
  -4  -6 -10 1201.88   86.02
   4  -6  10  939.17  145.20
  -4   6 -11 3073.12  251.87
  -4  -6 -11 3672.48  246.98
   4  -6  11 3529.27  232.50
  -4   6 -12  456.61  178.19
  -4  -6 -12  654.25  148.22
   4  -6  12  439.23  134.34
  -4   6 -13 1696.69  121.68
  -4  -6 -13 1498.96  110.84
   4  -6  13 1683.43  110.85
   4   7 -11 5080.60  214.38
   4  -7 -11 5163.75  213.90
  -4  -7  11 5295.18  245.38
   4   7 -10  450.87   69.67
   4  -7 -10  283.98  121.78
  -4  -7  10  375.73   41.51
   4   7  -9 1149.93  106.73
   4  -7  -9  677.01  203.45
  -4  -7   9  901.82   80.19
   4   7  -8  929.40   96.89
   4  -7  -8  840.81   84.01
  -4  -7   8  845.34   35.79
   4   7  -7 2803.53  126.87
   4  -7  -7 2789.50  127.19
  -4  -7   7 2914.48   98.57
   4   7  -6  660.25   87.61
   4  -7  -6  784.43   85.70
  -4  -7   6  610.39   72.05
   4   7  -5  619.84  190.05
   4  -7  -5  574.90  146.48
  -4  -7   5  702.77   27.62
   4   7  -4 1620.67  101.68
   4  -7  -4 1368.67   71.83
   4  -7  -4 1657.16  101.81
  -4  -7   4 1492.76   76.76
   4   7  -3 2941.30  116.81
   4  -7  -3 2610.07   87.67
   4  -7  -3 2882.77  107.67
  -4  -7   3 2616.72   79.86
   4  -7  -2  269.56   61.95
   4  -7  -2  305.59  111.60
  -4  -7   2  255.81   20.32
   4   7  -1 8400.72  315.17
   4  -7  -1 9034.30  316.76
  -4  -7   1 8138.02  279.22
   4  -7  -1 8326.78  305.23
  -4   7   0 2297.74   93.65
   4   7   0 2208.95  111.96
  -4  -7   0 2596.65   99.74
   4  -7   0 2292.77   96.63
  -4   7  -1 1778.41   96.46
   4   7   1 2123.90   96.68
  -4  -7  -1 1715.53   78.52
   4  -7   1 1915.34   84.14
   4   7   2 1801.97   73.15
  -4  -7  -2 1678.40   90.79
   4  -7   2 1719.33  115.01
  -4   7  -3 1566.34  158.93
   4   7   3 1565.56  103.27
  -4  -7  -3 1339.38   73.18
   4  -7   3 1468.49   82.20
  -4   7  -4 1811.83   78.26
  -4  -7  -4 1815.58   67.60
   4  -7   4 1950.46  127.75
  -4   7  -5  341.06   44.25
  -4  -7  -5  171.07   60.45
   4  -7   5  190.13   62.38
  -4   7  -6 4227.84  256.20
  -4  -7  -6 4572.40  244.87
   4  -7   6 4540.25  251.14
  -4   7  -7 1283.45  128.69
  -4  -7  -7 1242.07   51.63
   4  -7   7 1280.40   86.14
  -4   7  -8  109.74   41.11
  -4  -7  -8   68.32   29.62
   4  -7   8   92.28   39.47
  -4   7  -9  471.23  121.95
   4  -7   9  496.13   54.62
  -4   7 -10 3308.25  214.81
   4  -7  10 3456.15  170.31
  -4   7 -11  254.47   55.96
   4  -7  11  222.13   74.28
   4   8 -10 1162.23  108.07
   4  -8 -10 1038.45  203.90
   4   8  -9  638.63  141.51
   4  -8  -9  260.60  152.33
   4   8  -8  377.94   65.00
   4  -8  -8  385.64   73.27
   4   8  -7  673.53   91.58
   4  -8  -7  701.96   92.28
   4   8  -6 1157.48  101.08
   4  -8  -6  937.56  105.40
   4  -8  -5  427.00   82.00
   4   8  -4 2766.42  124.73
   4  -8  -4 2677.53  195.33
   4   8  -3 2966.78  127.06
   4  -8  -3 2819.20  115.19
   4   8  -2  271.89   97.78
   4  -8  -2  253.69   39.01
   4  -8  -2  275.16   95.68
   4   8  -1 2967.18  211.52
   4  -8  -1 3121.83  170.01
   4  -8  -1 3128.32  175.03
  -4   8   0  637.72   94.90
   4   8   0  656.61   48.58
   4  -8   0  686.73   63.37
  -4   8  -1  168.10   44.00
   4   8   1   33.13   24.71
   4  -8   1  195.88   65.23
  -4   8  -2  378.74   99.39
   4  -8   2  532.69   48.03
  -4   8  -3 1127.54  109.28
   4  -8   3 1077.76   85.12
  -4   8  -4  913.37   52.76
   4  -8   4  763.50   61.96
   4  -8   5 1718.84   94.62
  -4   8  -6 1754.59  123.15
   4  -8   6 1774.70  117.14
  -4   8  -7  552.55  137.26
   4  -8   7  766.72   61.91
  -4   8  -8 2297.27   96.98
   4  -8   8 2300.30   84.64
   4  -8   9  143.47   70.51
  -4   8 -10   75.27   55.36
   4  -8  10   56.10   20.95
   4   9  -7  562.45   70.49
   4  -9  -7  471.45   77.75
   4   9  -6   84.96   89.10
   4  -9  -6   63.04   39.62
   4   9  -5 1700.55   89.98
   4  -9  -5 2043.70   96.98
   4   9  -4 1659.07  127.97
   4  -9  -4 1930.48  145.00
   4   9  -3 2340.16  168.39
   4  -9  -3 2261.37  161.57
   4   9  -2  409.27   94.78
   4  -9  -2  458.89  114.52
   4  -9   0 5943.64  356.35
   4  -9   1 1469.08  143.85
  -4   9  -2 1634.58  114.92
   4  -9   2 1385.07  100.51
  -4   9  -3   65.05   31.62
   4  -9   3  128.81   59.98
  -4   9  -4 3282.90  230.74
   4  -9   4 3224.34  210.22
  -4   9  -5  984.37   60.83
   4  -9   5  957.16  118.27
  -4   9  -6  541.19  122.23
   4  -9   6  580.78  127.28
  -4   9  -7  624.65   65.10
   4  -9   7  523.66   68.13
   4 -10  -3 2082.67  137.03
   4 -10  -2 1735.34  158.71
   4 -10  -1 1107.88  106.48
   4 -10   0  692.36  127.97
   4 -10   1 1019.53   93.24
   4 -10   2 1001.08   76.59
   4 -10   3  675.42   71.28
   5   0 -15 3689.70  159.31
   5   0 -15 3254.34  234.24
   5   0 -14 1557.62  126.10
   5   0 -14 1264.27  126.12
   5   0 -13  258.24  127.80
   5   0 -13  253.51  124.44
   5   0 -12 1729.25  115.96
   5   0 -12 1716.47  151.60
   5   0 -11 3705.16  161.41
   5   0 -11 4383.48  331.76
   5   0 -10 1135.12  187.82
   5   0 -10 1488.21  199.90
   5   0  -9  861.62   78.24
   5   0  -9  952.88   94.12
   5   0  -8  957.37   72.59
   5   0  -8 1290.65  176.09
   5   0  -7 3718.17  116.29
   5   0  -7 3455.22  122.13
   5   0  -6 9660.51  347.01
   5   0  -6 9748.61  350.32
   5   0  -5 1606.34   77.39
   5   0  -5 1738.53   80.47
   5   0  -413582.28  495.85
   5   0  -413550.87  495.71
   5   0  -3 3334.45  144.96
   5   0  -3 3238.35  109.88
  -5   0   3 3215.42   86.79
   5   0  -2 3689.19  112.46
   5   0  -2 3757.29  105.32
  -5   0   2 3844.16   99.83
   5   0  -1 3062.35  118.86
   5   0  -1 3034.82   84.52
  -5   0   1 3207.83   84.31
   5   0   0 1153.78   47.09
   5   0   0 1051.92   42.51
  -5   0   0 1224.99   57.97
   5   0   120716.33  512.27
  -5   0  -120730.00  504.52
   5   0   2 1917.73   64.80
   5   0   2 1950.28   60.92
  -5   0  -2 1932.12   77.03
   5   0   3 6978.91  189.68
   5   0   3 6898.30  183.01
  -5   0  -3 7218.64  189.70
   5   0   4 4005.79  151.71
   5   0   4 3907.06  144.39
  -5   0  -4 4032.73  154.80
   5   0   5 1480.46  103.95
   5   0   5 1562.77   73.38
  -5   0  -612115.20  426.37
   5   0   611935.85  413.95
  -5   0  -7 2930.63   96.62
   5   0   7 2751.88  111.83
  -5   0  -812966.31  315.43
   5   0   813127.19  317.10
  -5   0  -9  329.25  101.90
   5   0   9  267.91   83.50
  -5   0 -1013591.58  471.23
   5   0  1013426.44  468.58
  -5   0 -11  155.04   50.64
   5   0  11  149.29   32.88
  -5   0 -1212427.55  151.16
   5   0  1211420.69  592.27
  -5   0 -13  622.32  112.33
   5   0  13  877.03   66.71
  -5   0 -14 2608.82  189.85
   5   0  14 2897.77  202.20
   5   1 -15  604.20  170.43
   5   1 -15  387.27  220.82
   5  -1 -15  552.67  197.24
   5  -1 -15  576.30  261.78
   5   1 -14 1040.08  130.92
   5   1 -14 1021.26  202.76
   5  -1 -14 1042.62   88.30
   5  -1 -14  903.33  279.11
   5   1 -13 1193.47   86.30
   5   1 -13 1409.88  202.19
   5  -1 -13 1351.68  143.55
   5  -1 -13 1028.15  119.10
   5   1 -12  207.93   74.76
   5  -1 -12  214.38   92.94
   5  -1 -12  280.76  114.32
   5   1 -11 3050.66  144.31
   5   1 -11 2842.76  139.48
   5  -1 -11 3078.45  169.99
   5  -1 -11 2697.79  184.51
   5   1 -10 2261.92  112.50
   5   1 -10 2283.62  169.45
   5  -1 -10 2297.76  121.24
   5  -1 -10 2457.86  168.01
   5   1  -9 1360.70   98.49
   5   1  -9 1348.22  112.77
   5  -1  -9 1672.46   90.04
   5  -1  -9 1428.26   99.02
   5   1  -8 5621.95  163.40
   5   1  -8 6022.55  222.34
   5  -1  -8 6508.14  184.70
   5  -1  -8 6038.09  214.90
   5   1  -7 3493.75  195.62
   5   1  -7 3474.76  114.17
   5  -1  -7 3342.96  149.13
   5  -1  -7 3889.28  202.80
   5   1  -6 1395.53   77.26
   5   1  -6 1377.06  113.45
   5  -1  -6 1524.43   72.29
   5  -1  -6 1639.40   82.75
   5   1  -5 8474.53  307.82
   5   1  -5 8316.22  307.23
   5  -1  -5 8011.39  299.23
   5  -1  -5 7669.24  284.47
   5   1  -412504.14  451.00
   5   1  -412752.69  453.22
   5  -1  -413432.73  478.33
   5  -1  -411989.90  432.92
  -5  -1   413046.34  456.34
   5   1  -3 2240.71  100.34
   5   1  -3 2229.08   93.17
   5  -1  -3 2114.02   88.89
   5  -1  -3 2221.12  100.14
  -5  -1   3 2354.48   90.45
   5   1  -2 3361.07  106.68
   5   1  -2 3329.03   95.66
   5  -1  -2 3377.21  101.81
   5  -1  -2 3189.87   96.57
  -5  -1   2 3286.28   84.38
   5   1  -1  957.47   46.43
   5   1  -1  913.71   46.00
  -5   1   1  909.45   58.01
   5  -1  -1 1005.11   44.25
   5  -1  -1  872.41   36.66
  -5  -1   1  997.24   33.15
   5   1   0  818.91   41.10
  -5   1   0  864.58   38.22
   5   1   0  824.29   28.74
   5  -1   0  946.13   42.03
   5  -1   0  866.92   41.73
  -5  -1   0  864.38   37.12
   5   1   1  154.76   52.33
  -5   1  -1  103.05   11.43
   5   1   1  102.38   13.56
   5  -1   1  129.31   30.99
   5  -1   1  173.55   62.11
  -5  -1  -1  136.09   28.09
   5   1   212847.14  331.66
  -5   1  -212630.76  316.36
   5   1   212734.13  309.86
   5  -1   212663.57  315.91
   5  -1   212714.11  321.32
  -5  -1  -213432.79  331.38
   5   1   3 1473.65   63.42
   5   1   3 1603.01   61.41
   5   1   3 1462.13   89.62
   5  -1   3 1463.05   61.41
   5  -1   3 1604.32   71.05
  -5   1  -4 4428.68  188.04
   5   1   4 4363.41  162.65
   5   1   4 4639.14  173.86
   5   1   4 4679.63  171.44
   5  -1   4 4621.03  177.54
  -5   1  -5 2109.15   88.94
   5   1   5 1972.25   79.83
   5   1   5 1956.58   88.05
   5   1   5 2022.75  113.56
   5  -1   5 2109.90   93.66
  -5   1  -6 8523.39  317.95
   5   1   6 8495.01  301.15
   5   1   6 8894.06  311.28
   5  -1   6 8977.30  316.37
  -5   1  -7 3597.97  123.69
   5   1   7 3241.88  104.10
   5   1   7 3305.41  107.05
   5  -1   7 3529.89  105.06
   5   1   8  241.99   30.32
  -5   1  -8  277.71   97.51
   5  -1   8  142.91   47.21
  -5  -1  -8  235.88   74.34
   5   1   9  670.18   47.07
  -5   1  -9  792.25   90.96
   5  -1   9  714.52   50.57
  -5  -1  -9  740.73   69.03
   5   1  10 7555.60  278.81
  -5   1 -10 7533.89  273.63
   5  -1  10 8319.97  302.26
  -5  -1 -10 7782.64  276.73
  -5   1 -11   67.73   39.49
   5   1  11   19.37   27.28
  -5  -1 -11   51.82   28.63
  -5   1 -12 4701.17  254.63
  -5  -1 -12 4451.90  239.23
   5  -1  12 4630.15  297.25
  -5   1 -13  455.36   50.55
  -5  -1 -13  224.66  131.47
   5  -1  13  369.22  158.99
   5   1  14  415.99   47.58
  -5   1 -14  430.13   65.15
   5  -1  14  493.58   80.37
  -5  -1 -14  307.82  104.71
   5   1  15 1937.88  100.48
  -5   1 -15 2032.41  118.30
   5  -1  15 2152.55  107.32
  -5  -1 -15 2090.82  107.82
   5   2 -15 1812.07  131.53
   5  -2 -15 1541.03  130.30
   5   2 -14  210.37   89.49
   5  -2 -14  180.97  101.51
   5  -2 -14   88.61  101.30
   5   2 -13   37.71   57.36
   5   2 -13   49.45   67.71
   5  -2 -13  109.86   33.90
   5   2 -12  343.94   94.14
   5  -2 -12  419.79  132.50
   5  -2 -12  553.53  171.20
   5   2 -11 1038.29  201.05
   5   2 -11  835.87  112.99
   5  -2 -11  814.02   56.24
   5  -2 -11 1033.02  176.96
   5   2 -10 4911.60  179.22
   5   2 -10 5100.16  371.47
   5  -2 -10 4990.33  165.36
   5  -2 -10 4865.94  235.45
   5   2  -9 3509.13  187.98
   5   2  -9 3575.40  302.20
   5  -2  -9 3463.10  181.82
   5  -2  -9 3316.02  179.10
   5   2  -8 2449.66  165.30
   5   2  -8 2895.63  246.39
   5  -2  -8 2434.94  134.22
   5  -2  -8 2595.34  145.52
   5   2  -7 1857.53  158.82
   5   2  -7 2020.02  174.18
   5  -2  -7 1801.96   91.53
   5  -2  -7 2037.59  179.51
   5   2  -611942.27  328.09
   5   2  -611373.10  285.76
   5  -2  -611454.61  301.95
   5  -2  -611198.05  277.73
   5   2  -5 2028.11   98.54
   5   2  -5 2059.97   91.30
   5  -2  -5 2220.42  105.94
   5  -2  -5 2211.80  100.24
  -5  -2   5 2103.25  122.11
   5   2  -4 1720.75   85.15
   5   2  -4 1629.85   69.95
   5  -2  -4 1795.14   76.69
   5  -2  -4 1842.50   81.58
  -5  -2   4 1674.10   66.14
   5   2  -310174.71  370.64
   5   2  -310021.16  356.54
   5  -2  -3 9830.27  353.27
   5  -2  -310199.06  366.08
  -5  -2   310124.14  352.97
   5   2  -2 5486.19  225.20
   5   2  -2 5331.47  190.44
   5  -2  -2 5387.98  198.37
   5  -2  -2 5288.32  207.33
  -5  -2   2 5540.49  193.19
   5   2  -1 2876.08   94.23
   5   2  -1 2942.21   76.38
   5  -2  -1 3020.50   90.61
   5  -2  -1 2890.39   91.29
  -5  -2   1 2957.38   73.11
   5   2   0 5413.33  152.63
   5  -2   0 5208.22  142.20
   5  -2   0 5613.79  153.79
   5   2   1 4363.57  133.24
   5  -2   1 4278.52  127.06
   5  -2   1 4216.93  117.00
   5   2   2  446.26   39.70
   5   2   2  407.70   35.83
   5   2   2  405.97   17.26
   5  -2   2  526.04   82.07
   5  -2   2  468.05   26.46
  -5   2  -3  489.01   53.56
   5   2   3  463.72   59.90
   5   2   3  419.99   47.41
   5   2   3  381.55   17.84
   5  -2   3  450.75   50.09
  -5   2  -4 2358.70   99.83
   5   2   4 2239.42  100.22
   5   2   4 2183.84   87.07
   5   2   4 2136.55   85.21
   5  -2   4 2139.45   85.04
   5   2   5 2445.22   98.29
   5   2   5 2258.89  117.34
   5   2   5 2303.77  107.83
   5  -2   5 2476.97  137.96
  -5   2  -6 8787.89  233.43
   5   2   6 8638.00  204.93
   5   2   6 9169.08  226.21
   5   2   6 8924.86  211.48
   5  -2   6 9056.76  233.38
  -5   2  -7 2270.82   79.86
   5   2   7 2350.11   87.47
   5  -2   7 2480.48  105.04
  -5   2  -8 3915.80  168.16
   5   2   8 3610.63  123.19
   5  -2   8 4183.03  168.95
  -5   2  -9 1522.79   85.39
   5   2   9 1562.35   83.98
   5  -2   9 1581.67  135.52
  -5   2 -10 2030.43   89.04
   5   2  10 1844.57   96.90
   5   2  10 1955.36   82.70
   5  -2  10 1884.82   81.55
  -5   2 -11 1041.95   60.71
   5   2  11  967.96   62.95
   5  -2  11  907.55   64.40
   5   2  12   88.20   40.98
  -5   2 -12   83.58   37.52
   5  -2  12   13.24   28.22
  -5  -2 -12   36.15   25.02
   5   2  13 2044.27  142.27
  -5   2 -13 2070.78  140.08
   5  -2  13 1488.69  110.16
  -5  -2 -13 1895.72  122.89
  -5   2 -14  356.60   54.16
   5   2  14  362.96   51.40
  -5  -2 -14  285.63   90.27
  -5   2 -15  373.31   46.57
   5   2  15  298.50   46.30
   5  -2  15  106.14   93.59
   5   3 -15 2081.83  152.33
  -5  -3  15 1966.38  134.45
   5   3 -14  631.27  197.98
   5  -3 -14  514.82  273.41
  -5  -3  14  605.67   75.09
   5   3 -13  749.71  110.27
   5  -3 -13  354.76  126.52
   5  -3 -13  449.51  175.87
  -5  -3  13  595.03   57.04
   5   3 -12  446.99  144.14
   5  -3 -12  382.30  115.98
   5  -3 -12  456.12  144.65
  -5  -3  12  578.71   59.27
   5   3 -11 4968.51  281.06
   5  -3 -11 4324.93  272.78
   5  -3 -11 4566.16  265.23
  -5  -3  11 4371.91  252.94
   5   3 -10 5222.89  243.58
   5  -3 -10 5382.70  225.67
   5  -3 -10 4974.97  261.71
   5   3  -9 2956.36  136.87
   5   3  -9 2960.16  127.55
   5  -3  -9 3130.00  141.47
   5  -3  -9 2938.95  177.86
   5   3  -8 1227.34  170.87
   5   3  -8  959.79   60.10
   5  -3  -8  977.42  109.56
   5  -3  -8 1022.65   91.93
   5   3  -7  449.80   84.46
   5   3  -7  270.10   39.46
   5  -3  -7  349.15   32.86
   5  -3  -7  287.83  141.26
   5   3  -6  235.15   86.12
   5  -3  -6  277.21   65.74
   5  -3  -6  267.92   71.28
   5   3  -5 1008.31   64.65
   5  -3  -5  823.07   65.09
  -5  -3   5  819.24   65.35
   5  -3  -5  760.01  110.75
  -5  -3   5  967.36   93.98
   5   3  -4 6081.83  233.43
   5  -3  -4 6034.39  233.35
  -5  -3   4 5947.51  217.83
   5  -3  -4 5842.95  236.08
  -5  -3   4 5923.83  210.92
   5   3  -3 5919.06  224.30
   5  -3  -3 6164.38  221.42
  -5  -3   3 6034.91  208.46
   5  -3  -3 5978.78  219.68
  -5  -3   3 6324.90  219.15
   5   3  -2 1120.28   62.45
   5  -3  -2 1191.42   53.54
   5  -3  -2 1195.27   77.72
  -5  -3   2 1299.09   46.61
  -5  -3   2 1279.16   45.87
   5   3  -1 5073.85  194.87
   5  -3  -1 5002.76  184.97
   5  -3  -1 4705.11  180.64
   5   3   0 6856.65  258.65
   5  -3   0 6313.53  231.03
   5  -3   0 6497.99  242.84
   5   3   1 1358.76   65.15
   5  -3   1 1261.37   58.19
   5  -3   1 1305.81   56.21
  -5   3  -2 1252.09   58.16
   5   3   2 1276.04   60.95
   5  -3   2 1298.17   56.18
  -5   3  -316934.82  584.14
   5   3   316888.61  580.58
   5   3   318241.34  391.64
   5   3   317177.46  368.40
   5  -3   317023.75  387.29
  -5   3  -414149.23  492.67
   5   3   414584.56  508.03
   5   3   415282.66  518.00
   5   3   414607.24  494.64
   5  -3   414055.06  482.69
  -5   3  -5 1992.30   75.66
   5   3   5 2061.02   64.73
   5   3   5 2175.08   68.07
   5   3   5 1902.52   56.09
   5  -3   5 1996.41  100.66
  -5   3  -6 1040.70   81.96
   5   3   6  936.49   71.25
   5   3   6 1000.90   59.86
   5   3   6  906.55   50.31
   5  -3   6  901.11   54.52
  -5   3  -7 3810.92  137.69
   5   3   7 4115.38  138.03
   5  -3   7 4295.41  153.11
  -5   3  -8 6673.74  324.18
   5   3   8 6859.11  323.86
   5   3   8 7082.69  337.13
   5  -3   8 6686.67  319.07
  -5   3  -9 4484.53  183.08
   5   3   9 4127.09  154.50
   5   3   9 4361.44  168.22
   5  -3   9 4571.67  176.90
  -5   3 -10 3136.60  140.92
   5   3  10 2688.41  108.98
   5   3  10 2840.91  125.60
   5  -3  10 2777.79  125.86
  -5   3 -11 1340.32  210.09
   5   3  11 1136.65   76.77
   5   3  11 1187.54   64.51
   5  -3  11 1362.86   91.77
  -5   3 -12 4036.28  227.34
   5   3  12 3686.21  180.96
   5   3  12 3862.52  202.04
   5  -3  12 4140.27  211.70
  -5   3 -13  368.26  144.67
   5   3  13  329.19   42.24
   5  -3  13  439.82  117.71
  -5   3 -14 1226.58  117.26
   5   3  14 1079.21  110.32
   5  -3  14 1271.05  119.69
  -5   3 -15  297.49  174.66
   5   3  15  668.29   73.75
   5  -3  15  628.12   72.70
   5   4 -14 8936.15  520.15
   5  -4 -14 9736.13  537.23
  -5  -4  14 9982.24  529.73
   5   4 -13  262.54  105.13
  -5  -4  13  230.14   38.32
   5   4 -12 1615.22  130.14
   5  -4 -12 1546.91  131.82
  -5  -4  12 1640.99  118.27
   5   4 -11 2445.91  174.01
   5  -4 -11 2300.41  142.23
   5  -4 -11 2702.42  134.64
  -5  -4  11 2829.29  120.07
   5   4 -10 1537.07  131.40
   5  -4 -10 1719.92  113.68
   5  -4 -10 1531.37  108.23
  -5  -4  10 1824.85  118.12
   5   4  -9 1971.21  141.20
   5  -4  -9 1754.42   72.08
   5  -4  -9 2033.93  106.12
  -5  -4   9 1577.24   94.75
   5   4  -8 1941.06  176.64
   5  -4  -8 2011.09  101.96
   5  -4  -8 1880.81  120.03
  -5  -4   8 1894.54   86.99
   5   4  -7 4034.34  214.22
   5  -4  -7 3917.07  216.24
   5  -4  -7 4093.42  227.25
  -5  -4   7 4393.91  216.56
   5   4  -6 2888.23  173.13
   5  -4  -6 2974.77  132.70
   5  -4  -6 2861.46  182.96
  -5  -4   6 2938.02  128.49
   5   4  -5 2896.57  105.66
   5  -4  -5 2807.37  115.46
  -5  -4   5 2983.72   90.96
   5  -4  -5 3189.53  105.29
  -5  -4   5 3164.46   84.25
   5   4  -4 2264.84   88.70
   5  -4  -4 2169.90  117.94
  -5  -4   4 2085.32  105.21
   5  -4  -4 2346.96   86.63
  -5  -4   4 2126.25  104.58
   5   4  -3   83.59   40.93
   5  -4  -3  110.55   32.80
  -5  -4   3   90.87   18.82
   5  -4  -3  152.77   52.16
  -5  -4   3  107.80   22.89
   5   4  -2 2157.80   81.70
   5  -4  -2 2295.27   71.43
   5  -4  -2 2018.59   69.59
  -5  -4   2 2322.92   50.92
   5   4  -1 4605.85  132.80
   5  -4  -1 4529.96  129.90
   5  -4  -1 4511.43  123.54
   5   4   013873.95  327.99
   5  -4   014819.62  336.84
   5  -4   014706.84  335.70
   5   4   1 5849.44  174.01
   5  -4   1 6004.58  163.79
   5  -4   1 6353.33  165.55
  -5   4  -212976.86  302.70
   5   4   213712.16  330.22
   5  -4   213590.66  309.65
  -5   4  -3 2359.10   82.36
   5   4   3 2442.90   77.71
   5  -4   3 2228.73   68.99
  -5   4  -4 1176.90  121.40
   5   4   4 1259.78   84.51
   5   4   4 1222.65   51.52
   5   4   4 1211.11   56.76
   5  -4   4 1346.89   71.90
   5   4   5 4020.12   98.09
   5   4   5 4076.01  101.28
   5  -4   5 3553.33  125.41
  -5   4  -6 6485.45  212.69
   5   4   6 5822.46  182.82
   5   4   6 6556.09  202.45
   5  -4   6 6124.19  208.97
  -5   4  -7 2957.96  155.89
   5   4   7 2825.73  139.96
   5   4   7 2707.80  137.18
   5  -4   7 2556.74  130.70
  -5   4  -8  350.12  100.36
   5   4   8  491.88   58.77
   5   4   8  350.01   49.42
   5  -4   8  284.71   87.94
  -5   4  -9  112.89   40.76
   5   4   9  102.25   29.58
   5   4   9  180.34   34.42
   5  -4   9  131.76   29.66
  -5   4 -10 1396.92  100.23
   5   4  10 1522.52   89.94
   5   4  10 1380.96   92.85
   5  -4  10 1383.84   94.65
  -5   4 -11  373.96   48.04
   5   4  11  289.19   44.51
   5  -4  11  283.11  102.08
  -5   4 -12  960.24   95.10
   5   4  12  599.66  112.00
   5  -4  12  764.41   77.56
  -5   4 -13  922.87  206.60
   5   4  13 1215.51   74.69
   5  -4  13  791.75  150.09
  -5   4 -14 1127.74   96.02
   5   4  14  818.61   91.55
   5  -4  14  988.05  132.96
   5   5 -13 1432.25  143.76
   5  -5 -13 1090.99  327.11
  -5  -5  13 1408.83   84.53
   5   5 -12 2258.80  193.76
   5  -5 -12 1914.87  112.21
  -5  -5  12 2347.64   94.16
   5   5 -11  372.11  157.11
   5  -5 -11  520.41   89.84
  -5  -5  11  243.25  102.66
   5   5 -10 1362.49  272.59
   5  -5 -10 1209.01  193.77
  -5  -5  10 1208.28   80.07
   5   5  -9  496.94   65.07
   5  -5  -9  574.18   36.19
   5  -5  -9  506.62  202.10
  -5  -5   9  609.90   40.13
   5   5  -8 4228.95  230.78
   5  -5  -8 4204.18  165.22
   5  -5  -8 4339.47  225.97
  -5  -5   8 4311.56  196.94
   5   5  -7 1434.40  155.34
   5  -5  -7 1221.32   79.47
   5  -5  -7 1275.20   93.48
  -5  -5   7 1157.84   65.38
   5   5  -6  157.04   43.14
   5  -5  -6  203.64   72.99
   5  -5  -6  260.77   78.15
  -5  -5   6  222.53   33.94
   5   5  -5 2907.27  189.07
   5  -5  -5 2851.78  142.12
   5  -5  -5 2821.12  166.80
  -5  -5   5 3195.87  173.62
   5   5  -4  326.79   84.35
   5  -5  -4  216.45   80.48
  -5  -5   4  201.29   52.41
   5  -5  -4  292.21  105.69
  -5  -5   4  254.12   20.45
   5   5  -3 1646.27  142.92
   5  -5  -3 1737.88   90.41
  -5  -5   3 1686.60   87.56
   5  -5  -3 2098.17  114.95
  -5  -5   3 1734.55   84.54
   5   5  -2  156.71   93.51
   5  -5  -2  163.61   64.28
  -5  -5   2  127.45   19.73
   5  -5  -2  263.63   65.87
  -5  -5   2  178.51   10.97
   5   5  -1 4399.04  132.31
   5  -5  -1 4453.34  114.69
   5  -5  -1 3947.94  127.20
   5   5   0  438.98   50.96
   5  -5   0  483.88   44.49
   5  -5   0  483.64   44.72
  -5   5  -1 5083.71  141.57
   5   5   1 5151.15  144.40
   5  -5   1 5163.75  161.07
  -5   5  -2 6302.73  200.19
   5   5   2 6202.58  201.35
   5  -5   2 6123.34  192.71
  -5   5  -3 9436.34  292.49
   5  -5   3 9286.91  287.75
  -5   5  -4 2811.92  146.73
   5   5   4 2658.94  137.00
   5  -5   4 3035.79  121.24
  -5   5  -5 2825.80  148.37
   5   5   5 2914.25  150.40
  -5  -5  -5 2811.03  143.66
   5  -5   5 2934.11  161.78
  -5   5  -6   36.13   19.41
   5   5   6   80.47   31.60
  -5  -5  -6   62.10   23.11
   5  -5   6   60.02   33.61
  -5   5  -7 1136.22   80.07
   5   5   7 1033.82   66.75
  -5  -5  -7 1148.70   90.52
   5  -5   7 1100.31  103.66
  -5   5  -8 1525.65   84.40
   5   5   8 1493.18   57.40
  -5  -5  -8 1539.19   65.31
   5  -5   8 1644.46   80.91
  -5   5  -9 4757.89  298.53
  -5  -5  -9 4406.70  247.63
   5  -5   9 4072.90  246.45
  -5   5 -10  540.71   55.88
  -5  -5 -10  415.10   46.45
   5  -5  10  441.13   56.46
  -5   5 -11 2627.88  175.87
  -5  -5 -11 2646.15  175.57
   5  -5  11 2768.97  178.84
  -5   5 -12  206.64  117.90
   5  -5  12  205.62   89.75
  -5   5 -13  639.63  163.91
   5  -5  13  553.81   94.96
   5   6 -12  298.61  143.76
   5  -6 -12  216.56   87.13
  -5  -6  12  315.22  118.99
   5   6 -11 7734.34  184.60
   5  -6 -11 7445.91  245.61
  -5  -6  11 7757.88  170.01
   5   6 -10 1041.36  187.49
   5  -6 -10  975.84  276.98
  -5  -6  10  724.17   42.69
   5   6  -9  590.56  215.82
   5  -6  -9  498.35  164.40
  -5  -6   9  710.86   43.35
   5   6  -8  844.01   98.66
   5  -6  -8  744.42  168.62
  -5  -6   8  717.47   76.04
   5   6  -7 4689.51  267.93
   5  -6  -7 4443.78  253.18
  -5  -6   7 4858.84  253.36
   5   6  -6 2770.35  139.10
   5  -6  -6 2813.06  126.98
   5  -6  -6 2814.34  228.27
  -5  -6   6 2928.74  127.69
   5   6  -5 5460.73  217.37
   5  -6  -5 5131.61  167.08
   5  -6  -5 5193.91  264.79
  -5  -6   5 4814.64  143.44
   5   6  -4 1868.61  160.50
   5  -6  -4 1794.70   98.88
   5  -6  -4 1605.54  144.21
  -5  -6   4 1693.22   74.38
   5   6  -3 1450.48  125.86
   5  -6  -3 1396.18   76.57
   5  -6  -3 1466.90  118.91
  -5  -6   3 1403.83   59.35
   5   6  -2 2263.88  147.83
   5  -6  -2 2336.63  106.34
  -5  -6   2 2197.07   78.54
   5  -6  -2 2266.41   98.36
   5   6  -1 9204.49  440.91
   5  -6  -1 9276.89  437.44
   5  -6  -1 8536.11  422.06
   5   6   0   71.93   21.69
   5  -6   0   38.84   25.11
   5  -6   0   96.81   44.18
  -5   6  -1 6219.93  302.54
   5   6   1 5978.24  289.32
   5  -6   1 6140.62  299.48
  -5   6  -2  193.64   41.25
   5   6   2  167.29   35.14
   5  -6   2  164.13   46.72
  -5   6  -3 4473.86  209.70
   5   6   3 4013.18  153.86
   5  -6   3 4327.25  171.17
  -5   6  -4 1747.04  103.07
   5   6   4 1656.33   82.45
   5  -6   4 1605.58   95.65
  -5   6  -5 3532.93  129.56
   5   6   5 3451.59  130.73
   5  -6   5 3501.69  126.15
  -5   6  -6 1097.27  124.10
   5   6   6 1542.88   61.93
   5  -6   6 1592.57   89.79
  -5   6  -7 1424.12  155.52
   5  -6   7 1514.90  166.79
  -5   6  -8   74.45   43.01
   5  -6   8   90.67   29.97
  -5   6  -9  753.52   55.38
   5  -6   9  598.38   52.18
  -5   6 -10  558.95   54.72
   5  -6  10  443.74   62.79
  -5   6 -11  219.27   72.99
   5  -6  11  144.26   64.71
  -5   6 -12 1147.64  217.10
   5  -6  12 1434.38   99.25
   5   7 -11 1440.41  120.20
   5  -7 -11  957.98  127.90
   5   7 -10  831.93  104.00
   5  -7 -10 1017.86  115.02
   5   7  -9 5536.00  198.25
   5  -7  -9 5333.48  186.48
   5   7  -8   82.71   66.09
   5  -7  -8  141.73  108.99
   5   7  -7 2278.85  142.99
   5  -7  -7 2433.96  150.01
   5   7  -6  228.65   84.10
   5  -7  -6   83.25   82.85
   5   7  -5 1775.82   94.53
   5  -7  -5 1896.52  162.14
   5   7  -4 3407.27  197.26
   5  -7  -4 3755.78  198.70
   5  -7  -4 3407.43  194.72
   5   7  -3 2925.14  173.14
   5  -7  -3 3277.08  129.54
   5  -7  -3 3740.99  160.96
   5  -7  -2  312.23   22.55
   5  -7  -2  227.90   87.40
   5   7  -1 4370.21  184.28
   5  -7  -1 4260.76  164.09
   5  -7  -1 4648.44  201.03
   5   7   0  405.13   67.31
   5  -7   0  437.20  110.55
   5  -7   0  296.62  101.74
  -5   7  -1 3884.96  175.25
   5   7   1 3875.36  202.11
   5  -7   1 3414.74  165.38
   5   7   2  310.14  103.45
   5  -7   2  335.74  111.90
  -5   7  -3 4301.29  176.43
   5   7   3 4511.11  181.40
   5  -7   3 4437.84  176.45
  -5   7  -4 3186.24  178.35
   5  -7   4 3209.67  204.67
  -5   7  -5 1433.83   72.77
   5  -7   5 1909.86  121.82
  -5   7  -6  248.32  100.05
   5  -7   6  246.87   96.61
  -5   7  -7  601.50   59.42
   5  -7   7  542.19  115.81
  -5   7  -8 1584.86  224.40
   5  -7   8 1506.12  160.54
  -5   7  -9 3113.21  121.38
   5  -7   9 3358.73  111.71
  -5   7 -10  164.75   57.08
   5  -7  10   68.98   34.81
  -5   7 -11 3491.25  207.90
   5  -7  11 3635.89  203.38
   5   8  -9  151.55   40.01
   5  -8  -9  100.93   47.62
   5   8  -8 1244.33  125.51
   5  -8  -8 1112.94  169.14
   5  -8  -7  236.48  149.74
   5   8  -6 1930.05  179.53
   5  -8  -6 1894.92  147.73
   5  -8  -5  573.15  194.19
   5   8  -4  420.72  162.08
   5  -8  -4  492.16  104.19
   5   8  -3  373.01   40.77
   5  -8  -3  276.96  114.00
   5   8  -2 1161.60   83.37
   5  -8  -2 1169.96   65.28
   5  -8  -2 1116.55  123.15
   5   8  -1 4011.02  209.51
   5  -8  -1 4244.01  202.52
   5  -8  -1 4388.62  218.79
   5   8   0 1494.63  114.46
   5  -8   0 1595.97   86.13
   5  -8   0 1549.84  150.87
  -5   8  -1 3748.22  186.04
   5   8   1 3794.78  193.52
   5  -8   1 3732.14  186.41
  -5   8  -2  638.22   88.95
   5  -8   2  625.99  101.42
  -5   8  -3  983.97  132.53
   5  -8   3 1197.95  125.43
  -5   8  -4 1492.28  174.31
   5  -8   4 1395.39  126.83
   5  -8   5  333.84  117.14
  -5   8  -6  580.70   93.45
   5  -8   6  482.53   40.73
  -5   8  -7 4200.49  141.30
   5  -8   7 3846.70  169.62
  -5   8  -8  654.41   71.65
   5  -8   8  754.08  113.42
  -5   8  -9  151.35   69.09
   5  -8   9  154.71   94.19
   5   9  -6  105.68   37.64
   5  -9  -6   35.54   30.01
   5   9  -5  249.68  139.73
   5  -9  -5  235.71  104.63
   5   9  -4  475.84  102.45
   5  -9  -4  374.35  130.46
   5   9  -3 1270.63  108.52
   5  -9  -3  864.05  142.71
   5   9  -2 4438.13  152.18
   5  -9  -2 4161.02  140.12
   5  -9  -1  648.98  106.89
   5  -9   0  343.26   69.46
   5  -9   1   64.66   38.36
  -5   9  -2 1410.51   64.90
   5  -9   2 1584.58  148.51
  -5   9  -3 1019.63  121.90
   5  -9   3 1122.12   92.59
  -5   9  -4  849.98  147.90
   5  -9   4  785.51  106.05
  -5   9  -5 1195.33   91.05
   5  -9   5 1142.38   95.80
  -5   9  -6  838.23   79.86
   5  -9   6  564.37   62.66
   6   0 -14  937.35  152.18
   6   0 -14 1417.24  100.54
   6   0 -13 4997.89  366.76
   6   0 -13 5120.26  343.48
   6   0 -12  594.63  155.17
   6   0 -12  764.34   70.66
   6   0 -11 1493.29  183.74
   6   0 -11 1484.35  176.44
   6   0 -10 3661.75  164.14
   6   0 -10 3122.26  148.46
   6   0  -9  457.86  158.84
   6   0  -9  418.66   50.73
   6   0  -8   56.43   33.07
   6   0  -8   59.64   34.04
   6   0  -713961.60  430.99
   6   0  -714518.58  466.52
   6   0  -6  176.27   88.16
   6   0  -6  246.13   52.77
   6   0  -5 7933.61  206.50
   6   0  -5 7774.64  200.45
   6   0  -417284.30  404.83
   6   0  -417256.73  398.38
   6   0  -3  291.97   76.63
   6   0  -3  399.06   52.09
   6   0  -2 8733.67  312.18
   6   0  -2 8739.71  323.91
  -6   0   2 9300.15  317.80
   6   0  -127242.83  930.10
   6   0  -126505.31  919.60
  -6   0   126363.92  909.88
   6   0   0  119.79   51.75
   6   0   0  161.20   45.04
  -6   0   0  107.99   34.97
   6   0   1 5595.81  221.11
   6   0   1 5592.23  201.93
  -6   0  -1 5855.65  210.42
   6   0   2 2612.84  134.16
   6   0   2 2863.06  103.00
  -6   0  -2 2803.82  108.82
   6   0   3 4311.81  161.52
   6   0   3 4242.25  152.62
  -6   0  -3 4447.41  164.96
   6   0   4 8292.54  211.03
   6   0   4 8369.42  202.95
   6   0   5  327.96   36.23
   6   0   5  392.32   40.20
   6   0   6 6988.14  174.46
   6   0   6 6732.12  170.56
   6   0   7 3023.57  121.07
   6   0   7 2985.38  160.95
  -6   0  -8  501.40  112.30
   6   0   8  517.24   49.49
  -6   0  -9 1507.97   81.65
  -6   0 -11    6.95   18.03
  -6   0 -12 3622.90  184.51
  -6   0 -13  813.17  161.64
   6   0  13  609.89   50.11
  -6   0 -14 4881.71  204.59
   6   0  14 4891.95  183.56
   6   1 -14  129.83   91.57
   6  -1 -14  153.96   77.72
   6  -1 -14  346.94   62.65
   6   1 -13  213.38   61.00
   6  -1 -13  134.06   61.21
   6  -1 -13  134.39   49.74
   6   1 -12  197.35  119.99
   6  -1 -12  339.77  115.28
   6  -1 -12  354.61   49.47
   6   1 -11 2816.15  177.89
   6  -1 -11 2656.28  161.08
   6  -1 -11 3360.95  221.82
   6   1 -10  313.79  109.87
   6  -1 -10  213.68   61.74
   6  -1 -10  440.77   68.09
   6   1  -9 1177.26  199.06
   6   1  -9 1066.69   74.78
   6  -1  -9  943.08   90.19
   6  -1  -9  982.46   74.85
   6   1  -8 4913.66  252.23
   6   1  -8 5425.64  270.52
   6  -1  -8 5400.94  268.09
   6  -1  -8 4256.08  241.65
   6   1  -7 8060.80  266.22
   6  -1  -7 9195.41  292.03
   6  -1  -7 8181.18  267.89
   6   1  -610432.46  295.67
   6  -1  -610826.77  265.62
   6  -1  -6 9782.73  248.37
   6   1  -5 1142.45   62.30
   6   1  -5 1016.06   69.46
   6  -1  -5 1104.32   74.88
   6  -1  -5 1101.60  111.87
   6   1  -4 3491.60  112.12
   6   1  -4 3484.15  138.17
   6  -1  -4 3241.52  101.57
   6  -1  -4 3162.87   96.40
  -6  -1   4 3184.77   87.28
   6   1  -3 6984.23  258.02
   6   1  -3 6986.84  249.07
   6  -1  -3 6430.85  240.53
   6  -1  -3 6720.54  242.79
  -6  -1   3 6808.00  233.77
   6   1  -2 2524.80  172.62
   6   1  -2 2555.96  106.27
   6  -1  -2 2704.66  122.32
   6  -1  -2 2720.61  105.61
  -6  -1   2 2843.89  100.43
   6   1  -1 1210.31   65.73
   6   1  -1 1257.13   54.01
   6  -1  -1 1104.63   57.87
   6  -1  -1 1108.86   62.39
  -6  -1   1 1199.00   46.80
   6   1   010572.80  383.41
   6   1   010174.61  348.07
   6  -1   0 9742.56  345.90
   6  -1   0 9635.32  335.95
  -6  -1   010562.71  359.49
   6   1   1 4290.28  162.48
   6   1   1 4395.93  153.89
   6  -1   1 4557.66  169.75
   6  -1   1 4437.34  158.02
  -6  -1  -1 4276.07  150.93
   6   1   2  232.99   32.62
   6   1   2  210.19   12.88
   6  -1   2  233.40   79.96
   6  -1   2  253.20   42.85
  -6  -1  -2  235.56   19.74
   6   1   3 2253.18   92.77
   6   1   3 2069.95   78.00
   6  -1   3 2189.04   91.02
   6  -1   3 1991.17   76.54
   6   1   4  760.20   82.83
   6   1   4  763.99   40.47
   6   1   4  778.12   55.41
   6  -1   4  890.68   70.72
   6  -1   4  822.56   41.43
   6   1   5  827.09   70.84
   6   1   5  753.53   37.86
   6   1   5  770.44   55.30
   6  -1   5  855.27   81.81
   6  -1   5  875.79   68.77
  -6   1  -6 4887.86  132.64
   6   1   6 4523.08  120.85
   6  -1   6 4723.56  141.76
  -6   1  -7 1120.01   73.42
   6   1   7 1015.88   62.28
   6   1   7  962.83   61.04
   6  -1   7 1011.05   92.31
  -6   1  -812508.57  600.75
   6   1   812530.45  582.43
   6   1   813414.07  622.68
   6  -1   813356.69  621.00
  -6   1  -9 7589.16  303.30
   6   1   9 8306.12  293.55
   6   1   9 8087.71  288.55
   6  -1   9 7729.35  276.47
  -6   1 -10  251.58   66.15
   6   1  10  264.85   65.32
   6   1  10  361.33   55.62
   6  -1  10  376.07   99.60
  -6   1 -11  194.33   57.63
   6   1  11   88.33   52.56
   6  -1  11  124.90   34.83
   6   1  12 2245.97  166.65
  -6   1 -12 2260.61  141.05
   6  -1  12 2319.95  128.73
  -6  -1 -12 2343.14  133.43
   6   1  13 1365.32  110.94
  -6   1 -13 1360.52  103.43
   6  -1  13 1030.97  104.15
  -6  -1 -13 1237.21  132.45
  -6   1 -14 1693.28  141.09
   6   1  14 1654.54  109.40
  -6  -1 -14 1712.85   79.71
   6   2 -14 2722.05  148.15
   6   2 -14 2864.22  185.56
   6  -2 -14 2598.88  119.86
   6  -2 -14 2726.69  184.02
   6   2 -13 3037.96  215.39
   6   2 -13 2868.12  203.85
   6  -2 -13 3002.09  205.76
   6  -2 -13 2563.72  196.15
   6   2 -12  480.21  141.82
   6   2 -12  421.83  136.43
   6  -2 -12  543.16  132.11
   6  -2 -12  443.30  181.14
   6   2 -11 2638.09  124.10
   6   2 -11 2366.79  113.43
   6  -2 -11 2491.35  107.05
   6  -2 -11 2679.36  126.27
   6   2 -10  340.73  114.94
   6   2 -10  398.76  151.76
   6  -2 -10  450.39   97.15
   6  -2 -10  463.52  133.97
   6   2  -9  297.95  129.94
   6   2  -9  281.54  101.46
   6  -2  -9  281.42   62.64
   6  -2  -9  364.70  106.47
   6   2  -8 1460.69   93.36
   6   2  -8 1494.99  157.41
   6  -2  -8 1124.85   98.49
   6  -2  -8 1309.35  146.47
   6   2  -7   44.91   37.67
   6   2  -7   29.46   40.37
   6  -2  -7   30.28   21.88
   6  -2  -7   35.04   35.45
   6   2  -6  661.91   96.98
   6   2  -6  812.64  105.15
   6  -2  -6  759.71   73.31
   6  -2  -6  833.22  105.19
   6   2  -5 2514.71  102.35
   6   2  -5 2284.73   74.62
   6  -2  -5 2093.76  114.71
   6  -2  -5 2084.89  131.29
   6   2  -4 7828.17  262.58
   6   2  -4 7826.35  199.31
   6  -2  -4 7549.92  192.01
   6  -2  -4 8004.43  214.44
  -6  -2   4 7978.25  182.20
   6   2  -3 1553.95   94.50
   6   2  -3 1448.26   58.50
   6  -2  -3 1620.48   62.23
   6  -2  -3 1717.38   63.67
  -6  -2   3 1662.27   46.65
   6   2  -2 8579.70  312.30
   6   2  -2 8167.39  282.21
   6  -2  -2 7577.16  279.62
   6  -2  -2 7629.22  277.61
  -6  -2   2 8232.88  278.68
   6   2  -1  772.91   68.68
   6   2  -1  735.10   33.56
   6  -2  -1  602.38   59.55
   6  -2  -1  685.78   50.00
  -6  -2   1  594.98   24.55
   6   2   0 4660.81  188.06
   6   2   0 5097.24  173.86
   6  -2   0 4572.81  189.05
   6  -2   0 5010.24  185.82
  -6  -2   0 4914.55  167.05
   6   2   1 1721.42  149.14
   6   2   1 1751.81   61.68
   6   2   1 1748.01   61.11
   6  -2   1 1864.36   79.67
   6  -2   1 1847.90   85.67
   6   2   2 3646.45  140.87
   6   2   2 3761.40  132.48
   6   2   2 3722.15  127.24
   6  -2   2 3495.89  134.05
   6  -2   2 3630.22  133.90
   6   2   3 5056.12  133.50
   6   2   3 5514.02  134.83
   6   2   3 5398.23  119.97
   6  -2   3 4997.24  131.77
   6  -2   3 5727.88  141.65
   6   2   4 4983.01  131.90
   6   2   4 4700.08  107.45
   6   2   4 4795.22  121.08
   6  -2   4 4830.83  157.04
   6  -2   4 4980.36  135.53
   6   2   5 8975.00  215.72
   6   2   5 9387.34  231.66
  -6   2  -6  695.42  103.98
   6   2   6  623.03   62.59
   6   2   6  577.22   40.38
   6  -2   6  629.39   57.89
  -6   2  -7  847.47   67.60
   6   2   7  846.71   50.02
   6   2   7  810.60   51.52
   6  -2   7  872.66   50.95
  -6   2  -8   50.05   31.78
   6   2   8   29.03   16.54
   6  -2   8   68.19   27.41
  -6   2  -9  975.01   69.44
   6   2   9  855.75   71.01
   6  -2   9 1116.13   99.75
  -6   2 -10 3889.07  184.45
   6   2  10 3550.75  142.14
   6   2  10 3492.74  157.20
   6  -2  10 3730.60  155.96
  -6   2 -11 1272.09  106.10
   6   2  11 1257.25   45.50
   6   2  11 1113.25  122.80
   6  -2  11 1113.52   74.09
  -6   2 -12  528.98   61.57
   6   2  12  753.55   69.66
   6   2  12  572.06   94.45
   6  -2  12  609.17   69.29
  -6   2 -13 1637.22  121.96
   6   2  13 1383.31  102.84
   6   2  13 1327.27  126.07
   6  -2  13 1597.49  206.20
  -6   2 -14  441.93   91.24
   6   2  14  241.90  140.66
   6  -2  14  279.91  121.90
   6   3 -14 4211.00  252.88
   6  -3 -14 4567.38  282.78
  -6  -3  14 4492.54  260.40
   6   3 -13  556.96  240.25
   6  -3 -13  200.03   91.57
   6  -3 -13  373.17  149.53
  -6  -3  13  390.12   48.19
   6   3 -12 1080.54  122.13
   6  -3 -12 1096.38   87.92
   6  -3 -12  978.11  130.94
  -6  -3  12 1016.90  129.56
   6   3 -11 1750.94  119.26
   6  -3 -11 1236.12   79.58
   6  -3 -11 1521.35  137.95
   6   3 -10  610.68  164.97
   6   3 -10  605.22   49.51
   6  -3 -10  351.06   96.92
   6  -3 -10  398.91  106.61
   6   3  -9 2463.42  161.79
   6   3  -9 2406.78  116.24
   6  -3  -9 2383.85  112.20
   6  -3  -9 2064.63  116.99
   6   3  -8 1595.14  121.45
   6   3  -8 1757.22   78.41
   6  -3  -8 1603.68   93.43
   6  -3  -8 1567.42  133.03
   6   3  -7 1924.68  101.78
   6   3  -7 2435.36  103.40
   6  -3  -7 2417.27  108.57
   6  -3  -7 2090.21  150.89
   6   3  -6  410.94   48.60
   6   3  -6  290.12   30.44
   6  -3  -6  295.72   96.96
   6  -3  -6  400.81  118.68
   6   3  -5 2326.60  160.14
   6  -3  -5 2317.24  122.70
   6  -3  -5 2242.46  142.12
  -6  -3   5 2506.33  123.00
   6   3  -4 4905.29  203.47
   6  -3  -4 4713.90  174.18
   6  -3  -4 4251.98  210.32
  -6  -3   4 4538.13  106.01
  -6  -3   4 4570.98  114.17
   6   3  -3 3049.12  103.58
   6  -3  -3 3261.48  112.16
   6  -3  -3 3054.91   93.94
  -6  -3   3 3410.53   77.16
  -6  -3   3 3302.23   80.31
   6   3  -2 3319.72  107.30
   6  -3  -2 3378.27  103.43
   6  -3  -2 3418.37  115.49
   6   3  -1 2093.33  118.66
   6  -3  -1 1973.12  102.77
   6  -3  -1 2271.02  114.87
   6   3   017105.56  420.69
   6  -3   017609.92  702.44
   6  -3   017366.66  691.07
   6   3   1 4490.05  183.57
   6  -3   1 4315.04  118.18
   6  -3   1 4362.01  118.07
   6   3   2 1667.72   66.80
   6  -3   2 1754.99   63.28
   6  -3   2 1510.68   82.40
   6   3   3 2292.48   78.09
   6  -3   3 2246.01   74.56
   6  -3   3 2272.16   90.94
  -6   3  -415788.34  362.45
   6   3   415973.58  373.12
   6   3   416039.76  343.16
   6   3   415921.72  337.33
   6  -3   415945.53  354.80
  -6   3  -5 4823.12  177.17
   6   3   5 4665.64  153.85
   6   3   5 4660.11  139.08
   6  -3   5 4586.18  150.30
  -6   3  -6 3639.09  201.70
   6   3   6 3561.16  176.29
   6   3   6 3742.00  183.24
   6  -3   6 3716.88  189.92
  -6   3  -715456.74  533.25
   6   3   715886.33  727.75
   6  -3   716306.31  755.27
  -6   3  -8  510.56  147.18
   6   3   8  480.63   44.17
   6   3   8  572.36   68.42
   6  -3   8  479.69  131.79
  -6   3  -9 1256.61  134.70
   6   3   9 1244.53   42.10
   6   3   9 1092.93   61.62
   6  -3   9 1405.31   64.03
  -6   3 -10 1111.55  104.28
   6   3  10 1170.05   49.25
   6   3  10 1099.54   54.33
   6  -3  10 1191.25   71.36
  -6   3 -11  104.26   45.26
   6   3  11  224.27   36.76
   6   3  11  183.63   33.67
   6  -3  11  305.20   97.13
  -6   3 -12 1476.31  156.57
   6   3  12 1615.97  110.37
   6   3  12 1475.21  109.01
   6  -3  12 1401.88  119.67
  -6   3 -13 1350.40  202.88
   6   3  13 1441.26   76.25
   6  -3  13 1418.86  156.05
  -6   3 -14 2635.92  186.16
   6  -3  14 2920.69  181.53
   6  -4 -13  599.84  132.57
  -6  -4  13  441.08   55.07
   6   4 -12 4163.28  258.99
   6  -4 -12 4349.26  173.07
  -6  -4  12 4049.82  140.45
   6   4 -11 1299.65  121.14
   6  -4 -11 1289.96  105.24
   6  -4 -11 1549.53  180.62
  -6  -4  11 1179.80   92.35
   6   4 -10 3686.19  286.05
   6  -4 -10 3382.25  182.61
   6  -4 -10 3556.53  199.40
  -6  -4  10 3322.36  173.08
   6   4  -9  517.80  149.82
   6  -4  -9  687.01   94.36
   6  -4  -9  494.94  203.72
  -6  -4   9  642.47   46.79
   6  -4  -8 3075.06  152.58
   6  -4  -8 2859.29  143.31
  -6  -4   8 3007.47  127.66
   6   4  -7 1348.19   96.54
   6  -4  -7 1004.89   65.02
   6  -4  -7 1202.45  160.78
  -6  -4   7 1314.20   76.55
   6   4  -6  408.33  111.55
   6  -4  -6  423.30  114.42
   6  -4  -6  503.14   52.72
  -6  -4   6  367.79   37.74
   6   4  -5  948.83   88.68
   6  -4  -5 1231.30   67.59
   6  -4  -5 1073.69  100.20
  -6  -4   5 1026.14   76.64
   6   4  -4 2501.38  139.94
   6  -4  -4 2223.72  104.33
  -6  -4   4 2334.67  113.16
   6  -4  -4 2315.88  157.68
  -6  -4   4 2313.47  111.76
   6   4  -3 6052.35  207.41
   6  -4  -3 6077.66  209.27
   6  -4  -3 6570.98  222.95
  -6  -4   3 6116.03  174.53
  -6  -4   3 6133.04  175.12
   6   4  -2 2020.26  133.37
   6  -4  -2 2141.64  111.63
   6  -4  -2 2592.97  143.55
   6   4  -1  102.38   47.09
   6  -4  -1  148.12   56.10
   6  -4  -1  144.98   32.36
   6   4   0 1811.15  153.64
   6  -4   0 1705.67   82.39
   6  -4   0 1780.09   84.63
   6   4   1  463.34   61.66
   6  -4   1  407.66  113.90
   6  -4   1  440.44   96.36
   6   4   2 4045.49  177.48
   6  -4   2 4315.53  145.07
   6  -4   2 4441.79  145.59
  -6   4  -319397.98  777.43
   6   4   318785.37  572.89
   6  -4   318448.04  540.67
  -6   4  -4 6990.13  224.52
   6   4   4 6644.77  210.62
   6  -4   4 7146.86  229.16
  -6   4  -5 4071.10  209.40
   6  -4   5 4243.94  222.47
  -6   4  -6 1366.24  131.87
   6   4   6 1479.29   76.08
   6   4   6 1381.57   63.66
   6  -4   6 1281.48   80.02
  -6   4  -7 1335.89   84.15
   6   4   7 1195.09   72.21
   6   4   7 1258.10   78.77
   6  -4   7 1237.69   99.19
  -6   4  -8  338.55  101.80
   6   4   8  193.92   71.80
   6   4   8  176.33   30.95
   6  -4   8  209.11   75.05
  -6   4  -9 4056.53  246.72
   6   4   9 4263.90  225.12
   6  -4   9 4435.48  254.26
  -6   4 -10 1238.78  143.80
   6   4  10 1421.67   88.37
   6  -4  10 1170.09  110.23
  -6   4 -11   99.34   62.94
   6  -4  11   86.55   59.69
  -6   4 -12  295.31  137.27
   6  -4  12  418.94   54.06
  -6   4 -13   70.45   37.75
   6   5 -12   60.97   33.70
   6  -5 -12  140.32   65.95
  -6  -5  12   71.97   40.69
   6   5 -11  912.37  128.07
   6  -5 -11 1008.66   80.83
  -6  -5  11  921.31   60.48
   6   5 -10 1136.91  173.10
   6  -5 -10  995.08  171.16
  -6  -5  10 1070.72   81.50
   6   5  -9  723.92  116.84
   6  -5  -9  597.11   76.10
   6  -5  -9  573.89  195.41
  -6  -5   9  639.46   49.90
   6   5  -8 1353.00  148.47
   6  -5  -8 1307.61   65.75
   6  -5  -8 1229.57  215.65
  -6  -5   8 1337.74   69.83
   6   5  -7  705.71   68.69
   6  -5  -7  683.24  128.17
   6  -5  -7 1047.70   95.04
  -6  -5   7  830.19   39.71
   6   5  -6 2388.48  125.89
   6  -5  -6 2097.18   95.07
   6  -5  -6 1999.99  142.95
  -6  -5   6 1935.55   91.32
   6   5  -5  215.82   56.88
   6  -5  -5  155.29   60.48
   6  -5  -5  129.23   64.67
  -6  -5   5  128.96   36.22
   6   5  -4 3955.87  168.50
   6  -5  -4 4066.35  155.31
   6  -5  -4 3489.53  143.34
  -6  -5   4 3787.36  128.57
   6   5  -3  775.19   63.91
   6  -5  -3  600.89   44.39
   6  -5  -3  712.96   53.99
   6   5  -2 2464.98  128.00
   6  -5  -2 2397.72  111.35
   6  -5  -2 2143.08  104.78
   6   5  -1 3823.33  196.31
   6  -5  -1 4277.92  221.02
   6  -5  -1 3839.80  194.16
   6   5   0  885.33   97.00
   6  -5   0 1193.86   64.91
   6  -5   0  998.56   86.12
   6   5   1 1880.95   98.23
   6  -5   1 1798.99  127.84
   6  -5   1 1802.78  112.28
   6   5   2 1720.84  106.43
   6  -5   2 1610.46   81.18
   6  -5   2 1648.88   99.63
  -6   5  -3 1634.30  154.00
   6   5   3 1514.38   79.85
   6  -5   3 1705.49   83.74
  -6   5  -4 1700.46   89.83
   6   5   4 1690.86   87.12
   6  -5   4 1645.26   89.09
  -6   5  -5  833.12  102.84
   6   5   5  924.63   58.48
   6  -5   5  845.60  110.67
  -6   5  -6  129.17   76.37
   6   5   6   16.36   19.54
   6  -5   6   77.78   23.17
  -6   5  -7 4463.11  245.89
   6   5   7 4379.22  231.78
   6  -5   7 4437.00  257.07
  -6   5  -8 1340.81  150.38
   6  -5   8 1234.93   55.23
  -6   5  -9  440.75  147.99
   6  -5   9  443.93  134.18
  -6   5 -10  135.82   75.84
   6  -5  10  118.12   59.47
  -6   5 -11   37.32   50.08
   6  -5  11   69.72   47.77
  -6   5 -12  192.81  144.96
   6  -5  12  237.82  112.63
   6   6 -11 2150.93  153.81
   6  -6 -11 1649.56  245.60
   6   6 -10 1919.97  106.40
   6  -6 -10 1484.08  112.83
   6   6  -9 1386.67  123.87
   6  -6  -9 1110.23  182.41
   6   6  -8 2594.04  181.23
   6  -6  -8 2283.38  167.00
   6   6  -7 2900.10  167.95
   6  -6  -7 2668.27  255.56
   6   6  -6  394.76  171.13
   6  -6  -6  401.47   86.07
   6  -6  -6  458.43  138.03
   6   6  -5  822.50   86.04
   6  -6  -5  934.09   45.37
   6  -6  -5  881.38   74.58
   6   6  -4   90.60   34.67
   6  -6  -4   61.66   34.84
   6  -6  -4   93.92   53.25
   6   6  -3 3519.32  161.98
   6  -6  -3 3540.33  142.82
   6  -6  -3 3154.12  227.48
   6   6  -2 1566.63  149.09
   6  -6  -2 1724.92   67.33
   6  -6  -2 1519.79  127.52
   6   6  -1  455.02   50.18
   6  -6  -1  445.87   35.23
   6  -6  -1  339.76  114.55
   6  -6   0 2659.58   92.29
   6  -6   0 2950.67  144.06
   6   6   1 2365.93  111.39
   6  -6   1 2269.38  114.73
   6  -6   1 2443.14   95.04
  -6   6  -2  556.68   76.93
   6   6   2  619.90  124.43
   6  -6   2  662.74   67.01
  -6   6  -3 5434.95  233.38
   6   6   3 5043.86  213.13
   6  -6   3 5423.43  217.78
  -6   6  -4  149.33   53.69
   6   6   4   93.56   35.65
   6  -6   4  134.66   46.35
  -6   6  -5 1115.41  109.24
   6   6   5  990.36   97.45
   6  -6   5 1257.84   83.06
  -6   6  -6 2723.00  135.72
   6  -6   6 2828.87  175.45
  -6   6  -7  184.05   43.34
   6  -6   7  166.75   53.10
  -6   6  -8  827.85  144.27
   6  -6   8  903.25   82.14
  -6   6  -9 1044.43  208.98
   6  -6   9  838.27   83.37
  -6   6 -10   84.20   41.86
   6  -6  10   59.66   26.80
  -6   6 -11 4332.51  287.51
   6  -6  11 4254.49  236.40
   6   7  -9  385.54   99.38
   6  -7  -9  271.05   95.37
   6   7  -8  999.10  172.49
   6  -7  -8  841.78  269.27
   6   7  -7 3338.16  236.84
   6  -7  -7 3394.98  250.34
   6   7  -6 3661.37  243.02
   6  -7  -6 3556.48  233.31
   6   7  -5   57.90   61.56
   6  -7  -5   50.46   34.09
   6   7  -4 4801.93  304.98
   6  -7  -4 4358.67  225.62
   6  -7  -4 4397.39  224.68
   6   7  -3  822.69   64.53
   6  -7  -3  710.92   50.43
   6  -7  -3  722.21   65.07
   6  -7  -2  955.28   45.60
   6  -7  -2  932.46  112.30
   6   7  -1 8459.58  295.25
   6  -7  -1 8132.72  250.62
   6  -7  -1 8324.08  266.14
   6   7   0  250.69   70.18
   6  -7   0  282.14   91.16
   6  -7   0  340.14   97.66
   6   7   1 2279.90  102.62
   6  -7   1 2180.91   84.82
   6  -7   1 2456.82   96.21
   6   7   2 1066.85  138.73
   6  -7   2 1127.47   71.66
  -6   7  -3   25.46   33.68
   6   7   3   31.54   20.57
   6  -7   3   21.44   37.33
  -6   7  -4 2109.85  121.29
   6  -7   4 2343.76  151.26
  -6   7  -5  355.28  107.78
   6  -7   5  496.89   55.79
  -6   7  -6 1144.35  119.03
   6  -7   6  887.04   82.70
  -6   7  -7 5571.72  361.31
   6  -7   7 5341.82  352.21
  -6   7  -8  195.44   77.13
   6  -7   8  175.68   51.03
  -6   7  -9  332.83  143.48
   6  -7   9  249.19  122.59
   6   8  -7  361.94  210.98
   6  -8  -7  627.54  155.03
   6   8  -6 3185.40  148.51
   6  -8  -6 2820.05  150.80
   6  -8  -5  932.11  155.45
   6   8  -4 1087.21  227.18
   6  -8  -4  949.52  176.43
   6   8  -3  253.61  124.78
   6  -8  -3  289.29  100.31
   6   8  -2  799.41  144.71
   6  -8  -2  779.39   37.68
   6  -8  -2 1001.22  139.87
   6   8  -1   42.00   47.21
   6  -8  -1   30.20   26.19
   6  -8  -1   12.47   38.44
   6   8   0 2643.36  216.87
   6  -8   0 2769.36  170.55
   6  -8   0 2828.63  180.31
   6   8   1   33.55   24.68
   6  -8   1   29.78   17.08
   6  -8   1   47.46   27.97
   6  -8   2  794.04   72.45
  -6   8  -3 1927.55  133.66
   6  -8   3 1729.46  120.32
  -6   8  -4   63.59   33.87
   6  -8   4   84.34   31.50
   6  -8   5 1684.99   70.81
  -6   8  -6  181.79   61.93
   6  -8   6  296.16   96.93
  -6   8  -7  404.38  124.34
   6  -8   7  667.51   76.43
   6   9  -3 1204.39  100.03
   6  -9  -3 1557.74  110.02
   6   9  -2  105.68   54.51
   6  -9  -2  178.63  103.53
   6  -9  -1 1121.29   90.86
   6  -9   0 2051.35   95.25
   6  -9   1  803.60   65.84
   6  -9   1  737.98   74.63
   6  -9   2 2531.78  154.18
   6  -9   2 2954.01  170.04
  -6   9  -3  262.18  128.66
   6  -9   3  283.54  126.29
   7   0 -13   63.48   30.62
   7   0 -13   79.08   58.32
   7   0 -12  324.53  158.24
   7   0 -12  482.74   65.75
   7   0 -11  954.14  168.42
   7   0 -11  884.01  128.40
   7   0 -10  776.31  195.81
   7   0  -9 5719.93  238.19
   7   0  -8  257.45   59.61
   7   0  -7  422.47  137.81
   7   0  -611162.17  530.48
   7   0  -531776.61 1260.39
   7   0  -4 2168.59  122.13
   7   0  -311566.27  298.66
   7   0  -2  220.90   62.48
   7   0  -2  140.40   50.38
   7   0  -1 4273.72  125.80
   7   0  -1 4416.58  117.42
   7   0   0 2131.52   78.34
   7   0   0 2278.79   69.43
   7   0   110128.39  264.87
   7   0   1 9387.34  217.55
   7   0   2  -11.86   22.40
   7   0   2   12.79   12.01
   7   0   3  804.66   80.16
   7   0   3  848.04   51.04
   7   0   4  569.85   46.24
   7   0   4  503.83   32.55
   7   0   5 1366.71   78.25
   7   0   5 1215.04   67.06
   7   0   6  441.90   44.80
   7   0   6  379.27   41.00
   7   0   7  499.91   59.94
   7   0   7  406.27   33.78
   7   0   8 2777.66  138.57
   7   0   8 2582.99   94.93
   7   0   911266.29  437.13
   7   0   911882.24  438.30
   7   0  10  262.19   75.45
   7   0  10  223.83   73.33
   7   0  11  966.83   88.94
   7   0  11  811.45   46.10
  -7   0 -12   63.79   48.57
   7   0  12   95.82   35.66
  -7   0 -13  889.11   85.06
   7   0  13  950.70   92.18
   7   0  14 2143.06  134.59
   7   1 -13 1269.06  126.27
   7   1 -13 1356.01   93.29
   7  -1 -13 1195.80  193.68
   7  -1 -13 1423.01   92.81
   7   1 -12 1512.54  126.36
   7   1 -12 1369.59  119.95
   7  -1 -12 1472.07  129.14
   7  -1 -12 1165.69  135.33
   7   1 -11  165.68   39.00
   7   1 -11   44.91   53.11
   7  -1 -11   50.60   43.19
   7  -1 -11   73.23   41.75
   7   1 -10   58.28   41.15
   7   1 -10   34.76   53.84
   7  -1 -10   28.70   41.90
   7  -1 -10   49.92   41.67
   7   1  -9  875.64  128.85
   7   1  -9  768.85  104.21
   7  -1  -9  919.68   60.56
   7  -1  -9 1050.29  149.83
   7   1  -8 2268.81  136.16
   7   1  -8 1948.06  119.26
   7  -1  -8 1874.18  126.10
   7  -1  -8 1847.25   88.27
   7   1  -7 6511.59  254.81
   7   1  -7 6610.33  246.85
   7  -1  -7 6669.53  288.41
   7  -1  -7 6838.37  270.16
   7   1  -6 1359.84   82.89
   7   1  -6 1362.78  153.83
   7  -1  -6 1382.75   84.36
   7  -1  -6 1420.76  103.43
   7   1  -5 4829.72  173.90
   7   1  -5 5495.01  195.67
   7  -1  -5 4980.32  175.60
   7  -1  -5 4929.31  169.83
   7   1  -4 1763.59  187.90
   7   1  -4 1376.50   93.75
   7  -1  -4 1466.93  143.89
   7  -1  -4 1141.29  114.00
   7   1  -3 1863.52   98.55
   7   1  -3 1925.77   91.06
   7  -1  -3 1625.20  156.45
   7  -1  -3 1960.13  103.38
   7   1  -2 5332.15  152.68
   7   1  -2 5052.26  149.66
   7  -1  -2 4747.97  166.64
   7  -1  -2 4922.80  135.62
  -7  -1   2 5167.69  117.95
   7   1  -1 6996.39  183.68
   7   1  -1 7209.24  174.63
   7  -1  -1 7042.20  182.94
   7  -1  -1 6932.94  173.76
  -7  -1   1 7369.63  164.16
   7   1   0  477.01   92.14
   7   1   0  356.34   64.13
   7  -1   0  375.37   90.12
   7  -1   0  483.86   47.67
  -7  -1   0  388.91   27.11
   7   1   1 5272.58  186.91
   7   1   1 5505.91  134.32
   7  -1   1 5069.99  158.45
   7  -1   1 5187.68  126.94
  -7  -1  -1 4839.82  115.58
   7   1   2 1388.97   75.08
   7   1   2 1380.46   61.58
   7  -1   2 1457.30   77.21
   7  -1   2 1365.72   70.96
  -7  -1  -2 1458.23   67.61
   7   1   3  864.34   53.95
   7   1   3  689.78   32.53
   7  -1   3  700.39   47.92
   7  -1   3  780.11   42.87
   7   1   4 1933.09  146.63
   7   1   4 2085.82  104.08
   7  -1   4 2197.69  116.93
   7  -1   4 1908.55   97.39
   7   1   5 1594.24   89.77
   7   1   5 1585.72   92.97
   7  -1   5 1486.52   84.10
   7  -1   5 1657.70   87.15
   7   1   6  142.31   31.26
   7   1   6  156.18   19.55
   7  -1   6  159.51   38.82
   7   1   7 5545.54  213.60
   7   1   7 5847.61  205.46
   7  -1   7 6377.45  238.85
   7   1   8  976.89   62.00
   7   1   8 1085.41   65.74
   7  -1   8 1128.53   73.95
  -7   1  -9   28.19   23.47
   7   1   9   19.12   24.91
   7   1   9   20.76   14.83
   7  -1   9   27.38   18.77
  -7   1 -10  323.30  105.50
   7   1  10  326.35  115.12
   7   1  10  378.17   52.66
   7  -1  10  388.15   46.40
  -7   1 -11  106.43   49.21
   7   1  11   80.93   44.83
   7  -1  11  214.99   45.06
  -7   1 -12  352.97   82.11
   7   1  12  435.89   41.02
   7   1  12  401.33   65.88
   7  -1  12  333.35  109.25
  -7   1 -13 5953.75  210.95
   7   1  13 6579.67  116.23
   7   1  13 6218.06  218.62
   7  -1  13 6363.46  125.24
   7   2 -13  517.24  111.75
   7   2 -13  318.78  143.47
   7  -2 -13  270.90  146.51
   7  -2 -13  303.98  131.73
   7   2 -12 2902.20  127.15
   7   2 -12 2845.47  118.93
   7  -2 -12 2570.53  118.25
   7  -2 -12 2466.29  126.54
   7   2 -11 1609.79  123.58
   7   2 -11 1636.52  260.82
   7  -2 -11 1591.32  128.17
   7  -2 -11 1730.48  160.77
   7   2 -10  686.05  202.15
   7   2 -10  749.76   81.34
   7  -2 -10  987.17   61.91
   7  -2 -10  829.54   68.71
   7   2  -9 4047.63  233.80
   7   2  -9 3886.28  217.07
   7  -2  -9 3949.02  251.56
   7  -2  -9 4417.93  251.85
   7   2  -8 1597.68   88.97
   7   2  -8 1366.67  120.32
   7  -2  -8 1995.87  100.15
   7  -2  -8 1545.43  146.63
   7   2  -7 1216.65   93.45
   7   2  -7 1145.00  115.91
   7  -2  -7  985.60   67.83
   7  -2  -7 1190.51  169.11
   7   2  -6 1951.47  134.74
   7   2  -6 1905.88  101.03
   7  -2  -6 1908.15  117.45
   7  -2  -6 1786.30  107.67
   7   2  -5 1753.68  119.16
   7   2  -5 1710.64   83.49
   7  -2  -5 1433.36  122.84
   7  -2  -5 1479.48   93.49
   7   2  -4 4072.84  153.69
   7   2  -4 3823.21  127.12
   7  -2  -4 3693.68  136.64
   7  -2  -4 3751.49  133.88
  -7  -2   4 3738.40  122.18
   7   2  -3 6917.99  229.74
   7   2  -3 6884.02  209.79
   7  -2  -3 6474.33  216.91
   7  -2  -3 6526.24  251.97
  -7  -2   3 6539.76  190.16
   7   2  -2  231.71   49.72
   7   2  -2  185.54   48.25
   7  -2  -2  230.43   69.47
   7  -2  -2  205.40   75.26
  -7  -2   2  193.49   13.85
   7   2  -1  625.12   65.07
   7   2  -1  665.54   33.07
   7  -2  -1  549.80   66.12
   7  -2  -1  779.63   76.54
  -7  -2   1  566.96   36.54
   7   2   0 3065.50  101.17
   7   2   0 2984.66   69.88
   7  -2   0 2814.46   90.07
   7  -2   0 2585.62  104.90
  -7  -2   0 2801.07   65.04
   7   2   1  241.91   85.21
   7   2   1  193.76   22.13
   7   2   1  202.19   25.04
   7  -2   1  276.65  105.96
   7  -2   1  264.01   39.70
   7   2   2 1945.83   96.00
   7   2   2 1757.14   74.30
   7   2   2 1752.93   71.70
   7  -2   2 1829.29   90.44
   7  -2   2 1745.57   79.35
   7   2   310604.76  353.77
   7   2   310744.65  307.05
   7  -2   310667.90  326.00
   7  -2   311047.62  335.14
   7   2   4 1354.11  121.40
   7   2   4 1350.11   66.97
   7  -2   4 1420.57   82.25
   7  -2   4 1519.83   80.37
   7   2   5 5420.19  274.89
   7   2   5 4899.25  226.64
   7  -2   5 5159.35  272.67
   7  -2   5 5423.64  271.33
   7   2   6  491.38   41.38
   7   2   6  459.30   37.44
   7  -2   6  422.69   48.45
   7  -2   6  481.46   37.21
  -7   2  -7 2866.59  104.92
   7   2   7 2561.36   98.26
   7   2   7 2918.37   92.34
   7  -2   7 2440.52  132.74
  -7   2  -8  118.84   65.06
   7   2   8  216.18   80.92
   7   2   8  188.64   19.37
   7  -2   8  206.60   47.77
  -7   2  -9  756.51   63.58
   7   2   9  884.88   42.14
   7  -2   9  796.40   44.60
  -7   2 -10 2953.84  136.15
   7   2  10 2582.43   98.90
   7   2  10 2644.86  132.74
   7  -2  10 2718.37  156.47
  -7   2 -11 1163.72  114.00
   7   2  11  971.90  118.23
   7   2  11  856.37   76.50
   7  -2  11 1065.57   79.84
  -7   2 -12  613.79  144.86
   7   2  12  795.57   54.38
   7   2  12  937.71  102.09
  -7   2 -13  331.21  102.74
   7   2  13  258.42  112.94
   7   3 -13 2324.11  158.51
   7  -3 -13 1953.80  145.01
  -7  -3  13 2150.54  144.87
   7   3 -12 1376.57   96.00
   7  -3 -12 1281.46  116.78
   7  -3 -12 1448.04  100.55
  -7  -3  12 1105.15  153.48
   7   3 -11   16.25   43.96
   7   3 -11   41.10   26.44
   7  -3 -11    9.60   28.05
   7  -3 -11   54.32   42.71
   7   3 -10  183.88   91.66
   7   3 -10  231.17   36.29
   7  -3 -10  153.51   60.27
   7  -3 -10  117.69   44.87
   7   3  -9   30.42   58.40
   7  -3  -9   81.12   50.76
   7  -3  -9   24.39   36.82
   7   3  -8 1466.98  108.54
   7   3  -8 1208.00   72.36
   7  -3  -8 1202.37   69.21
   7  -3  -8 1194.30  141.38
   7   3  -7 4319.87  194.99
   7   3  -7 3846.03  156.98
   7  -3  -7 3625.74  154.73
   7  -3  -7 3890.28  174.44
   7   3  -6  765.42   68.01
   7   3  -6  662.93   71.63
   7  -3  -6  870.58  100.75
   7  -3  -6  786.92   96.59
   7   3  -5  836.44  100.30
   7   3  -5  837.09   48.08
   7  -3  -5  773.90   53.88
   7  -3  -5  755.55   77.28
   7   3  -4  228.20   47.38
   7  -3  -4  145.60   57.99
   7  -3  -4  105.58   34.71
  -7  -3   4  113.69   16.21
   7   3  -3  809.86  116.30
   7  -3  -3  640.88   62.39
   7  -3  -3  685.18   59.52
  -7  -3   3  692.12   33.00
   7   3  -2 2591.34  175.26
   7  -3  -2 2732.58  142.14
   7  -3  -2 2628.13  144.98
   7   3  -1 3262.87  124.90
   7  -3  -1 3181.93  131.60
   7  -3  -1 3121.95  109.72
   7   3   0 5327.96  181.51
   7  -3   0 5183.79  171.19
   7  -3   0 5127.34  170.55
   7   3   1 7480.66  245.05
   7  -3   1 6799.12  216.74
   7  -3   1 6802.46  236.33
   7   3   2 3525.47  133.94
   7  -3   2 3380.20  120.82
   7  -3   2 3406.32  123.94
   7   3   3 4489.26  221.93
   7  -3   3 4437.17  234.71
   7  -3   3 4626.65  222.97
   7   3   4 1173.92   96.99
   7  -3   4 1300.28   75.46
   7  -3   4 1384.43   72.81
   7   3   5 8567.55  310.08
   7  -3   5 8204.76  294.53
   7  -3   5 8064.39  308.65
  -7   3  -6 9071.75  278.96
   7   3   6 9024.35  274.72
   7  -3   6 9283.63  274.80
  -7   3  -7 1182.26   90.77
   7  -3   7 1367.05   46.06
  -7   3  -8  302.49   70.95
   7   3   8  326.78  111.50
   7  -3   8  330.64  119.61
  -7   3  -9 1885.20  155.18
   7   3   9 2024.68   83.62
   7  -3   9 2083.63   83.90
  -7   3 -10  198.61  107.81
   7   3  10  203.96   67.47
   7  -3  10  244.41   78.39
  -7   3 -11  108.07   37.99
   7   3  11   79.74   41.28
   7  -3  11  102.18   35.76
  -7   3 -12 1023.92  159.42
   7  -3  12  990.67   95.16
  -7   3 -13  345.14  118.04
   7  -3  13  298.03  117.10
   7   4 -12  393.05  138.99
   7  -4 -12  420.81   79.48
   7   4 -11 2278.40  127.88
   7  -4 -11 2204.06  162.84
   7   4 -10 4523.44  307.66
   7  -4 -10 4062.41  271.40
   7  -4 -10 3981.05  277.47
   7   4  -9 1994.65  132.85
   7  -4  -9 2033.66  116.80
   7  -4  -9 1840.24  133.21
  -7  -4   9 1812.21  104.56
   7   4  -8 1936.33  210.78
   7  -4  -8 2182.84  111.24
   7  -4  -8 2116.02  168.15
  -7  -4   8 1995.06   81.98
   7   4  -7  515.19  166.60
   7  -4  -7  313.08   91.32
   7  -4  -7  427.59  160.06
  -7  -4   7  376.29   32.21
   7   4  -6 1236.56  193.85
   7  -4  -6 1358.70   55.60
   7  -4  -6 1488.05  220.77
  -7  -4   6 1233.94   36.93
   7   4  -5 3264.25  210.61
   7  -4  -5 2989.56  118.50
   7  -4  -5 3093.16  122.62
   7   4  -4 3421.92  132.43
   7  -4  -4 3172.10  110.72
   7  -4  -4 3591.45  130.17
   7   4  -3 4000.38  175.57
   7  -4  -3 4316.19  167.29
   7  -4  -3 4192.47  187.51
   7   4  -2  912.72   62.69
   7  -4  -2  885.42   96.56
   7  -4  -2 1009.36   63.59
   7   4  -1 2680.34  120.98
   7  -4  -1 2763.23  115.40
   7  -4  -1 2399.94  100.63
   7   4   0 1243.92  135.90
   7  -4   0 1152.00   64.32
   7  -4   0  985.03   83.24
   7   4   1  309.51  125.76
   7  -4   1  426.58   68.05
   7  -4   1  418.66   50.01
   7   4   2 5304.51  202.31
   7  -4   2 5500.65  231.32
   7  -4   2 5413.26  204.21
   7   4   3 5816.64  228.28
   7  -4   3 6045.16  234.69
   7  -4   3 5751.39  222.06
   7   4   4 7543.82  259.80
   7  -4   4 7323.30  218.16
   7  -4   4 8024.03  229.29
  -7   4  -5 1494.91   91.83
   7  -4   5 1774.64  121.37
  -7   4  -6  349.96  127.25
   7   4   6  344.02  106.25
   7  -4   6  454.18   58.79
  -7   4  -7  467.76  146.36
   7   4   7  404.14   58.96
   7  -4   7  508.50   35.59
  -7   4  -8  347.97   95.75
   7   4   8  415.39   74.69
   7  -4   8  225.70   83.28
  -7   4  -9 1214.75   82.73
   7   4   9  969.00   86.23
   7  -4   9  958.82  148.90
  -7   4 -10 2416.71  200.44
   7  -4  10 2041.47  139.49
  -7   4 -11 1492.98   74.42
   7  -4  11 1490.34   92.13
  -7   4 -12 1029.60  183.54
   7  -4  12  852.90   90.58
   7   5 -11  117.55   68.30
   7  -5 -11  274.54  117.85
   7   5 -10 2482.84  126.09
   7  -5 -10 1943.57  115.14
   7   5  -9  282.96  125.93
   7  -5  -9  386.56  172.43
   7   5  -8 2849.38  198.65
   7  -5  -8 2628.78  168.30
   7  -5  -8 3233.64  217.77
   7   5  -7   92.24   51.95
   7  -5  -7   61.63   27.04
   7   5  -6 2788.81  150.44
   7  -5  -6 2973.39  121.50
   7  -5  -6 2909.40  270.81
   7   5  -5  113.91   46.81
   7  -5  -5  134.51   61.39
   7  -5  -5  136.46   73.96
   7   5  -4  622.87   72.37
   7  -5  -4  581.14  134.03
   7  -5  -4  588.61   93.03
   7   5  -3  732.72   93.77
   7  -5  -3  598.01   37.03
   7  -5  -3  735.62  172.71
   7   5  -2 1617.70  156.07
   7  -5  -2 1782.09   72.04
   7  -5  -2 1901.10   84.62
   7   5  -1 1748.02  235.01
   7  -5  -1 1685.63   53.56
   7  -5  -1 1747.34  143.44
   7   5   0 7504.02  246.65
   7  -5   0 7892.65  229.92
   7  -5   0 7334.34  219.44
   7   5   1  705.84  162.37
   7  -5   1  798.15  123.23
   7  -5   1  833.14   77.74
   7   5   2  292.68  104.19
   7  -5   2  397.18  110.11
   7  -5   2  386.43   63.63
   7   5   3 3511.17  164.42
   7  -5   3 3503.75  163.41
   7  -5   3 3548.90  150.37
   7   5   4 1430.03   69.44
   7  -5   4 1205.60   45.98
  -7   5  -5  728.74   96.47
   7   5   5  657.00   87.19
   7  -5   5  663.21  143.82
  -7   5  -6 8891.60  345.09
   7   5   6 9006.72  283.17
   7  -5   6 9152.93  115.69
  -7   5  -7 1242.96  140.59
   7   5   7 1199.09   75.29
   7  -5   7 1060.87   73.61
  -7   5  -8  169.23   62.33
   7  -5   8  161.60   53.53
  -7   5  -9  592.39  157.68
   7  -5   9  723.93   48.70
  -7   5 -10   40.76   20.50
   7  -5  10   49.28   26.36
  -7   5 -11  715.65  156.71
   7  -5  11  738.17   77.85
   7   6 -10 3550.49  226.04
   7  -6 -10 2897.04  195.88
   7  -6  -9  172.48  138.96
   7   6  -8 1449.25  197.87
   7  -6  -8 1079.64  110.16
   7   6  -7  264.51  127.41
   7  -6  -7  124.12   88.13
   7   6  -6  639.78  100.38
   7  -6  -6  712.74   95.98
   7  -6  -6  801.23  102.58
   7   6  -5 1970.78  269.04
   7  -6  -5 2081.74  115.83
   7  -6  -5 1753.91  153.02
   7   6  -4 5777.60  213.41
   7  -6  -4 5499.73  201.07
   7  -6  -4 6068.44  215.67
   7   6  -3  235.11   96.73
   7  -6  -3   78.70   37.45
   7  -6  -3  264.56   85.55
   7   6  -2 2126.98  135.15
   7  -6  -2 2365.97  148.44
   7  -6  -2 2773.22  164.70
   7   6  -1   24.99   31.04
   7  -6  -1  101.48   52.53
   7  -6  -1  159.70   94.85
   7  -6   0   26.76   20.15
   7  -6   0   -0.98   24.74
   7   6   1  452.23   78.15
   7  -6   1  374.83   33.83
   7  -6   1  302.77   40.05
   7   6   2 7001.10  371.44
   7  -6   2 6926.80  360.84
   7  -6   2 7012.54  406.86
   7   6   3   38.69   25.05
   7  -6   3    1.02   19.28
   7  -6   3   25.44   24.42
  -7   6  -4 4834.62  167.40
   7   6   4 4815.38  168.83
   7  -6   4 4375.73  153.88
  -7   6  -5 1163.16   98.56
   7   6   5 1092.83   90.30
   7  -6   5 1068.59   92.18
  -7   6  -6  442.53  129.56
   7  -6   6  520.32   54.41
  -7   6  -7 2613.49  252.85
   7  -6   7 2648.65  184.69
  -7   6  -8  587.50   88.12
   7  -6   8  616.29  159.80
  -7   6  -9  302.26  108.26
   7  -6   9  288.69  136.60
  -7   6 -10 3428.33  202.55
   7  -6  10 3525.61  204.91
   7   7  -8  436.56  204.81
   7  -7  -8  603.09  177.62
   7   7  -7   51.60   74.60
   7  -7  -7   22.57   67.06
   7   7  -6 1052.30  112.07
   7  -7  -6 1050.66  133.42
   7   7  -5  729.61   94.20
   7  -7  -5  416.25  184.29
   7   7  -4 1686.84  134.24
   7  -7  -4 1295.00  102.03
   7  -7  -4 1359.97  230.26
   7  -7  -3  229.20   83.34
   7  -7  -3  385.72  139.20
   7   7  -2 2053.83  147.48
   7  -7  -2 2302.79  146.01
   7  -7  -2 2070.73  180.62
   7   7  -1   11.82   40.38
   7  -7  -1   34.34   27.67
   7  -7  -1   32.91   18.73
   7   7   0 6423.50  393.14
   7  -7   0 6486.64  394.60
   7  -7   0 5531.60  342.08
   7   7   1 1540.38  112.93
   7  -7   1 1695.64  113.19
   7  -7   1 1516.97  114.97
   7   7   2 1759.29  126.46
   7  -7   2 1565.48  158.21
   7  -7   2 1515.77  105.17
   7   7   3  906.06  132.31
   7  -7   3  978.65   87.73
   7  -7   3 1066.52   82.89
  -7   7  -4   56.19   26.34
   7  -7   4  110.40   30.38
  -7   7  -5 1410.96  105.28
   7  -7   5 1343.81   98.86
  -7   7  -6 4990.11  187.05
   7  -7   6 4215.58  213.94
  -7   7  -7  199.30   83.53
   7  -7   7  199.39   91.36
  -7   7  -8 2685.86  161.40
   7  -7   8 2527.67  148.99
   7   8  -5 3904.09  234.68
   7  -8  -5 3202.11  222.18
   7   8  -4 5061.67  203.07
   7  -8  -4 5493.54  213.94
   7   8  -3  187.82   75.40
   7  -8  -3  147.56   88.23
   7   8  -2 1631.31   93.74
   7  -8  -2 1465.19  106.40
   7   8  -1 1716.49   98.14
   7  -8  -1 1809.60   68.62
   7  -8  -1 2060.84  153.00
   7   8   0  434.32   88.27
   7  -8   0  317.91   99.96
   7  -8   0  409.86  122.39
   7  -8   1  142.48   69.86
   7  -8   1  169.25   80.79
   7  -8   2 2270.07  103.48
   7  -8   2 2016.62   91.57
   7  -8   3  115.92   39.55
   7  -8   3  114.33   56.70
  -7   8  -4 2099.90   97.18
   7  -8   4 1644.50  152.96
  -7   8  -5  142.02   58.86
   7  -8   5  258.51   74.73
   8   0 -12 2874.66  137.64
   8   0 -12 3329.73  157.99
   8   0 -11  559.13  180.54
   8   0 -11  706.18   69.39
   8   0 -10 1230.35  169.91
   8   0 -10 1576.32  120.15
   8   0  -9  294.15   45.72
   8   0  -9  146.21   35.11
   8   0  -8   19.78   37.89
   8   0  -8   32.77   24.40
   8   0  -7 8033.27  319.02
   8   0  -7 7390.93  293.30
   8   0  -6 1842.02  140.53
   8   0  -6 1929.70  114.89
   8   0  -5 1849.39   89.44
   8   0  -5 1921.75   80.85
   8   0  -4 1220.84   80.44
   8   0  -4 1081.55   96.55
   8   0  -3 3216.86  247.68
   8   0  -3 3052.80  154.94
   8   0  -2  517.32  128.63
   8   0  -2  451.30   84.77
   8   0  -1 8322.26  418.61
   8   0  -1 8732.97  413.02
   8   0   0  124.40   43.97
   8   0   0  113.97   46.75
   8   0   111811.42  558.11
   8   0   111751.01  542.64
   8   0   2  918.93   91.76
   8   0   2  904.78   52.15
   8   0   3  472.78  112.38
   8   0   3  385.14   31.69
   8   0   4 2192.13   95.74
   8   0   4 2072.85   79.12
   8   0   5  572.31  141.90
   8   0   5  501.07   40.31
   8   0   6  715.84   57.30
   8   0   6  579.44   38.13
   8   0   7  649.84   83.06
   8   0   7  603.75   48.75
   8   0   8   45.82   28.19
   8   0   8   45.98   32.39
   8   0   9  157.34   50.15
   8   0   9  173.82   74.31
   8   0  10 1118.72   87.12
   8   0  10  817.44  122.92
   8   0  11 5937.04  168.85
   8   0  11 6375.91  199.94
   8   0  12 2199.05  122.16
   8   1 -12  271.15  109.82
   8   1 -12  423.96  108.12
   8  -1 -12  387.20  169.24
   8  -1 -12  354.99  209.92
   8   1 -11  643.16  129.35
   8   1 -11  315.47  174.63
   8  -1 -11  356.90  137.82
   8  -1 -11  416.52   58.24
   8   1 -10   11.31   51.30
   8   1 -10   25.00   33.64
   8  -1 -10   14.61   42.34
   8  -1 -10   21.55   51.55
   8   1  -9 4307.39  227.78
   8   1  -9 4194.01  219.72
   8  -1  -9 4568.04  237.59
   8  -1  -9 4857.76  273.67
   8   1  -8 1334.73   82.75
   8   1  -8 1529.99  133.86
   8  -1  -8 1474.80  140.31
   8  -1  -8 1611.45  147.91
   8   1  -7 1585.40  168.48
   8   1  -7 1942.80  120.51
   8  -1  -7 1617.45  132.25
   8  -1  -7 1530.65  158.44
   8   1  -6  464.17  168.29
   8   1  -6  556.93   79.80
   8  -1  -6  409.40  158.83
   8  -1  -6  411.89  101.87
   8   1  -5 3713.70  139.31
   8   1  -5 3599.98  123.15
   8  -1  -5 3596.19  137.91
   8  -1  -5 3727.84  133.56
   8   1  -4  433.80   69.26
   8   1  -4  458.31   67.45
   8  -1  -4  572.18   93.77
   8  -1  -4  326.25  108.20
   8   1  -3 3917.53  160.58
   8   1  -3 4312.60  168.74
   8  -1  -3 4102.46  189.40
   8  -1  -3 4570.98  198.60
   8   1  -2 4389.18  224.32
   8   1  -2 4117.24  198.90
   8  -1  -2 4304.02  217.75
   8  -1  -2 4193.53  226.30
   8   1  -1 3051.12  163.33
   8   1  -1 3158.10  162.34
   8  -1  -1 3187.21  165.49
   8  -1  -1 3242.82  190.41
   8   1   0 3370.87  175.06
   8   1   0 3173.46  152.71
   8  -1   0 2871.72  159.57
   8  -1   0 3586.09  182.03
   8   1   1 2136.43  105.58
   8   1   1 1983.61   86.90
   8  -1   1 2058.01  103.37
   8  -1   1 1917.59   86.92
   8   1   2  408.00   54.41
   8   1   2  391.13   43.96
   8  -1   2  430.68  116.15
   8  -1   2  427.15   59.67
   8   1   3 2198.14   97.26
   8   1   3 2300.75   84.58
   8  -1   3 1977.41   89.60
   8  -1   3 2272.44   89.05
   8   1   4  363.93   95.45
   8   1   4  317.72   35.57
   8  -1   4  256.83   87.18
   8  -1   4  243.97   60.23
   8   1   5 2514.27   95.10
   8   1   5 2350.41   84.61
   8  -1   5 2430.38   91.09
   8  -1   5 2620.02   91.20
   8   1   6  857.20  124.73
   8   1   6  806.25   29.71
   8  -1   6  767.46  105.69
   8  -1   6  845.17   41.18
   8   1   7  944.95   81.13
   8   1   7  760.01   45.87
   8  -1   7  845.61   59.98
   8  -1   7  829.92   40.23
   8   1   8  721.10   35.83
   8  -1   8  665.64   42.71
   8  -1   8  550.53   56.87
   8   1   9 2876.75  149.87
   8   1   9 2885.99  156.42
   8  -1   9 3047.21  157.54
   8  -1   9 2901.34  173.62
   8   1  10  227.68  100.08
   8  -1  10  279.69  144.90
   8  -1  10  181.98   92.00
   8   1  11 1659.82  159.75
   8  -1  11 1762.79   96.26
   8  -1  11 1738.19   68.76
   8   1  12   88.85   56.85
   8  -1  12   92.57   50.88
   8  -1  12   54.66   44.40
   8   2 -12  223.70   86.41
   8  -2 -12  221.18   75.91
   8   2 -11  724.82  108.93
   8   2 -11 1008.71  135.92
   8  -2 -11 1204.01   71.70
   8   2 -10 1930.31  151.99
   8   2 -10 1275.53  206.41
   8  -2 -10 1944.21  146.48
   8   2  -9 1846.28  138.62
   8   2  -9 1647.83  159.99
   8  -2  -9 1790.71  129.42
   8   2  -8 2147.73  161.91
   8   2  -8 1996.73   89.97
   8  -2  -8 2117.57  131.50
   8  -2  -8 1885.46  193.02
   8   2  -7 2240.68  143.62
   8   2  -7 2447.90  163.01
   8  -2  -7 2637.55  156.43
   8  -2  -7 2351.54  211.23
   8   2  -6 2629.89  135.39
   8   2  -6 2389.58  108.30
   8  -2  -6 2322.85  112.92
   8  -2  -6 2522.79  120.12
   8   2  -5   61.61   47.58
   8   2  -5   22.40   22.98
   8  -2  -5  101.69   44.01
   8   2  -4 1765.45   88.88
   8   2  -4 1440.45   78.86
   8  -2  -4 1547.23  143.96
   8  -2  -4 1774.23   80.43
   8   2  -3 2867.20  129.33
   8  -2  -3 3268.46  138.64
   8  -2  -3 2624.37  153.83
   8   2  -2 2536.53  116.40
   8  -2  -2 2716.23  118.05
   8   2  -1 5356.27  220.32
   8  -2  -1 4893.28  186.40
   8   2   0 2255.01  104.09
   8  -2   0 2024.99   94.14
   8   2   1 5197.78  212.40
   8  -2   1 5523.97  206.93
   8   2   2  747.70  117.09
   8  -2   2  917.30   58.38
   8   2   3  351.78   58.66
   8  -2   3  367.93   37.02
   8   2   4 1205.12  105.41
   8  -2   4 1272.86   79.36
   8   2   5 1664.77  131.04
   8  -2   5 1574.98   91.07
   8   2   6  308.52   39.94
   8  -2   6  324.77   98.03
   8  -2   6  250.28   31.18
   8   2   7 2356.82  136.73
   8  -2   7 2416.13  142.28
   8  -2   7 2497.72  140.53
   8   2   8  535.43   43.45
   8  -2   8  598.76   68.35
   8  -2   8  527.68   46.63
   8   2   9  804.35  131.65
   8  -2   9  764.89  123.37
   8  -2   9  703.86   64.07
   8   2  10 2200.96  149.84
   8  -2  10 1952.95  155.40
  -8   2 -11  482.41   60.81
   8   2  11  329.95   50.16
   8  -2  11  392.81   49.28
  -8   2 -12  381.63   87.74
   8   2  12  366.44   42.90
   8  -2  12  276.58  130.65
   8   3 -11 1883.65  113.25
   8  -3 -11 1671.96   91.08
   8  -3 -11 1743.07  177.48
   8   3 -10 3465.37  142.51
   8  -3 -10 3602.44  129.20
   8  -3 -10 3367.86  239.28
   8   3  -9   66.66   73.33
   8  -3  -9  181.08  111.61
   8  -3  -9  268.75  118.34
   8   3  -8 1396.43  158.28
   8  -3  -8 1523.65   95.80
   8  -3  -8 1525.78  111.33
   8   3  -7  631.94   96.75
   8  -3  -7  670.82  143.95
   8  -3  -7  779.70  117.54
   8   3  -6  387.52  146.62
   8  -3  -6  317.02  138.08
   8  -3  -6  315.92   71.27
   8   3  -5 1221.26  211.97
   8  -3  -5 1109.19   93.52
   8  -3  -5 1003.55   58.08
   8   3  -4  719.24  145.87
   8  -3  -4  671.35   92.66
   8  -3  -4  820.92   68.19
   8   3  -310781.22  344.07
   8  -3  -310698.44  352.92
   8   3  -2  480.25   56.39
   8  -3  -2  543.15  126.88
   8  -3  -2  591.61   46.49
   8   3  -1 4047.87  173.92
   8  -3  -1 3868.74  172.66
   8  -3  -1 4132.56  267.33
   8   3   0 1158.17   85.55
   8  -3   0 1223.99   72.35
   8  -3   0 1282.88   80.55
   8   3   1  508.40  140.75
   8  -3   1  318.95  130.14
   8  -3   1  457.42   81.59
   8   3   2  506.62   51.10
   8  -3   2  589.87  113.54
   8  -3   2  566.43   89.86
   8   3   3 8601.44  271.49
   8  -3   3 8752.10  257.18
   8  -3   3 9077.18  257.30
   8   3   410308.98  409.04
   8  -3   410578.89  394.27
   8  -3   410070.86  371.18
   8   3   5 1500.81  152.75
   8  -3   5 1709.77  158.04
   8  -3   5 1669.86   84.79
   8   3   6  289.76   39.71
   8  -3   6  150.01   43.71
   8  -3   6  204.69   56.30
   8   3   7 1936.62   84.19
   8  -3   7 2001.04   87.37
   8  -3   7 1930.25  128.17
   8   3   8  657.80   63.23
   8  -3   8  655.62  113.79
  -8   3  -9 1727.16  121.92
   8   3   9 1445.50  109.71
  -8   3 -10 2800.59  101.88
   8   3  10 3228.36  105.72
  -8   3 -11  296.29  123.77
   8   3  11  601.85   84.05
   8  -3  11  519.01   57.94
   8   4 -11 2240.80  155.90
   8  -4 -11 2024.45  144.56
   8   4 -10   92.14   50.50
   8  -4 -10  103.52   38.38
   8  -4 -10   64.17   41.36
   8   4  -9 1806.22  105.32
   8  -4  -9 1753.26  194.84
   8  -4  -9 1840.00  151.32
   8   4  -8 5177.98  346.77
   8  -4  -8 5720.18  348.77
   8  -4  -8 6134.02  301.15
   8   4  -7 2610.00  158.98
   8  -4  -7 1999.66  147.42
   8  -4  -7 2017.31  196.72
   8   4  -6 2662.19  133.35
   8  -4  -6 2630.95  111.46
   8  -4  -6 2218.85  225.71
   8   4  -5 1148.36   76.04
   8  -4  -5 1073.26   59.69
   8  -4  -5 1013.67   76.39
   8   4  -4  661.07  149.83
   8  -4  -4  752.11   93.80
   8  -4  -4  743.73   80.56
   8   4  -3   55.70   92.39
   8  -4  -3   41.71   39.00
   8  -4  -3   35.69   48.98
   8   4  -2  102.43   67.50
   8  -4  -2  107.33   61.33
   8  -4  -2   61.83   40.00
   8   4  -1 2012.63  108.97
   8  -4  -1 1802.54  111.96
   8   4   0 3813.47  168.52
   8  -4   0 4087.85  196.08
   8  -4   0 4191.67  179.67
   8   4   1 4767.12  199.90
   8  -4   1 4751.41  191.66
   8  -4   1 4971.51  193.58
   8   4   2 1661.64   88.64
   8  -4   2 1610.38  141.29
   8  -4   2 1741.84  140.94
   8   4   3  391.29  110.51
   8  -4   3  342.09   82.81
   8  -4   3  282.52   59.33
   8  -4   4   38.19   48.11
   8  -4   4  124.03   27.31
   8   4   5 1489.96  144.63
   8  -4   5 1738.44  163.84
   8  -4   5 2029.23  130.14
   8   4   6 4858.78  171.48
   8  -4   6 4742.01  177.34
   8  -4   6 5023.56  168.99
   8   4   7 1045.32   70.94
   8  -4   7 1183.53  113.87
  -8   4  -8  995.02   85.12
   8   4   8 1173.37   89.19
   8  -4   8 1082.77   84.21
  -8   4  -9  115.03   40.39
   8   4   9   40.89   39.64
   8  -4   9   33.46   18.27
  -8   4 -10   77.49   51.89
   8  -4  10  111.26   40.27
  -8   4 -11  168.09   81.35
   8  -4  11  369.77   35.94
   8   5  -9 1659.19  109.48
   8  -5  -9 1444.80   96.28
   8   5  -8 1574.72  148.10
   8  -5  -8 1470.62   83.08
   8  -5  -8 1589.74   99.13
   8   5  -7  459.97  131.34
   8  -5  -7  552.97   43.19
   8  -5  -7  569.31   80.80
   8   5  -6  863.98   97.98
   8  -5  -6  835.68  115.26
   8  -5  -6 1017.02  180.53
   8   5  -5  337.51  161.34
   8  -5  -5  286.46   84.99
   8  -5  -5  420.45  125.41
   8   5  -4 3890.06  207.48
   8  -5  -4 4321.27  217.14
   8  -5  -4 3972.72  284.77
   8   5  -3   30.95   44.97
   8  -5  -3   54.25   50.90
   8  -5  -3   65.99   43.47
   8   5  -2 2150.22  225.55
   8  -5  -2 2302.53  128.39
   8  -5  -2 2151.76  107.30
   8   5  -1  903.94   92.33
   8  -5  -1 1028.37  121.25
   8  -5  -1 1045.89   78.80
   8   5   0  526.63   93.71
   8  -5   0  323.53   95.96
   8  -5   0  451.40   88.81
   8   5   1 2210.73  155.41
   8  -5   1 2060.96  115.65
   8  -5   1 2170.85   86.27
   8  -5   2 2927.16  111.26
   8  -5   2 2880.38  179.97
   8   5   3   40.20   28.78
   8  -5   3   72.07   22.15
   8  -5   3  144.14   45.04
   8   5   4 3612.23  189.82
   8  -5   4 3118.79  159.26
   8  -5   4 2967.50  216.70
   8   5   5 5630.42  305.79
   8  -5   5 5663.13  283.75
   8  -5   5 6025.94  290.13
   8   5   6 3623.55  227.51
   8  -5   6 3918.90  248.07
   8  -5   6 3724.73  227.82
  -8   5  -7  297.17  151.83
   8   5   7  353.54   60.11
   8  -5   7  392.61  135.81
  -8   5  -8 2107.96   90.23
   8  -5   8 2110.94   78.59
  -8   5  -9  329.83  133.81
   8  -5   9  288.35  122.70
   8   6  -8 3633.75  228.31
   8  -6  -8 3330.52  210.13
   8   6  -7 1258.86  227.05
   8  -6  -7 1280.55  135.16
   8   6  -6 1647.61  102.05
   8  -6  -6 1476.72   70.20
   8  -6  -6 1393.96  219.89
   8   6  -5  879.87   92.33
   8  -6  -5  753.16  138.51
   8  -6  -5  861.11  288.22
   8   6  -4  708.97  107.60
   8  -6  -4  705.28   55.73
   8  -6  -4  566.00  228.45
   8   6  -3  487.38  127.12
   8  -6  -3  661.38  154.35
   8  -6  -3  307.42   92.58
   8   6  -2 2296.46  159.27
   8  -6  -2 2603.49  177.13
   8  -6  -2 2547.44  168.97
   8   6  -1  273.50   53.22
   8  -6  -1  172.42   71.59
   8  -6  -1  155.00   76.62
   8  -6   0 6603.41  393.71
   8  -6   0 7424.15  487.08
   8   6   1  444.02   89.00
   8  -6   1  530.33   96.16
   8  -6   1  468.40   58.62
   8   6   2   83.04   60.47
   8  -6   2  105.16   29.53
   8  -6   2   65.82   32.25
   8   6   3 1827.37  127.47
   8  -6   3 1790.19  180.29
   8  -6   3 1728.75  159.23
   8   6   4 2926.38  199.78
   8  -6   4 2737.02  196.48
   8  -6   4 3042.56  199.00
   8   6   5   20.55   25.99
   8  -6   5   51.83   38.53
   8  -6   5   61.06   23.53
   8  -6   6 1608.55   69.63
  -8   6  -7   31.58   45.14
   8  -6   7   43.16   30.74
  -8   6  -8 2158.07  136.93
   8  -6   8 2402.97  148.50
   8   7  -6  117.56   80.28
   8  -7  -6   26.66   39.56
   8   7  -5   48.50   53.59
   8  -7  -5   46.59   55.27
   8   7  -4 6256.63  240.50
   8  -7  -4 6268.83  239.40
   8  -7  -3  517.40   97.91
   8  -7  -3  550.49  206.20
   8   7  -2  263.85  134.18
   8  -7  -2  470.39   62.01
   8  -7  -2  269.34  160.98
   8   7  -1 1120.66   79.29
   8  -7  -1  943.93  108.53
   8  -7  -1 1181.25   96.71
   8   7   0  105.65   75.46
   8  -7   0  154.67   76.63
   8  -7   0  142.84   66.04
   8   7   1   36.89   31.73
   8  -7   1   99.96   48.46
   8  -7   1   87.47   53.31
   8   7   2 2289.14  101.13
   8  -7   2 2143.38  111.81
   8  -7   2 1831.70   78.27
   8  -7   3 2346.89   99.94
   8  -7   3 2466.01  148.63
   8  -7   4 3027.38  121.07
   8  -7   4 3258.84  150.89
   8  -7   5  581.50  175.29
   8  -7   5  702.67   73.77
   8  -7   6  124.53   77.31
   9   0 -11   67.25   43.86
   9   0 -11    8.69   39.15
   9   0 -10 1833.91  103.77
   9   0 -10 1789.51  195.35
   9   0  -9 2873.82  203.90
   9   0  -9 3102.73  256.37
   9   0  -8 7287.18  444.95
   9   0  -8 6477.00  396.68
   9   0  -7  170.73   41.95
   9   0  -6  248.49  116.88
   9   0  -6  331.99  140.77
   9   0  -5  195.13   91.25
   9   0  -5  167.64   56.47
   9   0  -4  325.40  140.60
   9   0  -4  287.47   41.73
   9   0  -3 2283.50  176.37
   9   0  -3 2634.83  117.03
   9   0  -215532.01  588.44
   9   0  -216475.00  429.44
   9   0  -1  756.31   80.55
   9   0  -1  768.27   38.07
   9   0   0   33.63   23.82
   9   0   1 4418.28  206.16
   9   0   1 4221.42  173.90
   9   0   2 2034.86  100.70
   9   0   2 2168.83   93.40
   9   0   3 1995.99  100.97
   9   0   3 1878.83   78.72
   9   0   4   73.58   39.62
   9   0   5  699.02   87.21
   9   0   5  543.48   34.73
   9   0   6 5597.84  190.85
   9   0   6 5144.04  160.37
   9   0   7  923.50  136.15
   9   0   7  813.13   52.65
   9   0   8  509.42   60.02
   9   0   9 2085.22  145.87
   9   0  10 1950.89  120.37
   9   0  11   67.73   34.63
   9   1 -11 2840.20  184.68
   9  -1 -11 2603.59  167.06
   9  -1 -11 2678.46  174.66
   9   1 -10 1612.69  101.25
   9  -1 -10 1708.52   99.78
   9  -1 -10 1512.92  212.59
   9   1  -9   92.59   56.34
   9  -1  -9  296.51   56.28
   9  -1  -9  298.33   49.46
   9   1  -8 1196.39  101.46
   9  -1  -8 1029.00  105.52
   9  -1  -8 1084.78  127.44
   9   1  -7 4545.97  239.56
   9  -1  -7 4746.40  242.83
   9  -1  -7 4657.71  258.05
   9   1  -6 2263.85  153.48
   9  -1  -6 2046.72  148.95
   9  -1  -6 2485.51  113.24
   9   1  -5 1383.37  202.34
   9  -1  -5 1672.63   89.58
   9  -1  -5 1532.68   84.47
   9   1  -4 6924.13  373.87
   9  -1  -4 6462.90  347.80
   9  -1  -4 5985.40  341.37
   9   1  -3  616.44  145.32
   9  -1  -3  532.62   69.04
   9  -1  -3  526.66   79.52
   9   1  -2 1192.67  149.31
   9  -1  -2 1203.06  139.74
   9  -1  -2 1294.26  122.15
   9   1  -1 1445.21   75.37
   9  -1  -1 1194.91   65.44
   9  -1  -1 1172.01   54.35
   9   1   0 1258.86   64.10
   9  -1   0 1114.09  169.09
   9  -1   0 1180.19   46.76
   9   1   1 2201.87  164.33
   9  -1   1 2530.84  120.44
   9  -1   1 2545.92  105.06
   9   1   2 4695.17  197.26
   9  -1   2 4571.08  218.90
   9  -1   2 4552.96  178.44
   9   1   3  616.69  180.53
   9  -1   3  423.21   35.92
   9  -1   3  521.69   46.45
   9   1   4 3705.33  273.59
   9  -1   4 3818.89  211.53
   9  -1   4 3688.21  192.86
   9   1   5 2020.39  134.77
   9  -1   5 2041.77   89.97
   9  -1   5 2234.68   82.52
   9   1   6  719.65  128.43
   9  -1   6  952.01   52.27
   9  -1   6  754.68   75.87
   9   1   7  505.77   74.40
   9  -1   7  399.33  124.43
   9  -1   7  299.14   79.85
   9   1   8  320.74  110.19
   9  -1   8  270.19  109.05
   9  -1   8  277.00   63.48
   9   1   9  120.48   46.01
   9  -1   9   90.42   60.11
   9  -1   9   40.48   27.88
   9  -1  10  954.66  104.11
   9  -1  10  918.90   83.01
   9   1  11 3380.33  192.22
   9  -1  11 3322.31  188.69
   9  -1  11 2930.39  173.88
   9   2 -10  295.89  129.91
   9  -2 -10  378.20   51.90
   9  -2 -10  697.67   98.76
   9   2  -9  401.05  131.66
   9  -2  -9  191.50   99.31
   9  -2  -9  199.09  134.89
   9   2  -8 2741.41  196.95
   9  -2  -8 2438.00  227.88
   9  -2  -8 2653.96  189.77
   9   2  -7 2771.65  192.58
   9  -2  -7 2725.28  206.83
   9  -2  -7 2935.12  198.33
   9   2  -6 1920.23  148.15
   9  -2  -6 1907.44  125.37
   9  -2  -6 2049.60  127.59
   9   2  -5  609.95   51.96
   9  -2  -5  722.16  123.79
   9  -2  -5  599.47   73.02
   9   2  -4  575.91   80.91
   9  -2  -4  375.62  117.42
   9  -2  -4  521.24   65.14
   9   2  -3 1839.27  126.41
   9  -2  -3 2246.21  136.73
   9  -2  -3 1992.03  120.53
   9   2  -2 4820.52  267.54
   9  -2  -2 4695.07  278.14
   9  -2  -2 5031.19  269.85
   9   2  -1 1439.90  205.15
   9  -2  -1 1344.01  165.65
   9  -2  -1 1427.67   62.64
   9   2   0 7906.16  311.75
   9  -2   0 7921.84  308.13
   9  -2   0 7910.57  337.57
   9   2   1 2143.56  111.07
   9  -2   1 2015.39  100.73
   9  -2   1 1879.55   85.57
   9   2   2 1572.30  106.25
   9  -2   2 1624.47  102.08
   9  -2   2 1491.35   86.60
   9   2   3  373.03   75.26
   9  -2   3  315.65   90.90
   9  -2   3  366.14   40.49
   9   2   4 1701.92  108.72
   9  -2   4 1503.30  143.43
   9  -2   4 1639.77   96.96
   9   2   5  132.56   85.92
   9  -2   5  211.41   58.96
   9  -2   5  162.94   55.75
   9   2   6 1525.73  104.15
   9  -2   6 1651.39   98.07
   9  -2   6 1484.20   80.23
   9   2   7 2531.12  164.53
   9  -2   7 2566.46  165.83
   9  -2   7 2612.92  161.19
   9  -2   8  232.23   78.39
   9  -2   8  301.33   51.39
   9   2   9 2685.77  105.04
   9  -2   9 2075.46   84.45
   9  -2   9 2346.53  128.41
   9   2  10  951.95  109.61
   9  -2  10 1177.95  174.79
   9  -2  10 1036.81  120.33
   9   3 -10  132.04   63.93
   9  -3 -10  158.16   83.07
   9  -3 -10  111.85  100.12
   9   3  -9 2148.87  191.26
   9  -3  -9 2362.72  112.41
   9  -3  -9 2222.46  120.61
   9   3  -8  431.73  171.30
   9  -3  -8  654.43   74.95
   9  -3  -8  706.07   68.51
   9   3  -7   95.94   69.09
   9  -3  -7   31.49   26.33
   9  -3  -7  118.34   62.01
   9   3  -6 2302.18  164.95
   9  -3  -6 1902.95  139.45
   9   3  -5 5198.70  273.04
   9  -3  -5 5585.75  280.71
   9   3  -4 3071.30  134.63
   9  -3  -4 3095.67  151.99
   9   3  -3 1472.95  189.72
   9  -3  -3 1216.37  166.48
   9   3  -2 1084.73   93.09
   9  -3  -2 1250.52  131.22
   9   3  -1 1905.34  239.36
   9  -3  -1 1743.39  119.37
   9   3   0 1826.67  229.51
   9  -3   0 1971.75  121.13
   9  -3   0 1851.38  109.03
   9   3   1 3255.61  190.55
   9  -3   1 2920.07  166.17
   9  -3   1 2906.17  185.14
   9   3   2 2621.67  156.91
   9  -3   2 2603.56  216.92
   9  -3   2 2538.65  149.02
   9   3   3  831.01   66.78
   9  -3   3  827.31   85.78
   9  -3   3  886.59   38.45
   9   3   4  504.48  165.08
   9  -3   4  529.92   72.28
   9  -3   4  413.28   55.65
   9   3   5 3463.95  182.03
   9  -3   5 3387.40  175.78
   9  -3   5 3177.73  156.96
   9  -3   6 1761.50  122.30
   9  -3   6 2248.17  149.93
   9   3   7 1540.11  114.52
   9  -3   7 1283.72  109.72
   9  -3   7 1342.41  135.05
   9   3   8   17.58   17.56
   9  -3   8   88.25   40.81
   9  -3   8   66.58   36.36
   9   3   9  401.93  158.23
   9  -3   9  640.51   73.20
   9  -3   9  495.85   84.26
   9   3  10 1331.28  108.49
   9  -3  10 1240.79  145.79
   9  -3  10 1236.62   88.07
   9   4  -9  917.92  220.88
   9  -4  -9  632.57   64.32
   9  -4  -9  681.88   87.02
   9   4  -8  148.22   64.18
   9  -4  -8  257.97  134.71
   9  -4  -8  220.97   82.11
   9   4  -7 3006.65  132.18
   9  -4  -7 2735.11  113.18
   9  -4  -7 2726.23  117.41
   9   4  -6  924.22  179.10
   9  -4  -6 1059.15   87.28
   9  -4  -6  984.85  138.12
   9   4  -5  574.57  263.86
   9  -4  -5  523.28  119.88
   9  -4  -5  679.29  165.15
   9   4  -4  950.75  130.67
   9  -4  -4  895.02   86.06
   9  -4  -4  816.72  118.53
   9   4  -3  849.32   73.59
   9  -4  -3  895.78   51.32
   9  -4  -3  715.93  111.00
   9   4  -2 1443.60  120.98
   9  -4  -2 1282.46   97.25
   9  -4  -2 1197.85  137.35
   9   4  -1 1587.04  197.90
   9  -4  -1 2042.24  136.15
   9  -4  -1 1852.34  142.37
   9   4   0  843.39  121.29
   9  -4   0  799.74   47.88
   9  -4   0  816.23  160.88
   9   4   1  469.11   62.16
   9  -4   1  411.79   68.39
   9  -4   1  595.93  110.51
   9   4   2  600.97  108.83
   9  -4   2  345.53  113.82
   9  -4   2  452.85   57.91
   9   4   3   63.69   44.06
   9  -4   3   75.58   34.82
   9  -4   4  427.79  143.24
   9   4   5 1077.39  126.26
   9  -4   5  997.25  132.53
   9   4   6  205.02  130.72
   9  -4   6  316.14  111.12
   9   4   7  835.97  106.33
   9  -4   7  901.30  137.28
   9   4   8 3561.95  142.35
   9  -4   8 3386.19  132.44
   9  -4   8 3269.94  126.36
   9   4   9  551.48   97.70
   9  -4   9  779.52  134.29
   9  -4   9  650.76  117.72
   9   5  -7  260.99  117.21
   9  -5  -7  394.55   88.71
   9  -5  -7  221.76  122.07
   9   5  -6 1579.18  107.58
   9  -5  -6 1507.25   83.32
   9  -5  -6 1223.99  119.15
   9   5  -5  789.20   81.33
   9  -5  -5  637.08  162.53
   9  -5  -5  745.59   72.75
   9   5  -4  498.15  137.70
   9  -5  -4  288.57   83.14
   9  -5  -4  262.83  131.37
   9   5  -3  869.03  123.08
   9  -5  -3 1004.91  134.07
   9  -5  -3 1054.05  120.50
   9   5  -2  870.94  116.77
   9  -5  -2  956.86   80.21
   9  -5  -2  926.95  108.58
   9   5  -1  219.14  166.32
   9  -5  -1  202.65   91.29
   9   5   0  157.25   78.28
   9  -5   0  180.47   56.91
   9  -5   0  140.80   66.41
   9   5   1  141.43   96.57
   9  -5   1  332.62   99.62
   9  -5   1  409.01  122.89
   9   5   2  294.13  108.11
   9  -5   2  174.67   90.54
   9  -5   2  265.10   86.34
   9   5   3 4232.65  278.90
   9  -5   3 4003.86  260.09
   9  -5   3 3683.83  239.13
   9   5   4  426.14  108.60
   9  -5   4  487.76   66.75
   9  -5   4  567.33   41.62
   9   5   5  490.00  117.86
   9  -5   5  442.14  168.63
   9  -5   5  492.96  113.22
   9   5   6 1897.37  100.26
   9  -5   6 1718.73   85.76
   9  -5   6 1742.63   82.91
   9  -5   7 1447.02  128.80
   9  -5   7 1304.66  112.14
   9   6  -5  778.22  145.34
   9  -6  -5  743.77  123.55
   9  -6  -5  619.87  239.82
   9   6  -4 1513.57  237.07
   9  -6  -4 1887.77  111.44
   9  -6  -4 1722.45   95.58
   9   6  -3  602.86   76.88
   9  -6  -3  750.22   86.12
   9  -6  -3  379.42  160.32
   9   6  -2   71.17   46.21
   9  -6  -2   64.17   37.69
   9  -6  -2   33.55   47.18
   9  -6  -1 1648.94   74.09
   9  -6  -1 1753.08   86.27
   9   6   0 1143.81  148.71
   9  -6   0 1421.25  153.18
   9  -6   0 1336.54   68.02
   9   6   1  103.18   51.47
   9  -6   1   27.34   29.42
   9  -6   1  134.88   35.47
   9   6   2   81.68   55.61
   9  -6   2   89.93   56.82
   9  -6   2  101.65   49.73
   9   6   3  473.14  102.68
   9  -6   3  521.91   60.40
   9  -6   3  405.14  135.11
   9   6   4   51.45   61.40
   9  -6   4  174.50   85.59
   9  -6   4  105.51   37.26
   9  -6   5 3470.21  195.67
   9  -6   5 3862.69  218.55
  10   0  -9  434.90  150.12
  10   0  -8  901.13  145.44
  10   0  -7   85.02   64.18
  10   0  -6 1807.24  139.85
  10   0  -5 2081.34  226.68
  10   0  -4  160.44   78.69
  10   0  -3  592.25  202.45
  10   0  -2 1225.46  170.21
  10   0  -1  618.22   86.54
  10   0   0 2725.43  153.19
  10   0   1   35.72   28.42
  10   0   2 3061.63  165.48
  10   0   3 1147.77  181.66
  10   0   4  685.53  102.29
  10   0   5 1004.86  127.78
  10   0   6  118.65   53.66
  10   0   7  282.56   94.97
  10   0   8 2380.45  104.82
  10   0   9  135.67   82.44
  10   1  -9  114.91   60.59
  10  -1  -9   34.57   38.32
  10   1  -8 4098.93  176.09
  10  -1  -8 4019.05  171.79
  10   1  -7 1472.58  179.61
  10  -1  -7 1370.61  164.66
  10  -1  -7 1433.42   87.22
  10   1  -6  228.76  108.18
  10  -1  -6  190.87  103.49
  10  -1  -6  194.70   58.73
  10   1  -5 1121.34  102.05
  10  -1  -5  961.21  156.06
  10  -1  -5 1220.46   99.74
  10   1  -4  512.23  154.59
  10  -1  -4  432.37  174.87
  10  -1  -4  539.45  110.03
  10   1  -3   66.91   50.56
  10  -1  -3  108.86   51.86
  10  -1  -3   54.48   48.32
  10   1  -2 4122.22  218.90
  10  -1  -2 4362.44  224.40
  10  -1  -2 3924.35  198.27
  10   1  -1  484.23  189.49
  10  -1  -1  500.27  135.08
  10  -1  -1  487.81   92.28
  10   1   0 1536.01  101.88
  10  -1   0 1464.00  163.15
  10  -1   0 1409.30  118.37
  10   1   1   12.97   24.27
  10  -1   1   98.78   48.95
  10  -1   1    4.43   15.20
  10   1   2  680.66   84.51
  10  -1   2  539.42  139.96
  10   1   3   57.53   31.40
  10  -1   3   14.16   27.22
  10   1   4 4680.59  292.06
  10  -1   4 4603.43  284.99
  10   1   5  138.86   86.37
  10  -1   5  161.83   44.44
  10   1   6 2083.27  155.92
  10  -1   6 2215.99  154.85
  10   1   7  306.72  126.08
  10  -1   7  313.83  104.98
  10   1   8  942.14   91.73
  10  -1   8 1099.91  106.92
  10   1   9   26.48   33.63
  10  -1   9  272.94   46.40
  10   2  -8  245.47   54.32
  10  -2  -8  100.20   98.71
  10  -2  -8   65.62   38.28
  10   2  -7  208.73   50.17
  10  -2  -7  254.40  115.46
  10  -2  -7  110.18   46.87
  10   2  -6 1764.48  102.01
  10  -2  -6 1598.53   89.13
  10  -2  -6 1743.61  105.05
  10   2  -5 1710.83  134.67
  10  -2  -5 1923.80  143.44
  10  -2  -5 1977.50  183.83
  10   2  -4 3637.45  239.56
  10  -2  -4 3804.47  266.38
  10  -2  -4 3440.13  219.01
  10   2  -3  172.69  105.07
  10  -2  -3  163.24  112.53
  10  -2  -3  223.59   55.07
  10   2  -2   88.70   39.90
  10  -2  -2  165.60   48.97
  10  -2  -2   97.84   53.06
  10   2  -1  381.28  151.63
  10  -2  -1  455.01  160.54
  10  -2  -1  487.23   65.76
  10   2   0  737.66   67.25
  10  -2   0  716.01   64.21
  10  -2   0  636.01   85.36
  10   2   1 2160.46  128.34
  10  -2   1 2195.05  126.44
  10  -2   1 2128.11  114.75
  10   2   2 3298.15  274.22
  10  -2   2 3796.78  255.94
  10  -2   2 3285.16  218.64
  10   2   3  218.44  123.90
  10  -2   3  409.37  113.86
  10  -2   3  350.88   53.37
  10   2   4 1074.98  100.59
  10  -2   4 1212.62   95.11
  10  -2   4 1108.76  103.11
  10   2   5   34.27   36.87
  10  -2   5  134.80   56.12
  10  -2   5   53.29   30.66
  10   2   6 1660.17  166.21
  10  -2   6 1681.62   76.59
  10  -2   6 1676.52   84.63
  10   2   7  556.19  201.51
  10  -2   7  774.59   79.62
  10  -2   7  959.70   84.35
  10  -2   8  598.65   84.42
  10  -2   8  386.70   76.88
  10   3  -7 4934.24  324.82
  10  -3  -7 5417.01  303.83
  10  -3  -7 4818.87  277.41
  10   3  -6  781.07   95.65
  10  -3  -6  596.90  114.10
  10  -3  -6  451.87  181.51
  10   3  -5  203.14   87.90
  10  -3  -5  173.22  105.00
  10  -3  -5  338.48  120.23
  10   3  -4  684.23  219.31
  10  -3  -4  707.52  141.06
  10  -3  -4  776.28  103.25
  10   3  -3 1607.33  129.61
  10  -3  -3 1564.78  157.84
  10  -3  -3 1745.27  143.89
  10   3  -2  684.63   71.49
  10  -3  -2  851.72   60.34
  10  -3  -2  675.44   68.81
  10   3  -1 1254.33  159.39
  10  -3  -1  938.51  152.30
  10  -3  -1  950.13  123.59
  10   3   0 4040.20  260.22
  10  -3   0 3830.29  241.37
  10  -3   0 4319.67  270.10
  10   3   1 2239.03  156.13
  10  -3   1 2767.79  201.82
  10  -3   1 2330.77  148.37
  10   3   2 1191.02  128.05
  10  -3   2 1106.94  108.73
  10  -3   2  976.80  151.97
  10   3   3 3114.74  285.50
  10  -3   3 3348.04  223.79
  10  -3   3 3390.08  217.98
  10   3   4 1167.40  153.28
  10  -3   4  634.22  174.57
  10  -3   4 1098.13   95.97
  10   3   5  435.35  164.97
  10  -3   5  337.61  128.40
  10  -3   5  323.78   70.77
  10  -3   6 1023.34   96.55
  10  -3   6  962.88   84.22
  10   3   7  349.71  147.77
  10  -3   7  326.10   99.48
  10  -3   7  376.64   49.22
  10   4  -6  241.42  146.37
  10  -4  -6  194.98  106.89
  10  -4  -6  132.97  109.60
  10   4  -5  984.46  102.69
  10  -4  -5 1016.30  126.88
  10  -4  -5 1003.59  142.56
  10   4  -4 2933.64  144.22
  10  -4  -4 3108.02  134.44
  10  -4  -4 3126.02  161.12
  10   4  -3  509.44  231.97
  10  -4  -3  642.17   59.70
  10  -4  -3  727.43   70.30
  10   4  -2  128.65  100.95
  10  -4  -2   75.33   63.86
  10  -4  -2  190.40   71.84
  10   4  -1 2255.95  182.60
  10  -4  -1 2097.75   91.42
  10  -4  -1 2180.58  101.10
  10   4   0  406.74   66.67
  10  -4   0  194.74   78.95
  10  -4   0  199.86  121.75
  10   4   1  179.54   90.43
  10  -4   1  271.27  106.24
  10  -4   1  251.37   90.16
  10   4   2  572.58  208.59
  10  -4   2  497.22  108.12
  10  -4   2  854.77   54.89
  10   4   3 2067.11   94.99
  10  -4   3 1933.98  124.30
  10  -4   3 2047.55  107.51
  10   4   4 1443.21  156.98
  10  -4   4 1481.89  108.92
  10  -4   4 1555.28   77.50
  10   4   5  284.24  133.55
  10  -4   5  386.21   38.70
  10  -4   5  380.74   72.33
  10   4   6   50.44   48.03
  10  -4   6  105.46   41.34
  10  -4   6   90.82   54.03
  10   5  -4  831.55   87.41
  10  -5  -4  547.41  208.75
  10   5  -3 1545.37  174.00
  10  -5  -3 1459.00  100.72
  10   5  -2  274.81  164.18
  10  -5  -2  294.85  158.64
  10   5  -1  489.83  118.91
  10  -5  -1  477.79   95.97
  10   5   0  186.60  118.96
  10  -5   0  278.25  159.06
  10  -5   0  399.63   83.97
  10  -5   1 1226.21  111.58
  10  -5   1 1170.59  151.85
  10   5   2 3270.08  144.40
  10  -5   2 3289.59  154.66
  10  -5   2 3048.06  134.87
  10   5   3  886.31  221.91
  10  -5   3 1172.60   91.47
  10  -5   3 1165.46  102.38
  10  -5   4 1946.82  121.96
  10  -5   4 1905.66  117.83
  11   0  -5 7202.30  428.95
  11   0  -4  145.19   69.14
  11   0  -3  139.33  103.90
  11   0  -2  384.64  146.35
  11   0  -1   52.58   51.34
  11   0   0   64.42   53.92
  11   0   1 1205.53  119.99
  11   0   2 1548.18  164.17
  11   0   3 1286.00  122.89
  11   0   4 1439.28   86.13
  11   0   5  374.27   61.90
  11   0   6  213.97  133.54
  11   1  -6   58.41   68.83
  11  -1  -6   82.86   66.03
  11   1  -5  652.73  246.33
  11  -1  -5  744.95  241.20
  11   1  -4   41.60   32.70
  11  -1  -4   16.42   49.93
  11   1  -3  263.44   79.52
  11  -1  -3  111.94   63.65
  11   1  -2 1005.04  149.31
  11  -1  -2  870.23  283.62
  11   1  -1 3010.12  125.67
  11  -1  -1 3105.59  120.43
  11   1   0 1543.71   86.58
  11  -1   0 1723.77   86.61
  11   1   1  914.30  145.93
  11  -1   1  701.10  140.16
  11   1   2 2419.44  106.59
  11   1   3   35.14   54.12
  11  -1   3   47.08   25.33
  11   1   4  410.75   67.55
  11  -1   4  363.17  134.11
  11   1   5  325.25  165.70
  11  -1   5  589.39  107.47
  11   1   6 2518.92  165.70
  11  -1   6 2084.09  137.60
  11   2  -5  129.34   96.61
  11  -2  -5  208.89  143.96
  11   2  -4 1938.18  134.02
  11  -2  -4 2094.90  140.57
  11   2  -3  545.08  206.71
  11  -2  -3  754.38  177.06
  11   2  -2  240.54  160.76
  11  -2  -2  317.10  137.28
  11   2  -1  642.05   92.02
  11  -2  -1  703.61  155.08
  11   2   0  337.86  133.69
  11  -2   0  283.69  122.44
  11   2   1   71.77   65.59
  11  -2   1  143.12   73.91
  11   2   2  770.87  166.85
  11  -2   2  617.58   91.20
  11   2   3 1831.38   98.52
  11  -2   3 1942.50  138.16
  11   2   4 1178.91  194.14
  11  -2   4  948.90  171.02
  11   2   5  807.39  141.33
  11  -2   5  914.40  115.63
  11  -3  -3  166.53   83.48
  11   3  -2 2299.06  160.30
  11  -3  -2 2114.61  137.67
  11  -3  -2 1970.77  201.37
  11   3  -1 2212.33  153.15
  11  -3  -1 1882.07  191.02
  11  -3  -1 1956.35  152.00
  11   3   0  476.87  104.90
  11  -3   0  548.34   75.63
  11  -3   0  369.76   99.03
  11   3   1 2212.18  148.57
  11  -3   1 2159.25  216.73
  11  -3   1 2333.07  140.87
  11   3   2 3230.49  193.70
  11  -3   2 3368.82  196.59
  11  -3   2 3313.17  186.21
  11   3   3 1144.24  172.93
  11  -3   3 1284.79   98.30
;
_shelx_hkl_checksum              60281
loop_
_space_group_symop_operation_xyz
'x, y, z'
'-x, y+1/2, -z'
loop_
_atom_site_label
_atom_site_type_symbol
_atom_site_fract_x
_atom_site_fract_y
_atom_site_fract_z
_atom_site_U_iso_or_equiv
_atom_site_adp_type
_atom_site_occupancy
_atom_site_site_symmetry_order
_atom_site_calc_flag
_atom_site_refinement_flags_posn
_atom_site_refinement_flags_adp
S29 S 0.88974(9) 0.77432(10) 0.07143(6) 0.01288(18) Uani 1 1 d . .
S30 S 1.31353(9) 0.19115(10) 0.41666(6) 0.01255(18) Uani 1 1 d . .
O25 O 0.9463(3) 0.8833(3) 0.14553(18) 0.0166(5) Uani 1 1 d . .
O26 O 0.9931(3) 0.6792(4) 0.01593(18) 0.0196(5) Uani 1 1 d . .
O27 O 1.3021(3) 0.0733(3) 0.33915(19) 0.0171(5) Uani 1 1 d . .
O28 O 1.4537(3) 0.2195(3) 0.4628(2) 0.0200(6) Uani 1 1 d . .
N21 N 0.7917(3) 0.8637(4) -0.0112(2) 0.0163(6) Uani 1 1 d . .
H21 H 0.7918 0.8256 -0.0724 0.020 Uiso 1 1 calc R U
N22 N 0.7442(4) 0.7809(4) 0.2970(2) 0.0159(6) Uani 1 1 d . .
N23 N 1.2042(3) 0.1403(4) 0.5061(2) 0.0159(6) Uani 1 1 d . .
H23 H 1.2300 0.1662 0.5673 0.019 Uiso 1 1 calc R U
N24 N 1.1257(3) 0.2791(4) 0.2138(2) 0.0132(6) Uani 1 1 d . .
C1 C 0.7691(4) 0.6373(4) 0.1320(3) 0.0140(7) Uani 1 1 d . .
C2 C 0.7162(4) 0.6502(4) 0.2302(3) 0.0146(7) Uani 1 1 d . .
C3 C 0.6243(4) 0.5283(5) 0.2666(3) 0.0174(8) Uani 1 1 d . .
H3 H 0.5908 0.5330 0.3337 0.021 Uiso 1 1 calc R U
C4 C 0.5814(4) 0.4013(5) 0.2070(3) 0.0196(8) Uani 1 1 d . .
H4 H 0.5184 0.3205 0.2330 0.024 Uiso 1 1 calc R U
C5 C 0.6308(4) 0.3922(5) 0.1089(3) 0.0192(8) Uani 1 1 d . .
H5 H 0.5991 0.3071 0.0670 0.023 Uiso 1 1 calc R U
C6 C 0.7257(4) 0.5070(4) 0.0726(3) 0.0173(8) Uani 1 1 d . .
H6 H 0.7624 0.4979 0.0065 0.021 Uiso 1 1 calc R U
C7 C 0.7017(4) 1.0058(4) 0.0100(3) 0.0156(7) Uani 1 1 d . .
H7A H 0.6245 1.0175 -0.0417 0.019 Uiso 1 1 calc R U
H7B H 0.7646 1.1027 0.0084 0.019 Uiso 1 1 calc R U
C8 C 0.6325(4) 0.9905(4) 0.1086(3) 0.0160(7) Uani 1 1 d . .
C9 C 0.6049(4) 0.9619(4) 0.1943(3) 0.0168(8) Uani 1 1 d . .
C10 C 0.6183(4) 0.8974(5) 0.2960(3) 0.0181(8) Uani 1 1 d . .
H10A H 0.5258 0.8429 0.3155 0.022 Uiso 1 1 calc R U
H10B H 0.6371 0.9853 0.3438 0.022 Uiso 1 1 calc R U
C11 C 1.2583(4) 0.3809(4) 0.3671(3) 0.0116(6) Uani 1 1 d . .
C12 C 1.1776(4) 0.4031(4) 0.2785(3) 0.0128(7) Uani 1 1 d . .
C13 C 1.1462(4) 0.5601(4) 0.2488(3) 0.0150(7) Uani 1 1 d . .
H13 H 1.0919 0.5773 0.1891 0.018 Uiso 1 1 calc R U
C14 C 1.1922(4) 0.6914(5) 0.3042(3) 0.0165(7) Uani 1 1 d . .
H14 H 1.1687 0.7967 0.2826 0.020 Uiso 1 1 calc R U
C15 C 1.2729(4) 0.6683(4) 0.3912(3) 0.0147(7) Uani 1 1 d . .
H15 H 1.3047 0.7575 0.4296 0.018 Uiso 1 1 calc R U
C16 C 1.3062(4) 0.5137(4) 0.4215(3) 0.0135(7) Uani 1 1 d . .
H16 H 1.3628 0.4978 0.4803 0.016 Uiso 1 1 calc R U
C17 C 1.0651(4) 0.0543(5) 0.4927(3) 0.0162(7) Uani 1 1 d . .
H17A H 1.0040 0.0663 0.5534 0.019 Uiso 1 1 calc R U
H17B H 1.0856 -0.0611 0.4832 0.019 Uiso 1 1 calc R U
C18 C 0.9833(4) 0.1158(4) 0.4058(3) 0.0159(7) Uani 1 1 d . .
C19 C 0.9483(4) 0.1724(5) 0.3270(3) 0.0171(7) Uani 1 1 d . .
C20 C 0.9650(4) 0.2458(4) 0.2274(3) 0.0171(8) Uani 1 1 d . .
H20A H 0.9076 0.3464 0.2233 0.020 Uiso 1 1 calc R U
H20B H 0.9293 0.1718 0.1750 0.020 Uiso 1 1 calc R U
H33 H 0.800(5) 0.823(5) 0.281(3) 0.005(11) Uiso 1 1 d . .
H34 H 1.177(4) 0.204(5) 0.226(3) 0.004(9) Uiso 1 1 d . .
loop_
_atom_site_aniso_label
_atom_site_aniso_U_11
_atom_site_aniso_U_22
_atom_site_aniso_U_33
_atom_site_aniso_U_23
_atom_site_aniso_U_13
_atom_site_aniso_U_12
S29 0.0138(4) 0.0144(4) 0.0104(4) 0.0020(3) 0.0013(3) 0.0029(4)
S30 0.0120(4) 0.0133(4) 0.0123(4) 0.0025(3) -0.0005(3) 0.0020(3)
O25 0.0164(12) 0.0190(13) 0.0143(12) 0.0008(11) -0.0007(10) 0.0000(11)
O26 0.0195(12) 0.0234(14) 0.0158(11) 0.0012(12) 0.0039(10) 0.0089(12)
O27 0.0198(13) 0.0130(12) 0.0187(13) 0.0013(11) 0.0029(10) 0.0032(11)
O28 0.0149(12) 0.0206(14) 0.0245(13) 0.0051(11) -0.0051(10) 0.0023(10)
N21 0.0245(16) 0.0157(15) 0.0088(13) 0.0001(12) 0.0000(11) 0.0053(13)
N22 0.0176(16) 0.0171(15) 0.0131(14) 0.0007(13) 0.0036(12) -0.0038(15)
N23 0.0200(15) 0.0186(16) 0.0090(13) 0.0019(11) -0.0005(11) -0.0026(12)
N24 0.0160(14) 0.0124(14) 0.0113(13) -0.0004(13) -0.0017(11) 0.0006(14)
C1 0.0173(17) 0.0109(16) 0.0137(16) 0.0041(13) -0.0012(13) 0.0014(13)
C2 0.0135(16) 0.0153(18) 0.0152(16) 0.0028(13) -0.0036(13) 0.0037(13)
C3 0.0178(18) 0.0194(19) 0.0151(17) 0.0028(14) 0.0039(14) 0.0025(15)
C4 0.0160(18) 0.0153(19) 0.028(2) 0.0011(16) -0.0011(15) -0.0001(15)
C5 0.0218(19) 0.0120(18) 0.024(2) -0.0038(15) -0.0028(16) 0.0017(15)
C6 0.0230(19) 0.0149(18) 0.0139(17) -0.0016(14) 0.0007(14) 0.0065(15)
C7 0.0149(17) 0.0164(18) 0.0154(17) 0.0018(14) 0.0000(13) 0.0040(14)
C8 0.0136(18) 0.0123(17) 0.0223(19) 0.0000(15) 0.0021(14) 0.0015(14)
C9 0.0154(18) 0.0157(19) 0.0193(19) -0.0037(14) 0.0019(14) 0.0034(14)
C10 0.0233(19) 0.0166(19) 0.0143(17) -0.0008(14) 0.0038(14) 0.0039(15)
C11 0.0123(15) 0.0114(16) 0.0111(15) 0.0035(13) 0.0006(12) 0.0023(13)
C12 0.0107(16) 0.0161(18) 0.0115(16) -0.0013(13) 0.0023(12) -0.0013(14)
C13 0.0150(17) 0.0148(18) 0.0152(16) 0.0042(14) -0.0018(13) -0.0008(14)
C14 0.0173(16) 0.0127(16) 0.0194(16) 0.0026(15) 0.0013(13) -0.0023(16)
C15 0.0138(15) 0.0129(17) 0.0173(16) -0.0036(14) -0.0005(13) -0.0043(14)
C16 0.0104(16) 0.0205(19) 0.0097(15) 0.0007(13) 0.0005(12) -0.0013(13)
C17 0.0162(17) 0.0157(18) 0.0166(17) 0.0007(14) 0.0018(14) -0.0008(15)
C18 0.0141(17) 0.0172(17) 0.0165(17) -0.0019(14) 0.0040(14) -0.0018(14)
C19 0.0131(16) 0.0192(19) 0.0190(16) -0.0022(15) 0.0012(13) -0.0020(15)
C20 0.0157(17) 0.021(2) 0.0148(16) -0.0009(14) -0.0034(13) -0.0029(14)
loop_
_atom_type_symbol
_atom_type_description
_atom_type_scat_dispersion_real
_atom_type_scat_dispersion_imag
_atom_type_scat_source
C C 0.0033 0.0016 'International Tables Vol C Tables 4.2.6.8 and 6.1.1.4'
H H 0.0000 0.0000 'International Tables Vol C Tables 4.2.6.8 and 6.1.1.4'
N N 0.0061 0.0033 'International Tables Vol C Tables 4.2.6.8 and 6.1.1.4'
O O 0.0106 0.0060 'International Tables Vol C Tables 4.2.6.8 and 6.1.1.4'
S S 0.1246 0.1234 'International Tables Vol C Tables 4.2.6.8 and 6.1.1.4'
loop_
_geom_angle_atom_site_label_1
_geom_angle_atom_site_label_2
_geom_angle_atom_site_label_3
_geom_angle
O26 S29 O25 118.31(16)
O26 S29 N21 105.13(16)
O25 S29 N21 112.28(16)
O26 S29 C1 106.36(17)
O25 S29 C1 108.09(16)
N21 S29 C1 105.88(17)
O28 S30 O27 119.29(16)
O28 S30 N23 105.56(16)
O27 S30 N23 108.27(16)
O28 S30 C11 105.21(16)
O27 S30 C11 108.56(16)
N23 S30 C11 109.69(16)
C7 N21 S29 123.4(2)
C7 N21 H21 118.3
S29 N21 H21 118.3
C2 N22 C10 110.7(3)
C2 N22 H33 110(4)
C10 N22 H33 103(4)
C17 N23 S30 124.6(2)
C17 N23 H23 117.7
S30 N23 H23 117.7
C12 N24 C20 112.4(3)
C12 N24 H34 105(3)
C20 N24 H34 114(3)
C6 C1 C2 119.6(3)
C6 C1 S29 114.4(3)
C2 C1 S29 126.1(3)
C3 C2 C1 118.3(3)
C3 C2 N22 116.1(3)
C1 C2 N22 125.6(3)
C4 C3 C2 121.4(3)
C4 C3 H3 119.3
C2 C3 H3 119.3
C3 C4 C5 119.8(3)
C3 C4 H4 120.1
C5 C4 H4 120.1
C6 C5 C4 119.8(4)
C6 C5 H5 120.1
C4 C5 H5 120.1
C5 C6 C1 121.0(3)
C5 C6 H6 119.5
C1 C6 H6 119.5
N21 C7 C8 109.9(3)
N21 C7 H7A 109.7
C8 C7 H7A 109.7
N21 C7 H7B 109.7
C8 C7 H7B 109.7
H7A C7 H7B 108.2
C9 C8 C7 165.5(4)
C8 C9 C10 160.6(4)
C9 C10 N22 108.0(3)
C9 C10 H10A 110.1
N22 C10 H10A 110.1
C9 C10 H10B 110.1
N22 C10 H10B 110.1
H10A C10 H10B 108.4
C16 C11 C12 119.9(3)
C16 C11 S30 115.0(2)
C12 C11 S30 125.1(3)
C13 C12 C11 118.0(3)
C13 C12 N24 116.0(3)
C11 C12 N24 126.0(3)
C14 C13 C12 121.8(3)
C14 C13 H13 119.1
C12 C13 H13 119.1
C13 C14 C15 119.8(4)
C13 C14 H14 120.1
C15 C14 H14 120.1
C16 C15 C14 119.3(3)
C16 C15 H15 120.4
C14 C15 H15 120.4
C15 C16 C11 121.3(3)
C15 C16 H16 119.4
C11 C16 H16 119.4
N23 C17 C18 111.1(3)
N23 C17 H17A 109.4
C18 C17 H17A 109.4
N23 C17 H17B 109.4
C18 C17 H17B 109.4
H17A C17 H17B 108.0
C19 C18 C17 165.1(4)
C18 C19 C20 158.8(4)
C19 C20 N24 106.7(3)
C19 C20 H20A 110.4
N24 C20 H20A 110.4
C19 C20 H20B 110.4
N24 C20 H20B 110.4
H20A C20 H20B 108.6
loop_
_geom_bond_atom_site_label_1
_geom_bond_atom_site_label_2
_geom_bond_distance
S29 O26 1.436(3)
S29 O25 1.442(3)
S29 N21 1.605(3)
S29 C1 1.778(4)
S30 O28 1.433(3)
S30 O27 1.435(3)
S30 N23 1.613(3)
S30 C11 1.790(4)
N21 C7 1.468(5)
N21 H21 0.8800
N22 C2 1.435(5)
N22 C10 1.500(5)
N22 H33 0.65(4)
N23 C17 1.462(5)
N23 H23 0.8800
N24 C12 1.431(4)
N24 C20 1.494(4)
N24 H34 0.79(4)
C1 C6 1.405(5)
C1 C2 1.406(5)
C2 C3 1.403(5)
C3 C4 1.384(5)
C3 H3 0.9500
C4 C5 1.391(6)
C4 H4 0.9500
C5 C6 1.377(5)
C5 H5 0.9500
C6 H6 0.9500
C7 C8 1.469(5)
C7 H7A 0.9900
C7 H7B 0.9900
C8 C9 1.199(5)
C9 C10 1.471(5)
C10 H10A 0.9900
C10 H10B 0.9900
C11 C16 1.397(5)
C11 C12 1.406(5)
C12 C13 1.400(5)
C13 C14 1.388(5)
C13 H13 0.9500
C14 C15 1.391(5)
C14 H14 0.9500
C15 C16 1.387(5)
C15 H15 0.9500
C16 H16 0.9500
C17 C18 1.473(5)
C17 H17A 0.9900
C17 H17B 0.9900
C18 C19 1.201(5)
C19 C20 1.477(5)
C20 H20A 0.9900
C20 H20B 0.9900
loop_
_geom_torsion_atom_site_label_1
_geom_torsion_atom_site_label_2
_geom_torsion_atom_site_label_3
_geom_torsion_atom_site_label_4
_geom_torsion
O26 S29 N21 C7 -162.0(3)
O25 S29 N21 C7 -32.0(3)
C1 S29 N21 C7 85.7(3)
O28 S30 N23 C17 -160.3(3)
O27 S30 N23 C17 -31.5(3)
C11 S30 N23 C17 86.8(3)
O26 S29 C1 C6 -41.4(3)
O25 S29 C1 C6 -169.4(3)
N21 S29 C1 C6 70.1(3)
O26 S29 C1 C2 138.9(3)
O25 S29 C1 C2 10.9(4)
N21 S29 C1 C2 -109.6(3)
C6 C1 C2 C3 1.9(5)
S29 C1 C2 C3 -178.5(3)
C6 C1 C2 N22 -176.2(3)
S29 C1 C2 N22 3.5(5)
C10 N22 C2 C3 -80.9(4)
C10 N22 C2 C1 97.2(4)
C1 C2 C3 C4 -2.5(5)
N22 C2 C3 C4 175.7(3)
C2 C3 C4 C5 0.6(6)
C3 C4 C5 C6 2.0(6)
C4 C5 C6 C1 -2.6(6)
C2 C1 C6 C5 0.6(5)
S29 C1 C6 C5 -179.1(3)
S29 N21 C7 C8 -38.7(4)
N21 C7 C8 C9 36.1(17)
C7 C8 C9 C10 -8(3)
C8 C9 C10 N22 -9.1(14)
C2 N22 C10 C9 -61.5(4)
O28 S30 C11 C16 -31.9(3)
O27 S30 C11 C16 -160.6(3)
N23 S30 C11 C16 81.3(3)
O28 S30 C11 C12 145.8(3)
O27 S30 C11 C12 17.0(4)
N23 S30 C11 C12 -101.1(3)
C16 C11 C12 C13 -1.0(5)
S30 C11 C12 C13 -178.5(3)
C16 C11 C12 N24 177.9(3)
S30 C11 C12 N24 0.3(5)
C20 N24 C12 C13 -79.1(4)
C20 N24 C12 C11 102.0(4)
C11 C12 C13 C14 -0.1(5)
N24 C12 C13 C14 -179.0(3)
C12 C13 C14 C15 0.6(5)
C13 C14 C15 C16 0.0(5)
C14 C15 C16 C11 -1.1(5)
C12 C11 C16 C15 1.6(5)
S30 C11 C16 C15 179.4(3)
S30 N23 C17 C18 -41.6(4)
N23 C17 C18 C19 31.3(17)
C17 C18 C19 C20 -1(2)
C18 C19 C20 N24 -5.6(12)
C12 N24 C20 C19 -68.6(4)
