#------------------------------------------------------------------------------
#$Date: 2017-03-04 14:51:59 +0200 (Sat, 04 Mar 2017) $
#$Revision: 193356 $
#$URL: file:///home/coder/svn-repositories/cod/cif/1/54/54/1545434.cif $
#------------------------------------------------------------------------------
#
# This file is available in the Crystallography Open Database (COD),
# http://www.crystallography.net/
#
# All data on this site have been placed in the public domain by the
# contributors.
#
data_1545434
loop_
_publ_author_name
'Zeng, Zhongyi'
'Jin, Hongming'
'Xie, Jin'
'Tian, Bing'
'Rudolph, Matthias'
'Rominger, Frank'
'Hashmi, A Stephen K'
_publ_section_title
;
 \a-Imino Gold Carbenes from 1,2,4-Oxadiazoles: Atom-Economical Access to
 Fully Substituted 4-Aminoimidazoles.
;
_journal_issue                   5
_journal_name_full               'Organic letters'
_journal_page_first              1020
_journal_page_last               1023
_journal_paper_doi               10.1021/acs.orglett.7b00001
_journal_volume                  19
_journal_year                    2017
_chemical_formula_sum            'C26 H25 N3 O3 S'
_chemical_formula_weight         459.55
_space_group_crystal_system      monoclinic
_space_group_IT_number           15
_space_group_name_Hall           '-C 2yc'
_space_group_name_H-M_alt        'C 1 2/c 1'
_symmetry_space_group_name_Hall  '-C 2yc'
_symmetry_space_group_name_H-M   'C 1 2/c 1'
_atom_sites_solution_hydrogens   geom
_audit_creation_method           SHELXL-2014/7
_cell_angle_alpha                90
_cell_angle_beta                 121.6496(8)
_cell_angle_gamma                90
_cell_formula_units_Z            8
_cell_length_a                   22.3549(8)
_cell_length_b                   14.4762(5)
_cell_length_c                   16.9648(6)
_cell_measurement_reflns_used    5050
_cell_measurement_temperature    200(2)
_cell_measurement_theta_max      25.31
_cell_measurement_theta_min      2.49
_cell_volume                     4673.5(3)
_computing_cell_refinement       'Bruker SAINT'
_computing_data_collection       'Bruker APEX2'
_computing_data_reduction        'Bruker SAINT'
_computing_molecular_graphics    'Bruker SHELXTL'
_computing_publication_material  'Bruker SHELXTL'
_computing_structure_refinement  'SHELXL-2014/7 (Sheldrick, 2014)'
_computing_structure_solution    'SHELXS-97 (Sheldrick 2008)'
_diffrn_ambient_temperature      200(2)
_diffrn_measured_fraction_theta_full 0.997
_diffrn_measured_fraction_theta_max 0.994
_diffrn_measurement_device_type  'Bruker APEX-II Quazar area detector'
_diffrn_measurement_method       '\f and \w scans'
_diffrn_radiation_type           MoK\a
_diffrn_radiation_wavelength     0.71073
_diffrn_reflns_av_R_equivalents  0.0290
_diffrn_reflns_av_unetI/netI     0.0324
_diffrn_reflns_Laue_measured_fraction_full 0.997
_diffrn_reflns_Laue_measured_fraction_max 0.994
_diffrn_reflns_limit_h_max       27
_diffrn_reflns_limit_h_min       -26
_diffrn_reflns_limit_k_max       17
_diffrn_reflns_limit_k_min       -17
_diffrn_reflns_limit_l_max       20
_diffrn_reflns_limit_l_min       -19
_diffrn_reflns_number            15395
_diffrn_reflns_point_group_measured_fraction_full 0.997
_diffrn_reflns_point_group_measured_fraction_max 0.994
_diffrn_reflns_theta_full        25.242
_diffrn_reflns_theta_max         25.739
_diffrn_reflns_theta_min         1.767
_diffrn_source                   'ImuS microsource'
_exptl_absorpt_coefficient_mu    0.172
_exptl_absorpt_correction_T_max  0.9582
_exptl_absorpt_correction_T_min  0.9004
_exptl_absorpt_correction_type   multi-scan
_exptl_absorpt_process_details
;
Sheldrick, G. M. (2008). <i>SADABS</i>. University of G\"ottingen, Germany.
;
_exptl_crystal_colour            colourless
_exptl_crystal_density_diffrn    1.306
_exptl_crystal_description       polyhedron
_exptl_crystal_F_000             1936
_exptl_crystal_size_max          0.140
_exptl_crystal_size_mid          0.110
_exptl_crystal_size_min          0.100
_refine_diff_density_max         0.257
_refine_diff_density_min         -0.341
_refine_diff_density_rms         0.046
_refine_ls_extinction_method     none
_refine_ls_goodness_of_fit_ref   1.057
_refine_ls_hydrogen_treatment    constr
_refine_ls_matrix_type           full
_refine_ls_number_parameters     302
_refine_ls_number_reflns         4439
_refine_ls_number_restraints     0
_refine_ls_restrained_S_all      1.057
_refine_ls_R_factor_all          0.0631
_refine_ls_R_factor_gt           0.0450
_refine_ls_shift/su_max          0.002
_refine_ls_shift/su_mean         0.000
_refine_ls_structure_factor_coef Fsqd
_refine_ls_weighting_details
'w=1/[\s^2^(Fo^2^)+(0.0617P)^2^+4.0170P] where P=(Fo^2^+2Fc^2^)/3'
_refine_ls_weighting_scheme      calc
_refine_ls_wR_factor_gt          0.1202
_refine_ls_wR_factor_ref         0.1304
_reflns_Friedel_coverage         0.000
_reflns_number_gt                3330
_reflns_number_total             4439
_reflns_threshold_expression     'I > 2\s(I)'
_cod_data_source_file            ol7b00001_si_002.cif
_cod_data_source_block           zz1
_cod_database_code               1545434
_shelx_shelxl_version_number     2014/7
_shelx_space_group_comment
; 
The symmetry employed for this shelxl refinement is uniquely defined 
by the following loop, which should always be used as a source of 
symmetry information in preference to the above space-group names. 
They are only intended as comments. 
;
_shelx_estimated_absorpt_t_min   0.976
_shelx_estimated_absorpt_t_max   0.983
_shelx_res_file
; 
  
    zz1.res created by SHELXL-2014/7 
  
  
TITL zz1 in C2/c 
REM  sehr sch&#x00F6;ne Messung, gute Daten, problemlose Struktur, Wasserstoffatome 
REM  gesehen, alle an konstruierten Positionen ber&#x00FC;cksichtigt. 
REM 
REM 
REM 
CELL 0.71073  22.35490  14.47620  16.96480  90.0000 121.6496  90.0000 
ZERR    8.00   0.00080   0.00050   0.00060   0.0000   0.0008   0.0000 
LATT  7 
SYMM -X, Y, 0.5-Z 
SFAC C H N O S 
UNIT 208 200 24 24 8 
TEMP -73.150 
SIZE 0.10 0.11 0.14 
  
L.S. 4 
ACTA 
BOND $H 
CONF 
  
FMAP 2 
PLAN 20 
WGHT    0.061700    4.017000 
FVAR       0.07143 
S1    5    0.648631    0.609601    0.368693    11.00000    0.03279    0.03725 = 
         0.03663    0.00336    0.02118    0.00097 
C1    1    0.702133    0.683307    0.536367    11.00000    0.04311    0.03663 = 
         0.04642   -0.00525    0.02825   -0.00329 
AFIX 137 
H1A   2    0.747565    0.701335    0.590210    11.00000   -1.50000 
H1B   2    0.673756    0.652816    0.557328    11.00000   -1.50000 
H1C   2    0.677463    0.738416    0.500342    11.00000   -1.50000 
AFIX   0 
N2    3    0.713608    0.619035    0.477929    11.00000    0.03020    0.03313 = 
         0.03864   -0.00120    0.02079   -0.00123 
C3    1    0.748027    0.535337    0.522794    11.00000    0.02917    0.03495 = 
         0.03482    0.00024    0.01762   -0.00139 
C4    1    0.814080    0.509568    0.546586    11.00000    0.03296    0.04230 = 
         0.03833   -0.00139    0.02001   -0.00011 
N5    3    0.717828    0.472821    0.552352    11.00000    0.03253    0.03488 = 
         0.03677    0.00118    0.01933    0.00067 
C6    1    0.764544    0.407341    0.594930    11.00000    0.03118    0.04089 = 
         0.03659   -0.00021    0.01871    0.00210 
N7    3    0.825216    0.426121    0.594208    11.00000    0.03219    0.04063 = 
         0.04287    0.00490    0.01960    0.00582 
O8    4    0.910130    0.343857    0.716552    11.00000    0.04216    0.09923 = 
         0.06931    0.03082    0.01985    0.01646 
C8    1    0.889066    0.371852    0.639982    11.00000    0.03193    0.05703 = 
         0.06178    0.01112    0.01843    0.00655 
C9    1    0.920638    0.349079    0.583417    11.00000    0.05040    0.06533 = 
         0.09288    0.00880    0.04356    0.01807 
AFIX 137 
H9A   2    0.970845    0.336104    0.624658    11.00000   -1.50000 
H9B   2    0.914583    0.401577    0.543396    11.00000   -1.50000 
H9C   2    0.897167    0.294639    0.545147    11.00000   -1.50000 
AFIX   0 
O11   4    0.627558    0.702017    0.336025    11.00000    0.04319    0.03908 = 
         0.04915    0.01149    0.02851    0.00552 
C11   1    0.868039    0.559836    0.538466    11.00000    0.03528    0.04221 = 
         0.06008   -0.00077    0.03111    0.00271 
O12   4    0.674449    0.550411    0.325426    11.00000    0.04254    0.04922 = 
         0.04260   -0.00202    0.02741    0.00496 
C12   1    0.933190    0.579980    0.616936    11.00000    0.03375    0.07382 = 
         0.07012    0.00708    0.02266   -0.00218 
AFIX  43 
H12   2    0.943162    0.560286    0.676064    11.00000   -1.20000 
AFIX   0 
C13   1    0.983219    0.628061    0.609729    11.00000    0.04099    0.08361 = 
         0.10424   -0.00239    0.03772   -0.01089 
AFIX  43 
H13   2    1.027517    0.641232    0.663603    11.00000   -1.20000 
AFIX   0 
C14   1    0.968901    0.656967    0.524357    11.00000    0.06918    0.06340 = 
         0.13126   -0.01128    0.07724   -0.01115 
AFIX  43 
H14   2    1.003636    0.689503    0.519274    11.00000   -1.20000 
AFIX   0 
C15   1    0.904750    0.639107    0.446455    11.00000    0.07672    0.05748 = 
         0.09339   -0.00698    0.06788   -0.00787 
AFIX  43 
H15   2    0.895038    0.659559    0.387658    11.00000   -1.20000 
AFIX   0 
C16   1    0.854006    0.591111    0.453586    11.00000    0.05529    0.04665 = 
         0.06599   -0.00682    0.04461   -0.00264 
AFIX  43 
H16   2    0.809336    0.579740    0.399659    11.00000   -1.20000 
AFIX   0 
C21   1    0.578085    0.554573    0.367786    11.00000    0.03125    0.04022 = 
         0.03162    0.00433    0.01494   -0.00312 
C22   1    0.529523    0.607655    0.374952    11.00000    0.03543    0.04920 = 
         0.04178   -0.00156    0.02144   -0.00405 
AFIX  43 
H22   2    0.533172    0.673104    0.377146    11.00000   -1.20000 
AFIX   0 
C23   1    0.476043    0.565346    0.378876    11.00000    0.03646    0.07306 = 
         0.04221    0.00205    0.02168   -0.00275 
AFIX  43 
H23   2    0.442991    0.602011    0.383993    11.00000   -1.20000 
AFIX   0 
C24   1    0.469741    0.470458    0.375488    11.00000    0.03434    0.07668 = 
         0.03681    0.01489    0.01230   -0.00872 
C25   1    0.518613    0.418803    0.368433    11.00000    0.04803    0.04670 = 
         0.06515    0.01499    0.01771   -0.01091 
AFIX  43 
H25   2    0.514767    0.353374    0.366103    11.00000   -1.20000 
AFIX   0 
C26   1    0.573187    0.459616    0.364646    11.00000    0.03861    0.04073 = 
         0.05697    0.00495    0.01877   -0.00099 
AFIX  43 
H26   2    0.606438    0.422923    0.359991    11.00000   -1.20000 
AFIX   0 
C28   1    0.409339    0.424564    0.377202    11.00000    0.04559    0.10557 = 
         0.05620    0.02052    0.01842   -0.02346 
AFIX 137 
H28A  2    0.422206    0.360860    0.399279    11.00000   -1.50000 
H28B  2    0.367487    0.424372    0.314605    11.00000   -1.50000 
H28C  2    0.399349    0.458847    0.418829    11.00000   -1.50000 
AFIX   0 
C31   1    0.750049    0.323273    0.630150    11.00000    0.03527    0.03930 = 
         0.03199    0.00399    0.01701    0.00518 
C32   1    0.770030    0.235184    0.619767    11.00000    0.04102    0.04571 = 
         0.03834    0.00394    0.02335    0.00823 
AFIX  43 
H32   2    0.797446    0.227992    0.592331    11.00000   -1.20000 
AFIX   0 
C33   1    0.750393    0.158040    0.648969    11.00000    0.04809    0.03578 = 
         0.04320    0.00133    0.02251    0.00914 
AFIX  43 
H33   2    0.764763    0.098584    0.641526    11.00000   -1.20000 
AFIX   0 
C34   1    0.709916    0.165944    0.689107    11.00000    0.04543    0.03911 = 
         0.03458    0.00239    0.01894    0.00062 
C35   1    0.689900    0.253534    0.698338    11.00000    0.05743    0.04350 = 
         0.04829   -0.00030    0.03726    0.00172 
AFIX  43 
H35   2    0.662119    0.260654    0.725257    11.00000   -1.20000 
AFIX   0 
C36   1    0.709148    0.330905    0.669545    11.00000    0.05247    0.03541 = 
         0.05148   -0.00071    0.03383    0.00479 
AFIX  43 
H36   2    0.694317    0.390162    0.676675    11.00000   -1.20000 
AFIX   0 
C38   1    0.688261    0.081971    0.720654    11.00000    0.06837    0.04481 = 
         0.05314    0.00522    0.03393   -0.00051 
AFIX 137 
H38A  2    0.677549    0.100118    0.767587    11.00000   -1.50000 
H38B  2    0.726682    0.036895    0.747241    11.00000   -1.50000 
H38C  2    0.646468    0.054285    0.667651    11.00000   -1.50000 
AFIX   0 
HKLF 4 
  
REM  zz1 in C2/c 
REM R1 =  0.0450 for    3330 Fo > 4sig(Fo)  and  0.0631 for all    4439 data 
REM    302 parameters refined using      0 restraints 
  
END 
  
WGHT      0.0615      4.1519 
  
REM Highest difference peak  0.257,  deepest hole -0.341,  1-sigma level  0.046 
Q1    1   0.4176  0.3680  0.3506  11.00000  0.05    0.26 
Q2    1   0.6812  0.6127  0.4438  11.00000  0.05    0.23 
Q3    1   0.4819  0.4356  0.3531  11.00000  0.05    0.21 
Q4    1   0.7332  0.5800  0.4955  11.00000  0.05    0.18 
Q5    1   0.5690  0.3009  0.3652  11.00000  0.05    0.18 
Q6    1   0.4325  0.3782  0.4382  11.00000  0.05    0.17 
Q7    1   0.7491  0.1982  0.6190  11.00000  0.05    0.17 
Q8    1   0.5985  0.5829  0.3627  11.00000  0.05    0.17 
Q9    1   0.5188  0.3683  0.3392  11.00000  0.05    0.16 
Q10   1   0.7721  0.2822  0.6437  11.00000  0.05    0.16 
Q11   1   0.7923  0.5390  0.5604  11.00000  0.05    0.16 
Q12   1   0.9576  0.2970  0.7001  11.00000  0.05    0.16 
Q13   1   0.4189  0.3225  0.3096  11.00000  0.05    0.16 
Q14   1   0.9020  0.5553  0.5632  11.00000  0.05    0.16 
Q15   1   0.7418  0.1658  0.6875  11.00000  0.05    0.15 
Q16   1   0.6660  0.7021  0.4017  11.00000  0.05    0.15 
Q17   1   0.9753  0.7412  0.4381  11.00000  0.05    0.15 
Q18   1   0.6405  0.7647  0.3574  11.00000  0.05    0.15 
Q19   1   0.9516  0.4054  0.5921  11.00000  0.05    0.15 
Q20   1   0.5611  0.5829  0.3765  11.00000  0.05    0.15 
;
_shelx_res_checksum              74902
_shelx_hkl_file
; 
   2   0   0  227.39    5.27 
   2   0   0  229.76    5.43 
   2   0   0  228.10    5.22 
  -2   0   0  234.38    5.21 
  -2   0   0  232.50    5.33 
   4   0   0   29.17    0.70 
  -4   0   0   29.21    0.70 
  -4   0   0   28.09    0.74 
   4   0   0   30.02    0.75 
   6   0   0   10.48    0.31 
  -6   0   0    9.73    0.30 
  10   0   0    0.57    0.10 
  10   0   0    0.65    0.17 
  12   0   0    8.24    0.43 
  12   0   0    8.58    0.33 
  14   0   0    1.13    0.24 
  14   0   0    0.81    0.14 
  16   0   0    6.08    0.46 
  16   0   0    6.06    0.33 
  18   0   0   36.58    1.28 
  20   0   0    1.15    0.31 
  22   0   0    2.16    0.40 
  -1  -1   0   42.53    0.98 
   1  -1   0   41.32    0.96 
  -1  -1   0   42.51    0.96 
  -1   1   0   41.30    0.96 
   1   1   0   42.45    0.98 
   1   1   0   40.71    0.96 
  -3  -1   0   20.54    0.53 
   3  -1   0   20.95    0.55 
  -3  -1   0   22.34    0.61 
   3  -1   0   21.31    0.49 
  -3   1   0   21.54    0.55 
  -3   1   0   21.21    0.49 
   3   1   0   20.75    0.54 
   3   1   0   21.14    0.56 
   3   1   0   21.51    0.60 
  -5  -1   0   40.01    1.11 
   5  -1   0   41.74    0.95 
  -5  -1   0   41.87    1.00 
   5  -1   0   38.94    1.03 
   5   1   0   41.35    1.00 
   5   1   0   41.37    1.04 
  -5   1   0   41.13    0.95 
   7  -1   0    0.13    0.10 
  -7  -1   0   -0.12    0.14 
   7  -1   0    0.07    0.05 
  -7   1   0    0.01    0.05 
   7   1   0    0.07    0.07 
   7   1   0    0.12    0.11 
   9  -1   0    0.58    0.09 
   9  -1   0    0.60    0.10 
   9  -1   0    0.61    0.15 
   9   1   0    0.34    0.15 
   9   1   0    0.53    0.11 
  -9   1   0    0.72    0.09 
  11  -1   0   16.88    0.63 
  11  -1   0   18.35    0.51 
  11   1   0   17.50    0.55 
  13  -1   0    9.73    0.49 
  13  -1   0   10.51    0.37 
  13   1   0   10.95    0.42 
  13   1   0   10.15    0.51 
  15  -1   0    0.72    0.13 
  15  -1   0    0.61    0.20 
  15   1   0    1.05    0.17 
  15   1   0    0.53    0.20 
  17  -1   0   28.56    1.03 
  17   1   0   26.79    1.01 
  17   1   0   26.07    0.84 
  19  -1   0    0.29    0.23 
  19   1   0    0.27    0.25 
  21  -1   0    3.05    0.45 
  21   1   0    3.51    0.47 
  23  -1   0    0.15    0.29 
  23   1   0    0.23    0.29 
   0  -2   0  240.27    5.56 
   0  -2   0  246.50    5.63 
   0   2   0  247.10    5.56 
   0   2   0  244.15    5.51 
   2  -2   0   37.26    0.89 
   2  -2   0   37.38    0.84 
  -2  -2   0   36.75    0.89 
  -2  -2   0   37.82    0.94 
   2   2   0   37.51    0.90 
  -2   2   0   35.77    0.89 
  -2   2   0   36.78    0.84 
   2   2   0   37.05    0.93 
  -4  -2   0    2.22    0.22 
   4  -2   0    2.12    0.16 
  -4  -2   0    2.32    0.15 
   4   2   0    2.01    0.15 
   4   2   0    2.27    0.18 
   4   2   0    2.20    0.21 
  -4   2   0    1.89    0.15 
   6  -2   0   20.66    0.49 
  -6  -2   0   21.44    0.72 
   6  -2   0   20.59    0.61 
   6  -2   0   21.20    0.50 
   6   2   0   20.81    0.63 
   6   2   0   20.95    0.59 
  -6   2   0   21.06    0.50 
   8  -2   0   22.75    0.69 
  -8  -2   0   22.70    0.81 
   8  -2   0   22.19    0.55 
   8  -2   0   22.03    0.56 
   8   2   0   22.72    0.65 
  -8   2   0   22.35    0.55 
   8   2   0   20.82    0.69 
  10  -2   0    7.40    0.38 
  10  -2   0    8.20    0.27 
  10  -2   0    8.10    0.26 
 -10  -2   0    7.49    0.50 
  10   2   0    8.86    0.42 
 -10   2   0    7.83    0.26 
  10   2   0    8.42    0.35 
  12  -2   0   13.41    0.56 
  12  -2   0   13.21    0.40 
  12   2   0   13.78    0.58 
 -12   2   0   13.47    0.50 
  12   2   0   14.37    0.50 
  14  -2   0   -0.16    0.14 
  14  -2   0    0.08    0.08 
  14   2   0    0.14    0.16 
  14   2   0    0.03    0.12 
  16  -2   0    0.18    0.19 
  16   2   0   -0.04    0.13 
  16   2   0    0.27    0.20 
  18  -2   0    0.30    0.22 
  18   2   0    0.48    0.19 
  18   2   0    0.46    0.23 
  20  -2   0    3.04    0.41 
  20   2   0    5.19    0.54 
  22  -2   0    0.06    0.26 
  22   2   0   -0.07    0.26 
   1  -3   0  153.53    3.49 
  -1  -3   0  153.85    3.48 
  -1  -3   0  149.62    3.52 
   1  -3   0  155.66    3.46 
   1   3   0  151.18    3.48 
   1   3   0  154.77    3.51 
  -1   3   0  156.51    3.46 
  -1   3   0  153.62    3.49 
   3  -3   0  175.30    3.85 
   3  -3   0  171.58    3.93 
  -3  -3   0  173.01    4.00 
   3   3   0  169.25    3.98 
  -3   3   0  175.08    3.85 
  -3   3   0  174.35    3.92 
   3   3   0  168.91    3.93 
  -5  -3   0   57.93    1.56 
   5  -3   0   60.34    1.47 
   5   3   0   60.98    1.47 
   7  -3   0   37.40    1.00 
   7   3   0   37.40    0.99 
   7   3   0   36.55    1.02 
  -9  -3   0    5.60    0.43 
   9  -3   0    5.84    0.33 
   9   3   0    5.82    0.34 
   9   3   0    5.59    0.30 
  11  -3   0   23.78    0.81 
 -11  -3   0   25.62    0.99 
  11  -3   0   24.92    0.61 
  11  -3   0   25.19    0.62 
  11   3   0   25.03    0.77 
  11   3   0   25.44    0.84 
  13  -3   0    2.18    0.27 
  13  -3   0    2.44    0.14 
  13   3   0    2.57    0.25 
  13   3   0    2.42    0.30 
  15  -3   0   16.28    0.70 
  15   3   0   15.81    0.61 
  15   3   0   16.04    0.71 
  17  -3   0    0.09    0.21 
  17   3   0    0.19    0.16 
  17   3   0    0.17    0.20 
  19  -3   0    0.57    0.26 
  19   3   0    0.67    0.22 
  19   3   0    0.36    0.25 
  21  -3   0    1.86    0.38 
  21   3   0    1.31    0.35 
   0  -4   0  498.43   11.30 
   0  -4   0  479.50   11.12 
   0   4   0  489.32   11.01 
   0   4   0  488.75   11.27 
  -2  -4   0   52.69    1.33 
   2  -4   0   52.71    1.22 
   2  -4   0   50.94    1.28 
  -2   4   0   51.32    1.22 
   2   4   0   54.47    1.37 
   2   4   0   51.41    1.27 
  -2   4   0   51.70    1.27 
   4  -4   0   10.88    0.39 
  -4  -4   0   11.24    0.47 
   4  -4   0   11.60    0.29 
   4   4   0   11.17    0.40 
  -4   4   0   11.61    0.29 
   6  -4   0    0.33    0.12 
  -6  -4   0    0.18    0.14 
   6   4   0    0.26    0.10 
  -8  -4   0   16.28    0.69 
   8  -4   0   15.43    0.55 
   8   4   0   16.16    0.55 
   8   4   0   16.42    0.58 
  10  -4   0    1.07    0.19 
 -10  -4   0    1.33    0.27 
  10   4   0    1.47    0.22 
  10   4   0    1.43    0.20 
  12  -4   0    1.57    0.23 
 -12  -4   0    1.75    0.34 
  12   4   0    1.94    0.23 
  12   4   0    1.92    0.26 
  14  -4   0    7.51    0.46 
 -14  -4   0    6.77    0.61 
  14   4   0    7.90    0.49 
  14   4   0    7.67    0.41 
  16  -4   0   18.97    0.80 
  16   4   0   20.04    0.84 
  16   4   0   19.50    0.74 
  18  -4   0    2.84    0.40 
  18   4   0    1.57    0.33 
  18   4   0    2.52    0.31 
  20  -4   0    4.98    0.51 
  20   4   0    4.93    0.55 
  20   4   0    5.20    0.44 
  22  -4   0    2.74    0.45 
  22   4   0    1.41    0.36 
   1  -5   0   -0.04    0.09 
  -1  -5   0    0.17    0.11 
   1  -5   0    0.09    0.07 
   1   5   0    0.20    0.09 
  -1   5   0    0.10    0.07 
   3  -5   0   25.04    0.72 
  -3  -5   0   25.66    0.79 
   3  -5   0   25.81    0.64 
   3   5   0   24.85    0.72 
  -3   5   0   25.74    0.64 
  -5  -5   0    0.29    0.16 
   5  -5   0    0.26    0.11 
   5  -5   0    0.19    0.05 
   5   5   0    0.15    0.10 
  -5   5   0    0.24    0.05 
  -5   5   0    0.21    0.05 
  -7  -5   0   16.95    0.70 
   7  -5   0   17.14    0.58 
   7   5   0   17.57    0.59 
  -9  -5   0    9.53    0.54 
   9  -5   0    8.30    0.40 
   9   5   0    8.08    0.42 
   9   5   0    8.53    0.40 
  11  -5   0    0.12    0.13 
 -11  -5   0    0.07    0.20 
  11   5   0    0.34    0.16 
  11   5   0    0.33    0.15 
 -13  -5   0    1.68    0.36 
  13  -5   0    2.37    0.30 
  13   5   0    2.52    0.33 
  13   5   0    2.28    0.27 
 -15  -5   0    1.21    0.35 
  15  -5   0    0.82    0.24 
  15   5   0    0.92    0.25 
  15   5   0    1.24    0.23 
  17  -5   0   20.38    0.86 
  17   5   0   19.44    0.78 
  17   5   0   21.27    0.91 
  19  -5   0    1.13    0.31 
  19   5   0    1.39    0.28 
  19   5   0    1.74    0.35 
  21  -5   0    0.43    0.29 
  21   5   0    0.47    0.29 
  21   5   0    0.71    0.27 
   0  -6   0   34.09    0.96 
   0   6   0   34.04    0.90 
  -2  -6   0    2.44    0.24 
   2  -6   0    2.72    0.22 
   2   6   0    2.70    0.21 
  -2   6   0    2.39    0.16 
   4  -6   0   37.08    0.90 
  -4  -6   0   37.21    1.10 
   4  -6   0   37.46    1.01 
  -4   6   0   36.91    0.90 
   4   6   0   35.31    1.01 
   6  -6   0   81.78    1.81 
  -6  -6   0   77.51    2.11 
   6  -6   0   77.64    1.97 
  -6   6   0   78.88    1.81 
  -6   6   0   80.54    1.81 
   6   6   0   79.18    1.99 
   8  -6   0    1.24    0.19 
  -8  -6   0    1.26    0.26 
   8   6   0    1.06    0.19 
 -10  -6   0   15.64    0.77 
  10  -6   0   16.70    0.63 
  10   6   0   17.00    0.64 
  10   6   0   17.26    0.66 
 -12  -6   0    2.36    0.38 
  12  -6   0    4.09    0.33 
  12   6   0    3.65    0.33 
  12   6   0    3.50    0.34 
 -14  -6   0    1.83    0.40 
  14  -6   0    2.89    0.35 
  14   6   0    2.14    0.31 
  14   6   0    2.74    0.31 
  16  -6   0    0.16    0.20 
 -16  -6   0    0.22    0.31 
  16   6   0   -0.16    0.17 
  16   6   0   -0.06    0.19 
  18  -6   0    0.24    0.24 
  18   6   0    0.35    0.27 
  18   6   0    0.25    0.21 
  20  -6   0    1.95    0.38 
  20   6   0    1.78    0.37 
  20   6   0    1.57    0.32 
  -1  -7   0   73.68    1.93 
   1  -7   0   76.25    1.91 
   1   7   0   75.45    1.86 
  -1   7   0   77.15    1.83 
  -3  -7   0   13.90    0.58 
   3  -7   0   13.62    0.51 
   3   7   0   14.47    0.51 
  -3   7   0   13.61    0.43 
  -5  -7   0   14.94    0.63 
   5  -7   0   14.54    0.41 
   5  -7   0   13.89    0.52 
   5   7   0   14.32    0.54 
  -5   7   0   14.17    0.42 
  -5   7   0   14.54    0.41 
  -7  -7   0    0.81    0.22 
   7  -7   0    1.23    0.18 
   7   7   0    0.85    0.17 
  -7   7   0    0.95    0.08 
  -7   7   0    1.04    0.08 
  -9  -7   0    9.00    0.58 
   9  -7   0    9.82    0.46 
   9   7   0    9.91    0.47 
   9   7   0   10.06    0.49 
 -11  -7   0   14.87    0.77 
  11  -7   0   14.54    0.60 
  11   7   0   13.06    0.61 
  11   7   0   13.15    0.59 
  13  -7   0    1.16    0.24 
 -13  -7   0    0.30    0.27 
  13   7   0    0.76    0.23 
  13   7   0    1.00    0.23 
 -15  -7   0    1.81    0.42 
  15  -7   0    1.66    0.29 
  15   7   0    1.55    0.29 
  15   7   0    1.73    0.31 
 -17  -7   0    0.30    0.36 
  17  -7   0    1.04    0.27 
  17   7   0    0.65    0.27 
  17   7   0    0.64    0.24 
  19  -7   0    3.40    0.44 
  19   7   0    1.85    0.34 
  19   7   0    2.96    0.43 
  21  -7   0    0.04    0.25 
  21   7   0   -0.11    0.26 
  21   7   0    0.01    0.25 
   0  -8   0   13.78    0.54 
   0   8   0   12.29    0.46 
   2  -8   0    0.01    0.11 
  -2  -8   0    0.28    0.15 
  -2   8   0    0.04    0.09 
   2   8   0   -0.07    0.10 
  -4  -8   0    0.06    0.14 
   4  -8   0    0.05    0.11 
   4   8   0    0.08    0.12 
  -4   8   0   -0.01    0.08 
   6  -8   0    2.89    0.26 
  -6  -8   0    2.76    0.33 
   6  -8   0    2.68    0.15 
   6   8   0    2.89    0.25 
  -6   8   0    3.00    0.16 
  -6   8   0    2.59    0.16 
 -10  -8   0   -0.20    0.20 
  10  -8   0    0.19    0.15 
  10   8   0    0.24    0.16 
  10   8   0    0.03    0.15 
  12  -8   0    0.64    0.20 
 -12  -8   0    1.16    0.34 
  12   8   0    0.46    0.18 
  12   8   0    0.92    0.23 
 -14  -8   0    2.21    0.45 
  14  -8   0    1.80    0.30 
  14   8   0    1.56    0.30 
  14   8   0    1.18    0.26 
 -16  -8   0    7.29    0.73 
  16  -8   0    8.34    0.55 
  16   8   0    7.58    0.53 
  16   8   0    6.63    0.55 
 -18  -8   0    0.62    0.40 
  18  -8   0    0.77    0.29 
  18   8   0    0.63    0.28 
  18   8   0    0.72    0.27 
  20  -8   0    1.66    0.38 
  20   8   0    1.82    0.36 
  20   8   0    1.87    0.43 
   1  -9   0    4.45    0.34 
  -1  -9   0    5.13    0.37 
   1   9   0    5.48    0.31 
  -1   9   0    5.19    0.29 
   3  -9   0   17.64    0.65 
  -3  -9   0   15.62    0.68 
  -3   9   0   16.94    0.53 
   3   9   0   16.80    0.61 
   5  -9   0    0.27    0.14 
  -5  -9   0    0.58    0.21 
  -5   9   0    0.28    0.09 
   5   9   0    0.11    0.14 
   7  -9   0    9.80    0.48 
  -7  -9   0   10.59    0.61 
   7   9   0   11.04    0.52 
  -7   9   0   10.50    0.33 
 -11  -9   0   24.57    1.08 
  11  -9   0   23.67    0.86 
  11   9   0   25.24    0.90 
  11   9   0   22.93    0.90 
  13  -9   0    2.86    0.35 
 -13  -9   0    2.77    0.48 
  13   9   0    3.35    0.39 
  13   9   0    2.81    0.37 
 -15  -9   0    0.54    0.34 
  15  -9   0    0.44    0.22 
  15   9   0    0.41    0.24 
  15   9   0    0.55    0.24 
 -17  -9   0    7.13    0.82 
  17  -9   0    7.11    0.57 
  17   9   0    8.01    0.61 
  17   9   0    6.43    0.55 
 -19  -9   0    0.35    0.42 
  19  -9   0    0.66    0.30 
  19   9   0    0.66    0.28 
  19   9   0   -0.01    0.28 
   0 -10   0    3.92    0.35 
   0  10   0    4.36    0.29 
   2 -10   0    1.78    0.26 
  -2 -10   0    1.90    0.29 
  -2  10   0    2.02    0.21 
   2  10   0    1.86    0.23 
   4 -10   0    5.69    0.38 
  -4 -10   0    5.77    0.44 
   4  10   0    5.26    0.35 
  -4  10   0    5.28    0.28 
  -6 -10   0   22.78    0.92 
   6 -10   0   22.04    0.80 
   6  10   0   21.74    0.79 
  -6  10   0   22.51    0.63 
   8 -10   0    4.81    0.37 
  -8 -10   0    5.01    0.50 
   8  10   0    4.51    0.38 
 -10 -10   0   10.83    0.71 
  10 -10   0   10.02    0.54 
  10  10   0   10.25    0.56 
  12 -10   0    4.81    0.42 
 -12 -10   0    4.17    0.55 
  12  10   0    4.41    0.45 
  12  10   0    4.81    0.43 
 -14 -10   0    2.49    0.49 
  14 -10   0    2.58    0.36 
  14  10   0    2.43    0.37 
  14  10   0    2.77    0.38 
  16 -10   0    0.35    0.24 
 -16 -10   0    0.46    0.37 
  16  10   0    0.81    0.29 
  16  10   0    0.34    0.25 
  18 -10   0   -0.01    0.24 
 -18 -10   0   -0.19    0.36 
  18  10   0    0.06    0.25 
  18  10   0   -0.16    0.24 
   1 -11   0   -0.04    0.16 
  -1 -11   0    0.04    0.19 
  -1  11   0    0.11    0.13 
   1  11   0    0.14    0.14 
   3 -11   0    5.50    0.41 
  -3 -11   0    5.37    0.44 
   3  11   0    5.32    0.36 
  -3  11   0    5.29    0.31 
  -5 -11   0    4.78    0.47 
   5 -11   0    5.72    0.40 
   5  11   0    5.20    0.38 
  -5  11   0    4.59    0.27 
  -7 -11   0    6.08    0.55 
   7 -11   0    6.97    0.45 
   7  11   0    8.02    0.48 
  -9 -11   0    2.97    0.46 
   9 -11   0    3.48    0.36 
   9  11   0    2.32    0.32 
 -11 -11   0    1.08    0.36 
  11 -11   0    0.86    0.24 
  11  11   0    1.07    0.27 
  13 -11   0    1.18    0.28 
 -13 -11   0    1.21    0.40 
  13  11   0    1.32    0.30 
  13  11   0    1.02    0.29 
  15 -11   0    0.21    0.24 
 -15 -11   0    0.53    0.37 
  15  11   0    0.19    0.24 
  15  11   0    0.54    0.27 
 -17 -11   0    2.69    0.56 
  17 -11   0    1.84    0.36 
  17  11   0    3.09    0.45 
  17  11   0    2.55    0.43 
  -2 -12   0    4.71    0.45 
   2 -12   0    3.67    0.39 
  -2  12   0    5.41    0.34 
   2  12   0    3.98    0.34 
   4 -12   0    9.69    0.55 
  -4 -12   0    8.26    0.59 
   4  12   0   10.05    0.51 
  -4  12   0    9.06    0.41 
   6 -12   0    0.56    0.20 
  -6 -12   0    0.48    0.26 
   6  12   0    0.42    0.20 
  -8 -12   0    3.14    0.47 
   8 -12   0    2.97    0.37 
   8  12   0    2.43    0.32 
  10 -12   0    1.64    0.31 
 -10 -12   0    2.08    0.42 
  10  12   0    2.08    0.35 
 -12 -12   0    0.58    0.35 
  12 -12   0    0.24    0.22 
  12  12   0    0.17    0.23 
  12  12   0    0.36    0.24 
 -14 -12   0    1.68    0.48 
  14 -12   0    1.69    0.33 
  14  12   0    1.55    0.36 
  14  12   0    1.87    0.36 
 -16 -12   0    0.40    0.39 
  16 -12   0    0.25    0.26 
  16  12   0    0.32    0.29 
  16  12   0   -0.04    0.26 
   1 -13   0   18.64    0.83 
  -1 -13   0   17.77    0.83 
  -1  13   0   18.89    0.70 
   1  13   0   19.37    0.73 
   3 -13   0   23.20    0.94 
  -3 -13   0   24.50    1.02 
  -3  13   0   23.94    0.79 
   3  13   0   25.00    0.88 
   5 -13   0    0.88    0.25 
  -5 -13   0    0.56    0.28 
   5  13   0    0.65    0.22 
  -7 -13   0    0.01    0.26 
   7 -13   0   -0.18    0.18 
   7  13   0    0.05    0.19 
   9 -13   0    3.22    0.40 
  -9 -13   0    2.45    0.45 
   9  13   0    3.48    0.42 
  11 -13   0    0.54    0.26 
 -11 -13   0    0.13    0.30 
  11  13   0    0.54    0.26 
  13 -13   0    1.25    0.31 
 -13 -13   0    1.54    0.44 
  13  13   0    1.28    0.33 
  13  13   0    1.07    0.31 
 -15 -13   0    1.01    0.44 
  15 -13   0    0.33    0.44 
  15  13   0    0.33    0.27 
  15  13   0    0.18    0.30 
   0 -14   0   15.18    0.78 
   0  14   0   14.24    0.64 
  -2 -14   0   11.56    0.71 
   2 -14   0   10.99    0.66 
   2  14   0   11.03    0.58 
  -4 -14   0    1.27    0.35 
   4 -14   0    1.11    0.29 
   4  14   0    2.11    0.32 
  -6 -14   0    0.30    0.28 
   6 -14   0   -0.09    0.20 
   6  14   0    0.13    0.21 
  -8 -14   0    0.04    0.27 
   8 -14   0    0.48    0.26 
   8  14   0    0.18    0.22 
  10 -14   0    4.46    0.49 
 -10 -14   0    4.13    0.58 
  10  14   0    3.86    0.45 
 -12 -14   0    0.25    0.36 
  12  14   0    0.21    0.27 
  12  14   0    0.28    0.27 
 -14 -14   0    1.95    0.51 
  14  14   0    2.57    0.43 
  14  14   0    2.83    0.48 
  -1 -15   0    1.42    0.36 
   1 -15   0    1.85    0.38 
  -1  15   0    1.70    0.27 
   1  15   0    1.88    0.31 
  -3 -15   0    1.91    0.40 
   3 -15   0    2.33    0.39 
   3  15   0    2.83    0.35 
   5 -15   0    0.95    0.29 
  -5 -15   0    0.79    0.34 
   5  15   0    1.30    0.29 
  -7 -15   0    0.49    0.36 
   7  15   0   -0.13    0.21 
  -9 -15   0    0.14    0.32 
   9  15   0    0.41    0.26 
 -11 -15   0    0.04    0.33 
  11  15   0   -0.05    0.25 
   0 -16   0    0.80    0.38 
   0  16   0    0.51    0.23 
  -2 -16   0    0.04    0.28 
   2  16   0   -0.17    0.19 
  -4 -16   0    1.96    0.42 
   4  16   0    2.43    0.37 
  -6 -16   0    1.84    0.43 
   6  16   0    2.52    0.40 
  -8 -16   0    0.63    0.38 
   8  16   0    0.25    0.27 
   1  17   0    0.67    0.26 
   3  17   0    2.81    0.39 
   5  17   0    0.96    0.30 
  22   0  -1   -0.17    0.22 
  20   0  -1   -0.09    0.21 
  18   0  -1    0.07    0.20 
  16   0  -1    0.05    0.10 
  16   0  -1   -0.03    0.16 
  14   0  -1    0.01    0.08 
  14   0  -1    0.04    0.14 
  12   0  -1    0.01    0.07 
  12   0  -1    0.02    0.13 
  10   0  -1   -0.11    0.11 
  10   0  -1   -0.10    0.06 
   8   0  -1   -0.05    0.06 
   8   0  -1   -0.01    0.06 
   8   0  -1   -0.06    0.10 
  -8   0   1   -0.06    0.06 
  -6   0   1   -0.08    0.13 
   6   0  -1    0.02    0.06 
   6   0  -1   -0.03    0.09 
   6   0  -1   -0.01    0.06 
  -6   0   1    0.02    0.06 
   4   0  -1    0.08    0.05 
   4   0  -1   -0.04    0.07 
  -4   0   1    0.02    0.04 
  -4   0   1    0.04    0.06 
   4   0  -1   -0.05    0.09 
   4   0  -1    0.01    0.05 
  -4   0   1    0.04    0.10 
  -4   0   1    0.12    0.06 
   2   0  -1    0.02    0.03 
  -2   0   1   -0.04    0.03 
  -2   0   1    0.03    0.04 
   2   0  -1    0.03    0.04 
   0   0   1   -0.04    0.02 
   0   0  -1    0.01    0.01 
   0   0   1    0.01    0.02 
   0   0  -1    0.04    0.02 
   2   0   1    0.01    0.04 
   2   0   1    0.05    0.06 
  -2   0  -1    0.02    0.04 
  -2   0  -1    0.03    0.05 
  -4   0  -1    0.03    0.06 
   4   0   1    0.10    0.06 
   4   0   1    0.01    0.08 
   6   0   1   -0.11    0.10 
   6   0   1    0.11    0.06 
  -6   0  -1    0.00    0.06 
   8   0   1    0.09    0.11 
   8   0   1    0.16    0.08 
  10   0   1    0.11    0.13 
  10   0   1    0.14    0.08 
  12   0   1   -0.06    0.08 
  12   0   1   -0.05    0.12 
  14   0   1   -0.14    0.15 
  14   0   1   -0.02    0.10 
  16   0   1   -0.03    0.12 
  16   0   1    0.11    0.19 
  18   0   1   -0.05    0.20 
  20   0   1    0.26    0.26 
  22   0   1   -0.05    0.26 
  23  -1  -1   -0.12    0.24 
  23   1  -1    0.05    0.27 
  21  -1  -1    0.04    0.22 
  21   1  -1   -0.13    0.23 
  19  -1  -1    1.18    0.29 
  19   1  -1    0.98    0.29 
  17  -1  -1    1.98    0.30 
  17   1  -1    2.30    0.24 
  17   1  -1    2.25    0.33 
  15  -1  -1   38.28    1.02 
  15  -1  -1   38.13    1.21 
  15   1  -1   40.18    1.23 
  15   1  -1   38.82    1.08 
  13  -1  -1   22.42    0.79 
  13  -1  -1   22.93    0.65 
  13   1  -1   24.52    0.82 
  13   1  -1   22.84    0.69 
  11  -1  -1    2.70    0.17 
  11  -1  -1    2.71    0.25 
  11   1  -1    3.10    0.28 
  11   1  -1    2.95    0.20 
  -9  -1   1   -0.09    0.16 
   9  -1  -1   -0.03    0.06 
   9  -1  -1   -0.10    0.05 
   9  -1  -1    0.19    0.12 
   9   1  -1    0.08    0.12 
   9   1  -1   -0.05    0.07 
  -9   1   1    0.01    0.06 
  -7  -1   1  101.86    2.61 
   7  -1  -1  108.41    2.43 
   7  -1  -1  108.09    2.42 
   7  -1  -1  105.50    2.51 
   7   1  -1  105.53    2.52 
   7   1  -1  105.33    2.47 
  -7   1   1  108.53    2.42 
   5  -1  -1   14.07    0.41 
  -5  -1   1   13.69    0.40 
   5  -1  -1   13.24    0.46 
   5  -1  -1   13.55    0.36 
  -5  -1   1   13.46    0.49 
   5  -1  -1   14.13    0.36 
   5   1  -1   13.86    0.40 
   5   1  -1   14.84    0.49 
  -5   1   1   14.24    0.36 
  -5   1   1   13.84    0.41 
   5   1  -1   13.66    0.43 
   5   1  -1   13.73    0.40 
   3  -1  -1    5.26    0.16 
  -3  -1   1    5.39    0.20 
   3  -1  -1    5.34    0.17 
  -3  -1   1    5.51    0.24 
  -3  -1   1    5.02    0.18 
  -3   1   1    5.38    0.17 
   3   1  -1    5.05    0.19 
   3   1  -1    5.44    0.19 
  -3   1   1    5.35    0.16 
   3   1  -1    5.18    0.22 
  -1  -1   1   32.79    0.78 
  -1  -1   1   33.09    0.77 
   1  -1  -1   32.43    0.76 
   1   1  -1   33.75    0.78 
   1   1  -1   32.27    0.76 
  -1   1   1   31.60    0.76 
   1   1  -1   33.54    0.77 
  -1  -1  -1    3.71    0.14 
   1  -1   1    3.89    0.12 
   1  -1   1    3.90    0.15 
  -1  -1  -1    3.74    0.17 
  -1  -1  -1    3.73    0.13 
   1   1   1    3.70    0.14 
   1   1   1    3.57    0.16 
   1   1   1    3.73    0.14 
  -1   1  -1    3.84    0.15 
  -1   1  -1    3.89    0.11 
  -3  -1  -1  304.64    7.07 
  -3  -1  -1  307.68    7.06 
   3  -1   1  305.68    6.95 
  -3  -1  -1  306.00    6.99 
   3  -1   1  308.81    7.01 
  -3   1  -1  322.31    7.10 
   3   1   1  303.81    7.02 
   3   1   1  311.25    6.98 
  -3   1  -1  310.40    6.94 
   3   1   1  304.92    6.93 
  -5  -1  -1  295.06    6.49 
   5  -1   1  288.18    6.54 
   5  -1   1  287.29    6.57 
   5   1   1  288.03    6.54 
  -5   1  -1  288.04    6.47 
   5   1   1  286.22    6.49 
   7  -1   1   -0.07    0.10 
   7  -1   1    0.05    0.06 
   7   1   1   -0.02    0.10 
   7   1   1    0.06    0.08 
  -7   1  -1    0.02    0.05 
   9  -1   1   24.60    0.65 
   9  -1   1   24.42    0.78 
   9   1   1   24.69    0.70 
   9   1   1   24.74    0.79 
  11  -1   1   21.04    0.74 
  11  -1   1   19.76    0.58 
  11   1   1   20.85    0.63 
  11   1   1   20.03    0.73 
  13  -1   1    1.38    0.16 
  13  -1   1    1.39    0.25 
  13   1   1    1.38    0.24 
  13   1   1    1.29    0.18 
  15  -1   1    0.12    0.11 
  15  -1   1    0.09    0.18 
  15   1   1    0.42    0.20 
  15   1   1    0.10    0.13 
  17  -1   1    1.50    0.30 
  17   1   1    2.25    0.35 
  17   1   1    1.95    0.24 
  19  -1   1    2.10    0.37 
  19   1   1    1.74    0.36 
  21  -1   1    0.44    0.30 
  21   1   1    0.46    0.29 
  22  -2  -1    0.20    0.24 
  22   2  -1    0.14    0.25 
  20  -2  -1   -0.15    0.19 
  20   2  -1   -0.15    0.21 
  18  -2  -1    6.43    0.49 
  18   2  -1    6.35    0.39 
  18   2  -1    6.38    0.50 
  16  -2  -1   11.88    0.59 
  16   2  -1   11.49    0.60 
  16   2  -1   11.88    0.50 
  14  -2  -1    2.81    0.29 
  14  -2  -1    1.87    0.15 
  14   2  -1    2.18    0.22 
  14   2  -1    1.74    0.25 
  12  -2  -1    0.44    0.08 
  12  -2  -1    0.59    0.16 
  12  -2  -1    0.47    0.09 
 -12  -2   1    0.31    0.23 
  12   2  -1    0.74    0.18 
  12   2  -1    0.47    0.12 
 -10  -2   1   29.43    1.00 
  10  -2  -1   29.35    0.74 
  10  -2  -1   28.91    0.72 
  10  -2  -1   28.12    0.86 
  10   2  -1   29.17    0.89 
  10   2  -1   29.76    0.82 
  -8  -2   1    3.24    0.32 
   8  -2  -1    2.86    0.22 
   8  -2  -1    3.13    0.14 
   8  -2  -1    3.23    0.13 
   8   2  -1    3.26    0.24 
   8   2  -1    3.57    0.21 
   6  -2  -1    0.36    0.10 
  -6  -2   1    0.43    0.16 
   6  -2  -1    0.30    0.05 
   6  -2  -1    0.37    0.05 
   6   2  -1    0.23    0.11 
  -6   2   1    0.24    0.05 
   6   2  -1    0.30    0.09 
   4  -2  -1  464.80   10.48 
  -4  -2   1  464.49   10.79 
   4  -2  -1  471.45   10.77 
  -4   2   1  474.35   10.64 
   4   2  -1  477.38   10.78 
   4   2  -1  452.28   10.77 
  -4   2   1  465.21   10.48 
  -2  -2   1   36.39    0.93 
  -2  -2   1   37.48    0.89 
   2  -2  -1   37.23    0.86 
   2  -2  -1   36.68    0.86 
   2   2  -1   36.94    0.90 
   2   2  -1   37.01    0.92 
   2   2  -1   36.19    0.89 
  -2   2   1   36.65    0.86 
  -2   2   1   37.86    0.86 
   0  -2  -1  152.88    3.41 
   0  -2   1  150.86    3.40 
   0  -2  -1  145.55    3.41 
   0  -2   1  151.90    3.40 
   0   2   1  149.27    3.41 
   0   2   1  151.95    3.41 
   0   2  -1  154.34    3.43 
   0   2  -1  153.30    3.40 
   0   2  -1  152.62    3.40 
  -2  -2  -1  128.00    2.98 
   2  -2   1  129.46    2.88 
   2  -2   1  128.87    2.95 
  -2  -2  -1  127.77    2.93 
  -2   2  -1  129.21    2.88 
   2   2   1  129.08    2.98 
  -2   2  -1  129.53    2.94 
   2   2   1  127.45    2.94 
   2   2   1  128.65    2.94 
  -4  -2  -1   11.51    0.45 
   4  -2   1   11.54    0.39 
   4  -2   1   11.09    0.28 
   4   2   1   11.33    0.38 
   4   2   1   10.96    0.36 
  -4   2  -1   11.22    0.28 
   6  -2   1    1.00    0.15 
  -6  -2  -1    0.93    0.20 
   6  -2   1    0.91    0.08 
   6   2   1    0.73    0.14 
   6   2   1    0.82    0.13 
  -6   2  -1    0.85    0.08 
   8  -2   1   20.86    0.53 
   8  -2   1   21.76    0.68 
  -8   2  -1   20.19    0.52 
   8   2   1   20.08    0.68 
   8   2   1   20.76    0.62 
  10  -2   1   -0.01    0.06 
  10  -2   1   -0.06    0.12 
  10   2   1   -0.06    0.09 
  10   2   1    0.02    0.11 
 -10   2  -1    0.02    0.06 
  12  -2   1    8.35    0.46 
  12  -2   1    8.85    0.31 
  12   2   1    8.63    0.46 
  12   2   1    8.25    0.38 
  14  -2   1    0.57    0.11 
  14  -2   1    0.49    0.21 
  14   2   1    0.47    0.15 
  14   2   1    0.42    0.19 
  16  -2   1    4.45    0.45 
  16   2   1    4.56    0.43 
  16   2   1    4.58    0.34 
  18  -2   1    1.22    0.30 
  18   2   1    1.10    0.22 
  18   2   1    1.93    0.35 
  20  -2   1    1.66    0.36 
  20   2   1    1.59    0.38 
  22  -2   1    0.11    0.29 
  22   2   1   -0.02    0.26 
  23  -3  -1    0.37    0.29 
  23   3  -1    0.25    0.29 
  21  -3  -1    0.25    0.25 
  21   3  -1    0.17    0.26 
  19  -3  -1    3.92    0.44 
  19   3  -1    3.56    0.44 
  19   3  -1    3.60    0.35 
  17  -3  -1    1.75    0.30 
  17   3  -1    1.39    0.29 
  17   3  -1    1.56    0.23 
  15  -3  -1   13.26    0.61 
  15   3  -1   12.78    0.63 
  15   3  -1   13.40    0.54 
  13  -3  -1    0.10    0.06 
  13  -3  -1    0.19    0.07 
 -13  -3   1    0.22    0.22 
  13  -3  -1    0.05    0.14 
  13   3  -1    0.18    0.15 
  13   3  -1   -0.01    0.11 
 -11  -3   1   29.10    1.05 
  11  -3  -1   30.86    0.91 
  11  -3  -1   28.38    0.72 
  11  -3  -1   29.39    0.71 
  11   3  -1   30.02    0.86 
  11   3  -1   28.98    0.92 
   9  -3  -1    1.85    0.09 
   9  -3  -1    2.01    0.21 
   9  -3  -1    1.92    0.09 
  -9  -3   1    1.39    0.26 
   9   3  -1    2.02    0.20 
   9   3  -1    1.71    0.21 
  -7  -3   1    0.86    0.20 
   7  -3  -1    0.75    0.13 
   7   3  -1    0.88    0.13 
   5  -3  -1   16.49    0.48 
   5  -3  -1   16.65    0.40 
   5   3  -1   16.47    0.50 
  -5   3   1   17.39    0.48 
  -5   3   1   16.67    0.40 
   3  -3  -1   11.71    0.31 
  -3  -3   1   11.93    0.36 
   3  -3  -1   11.55    0.34 
  -3  -3   1   11.65    0.43 
  -3   3   1   12.19    0.34 
   3   3  -1   10.68    0.35 
  -3   3   1   11.78    0.31 
   3   3  -1   10.62    0.40 
   1  -3  -1  127.46    2.93 
  -1  -3   1  130.82    2.99 
   1  -3  -1  126.66    2.94 
  -1  -3   1  127.48    2.94 
   1   3  -1  130.44    2.94 
  -1   3   1  130.52    2.93 
   1   3  -1  128.18    2.95 
   1   3  -1  132.76    2.98 
  -1   3   1  128.24    2.93 
  -1  -3  -1   54.26    1.32 
   1  -3   1   54.91    1.25 
   1  -3   1   52.53    1.31 
  -1  -3  -1   54.29    1.29 
   1   3   1   53.38    1.29 
  -1   3  -1   53.07    1.26 
  -1   3  -1   55.16    1.30 
  -1   3  -1   54.47    1.25 
   1   3   1   53.69    1.31 
   3  -3   1   44.40    1.13 
  -3  -3  -1   44.57    1.18 
   3   3   1   47.04    1.24 
  -3   3  -1   44.55    1.02 
  -3   3  -1   44.39    1.02 
   3   3   1   45.13    1.12 
   5  -3   1   66.65    1.65 
  -5  -3  -1   65.73    1.74 
   5   3   1   68.18    1.63 
   5   3   1   66.54    1.65 
   7  -3   1    2.12    0.22 
  -7  -3  -1    1.97    0.27 
   7   3   1    2.28    0.22 
   7   3   1    1.84    0.18 
   9  -3   1   39.13    0.89 
   9  -3   1   38.01    0.90 
  -9  -3  -1   36.81    1.24 
   9  -3   1   37.48    1.09 
   9   3   1   38.22    1.10 
   9   3   1   38.51    1.05 
  -9   3  -1   37.52    0.89 
  11  -3   1    0.11    0.05 
  11  -3   1    0.03    0.06 
  11  -3   1   -0.07    0.13 
  11   3   1    0.13    0.15 
  11   3   1   -0.07    0.11 
 -11   3  -1   -0.01    0.05 
  13  -3   1   14.23    0.41 
  13  -3   1   14.54    0.64 
  13   3   1   14.71    0.56 
  13   3   1   13.77    0.62 
  15  -3   1    7.29    0.49 
  15   3   1    5.91    0.38 
  15   3   1    6.64    0.49 
  17  -3   1    3.52    0.41 
  17   3   1    3.11    0.32 
  17   3   1    3.64    0.42 
  19  -3   1    6.57    0.56 
  19   3   1    8.35    0.61 
  19   3   1    6.17    0.49 
  21  -3   1   -0.26    0.23 
  21   3   1    0.17    0.28 
  22  -4  -1    0.12    0.26 
  22   4  -1   -0.08    0.25 
  20  -4  -1    1.82    0.36 
  20   4  -1    2.14    0.31 
  20   4  -1    1.67    0.34 
  18  -4  -1    0.28    0.22 
  18   4  -1   -0.13    0.19 
  18   4  -1    0.09    0.17 
  16  -4  -1   24.65    0.90 
 -16  -4   1   24.78    1.14 
  16   4  -1   22.55    0.82 
  16   4  -1   24.44    0.94 
  14  -4  -1    9.37    0.48 
 -14  -4   1    7.52    0.58 
  14   4  -1    8.61    0.43 
  14   4  -1    7.79    0.47 
 -12  -4   1    4.97    0.46 
  12  -4  -1    5.47    0.35 
  12   4  -1    5.33    0.32 
  12   4  -1    5.76    0.37 
  10  -4  -1   34.19    0.98 
 -10  -4   1   34.27    1.16 
  10   4  -1   33.85    0.97 
  10   4  -1   34.04    1.02 
   8  -4  -1    0.05    0.11 
  -8  -4   1    0.12    0.16 
   8   4  -1    0.23    0.12 
  -6  -4   1   68.74    1.80 
   6  -4  -1   68.96    1.53 
   6  -4  -1   67.15    1.65 
  -6   4   1   68.29    1.53 
   6   4  -1   65.24    1.67 
   4  -4  -1    9.17    0.26 
   4  -4  -1    9.22    0.32 
  -4  -4   1    9.49    0.42 
   4   4  -1    8.71    0.34 
  -4   4   1    9.32    0.31 
  -4   4   1    9.43    0.27 
  -2  -4   1   87.10    2.08 
   2  -4  -1   85.95    1.97 
   2  -4  -1   84.16    2.00 
  -2   4   1   86.05    1.98 
   2   4  -1   83.53    2.01 
  -2   4   1   86.80    1.99 
   0  -4  -1   16.36    0.49 
   0  -4   1   16.11    0.45 
   0  -4   1   15.95    0.51 
   0  -4  -1   16.81    0.50 
   0   4   1   16.42    0.48 
   0   4  -1   16.27    0.53 
   0   4  -1   16.26    0.45 
   0   4   1   16.38    0.47 
   0   4  -1   16.26    0.46 
   2  -4   1   14.43    0.46 
  -2  -4  -1   14.54    0.49 
   2  -4   1   14.08    0.38 
  -2   4  -1   13.38    0.39 
  -2   4  -1   14.69    0.38 
   2   4   1   14.07    0.45 
   2   4   1   14.71    0.48 
   4  -4   1   30.98    0.90 
  -4  -4  -1   33.69    0.98 
   4   4   1   34.57    0.90 
  -4   4  -1   33.41    0.77 
  -4   4  -1   33.71    0.77 
  -6  -4  -1   25.53    0.87 
   6  -4   1   26.37    0.77 
   6   4   1   25.13    0.75 
   6   4   1   26.37    0.78 
   8  -4   1    9.57    0.42 
  -8  -4  -1    8.80    0.52 
   8   4   1    8.97    0.39 
   8   4   1    9.07    0.43 
  10  -4   1   -0.09    0.13 
 -10  -4  -1    0.04    0.19 
  10   4   1    0.01    0.12 
  10   4   1    0.00    0.11 
 -12  -4  -1   -0.06    0.21 
  12  -4   1    0.24    0.16 
  12   4   1   -0.07    0.16 
  12   4   1    0.19    0.14 
  14  -4   1    8.05    0.50 
  14   4   1    8.25    0.44 
  14   4   1    7.89    0.50 
  16  -4   1    1.51    0.31 
  16   4   1    0.91    0.26 
  16   4   1    1.45    0.25 
  18  -4   1    1.55    0.33 
  18   4   1    2.00    0.30 
  18   4   1    1.86    0.37 
  20  -4   1    0.53    0.29 
  20   4   1    0.58    0.29 
  21  -5  -1   -0.23    0.23 
  21   5  -1    0.03    0.20 
  21   5  -1    0.16    0.27 
  19  -5  -1    6.77    0.53 
  19   5  -1    5.66    0.44 
  19   5  -1    5.23    0.51 
  17  -5  -1   12.95    0.66 
 -17  -5   1   12.38    0.85 
  17   5  -1   12.87    0.69 
  17   5  -1   12.00    0.58 
 -15  -5   1   10.01    0.71 
  15  -5  -1    9.13    0.51 
  15   5  -1    8.90    0.49 
  15   5  -1    9.37    0.54 
 -13  -5   1   -0.17    0.18 
  13  -5  -1   -0.17    0.12 
  13   5  -1    0.02    0.13 
  13   5  -1    0.00    0.14 
 -11  -5   1    0.66    0.25 
  11  -5  -1    0.31    0.15 
  11   5  -1    0.31    0.14 
  11   5  -1    0.40    0.17 
   9  -5  -1    4.93    0.29 
  -9  -5   1    4.60    0.40 
   9   5  -1    4.86    0.31 
  -7  -5   1   69.97    1.90 
   7  -5  -1   68.65    1.73 
   7   5  -1   70.72    1.76 
  -5  -5   1   28.08    0.89 
   5  -5  -1   27.76    0.68 
   5  -5  -1   27.16    0.77 
  -5   5   1   28.33    0.69 
   5   5  -1   28.82    0.80 
  -3  -5   1    3.66    0.28 
   3  -5  -1    3.29    0.20 
   3  -5  -1    3.51    0.16 
   3   5  -1    3.67    0.22 
  -3   5   1    3.46    0.18 
  -3   5   1    3.53    0.17 
   1  -5  -1   18.28    0.56 
  -1  -5   1   18.09    0.59 
  -1   5   1   19.20    0.54 
  -1   5   1   19.01    0.53 
   1   5  -1   18.16    0.53 
   1  -5   1    6.61    0.24 
   1  -5   1    6.29    0.30 
  -1  -5  -1    5.92    0.30 
   1   5   1    6.23    0.28 
  -1   5  -1    6.56    0.24 
  -1   5  -1    6.47    0.25 
   3  -5   1   35.52    0.97 
   3  -5   1   36.25    0.86 
  -3  -5  -1   34.39    1.02 
  -3   5  -1   35.67    0.87 
   3   5   1   36.08    0.96 
  -3   5  -1   36.10    0.86 
   5  -5   1   15.03    0.54 
  -5  -5  -1   16.15    0.64 
  -5   5  -1   15.75    0.39 
  -5   5  -1   16.78    0.39 
   5   5   1   16.30    0.55 
  -7  -5  -1   16.24    0.68 
   7  -5   1   14.89    0.56 
   7   5   1   15.30    0.55 
   7   5   1   14.67    0.56 
   9  -5   1    3.12    0.28 
  -9  -5  -1    3.49    0.40 
   9   5   1    3.53    0.30 
   9   5   1    3.31    0.27 
  11  -5   1   60.02    1.67 
 -11  -5  -1   61.36    1.88 
  11   5   1   60.14    1.63 
  11   5   1   61.79    1.70 
 -13  -5  -1    4.04    0.52 
  13  -5   1    2.26    0.30 
  13   5   1    3.07    0.31 
  13   5   1    3.41    0.37 
  15  -5   1    7.66    0.52 
  15   5   1    8.12    0.48 
  15   5   1    7.85    0.54 
  17  -5   1    0.72    0.26 
  17   5   1    0.79    0.29 
  17   5   1    0.65    0.23 
  19  -5   1    0.33    0.27 
  19   5   1    0.06    0.20 
  19   5   1    0.25    0.27 
  21  -5   1   -0.05    0.27 
  21   5   1   -0.26    0.22 
  22  -6  -1    0.14    0.28 
  22   6  -1   -0.06    0.23 
  22   6  -1   -0.09    0.24 
  20  -6  -1    4.77    0.50 
  20   6  -1    4.78    0.46 
  20   6  -1    5.03    0.55 
  18  -6  -1    3.58    0.41 
 -18  -6   1    4.42    0.63 
  18   6  -1    3.64    0.39 
  18   6  -1    4.84    0.51 
 -16  -6   1    0.91    0.35 
  16  -6  -1    1.24    0.26 
  16   6  -1    1.11    0.24 
  16   6  -1    1.64    0.31 
 -14  -6   1    4.12    0.50 
  14  -6  -1    4.30    0.37 
  14   6  -1    4.42    0.40 
  14   6  -1    5.18    0.38 
  12  -6  -1   21.86    0.76 
 -12  -6   1   21.41    0.95 
  12   6  -1   21.52    0.80 
  12   6  -1   20.95    0.75 
 -10  -6   1    1.19    0.27 
  10  -6  -1    0.90    0.17 
  10   6  -1    0.44    0.15 
  10   6  -1    1.04    0.21 
   8  -6  -1    1.75    0.20 
  -8  -6   1    1.35    0.25 
   8   6  -1    1.90    0.22 
   6  -6  -1    0.56    0.13 
  -6  -6   1    0.60    0.18 
   6  -6  -1    0.61    0.08 
  -6   6   1    0.72    0.08 
   6   6  -1    0.74    0.17 
   4  -6  -1   29.42    0.74 
  -4  -6   1   29.34    0.92 
   4  -6  -1   28.60    0.80 
  -4   6   1   29.08    0.74 
   4   6  -1   27.51    0.82 
  -2  -6   1   20.55    0.67 
   2  -6  -1   18.30    0.59 
   2   6  -1   20.09    0.59 
  -2   6   1   18.44    0.55 
   0  -6   1    8.61    0.39 
   0  -6  -1    8.55    0.38 
   0   6   1    9.31    0.35 
   0   6  -1    9.04    0.33 
   2  -6   1    1.12    0.13 
   2  -6   1    1.24    0.18 
  -2  -6  -1    1.64    0.21 
  -2   6  -1    1.27    0.14 
   2   6   1    1.54    0.18 
  -2   6  -1    1.48    0.14 
   4  -6   1    0.87    0.16 
   4  -6   1    1.01    0.10 
  -4  -6  -1    0.95    0.20 
   4   6   1    0.99    0.17 
  -4   6  -1    1.03    0.10 
  -4   6  -1    0.88    0.09 
  -6  -6  -1   12.66    0.59 
   6  -6   1   13.41    0.51 
   6   6   1   13.35    0.51 
  -8  -6  -1    4.43    0.40 
   8  -6   1    3.62    0.29 
   8   6   1    4.78    0.33 
   8   6   1    4.52    0.31 
  10  -6   1   14.57    0.60 
 -10  -6  -1   15.09    0.75 
  10   6   1   14.10    0.61 
  10   6   1   15.20    0.60 
 -12  -6  -1   17.32    0.86 
  12  -6   1   15.40    0.66 
  12   6   1   14.97    0.64 
  12   6   1   15.27    0.68 
 -14  -6  -1    1.04    0.36 
  14  -6   1    1.09    0.25 
  14   6   1    1.69    0.31 
  14   6   1    1.24    0.25 
  16  -6   1    8.47    0.58 
  16   6   1    9.94    0.56 
  16   6   1    9.46    0.61 
  18  -6   1    0.08    0.23 
  18   6   1   -0.06    0.22 
  18   6   1   -0.09    0.20 
  20  -6   1    0.78    0.31 
  20   6   1    1.02    0.29 
  20   6   1    0.92    0.32 
  21  -7  -1    6.15    0.58 
  21   7  -1    5.85    0.60 
  21   7  -1    5.93    0.54 
 -19  -7   1    0.25    0.37 
  19  -7  -1    0.35    0.24 
  19   7  -1    0.38    0.27 
  19   7  -1    0.23    0.23 
  17  -7  -1   15.66    0.73 
 -17  -7   1   15.88    0.99 
  17   7  -1   14.59    0.71 
  17   7  -1   16.01    0.80 
  15  -7  -1   29.99    1.03 
 -15  -7   1   28.26    1.25 
  15   7  -1   29.34    1.02 
  15   7  -1   29.19    1.07 
  13  -7  -1    2.98    0.31 
 -13  -7   1    3.17    0.48 
  13   7  -1    3.43    0.34 
  13   7  -1    2.97    0.35 
  11  -7  -1    1.25    0.22 
 -11  -7   1    1.37    0.33 
  11   7  -1    1.07    0.22 
  11   7  -1    1.01    0.22 
  -9  -7   1    9.46    0.58 
   9  -7  -1    9.65    0.44 
   9   7  -1   10.28    0.47 
   7  -7  -1   12.47    0.47 
  -7  -7   1   12.42    0.61 
   7  -7  -1   12.14    0.34 
   7   7  -1   12.30    0.50 
  -7   7   1   12.25    0.35 
  -5  -7   1    7.14    0.43 
   5  -7  -1    6.89    0.32 
   5   7  -1    6.58    0.35 
  -5   7   1    6.77    0.25 
   3  -7  -1    3.29    0.24 
  -3  -7   1    3.63    0.32 
   3   7  -1    3.34    0.24 
  -3   7   1    3.73    0.21 
   1  -7  -1   19.83    0.66 
  -1  -7   1   20.02    0.70 
  -1   7   1   20.93    0.62 
   1   7  -1   21.43    0.63 
   1  -7   1    0.74    0.15 
  -1  -7  -1    0.77    0.17 
  -1   7  -1    0.93    0.13 
   1   7   1    0.84    0.15 
  -3  -7  -1    0.26    0.15 
   3  -7   1    0.06    0.11 
   3   7   1    0.04    0.11 
  -3   7  -1    0.05    0.07 
  -5  -7  -1    0.13    0.15 
   5  -7   1   -0.09    0.10 
   5   7   1    0.18    0.11 
  -5   7  -1    0.05    0.06 
  -5   7  -1   -0.03    0.05 
   7  -7   1    7.74    0.40 
  -7  -7  -1    6.23    0.46 
   7   7   1    6.60    0.38 
   9  -7   1   18.96    0.70 
  -9  -7  -1   18.63    0.84 
   9   7   1   18.71    0.70 
   9   7   1   18.35    0.70 
 -11  -7  -1    3.13    0.43 
  11  -7   1    3.49    0.34 
  11   7   1    3.76    0.37 
  11   7   1    2.71    0.31 
 -13  -7  -1   10.45    0.73 
  13  -7   1    9.52    0.55 
  13   7   1    9.57    0.52 
  13   7   1    8.93    0.55 
  15  -7   1   17.50    0.79 
 -15  -7  -1   16.76    0.99 
  15   7   1   16.21    0.72 
  15   7   1   15.80    0.77 
  17  -7   1    1.09    0.30 
  17   7   1    0.67    0.30 
  17   7   1    1.18    0.29 
  19  -7   1    0.31    0.27 
  19   7   1    0.09    0.25 
  19   7   1    0.44    0.25 
  20  -8  -1    0.16    0.27 
 -20  -8   1   -0.12    0.36 
  20   8  -1    0.31    0.29 
  20   8  -1    0.34    0.25 
 -18  -8   1    3.35    0.60 
  18  -8  -1    3.44    0.43 
  18   8  -1    3.15    0.39 
  18   8  -1    4.30    0.50 
  16  -8  -1    0.06    0.19 
 -16  -8   1    0.48    0.33 
  16   8  -1    0.25    0.23 
  16   8  -1   -0.06    0.18 
  14  -8  -1    0.66    0.21 
 -14  -8   1    1.01    0.36 
  14   8  -1    0.83    0.23 
  14   8  -1    0.78    0.27 
  12  -8  -1    6.18    0.40 
 -12  -8   1    5.87    0.55 
  12   8  -1    5.16    0.42 
  12   8  -1    5.68    0.41 
  10  -8  -1    6.71    0.39 
 -10  -8   1    6.59    0.53 
  10   8  -1    6.57    0.41 
   8  -8  -1    7.89    0.40 
  -8  -8   1    8.59    0.55 
   8  -8  -1    7.60    0.25 
  -8   8   1    8.28    0.25 
   8   8  -1    8.34    0.43 
  -8   8   1    7.93    0.26 
  -6  -8   1   13.14    0.64 
   6  -8  -1   12.36    0.49 
   6   8  -1   13.30    0.52 
  -6   8   1   12.26    0.39 
  -4  -8   1    7.45    0.45 
   4  -8  -1    6.90    0.36 
   4   8  -1    8.64    0.39 
  -4   8   1    8.16    0.31 
  -2  -8   1    4.03    0.32 
   2  -8  -1    3.75    0.28 
  -2   8   1    4.11    0.25 
   2   8  -1    3.53    0.26 
   0  -8   1    3.58    0.30 
   0  -8  -1    3.49    0.29 
   0   8   1    4.01    0.25 
   0   8  -1    3.93    0.24 
  -2  -8  -1   11.71    0.53 
   2  -8   1   12.42    0.51 
   2   8   1   12.13    0.48 
  -2   8  -1   12.10    0.41 
  -4  -8  -1    5.08    0.39 
   4  -8   1    4.93    0.33 
  -4   8  -1    5.44    0.23 
   4   8   1    4.59    0.31 
   6  -8   1    5.50    0.35 
  -6  -8  -1    5.94    0.44 
  -6   8  -1    5.02    0.21 
   6   8   1    5.11    0.34 
  -6   8  -1    5.28    0.20 
   8  -8   1    5.65    0.37 
  -8  -8  -1    5.03    0.47 
   8   8   1    6.67    0.40 
   8   8   1    5.82    0.38 
 -10  -8  -1   28.31    1.13 
  10  -8   1   28.65    0.96 
  10   8   1   26.13    0.93 
  10   8   1   27.83    0.96 
 -12  -8  -1    0.18    0.27 
  12  -8   1    0.22    0.18 
  12   8   1   -0.10    0.16 
  12   8   1    0.09    0.19 
  14  -8   1    0.13    0.20 
 -14  -8  -1    0.20    0.30 
  14   8   1    0.25    0.21 
  14   8   1   -0.11    0.18 
 -16  -8  -1   -0.32    0.30 
  16  -8   1   -0.13    0.20 
  16   8   1    0.26    0.22 
  16   8   1    0.07    0.23 
  18  -8   1   -0.04    0.24 
  18   8   1   -0.10    0.23 
  18   8   1    0.01    0.24 
  20   8   1    0.66    0.29 
  19  -9  -1    0.26    0.25 
 -19  -9   1   -0.49    0.32 
  19   9  -1    0.14    0.26 
  19   9  -1    0.06    0.24 
 -17  -9   1   -0.30    0.29 
  17  -9  -1   -0.08    0.20 
  17   9  -1   -0.09    0.21 
  17   9  -1    0.04    0.23 
 -15  -9   1    4.30    0.61 
  15  -9  -1    4.58    0.42 
  15   9  -1    4.88    0.50 
  15   9  -1    4.33    0.43 
 -13  -9   1   19.61    1.03 
  13  -9  -1   21.55    0.83 
  13   9  -1   23.31    0.90 
  13   9  -1   22.12    0.86 
 -11  -9   1    1.47    0.33 
  11  -9  -1    1.77    0.25 
  11   9  -1    1.53    0.25 
   9  -9  -1    2.60    0.28 
  -9  -9   1    2.68    0.41 
   9   9  -1    2.35    0.28 
   7  -9  -1    5.51    0.34 
  -7  -9   1    5.69    0.47 
   7   9  -1    5.50    0.36 
  -7   9   1    5.22    0.23 
   5  -9  -1   36.59    1.08 
  -5  -9   1   37.37    1.22 
   5   9  -1   35.64    1.08 
  -5   9   1   37.46    0.97 
  -3  -9   1    5.40    0.40 
   3  -9  -1    5.30    0.34 
  -3   9   1    5.17    0.28 
   3   9  -1    5.17    0.32 
   1  -9  -1    8.69    0.43 
  -1  -9   1    8.61    0.47 
   1   9  -1    8.21    0.38 
  -1   9   1    8.28    0.37 
  -1  -9  -1    2.90    0.30 
   1  -9   1    2.36    0.28 
  -1   9  -1    2.75    0.21 
   1   9   1    2.50    0.25 
   3  -9   1    2.61    0.28 
  -3  -9  -1    2.45    0.31 
  -3   9  -1    2.27    0.18 
   3   9   1    1.97    0.23 
   5  -9   1    3.87    0.32 
  -5  -9  -1    3.80    0.38 
  -5   9  -1    4.02    0.21 
   5   9   1    3.82    0.31 
  -7  -9  -1    2.00    0.34 
   7  -9   1    1.58    0.24 
   7   9   1    1.97    0.27 
  -7   9  -1    1.61    0.12 
   9  -9   1    3.99    0.35 
  -9  -9  -1    3.29    0.44 
   9   9   1    3.62    0.36 
   9   9   1    4.31    0.38 
  11  -9   1    0.08    0.17 
 -11  -9  -1    0.26    0.27 
  11   9   1    0.03    0.18 
  11   9   1    0.17    0.19 
  13  -9   1   12.62    0.66 
 -13  -9  -1   12.19    0.82 
  13   9   1   12.76    0.65 
  13   9   1   11.37    0.64 
  15  -9   1    0.24    0.23 
 -15  -9  -1    0.12    0.33 
  15   9   1    0.10    0.21 
  15   9   1    0.10    0.23 
  17  -9   1    0.10    0.24 
 -17  -9  -1    0.14    0.38 
  17   9   1    0.06    0.23 
  17   9   1    0.25    0.26 
  19  -9   1    0.39    0.30 
  19   9   1    0.12    0.27 
  19   9   1    0.34    0.31 
 -18 -10   1    0.19    0.37 
  18 -10  -1    0.47    0.26 
  18  10  -1    0.38    0.27 
  18  10  -1    0.44    0.30 
 -16 -10   1    0.15    0.33 
  16 -10  -1    0.36    0.22 
  16  10  -1    0.38    0.25 
  16  10  -1    0.52    0.27 
 -14 -10   1    1.28    0.39 
  14 -10  -1    0.85    0.24 
  14  10  -1    0.95    0.26 
  14  10  -1    0.76    0.27 
  12 -10  -1    4.52    0.40 
 -12 -10   1    5.18    0.59 
  12  10  -1    5.01    0.43 
 -10 -10   1    5.55    0.55 
  10 -10  -1    5.63    0.40 
  10  10  -1    6.09    0.44 
   8 -10  -1   12.12    0.54 
  -8 -10   1   11.91    0.69 
   8  10  -1   12.65    0.58 
  -6 -10   1    0.78    0.25 
   6 -10  -1    0.67    0.18 
   6  10  -1    0.43    0.17 
  -6  10   1    0.40    0.11 
   4 -10  -1    0.39    0.16 
  -4 -10   1    0.67    0.24 
  -4  10   1    0.59    0.13 
   4  10  -1    0.64    0.18 
  -2 -10   1   -0.05    0.16 
   2 -10  -1    0.14    0.14 
   2  10  -1    0.07    0.12 
  -2  10   1    0.31    0.13 
   0 -10   1    2.74    0.32 
   0 -10  -1    1.86    0.27 
   0  10  -1    1.79    0.21 
   0  10   1    1.95    0.22 
  -2 -10  -1    0.89    0.23 
   2 -10   1    1.17    0.22 
   2  10   1    0.99    0.19 
  -2  10  -1    1.34    0.17 
   4 -10   1   16.26    0.66 
  -4 -10  -1   15.66    0.71 
   4  10   1   16.50    0.64 
  -4  10  -1   15.81    0.51 
   6 -10   1    9.17    0.50 
  -6 -10  -1    8.90    0.57 
  -6  10  -1    9.04    0.33 
   6  10   1    8.77    0.48 
   8 -10   1   10.92    0.55 
  -8 -10  -1   10.22    0.66 
   8  10   1    9.82    0.52 
  10 -10   1    2.34    0.32 
 -10 -10  -1    3.04    0.46 
  10  10   1    3.44    0.38 
  10  10   1    2.73    0.35 
 -12 -10  -1    0.23    0.30 
  12 -10   1    0.00    0.19 
  12  10   1    0.01    0.20 
  12  10   1    0.09    0.20 
  14 -10   1    2.08    0.34 
 -14 -10  -1    2.55    0.53 
  14  10   1    2.09    0.35 
  14  10   1    2.22    0.36 
 -16 -10  -1    1.26    0.44 
  16 -10   1    1.38    0.32 
  16  10   1    1.63    0.34 
  16  10   1    1.65    0.37 
  18 -10   1    0.92    0.33 
 -18 -10  -1    0.85    0.45 
  18  10   1    0.60    0.29 
  18  10   1    1.33    0.36 
 -17 -11   1   -0.19    0.32 
  17 -11  -1   -0.02    0.21 
  17  11  -1   -0.01    0.26 
  17  11  -1   -0.27    0.22 
  15 -11  -1    0.03    0.21 
 -15 -11   1    0.10    0.32 
  15  11  -1   -0.07    0.22 
  15  11  -1    0.24    0.24 
  13 -11  -1   10.00    0.58 
 -13 -11   1   10.66    0.79 
  13  11  -1    8.90    0.59 
  13  11  -1    8.84    0.57 
 -11 -11   1    3.62    0.51 
  11 -11  -1    3.49    0.36 
  11  11  -1    3.21    0.36 
   9 -11  -1    5.05    0.39 
  -9 -11   1    4.05    0.50 
   9  11  -1    4.77    0.41 
  -7 -11   1   24.60    1.02 
   7 -11  -1   24.76    0.87 
  -7  11   1   25.40    0.88 
   7  11  -1   22.94    0.86 
   5 -11  -1    7.87    0.45 
  -5 -11   1    7.35    0.55 
  -5  11   1    6.96    0.34 
   5  11  -1    7.49    0.44 
  -3 -11   1   10.42    0.61 
   3 -11  -1   11.25    0.55 
  -3  11   1   11.32    0.46 
   3  11  -1   11.51    0.51 
   1 -11  -1   36.29    1.17 
  -1 -11   1   37.60    1.22 
  -1  11   1   37.29    1.08 
   1  11  -1   36.96    1.08 
  -1 -11  -1    6.04    0.44 
   1 -11   1    6.27    0.45 
  -1  11  -1    6.69    0.35 
   1  11   1    7.05    0.39 
   3 -11   1   -0.11    0.14 
  -3 -11  -1    0.25    0.20 
  -3  11  -1   -0.08    0.10 
   3  11   1    0.01    0.14 
   5 -11   1    0.35    0.20 
  -5 -11  -1    0.43    0.24 
   5  11   1    0.08    0.16 
  -5  11  -1    0.51    0.13 
   7 -11   1    2.78    0.34 
  -7 -11  -1    2.82    0.41 
   7  11   1    2.37    0.31 
  -9 -11  -1    4.50    0.55 
   9 -11   1    4.25    0.41 
   9  11   1    4.61    0.42 
 -11 -11  -1    0.42    0.31 
  11 -11   1    0.23    0.20 
  11  11   1    0.43    0.23 
  11  11   1    0.10    0.22 
 -13 -11  -1    1.12    0.40 
  13 -11   1    0.94    0.27 
  13  11   1    0.46    0.25 
  13  11   1    1.08    0.29 
 -15 -11  -1    1.79    0.49 
  15 -11   1    2.82    0.42 
  15  11   1    1.32    0.34 
  15  11   1    1.94    0.39 
 -17 -11  -1    1.83    0.55 
  17 -11   1    1.57    0.36 
  17  11   1    1.39    0.37 
  17  11   1    1.58    0.37 
  16 -12  -1    0.22    0.26 
 -16 -12   1    0.01    0.35 
  16  12  -1   -0.11    0.24 
  16  12  -1    0.03    0.25 
  14 -12  -1    2.40    0.37 
 -14 -12   1    2.88    0.54 
  14  12  -1    2.00    0.36 
  14  12  -1    2.56    0.40 
  12 -12  -1    1.47    0.28 
 -12 -12   1    1.73    0.43 
  12  12  -1    1.36    0.30 
  10 -12  -1    0.04    0.18 
 -10 -12   1    0.26    0.29 
  10  12  -1    0.48    0.22 
  -8 -12   1   26.57    1.11 
   8 -12  -1   23.34    0.89 
   8  12  -1   24.91    0.92 
   6 -12  -1   -0.03    0.15 
  -6 -12   1    0.19    0.24 
   6  12  -1    0.09    0.16 
  -6  12   1   -0.17    0.11 
  -4 -12   1    0.03    0.21 
   4 -12  -1   -0.16    0.15 
   4  12  -1    0.05    0.16 
  -4  12   1   -0.07    0.12 
   2 -12  -1    0.09    0.17 
  -2 -12   1   -0.03    0.18 
   2  12  -1    0.04    0.15 
  -2  12   1    0.19    0.15 
   0 -12   1    5.63    0.46 
   0 -12  -1    4.71    0.42 
   0  12   1    4.60    0.35 
   0  12  -1    4.70    0.33 
  -2 -12  -1   10.42    0.61 
   2 -12   1   11.67    0.61 
  -2  12  -1   11.34    0.47 
   2  12   1   11.19    0.54 
  -4 -12  -1    0.23    0.22 
   4 -12   1    0.04    0.17 
   4  12   1    0.05    0.17 
  -4  12  -1   -0.01    0.12 
  -6 -12  -1    0.69    0.28 
   6 -12   1    0.66    0.23 
   6  12   1    1.17    0.26 
   8 -12   1    0.72    0.24 
  -8 -12  -1    0.74    0.31 
   8  12   1    0.58    0.23 
  10 -12   1   27.83    1.04 
 -10 -12  -1   25.91    1.20 
  10  12   1   27.01    1.03 
  10  12   1   26.27    1.03 
 -12 -12  -1   -0.03    0.30 
  12 -12   1    0.13    0.22 
  12  12   1    0.17    0.22 
  12  12   1    0.23    0.23 
  14 -12   1    0.13    0.24 
 -14 -12  -1    0.61    0.39 
  14  12   1    0.14    0.27 
  14  12   1    0.59    0.28 
 -16 -12  -1    1.98    0.52 
  16 -12   1    1.58    0.37 
  16  12   1    1.67    0.38 
  16  12   1    2.11    0.41 
 -15 -13   1    0.24    0.37 
  15  13  -1    0.30    0.28 
  15  13  -1    0.09    0.26 
 -13 -13   1   -0.22    0.31 
  13  13  -1   -0.04    0.23 
  13  13  -1   -0.11    0.22 
  11 -13  -1    0.20    0.22 
 -11 -13   1   -0.05    0.29 
  11  13  -1    0.01    0.22 
  -9 -13   1    0.04    0.28 
   9 -13  -1    0.08    0.19 
   9  13  -1    0.18    0.21 
  -7 -13   1    1.78    0.39 
   7 -13  -1    1.02    0.26 
   7  13  -1    1.46    0.28 
   5 -13  -1    0.48    0.22 
  -5 -13   1    0.61    0.28 
  -5  13   1    0.12    0.18 
   5  13  -1    0.67    0.22 
   3 -13  -1    0.39    0.22 
  -3 -13   1    0.16    0.24 
  -3  13   1    0.03    0.15 
   3  13  -1    0.19    0.17 
  -1 -13   1    1.06    0.29 
   1 -13  -1    1.65    0.31 
  -1  13   1    1.69    0.25 
   1  13  -1    1.65    0.25 
   1 -13   1    1.64    0.33 
  -1 -13  -1    2.10    0.35 
  -1  13  -1    2.24    0.26 
   1  13   1    2.67    0.32 
  -3 -13  -1    7.33    0.56 
   3 -13   1    6.79    0.50 
   3  13   1    6.79    0.46 
  -3  13  -1    7.18    0.40 
   5 -13   1    4.79    0.45 
  -5 -13  -1    5.92    0.55 
   5  13   1    5.34    0.44 
  -7 -13  -1    6.51    0.61 
   7 -13   1    5.59    0.50 
   7  13   1    6.42    0.49 
  -9 -13  -1   -0.12    0.27 
   9 -13   1    0.10    0.23 
   9  13   1    0.27    0.24 
  11 -13   1    0.36    0.25 
 -11 -13  -1    0.33    0.34 
  11  13   1    0.46    0.27 
  11  13   1    0.16    0.23 
 -13 -13  -1    0.05    0.35 
  13 -13   1    0.18    0.24 
  13  13   1    0.13    0.27 
  13  13   1    0.24    0.26 
  15  13   1    0.51    0.37 
 -14 -14   1    0.26    0.37 
  14  14  -1    0.15    0.27 
  14  14  -1    0.10    0.26 
 -12 -14   1   -0.23    0.30 
  12  14  -1   -0.04    0.24 
 -10 -14   1    0.14    0.30 
  10  14  -1    0.06    0.23 
   8 -14  -1    0.23    0.35 
  -8 -14   1    0.04    0.27 
   8  14  -1    0.06    0.21 
  -6 -14   1    1.06    0.35 
   6 -14  -1    1.62    0.31 
   6  14  -1    1.43    0.30 
  -4 -14   1    2.87    0.45 
   4 -14  -1    2.63    0.37 
   4  14  -1    3.25    0.37 
   2 -14  -1    1.30    0.30 
  -2 -14   1    1.57    0.34 
  -2  14   1    1.13    0.23 
   2  14  -1    0.76    0.22 
   0 -14  -1    4.46    0.49 
   0 -14   1    4.77    0.49 
   0  14   1    5.19    0.41 
   0  14  -1    5.63    0.39 
   2 -14   1    4.03    0.47 
  -2 -14  -1    4.15    0.48 
   2  14   1    5.09    0.42 
  -2  14  -1    4.65    0.37 
  -4 -14  -1    1.30    0.33 
   4 -14   1    1.26    0.31 
   4  14   1    0.71    0.26 
  -6 -14  -1    0.34    0.28 
   6 -14   1    0.20    0.24 
   6  14   1    0.13    0.22 
  -8 -14  -1   -0.11    0.28 
   8 -14   1    0.25    0.24 
   8  14   1    0.12    0.23 
 -10 -14  -1    0.46    0.35 
  10 -14   1    0.62    0.28 
  10  14   1    0.35    0.27 
  10  14   1    0.41    0.26 
  12 -14   1   -0.12    0.24 
 -12 -14  -1   -0.17    0.32 
  12  14   1    0.08    0.25 
  12  14   1    0.09    0.27 
 -11 -15   1    0.17    0.33 
  11  15  -1   -0.16    0.22 
  -9 -15   1    0.25    0.32 
   9  15  -1    0.12    0.22 
  -7 -15   1    1.80    0.42 
   7  15  -1    2.28    0.35 
  -5 -15   1   -0.18    0.26 
   5  15  -1    0.03    0.20 
  -3 -15   1    2.76    0.46 
   3  15  -1    3.28    0.37 
  -1 -15   1   12.63    0.77 
   1 -15  -1   11.56    0.71 
  -1  15   1   13.36    0.66 
   1  15  -1   12.73    0.62 
  -1 -15  -1    0.29    0.28 
   1 -15   1    0.54    0.28 
   1  15   1    0.34    0.22 
  -1  15  -1    0.34    0.20 
   3 -15   1   -0.07    0.23 
  -3 -15  -1   -0.30    0.25 
   3  15   1    0.44    0.23 
   5 -15   1    0.50    0.28 
  -5 -15  -1    0.51    0.32 
   5  15   1    0.43    0.25 
  -7 -15  -1    0.34    0.32 
   7 -15   1    0.18    0.27 
   7  15   1    0.09    0.24 
  -9 -15  -1    0.82    0.38 
   9 -15   1    0.82    0.32 
   9  15   1    0.99    0.32 
 -11 -15  -1   -0.19    0.34 
  11  15   1   -0.19    0.24 
  11  15   1    0.14    0.28 
 -10 -16   1    0.04    0.35 
  10  16  -1    0.09    0.26 
  -8 -16   1    0.20    0.33 
   8  16  -1    0.28    0.25 
  -6 -16   1    1.79    0.42 
   6  16  -1    2.60    0.38 
  -4 -16   1    0.69    0.35 
   4  16  -1    0.34    0.23 
  -2 -16   1    0.56    0.32 
   2  16  -1    0.88    0.26 
   0 -16   1    3.28    0.49 
   0  16   1    2.42    0.34 
   0  16  -1    2.42    0.38 
   2 -16   1    1.97    0.39 
   2  16   1    2.02    0.33 
   4 -16   1    0.10    0.28 
   4  16   1    0.11    0.24 
   6  16   1    1.80    0.36 
  -8 -16  -1    1.06    0.55 
   8  16   1    0.79    0.31 
  -5 -17   1    0.72    0.40 
   5  17  -1    0.57    0.27 
  -3 -17   1    0.06    0.34 
   3  17  -1    0.27    0.24 
   1  17   1    0.07    0.23 
   3  17   1    1.68    0.35 
   5  17   1    2.17    0.40 
  24   0  -2    0.78    0.32 
  22   0  -2    1.98    0.38 
  20   0  -2    0.21    0.21 
  18   0  -2   23.85    0.75 
  18   0  -2   22.84    0.91 
  16   0  -2    2.22    0.21 
  16   0  -2    1.84    0.29 
  14   0  -2   11.13    0.41 
  14   0  -2   11.52    0.52 
  12   0  -2   13.56    0.44 
  12   0  -2   13.17    0.53 
 -10   0   2    0.08    0.16 
  10   0  -2    0.03    0.07 
  10   0  -2    0.10    0.12 
   8   0  -2   15.94    0.52 
   8   0  -2   16.38    0.46 
  -8   0   2   15.37    0.59 
   8   0  -2   15.93    0.47 
  -8   0   2   15.66    0.45 
   6   0  -2    6.13    0.25 
   6   0  -2    6.32    0.23 
   6   0  -2    5.64    0.29 
  -6   0   2    6.14    0.23 
   6   0  -2    6.00    0.22 
  -6   0   2    6.03    0.31 
   4   0  -2    0.74    0.08 
  -4   0   2    0.74    0.11 
  -4   0   2    0.75    0.09 
   4   0  -2    0.70    0.10 
   2   0  -2  636.30   14.10 
  -2   0   2  621.73   14.15 
   2   0  -2  603.81   14.13 
  -2   0   2  637.96   14.11 
   0   0  -2   91.33    2.05 
   0   0   2   90.69    2.05 
   0   0   2   88.27    2.05 
   0   0  -2   90.12    2.05 
   2   0   2  325.73    7.54 
  -2   0  -2  338.06    7.61 
   2   0   2  332.89    7.53 
  -2   0  -2  336.15    7.59 
   4   0   2   96.78    2.32 
  -4   0  -2  101.54    2.26 
   4   0   2   96.71    2.26 
   6   0   2   30.79    0.80 
   6   0   2   31.40    0.88 
   8   0   2   71.84    1.84 
   8   0   2   72.19    1.73 
  10   0   2    9.85    0.37 
  10   0   2    9.59    0.46 
  12   0   2   32.93    0.91 
  12   0   2   32.23    1.06 
  14   0   2   16.89    0.75 
  14   0   2   19.00    0.61 
  16   0   2   -0.08    0.19 
  18   0   2    8.12    0.60 
  20   0   2    0.18    0.26 
  23  -1  -2    0.12    0.24 
  23   1  -2   -0.22    0.22 
  21  -1  -2    2.28    0.38 
  21   1  -2    2.68    0.41 
  19  -1  -2   17.82    0.80 
  19   1  -2   17.29    0.64 
  19   1  -2   18.43    0.82 
  17  -1  -2    1.40    0.17 
  17  -1  -2    1.30    0.25 
  17   1  -2    1.34    0.19 
  17   1  -2    1.85    0.29 
  15  -1  -2    9.40    0.36 
  15  -1  -2    9.59    0.49 
  15   1  -2    9.58    0.40 
  15   1  -2    9.50    0.50 
 -13  -1   2    8.75    0.57 
  13  -1  -2    9.39    0.34 
  13  -1  -2    8.54    0.43 
  13   1  -2    9.71    0.47 
  13   1  -2    9.97    0.38 
  11  -1  -2   14.85    0.46 
 -11  -1   2   16.45    0.69 
  11  -1  -2   14.65    0.55 
  11   1  -2   15.93    0.58 
  11   1  -2   15.61    0.50 
   9  -1  -2    9.35    0.30 
   9  -1  -2    9.18    0.37 
   9  -1  -2    9.12    0.31 
  -9  -1   2    9.73    0.48 
   9   1  -2    9.03    0.33 
   9   1  -2    9.35    0.39 
  -7  -1   2  134.35    3.22 
   7  -1  -2  135.84    3.11 
   7  -1  -2  138.73    3.06 
   7  -1  -2  132.90    3.06 
   7   1  -2  130.50    3.13 
  -7   1   2  135.95    3.07 
   7   1  -2  132.93    3.09 
   5  -1  -2  262.34    5.87 
   5  -1  -2  256.93    5.95 
   5  -1  -2  249.71    5.80 
  -5  -1   2  262.42    5.85 
  -5  -1   2  258.94    5.84 
   5   1  -2  245.82    5.77 
   5   1  -2  255.59    5.83 
   5   1  -2  265.24    5.88 
  -5   1   2  251.86    5.79 
  -5   1   2  254.63    5.81 
  -5   1   2  258.81    5.81 
   3  -1  -2    0.06    0.04 
   3  -1  -2    0.04    0.04 
   3  -1  -2    0.07    0.05 
  -3  -1   2    0.07    0.07 
  -3  -1   2    0.08    0.08 
   3   1  -2    0.11    0.07 
  -3   1   2    0.13    0.06 
   3   1  -2    0.05    0.06 
  -3   1   2    0.15    0.05 
   1  -1  -2   25.11    0.58 
  -1  -1   2   25.12    0.63 
  -1  -1   2   25.52    0.62 
   1  -1  -2   25.15    0.62 
   1   1  -2   25.55    0.63 
  -1   1   2   24.62    0.58 
   1   1  -2   25.02    0.62 
   1  -1   2   50.30    1.19 
   1  -1   2   49.37    1.16 
  -1  -1  -2   48.90    1.17 
  -1  -1  -2   50.75    1.18 
   1   1   2   49.50    1.18 
  -1   1  -2   50.79    1.16 
   1   1   2   48.70    1.17 
   3  -1   2   12.33    0.40 
   3  -1   2   12.33    0.34 
  -3  -1  -2   13.07    0.43 
  -3  -1  -2   12.39    0.37 
  -3   1  -2   12.93    0.34 
   3   1   2   12.18    0.38 
   3   1   2   12.94    0.50 
   3   1   2   12.47    0.40 
   5  -1   2   33.50    0.92 
   5  -1   2   34.72    0.84 
   5   1   2   34.65    0.93 
   5   1   2   34.60    0.88 
  -5   1  -2   33.63    0.83 
   7  -1   2   26.52    0.81 
   7  -1   2   27.07    0.70 
  -7   1  -2   26.97    0.69 
   7   1   2   26.42    0.81 
   7   1   2   27.76    0.75 
   9  -1   2   36.12    0.93 
   9  -1   2   36.49    1.07 
   9   1   2   37.62    1.08 
   9   1   2   35.81    0.97 
  11  -1   2   20.48    0.59 
  11  -1   2   20.06    0.74 
  11   1   2   19.96    0.63 
  11   1   2   19.96    0.74 
  13  -1   2    3.01    0.22 
  13  -1   2    3.54    0.35 
  13   1   2    3.19    0.35 
  13   1   2    4.15    0.27 
  15  -1   2    6.25    0.46 
  15   1   2    6.29    0.48 
  15   1   2    6.55    0.37 
  17  -1   2    0.74    0.28 
  17   1   2    0.69    0.25 
  19  -1   2    0.00    0.23 
  19   1   2   -0.06    0.22 
  21  -1   2   -0.13    0.26 
  21   1   2    0.23    0.30 
  24  -2  -2    0.10    0.27 
  24   2  -2    0.06    0.28 
  22  -2  -2    0.09    0.23 
  22   2  -2   -0.22    0.21 
  20  -2  -2    0.12    0.21 
  20   2  -2    0.09    0.22 
  20   2  -2    0.15    0.16 
  18  -2  -2    4.85    0.43 
  18   2  -2    4.95    0.35 
  18   2  -2    4.50    0.43 
  16  -2  -2    0.09    0.16 
  16  -2  -2    0.06    0.09 
  16   2  -2   -0.04    0.17 
  16   2  -2    0.18    0.13 
 -14  -2   2    3.31    0.43 
  14  -2  -2    2.61    0.29 
  14  -2  -2    2.19    0.16 
  14   2  -2    2.44    0.22 
  14   2  -2    2.94    0.32 
 -12  -2   2    1.40    0.28 
  12  -2  -2    1.22    0.12 
  12  -2  -2    0.95    0.18 
  12   2  -2    1.17    0.21 
  12   2  -2    1.23    0.16 
  10  -2  -2  100.91    2.29 
  10  -2  -2   98.96    2.28 
 -10  -2   2   99.33    2.58 
  10  -2  -2   97.37    2.40 
  10   2  -2  101.46    2.45 
  10   2  -2   97.71    2.38 
   8  -2  -2    6.36    0.22 
   8  -2  -2    6.37    0.29 
  -8  -2   2    6.53    0.40 
   8  -2  -2    6.90    0.23 
  -8   2   2    6.49    0.23 
   8   2  -2    6.61    0.28 
   8   2  -2    6.36    0.32 
   6  -2  -2   32.17    0.83 
  -6  -2   2   32.46    0.95 
   6  -2  -2   33.20    0.79 
   6  -2  -2   33.42    0.89 
  -6   2   2   33.25    0.83 
  -6   2   2   32.37    0.79 
   6   2  -2   32.80    0.85 
   4  -2  -2   31.75    0.75 
  -4  -2   2   30.57    0.79 
  -4  -2   2   31.08    0.86 
  -4  -2   2   30.26    0.81 
   4  -2  -2   31.78    0.75 
   4   2  -2   30.65    0.84 
   4   2  -2   31.56    0.81 
  -4   2   2   31.25    0.75 
  -4   2   2   31.05    0.75 
   4   2  -2   31.89    0.80 
  -2  -2   2  187.67    4.23 
   2  -2  -2  185.73    4.27 
   2  -2  -2  191.00    4.18 
  -2  -2   2  178.98    4.25 
   2   2  -2  183.12    4.25 
   2   2  -2  195.61    4.23 
  -2   2   2  187.13    4.21 
  -2   2   2  188.68    4.19 
   2   2  -2  185.69    4.22 
   0  -2   2   96.03    2.23 
   0  -2  -2   95.54    2.20 
   0  -2   2   93.75    2.19 
   0  -2  -2   98.02    2.21 
   0   2   2   95.15    2.20 
   0   2  -2   97.18    2.22 
   0   2   2   94.03    2.21 
   0   2   2   94.46    2.17 
   0   2  -2   98.61    2.19 
  -2  -2  -2    6.66    0.25 
  -2  -2  -2    6.49    0.31 
   2  -2   2    6.74    0.21 
   2  -2   2    6.69    0.28 
  -2  -2  -2    6.53    0.25 
   2   2   2    6.73    0.29 
  -2   2  -2    6.49    0.20 
   2   2   2    6.60    0.25 
   2   2   2    6.94    0.26 
   4  -2   2   17.19    0.53 
   4  -2   2   16.27    0.43 
  -4   2  -2   16.47    0.42 
   4   2   2   16.79    0.50 
   4   2   2   16.98    0.52 
   6  -2   2    0.30    0.12 
   6  -2   2    0.33    0.07 
   6   2   2    0.31    0.11 
  -6   2  -2    0.35    0.06 
   6   2   2    0.24    0.11 
   8  -2   2    9.33    0.43 
   8  -2   2    9.32    0.30 
   8   2   2    9.76    0.39 
   8   2   2    9.50    0.43 
  -8   2  -2    9.55    0.29 
  10  -2   2   54.64    1.31 
  10  -2   2   54.10    1.50 
  10   2   2   53.27    1.40 
  10   2   2   53.92    1.50 
  12  -2   2    0.65    0.20 
  12  -2   2    0.82    0.12 
  12   2   2    0.63    0.15 
  12   2   2    1.04    0.22 
  14  -2   2    0.41    0.20 
  14   2   2    0.33    0.21 
  14   2   2    0.31    0.15 
  16  -2   2    1.95    0.35 
  16   2   2    2.71    0.38 
  16   2   2    2.26    0.27 
  18  -2   2    0.04    0.23 
  18   2   2    0.11    0.26 
  20  -2   2    0.03    0.28 
  20   2   2   -0.26    0.24 
  23  -3  -2    0.41    0.29 
  23   3  -2    0.04    0.26 
  21  -3  -2    0.21    0.24 
  21   3  -2    0.49    0.28 
  21   3  -2    0.13    0.19 
  19  -3  -2    2.51    0.36 
  19   3  -2    2.98    0.37 
  19   3  -2    2.65    0.30 
  17  -3  -2    1.24    0.26 
  17   3  -2    1.18    0.21 
  17   3  -2    1.54    0.30 
  15  -3  -2    0.04    0.07 
  15  -3  -2   -0.05    0.13 
 -15  -3   2    0.09    0.25 
  15   3  -2    0.21    0.13 
  15   3  -2    0.06    0.16 
 -13  -3   2    2.02    0.35 
  13  -3  -2    1.70    0.13 
  13  -3  -2    1.50    0.12 
  13  -3  -2    2.48    0.27 
  13   3  -2    2.10    0.26 
  13   3  -2    2.15    0.23 
  11  -3  -2    1.44    0.19 
  11  -3  -2    1.19    0.10 
  11  -3  -2    1.36    0.11 
 -11  -3   2    1.14    0.25 
  11   3  -2    1.84    0.20 
  11   3  -2    1.09    0.19 
   9  -3  -2  107.49    2.54 
   9  -3  -2  105.06    2.42 
   9  -3  -2  107.85    2.41 
  -9  -3   2  104.40    2.71 
   9   3  -2  105.70    2.54 
  -9   3   2  105.76    2.42 
   9   3  -2  107.78    2.60 
   7  -3  -2   24.96    0.68 
   7  -3  -2   24.28    0.60 
  -7   3   2   24.54    0.61 
   7   3  -2   24.71    0.70 
   5  -3  -2   56.49    1.27 
   5  -3  -2   54.09    1.30 
  -5  -3   2   54.45    1.43 
   5   3  -2   53.51    1.35 
  -5   3   2   55.90    1.30 
  -5   3   2   53.62    1.27 
   3  -3  -2   14.78    0.40 
  -3  -3   2   14.93    0.44 
  -3  -3   2   15.11    0.46 
   3  -3  -2   15.35    0.39 
  -3  -3   2   14.04    0.48 
   3   3  -2   15.78    0.53 
  -3   3   2   14.69    0.38 
  -3   3   2   14.88    0.41 
   3   3  -2   14.61    0.44 
   3   3  -2   14.19    0.45 
   1  -3  -2   19.53    0.51 
  -1  -3   2   20.08    0.52 
   1  -3  -2   19.91    0.53 
  -1  -3   2   18.92    0.53 
  -1  -3   2   19.02    0.57 
   1   3  -2   20.26    0.53 
  -1   3   2   19.70    0.50 
   1   3  -2   20.03    0.52 
  -1   3   2   19.30    0.53 
   1   3  -2   18.37    0.55 
  -1  -3  -2    6.22    0.28 
   1  -3   2    6.10    0.27 
   1  -3   2    5.80    0.21 
   1   3   2    5.68    0.23 
  -1   3  -2    6.25    0.21 
   1   3   2    6.49    0.27 
   1   3   2    6.60    0.26 
  -1   3  -2    6.43    0.21 
   3  -3   2   73.07    1.69 
   3  -3   2   72.94    1.80 
  -3  -3  -2   74.92    1.85 
   3   3   2   74.59    1.77 
  -3   3  -2   75.33    1.68 
   3   3   2   71.96    1.77 
   5  -3   2    2.42    0.22 
  -5  -3  -2    1.96    0.25 
   5  -3   2    2.22    0.10 
  -5   3  -2    2.20    0.10 
   5   3   2    1.97    0.20 
   5   3   2    2.11    0.19 
  -7  -3  -2    0.77    0.23 
   7  -3   2    0.63    0.07 
   7  -3   2    0.57    0.15 
   7   3   2    0.57    0.16 
  -7   3  -2    0.68    0.07 
   7   3   2    0.51    0.13 
   9  -3   2   29.77    0.93 
   9  -3   2   30.52    0.74 
   9   3   2   29.75    0.88 
  -9   3  -2   29.90    0.73 
   9   3   2   29.44    0.93 
  11  -3   2   17.83    0.48 
  11  -3   2   17.81    0.69 
 -11   3  -2   17.17    0.48 
  11   3   2   17.47    0.69 
  11   3   2   18.10    0.63 
  13  -3   2    5.63    0.43 
  13   3   2    5.96    0.36 
  13   3   2    6.10    0.44 
  15  -3   2    1.42    0.30 
  15   3   2    1.47    0.23 
  15   3   2    1.17    0.26 
  17  -3   2    1.18    0.31 
  17   3   2    1.24    0.24 
  17   3   2    1.12    0.31 
  19  -3   2    0.84    0.31 
  19   3   2    0.61    0.28 
  21  -3   2    0.13    0.29 
  21   3   2    0.05    0.27 
  22  -4  -2    2.70    0.41 
  22   4  -2    3.13    0.45 
  22   4  -2    2.34    0.45 
  20  -4  -2    0.96    0.29 
  20   4  -2    0.91    0.29 
  20   4  -2    0.75    0.23 
 -18  -4   2    3.53    0.54 
  18  -4  -2    3.74    0.40 
  18   4  -2    3.26    0.41 
  18   4  -2    3.32    0.33 
  16  -4  -2    7.96    0.48 
 -16  -4   2    7.67    0.64 
  16   4  -2    7.16    0.42 
  16   4  -2    7.48    0.49 
  14  -4  -2    6.80    0.40 
 -14  -4   2    7.66    0.57 
  14  -4  -2    6.52    0.21 
  14   4  -2    6.92    0.44 
  14   4  -2    7.65    0.39 
 -12  -4   2    0.65    0.24 
  12  -4  -2    0.70    0.07 
  12  -4  -2    0.79    0.16 
  12  -4  -2    0.78    0.07 
  12   4  -2    0.54    0.17 
  12   4  -2    0.70    0.16 
  10  -4  -2   26.78    0.63 
  10  -4  -2   26.68    0.63 
  10  -4  -2   26.65    0.79 
  10   4  -2   25.16    0.83 
  10   4  -2   26.45    0.80 
   8  -4  -2   72.49    1.64 
  -8  -4   2   74.18    1.95 
   8  -4  -2   70.97    1.76 
   8   4  -2   72.59    1.80 
  -8   4   2   70.89    1.65 
  -6  -4   2    0.94    0.18 
   6  -4  -2    1.15    0.12 
   6  -4  -2    0.93    0.08 
  -6   4   2    1.00    0.09 
  -6   4   2    0.85    0.11 
   6   4  -2    0.80    0.13 
   4  -4  -2   16.96    0.44 
  -4  -4   2   16.26    0.58 
   4  -4  -2   16.66    0.45 
  -4   4   2   16.32    0.44 
   4   4  -2   15.62    0.50 
  -4   4   2   16.15    0.44 
   2  -4  -2    5.76    0.22 
  -2  -4   2    5.67    0.30 
   2  -4  -2    5.79    0.23 
  -2   4   2    5.94    0.21 
  -2   4   2    5.59    0.23 
   2   4  -2    6.19    0.25 
   0  -4   2    0.95    0.10 
   0  -4   2    0.67    0.10 
   0  -4  -2    0.91    0.13 
   0  -4   2    0.99    0.15 
   0   4   2    1.03    0.12 
   0   4  -2    0.63    0.09 
   0   4   2    0.73    0.11 
   0   4  -2    0.85    0.10 
  -2  -4  -2   78.83    1.94 
   2  -4   2   77.17    1.91 
   2  -4   2   78.37    1.82 
  -2   4  -2   76.51    1.81 
   2   4   2   80.85    1.90 
  -2   4  -2   80.20    1.82 
  -4  -4  -2    0.44    0.17 
   4  -4   2    0.22    0.05 
   4  -4   2    0.32    0.13 
  -4   4  -2    0.32    0.05 
   4   4   2    0.28    0.11 
  -4   4  -2    0.34    0.05 
   4   4   2    0.43    0.12 
  -6  -4  -2    4.63    0.37 
   6  -4   2    4.12    0.29 
   6   4   2    4.78    0.29 
   6   4   2    4.61    0.28 
   8  -4   2   30.04    0.92 
  -8  -4  -2   30.46    1.05 
   8   4   2   28.38    0.90 
   8   4   2   29.12    0.87 
  10  -4   2   10.47    0.51 
  10   4   2   10.47    0.46 
  10   4   2   10.52    0.51 
  12  -4   2    1.53    0.26 
  12   4   2    1.84    0.24 
  12   4   2    1.45    0.26 
  14  -4   2   12.03    0.63 
  14   4   2   12.13    0.56 
  14   4   2   13.01    0.65 
  16  -4   2    0.41    0.24 
  16   4   2    0.89    0.27 
  16   4   2    0.76    0.22 
  18  -4   2    0.73    0.31 
  18   4   2    0.26    0.26 
  18   4   2    0.84    0.24 
  20  -4   2    0.16    0.27 
  20   4   2    0.11    0.27 
  23  -5  -2    0.14    0.27 
  23   5  -2    0.25    0.28 
  21  -5  -2    4.12    0.47 
  21   5  -2    3.21    0.44 
  21   5  -2    4.32    0.43 
 -19  -5   2   12.41    0.88 
  19  -5  -2   13.25    0.69 
  19   5  -2   12.93    0.63 
  19   5  -2   14.46    0.76 
  17  -5  -2    3.75    0.37 
 -17  -5   2    2.76    0.48 
  17   5  -2    2.68    0.31 
  17   5  -2    3.63    0.41 
 -15  -5   2    9.79    0.69 
  15  -5  -2    9.48    0.51 
  15   5  -2    9.61    0.48 
  15   5  -2   11.31    0.58 
  13  -5  -2    3.94    0.31 
 -13  -5   2    4.24    0.49 
  13   5  -2    3.62    0.34 
  13   5  -2    3.67    0.30 
 -11  -5   2    3.43    0.41 
  11  -5  -2    3.03    0.25 
  11   5  -2    3.46    0.27 
  11   5  -2    2.81    0.29 
   9  -5  -2   20.77    0.65 
  -9  -5   2   21.07    0.83 
   9  -5  -2   21.26    0.51 
  -9   5   2   21.24    0.52 
   9   5  -2   21.95    0.70 
  -7  -5   2   38.96    1.21 
   7  -5  -2   41.27    1.05 
   7  -5  -2   40.15    0.96 
   7   5  -2   40.42    1.10 
  -7   5   2   41.09    0.97 
  -5  -5   2   15.56    0.62 
   5  -5  -2   17.33    0.46 
   5  -5  -2   16.90    0.50 
  -5   5   2   16.68    0.48 
   5   5  -2   16.96    0.54 
  -5   5   2   17.19    0.46 
  -3  -5   2    9.44    0.43 
   3  -5  -2    9.87    0.33 
  -3   5   2   10.42    0.32 
  -3   5   2   10.02    0.33 
   3   5  -2   10.28    0.37 
  -1  -5   2   16.30    0.56 
   1  -5  -2   16.83    0.51 
  -1   5   2   16.93    0.49 
  -1   5   2   16.94    0.51 
   1   5  -2   17.59    0.50 
  -1  -5  -2   10.62    0.42 
   1  -5   2   11.50    0.43 
   1  -5   2   11.08    0.34 
   1   5   2   11.39    0.40 
  -1   5  -2   10.94    0.34 
  -1   5  -2   11.48    0.36 
   3  -5   2    5.55    0.30 
  -3  -5  -2    5.71    0.34 
  -3   5  -2    5.34    0.20 
  -3   5  -2    5.48    0.20 
   3   5   2    5.50    0.29 
  -5  -5  -2    3.14    0.31 
   5  -5   2    3.15    0.26 
   5   5   2    3.88    0.25 
   5   5   2    3.12    0.24 
  -5   5  -2    3.32    0.12 
  -5   5  -2    3.49    0.13 
  -7  -5  -2   18.27    0.75 
   7  -5   2   16.99    0.63 
   7   5   2   17.37    0.62 
   7   5   2   17.52    0.61 
  -9  -5  -2    9.90    0.59 
   9  -5   2    9.64    0.47 
   9   5   2    9.87    0.45 
   9   5   2    9.49    0.47 
  11  -5   2    0.14    0.17 
 -11  -5  -2    0.11    0.24 
  11   5   2    0.18    0.15 
  11   5   2    0.50    0.20 
  13  -5   2    4.46    0.40 
  13   5   2    3.64    0.34 
  13   5   2    3.78    0.39 
  15  -5   2   10.32    0.62 
  15   5   2   10.40    0.62 
  15   5   2   11.84    0.57 
  17  -5   2   -0.13    0.22 
  17   5   2    0.27    0.24 
  17   5   2    0.00    0.18 
  19  -5   2   12.55    0.76 
  19   5   2   12.32    0.75 
  19   5   2   12.02    0.65 
  22  -6  -2    0.28    0.28 
  22   6  -2    0.10    0.25 
  22   6  -2    0.10    0.22 
  20  -6  -2    0.89    0.29 
 -20  -6   2    1.17    0.45 
  20   6  -2    1.02    0.26 
  20   6  -2    1.14    0.31 
  18  -6  -2    0.46    0.23 
 -18  -6   2    1.13    0.39 
  18   6  -2    1.00    0.30 
  18   6  -2    0.75    0.25 
  16  -6  -2    1.12    0.24 
 -16  -6   2    0.77    0.33 
  16   6  -2    0.92    0.22 
  16   6  -2    1.13    0.26 
 -14  -6   2    0.34    0.26 
  14  -6  -2    0.31    0.16 
  14   6  -2    0.18    0.15 
  14   6  -2    0.27    0.19 
  12  -6  -2   19.07    0.68 
 -12  -6   2   17.81    0.86 
  12   6  -2   20.02    0.71 
  12   6  -2   19.54    0.75 
  10  -6  -2   22.52    0.72 
 -10  -6   2   21.68    0.89 
  10   6  -2   24.01    0.77 
   8  -6  -2   18.34    0.58 
  -8  -6   2   17.77    0.74 
   8  -6  -2   18.19    0.47 
  -8   6   2   18.36    0.48 
   8   6  -2   17.60    0.63 
  -6  -6   2   69.30    1.87 
   6  -6  -2   70.44    1.63 
   6  -6  -2   68.03    1.69 
   6   6  -2   70.31    1.76 
  -6   6   2   68.24    1.63 
  -4  -6   2    8.40    0.44 
   4  -6  -2    7.89    0.32 
  -4   6   2    7.99    0.29 
   4   6  -2    8.08    0.35 
   2  -6  -2   19.81    0.60 
  -2  -6   2   20.18    0.69 
  -2   6   2   19.46    0.59 
   2   6  -2   19.70    0.60 
  -2   6   2   21.66    0.58 
   0  -6  -2    2.80    0.23 
   0  -6   2    2.56    0.23 
   0   6  -2    2.81    0.18 
   0   6   2    2.46    0.21 
   2  -6   2   20.77    0.69 
  -2  -6  -2   21.42    0.71 
   2   6   2   21.36    0.67 
  -2   6  -2   22.13    0.58 
  -2   6  -2   21.68    0.60 
   4  -6   2   39.04    1.11 
  -4  -6  -2   40.57    1.18 
  -4   6  -2   40.34    0.95 
   4   6   2   37.00    1.08 
  -4   6  -2   39.92    0.96 
   6  -6   2    0.74    0.16 
  -6  -6  -2    0.95    0.23 
   6   6   2    0.75    0.17 
   6   6   2    0.73    0.17 
   8  -6   2   12.94    0.56 
  -8  -6  -2   13.27    0.67 
   8   6   2   13.75    0.56 
   8   6   2   13.48    0.55 
  10  -6   2    0.96    0.21 
 -10  -6  -2    1.55    0.33 
  10   6   2    1.23    0.24 
  10   6   2    0.96    0.21 
 -12  -6  -2    9.02    0.67 
  12  -6   2   10.10    0.55 
  12   6   2   10.54    0.53 
  12   6   2   10.15    0.55 
  14  -6   2    6.96    0.50 
  14   6   2    6.28    0.49 
  14   6   2    6.64    0.45 
  16  -6   2    0.47    0.25 
  16   6   2    0.12    0.21 
  16   6   2    0.45    0.21 
  18  -6   2   -0.10    0.24 
  18   6   2   -0.23    0.18 
  18   6   2   -0.21    0.22 
  20  -6   2    0.49    0.32 
  20   6   2    0.54    0.28 
  20   6   2    0.26    0.29 
  21  -7  -2    1.60    0.35 
 -21  -7   2    1.93    0.55 
  21   7  -2    2.01    0.40 
  21   7  -2    1.46    0.32 
 -19  -7   2    1.28    0.43 
  19  -7  -2    1.93    0.34 
  19   7  -2    2.03    0.37 
  19   7  -2    1.41    0.30 
 -17  -7   2    1.35    0.40 
  17  -7  -2    1.10    0.26 
  17   7  -2    1.30    0.30 
  17   7  -2    0.95    0.25 
 -15  -7   2    1.00    0.35 
  15  -7  -2    0.91    0.22 
  15   7  -2    1.02    0.26 
  15   7  -2    0.93    0.23 
 -13  -7   2    0.99    0.31 
  13  -7  -2    0.90    0.20 
  13   7  -2    0.73    0.22 
  13   7  -2    0.98    0.21 
 -11  -7   2   -0.07    0.19 
  11  -7  -2    0.12    0.12 
  11   7  -2   -0.03    0.12 
  -9  -7   2    0.74    0.23 
   9  -7  -2    0.99    0.09 
   9  -7  -2    1.20    0.17 
   9   7  -2    0.92    0.17 
  -9   7   2    0.91    0.09 
  -7  -7   2    2.78    0.33 
   7  -7  -2    2.52    0.21 
   7  -7  -2    2.96    0.16 
   7   7  -2    3.19    0.27 
  -7   7   2    2.62    0.15 
   5  -7  -2    5.87    0.29 
  -5  -7   2    6.65    0.42 
   5   7  -2    5.71    0.32 
  -5   7   2    6.09    0.25 
  -3  -7   2    0.78    0.18 
   3  -7  -2    0.74    0.13 
  -3   7   2    0.69    0.13 
   3   7  -2    0.67    0.14 
  -1  -7   2    7.87    0.41 
   1  -7  -2    7.54    0.36 
  -1   7   2    7.69    0.34 
   1   7  -2    8.07    0.33 
   1  -7   2   -0.05    0.11 
  -1  -7  -2   -0.20    0.12 
   1   7   2    0.03    0.11 
  -1   7  -2   -0.09    0.08 
   3  -7   2   30.04    0.92 
  -3  -7  -2   30.79    0.97 
  -3   7  -2   30.00    0.78 
   3   7   2   30.31    0.90 
  -5  -7  -2    0.09    0.16 
   5  -7   2    0.14    0.13 
  -5   7  -2    0.02    0.05 
   5   7   2    0.01    0.12 
  -5   7  -2    0.06    0.06 
  -7  -7  -2    0.35    0.20 
   7  -7   2    0.30    0.15 
   7   7   2    0.15    0.13 
   7   7   2    0.37    0.15 
   9  -7   2    2.49    0.30 
  -9  -7  -2    2.58    0.37 
   9   7   2    2.23    0.28 
   9   7   2    2.31    0.28 
 -11  -7  -2   10.32    0.71 
  11  -7   2   11.01    0.57 
  11   7   2   11.65    0.59 
  11   7   2   11.72    0.56 
  13  -7   2    1.73    0.30 
 -13  -7  -2    1.11    0.38 
  13   7   2    1.89    0.32 
  13   7   2    2.06    0.30 
  15  -7   2   -0.23    0.19 
  15   7   2    0.13    0.19 
  15   7   2    0.08    0.22 
  17  -7   2    0.24    0.26 
  17   7   2    0.29    0.24 
  17   7   2    0.50    0.24 
  19  -7   2    0.23    0.29 
  19   7   2    0.24    0.25 
  19   7   2   -0.03    0.26 
 -20  -8   2    1.16    0.47 
  20  -8  -2    1.01    0.30 
  20   8  -2    0.87    0.29 
  20   8  -2    0.89    0.32 
  18  -8  -2   14.23    0.71 
 -18  -8   2   14.57    0.98 
  18   8  -2   14.97    0.79 
  18   8  -2   14.10    0.71 
  16  -8  -2    5.79    0.45 
 -16  -8   2    6.48    0.67 
  16   8  -2    6.08    0.50 
  16   8  -2    6.31    0.47 
  14  -8  -2    2.95    0.32 
 -14  -8   2    3.42    0.50 
  14   8  -2    2.97    0.35 
  14   8  -2    2.23    0.33 
  12  -8  -2    0.08    0.13 
 -12  -8   2    0.35    0.26 
  12   8  -2    0.11    0.16 
  10  -8  -2    7.61    0.39 
 -10  -8   2    8.95    0.59 
  10   8  -2    7.39    0.43 
   8  -8  -2    4.76    0.30 
   8  -8  -2    5.22    0.21 
  -8  -8   2    5.23    0.44 
   8   8  -2    5.69    0.36 
  -8   8   2    5.02    0.22 
   6  -8  -2    2.83    0.23 
  -6  -8   2    2.64    0.34 
  -6   8   2    2.96    0.18 
   6   8  -2    2.68    0.26 
  -4  -8   2   10.64    0.56 
   4  -8  -2   11.62    0.45 
  -4   8   2   11.80    0.41 
   4   8  -2   10.92    0.45 
  -2  -8   2    2.34    0.29 
   2  -8  -2    2.16    0.23 
  -2   8   2    2.67    0.22 
   2   8  -2    2.34    0.21 
   0  -8   2    5.88    0.36 
   0  -8  -2    5.16    0.33 
   0   8   2    5.49    0.31 
   0   8  -2    5.31    0.27 
   2  -8   2    1.32    0.22 
  -2  -8  -2    1.00    0.20 
   2   8   2    1.62    0.21 
  -2   8  -2    1.15    0.14 
  -4  -8  -2    0.67    0.20 
   4  -8   2    1.07    0.19 
  -4   8  -2    0.82    0.11 
   4   8   2    1.05    0.18 
  -6  -8  -2    0.10    0.18 
   6  -8   2   -0.08    0.12 
   6   8   2   -0.09    0.13 
  -6   8  -2    0.07    0.05 
  -6   8  -2   -0.04    0.06 
   6   8   2    0.07    0.12 
   8  -8   2   -0.06    0.13 
  -8  -8  -2   -0.06    0.20 
   8   8   2    0.19    0.15 
   8   8   2   -0.08    0.14 
  10  -8   2   22.94    0.87 
 -10  -8  -2   23.77    1.03 
  10   8   2   23.00    0.87 
  10   8   2   24.29    0.87 
 -12  -8  -2    0.36    0.28 
  12  -8   2   -0.01    0.18 
  12   8   2    0.41    0.21 
  12   8   2    0.07    0.21 
 -14  -8  -2    2.35    0.48 
  14  -8   2    2.32    0.35 
  14   8   2    1.85    0.32 
  14   8   2    1.97    0.34 
  16  -8   2    0.22    0.25 
  16   8   2    0.27    0.23 
  16   8   2    0.07    0.24 
  18  -8   2    2.40    0.43 
  18   8   2    1.68    0.37 
  18   8   2    2.31    0.39 
  21  -9  -2    3.54    0.46 
 -21  -9   2    2.17    0.59 
  21   9  -2    3.74    0.47 
  21   9  -2    3.05    0.48 
  19  -9  -2    5.18    0.50 
 -19  -9   2    4.88    0.68 
  19   9  -2    5.31    0.55 
  19   9  -2    3.82    0.45 
 -17  -9   2    0.74    0.39 
  17  -9  -2    1.49    0.29 
  17   9  -2    1.46    0.30 
  17   9  -2    1.19    0.32 
 -15  -9   2   14.34    0.89 
  15  -9  -2   12.71    0.61 
  15   9  -2   13.03    0.66 
  15   9  -2   10.97    0.66 
  13  -9  -2    2.15    0.28 
 -13  -9   2    1.42    0.37 
  13   9  -2    1.15    0.24 
  11  -9  -2    0.41    0.16 
 -11  -9   2    0.48    0.28 
  11   9  -2    0.23    0.17 
  -9  -9   2   30.03    1.15 
   9  -9  -2   30.80    0.95 
  -9   9   2   31.36    0.79 
   9   9  -2   30.20    0.99 
  -7  -9   2    0.58    0.22 
   7  -9  -2    0.37    0.13 
  -7   9   2    0.36    0.10 
  -5  -9   2   13.21    0.63 
   5  -9  -2   12.03    0.49 
  -5   9   2   12.19    0.43 
   5   9  -2   12.18    0.51 
   3  -9  -2    0.22    0.13 
  -3  -9   2    0.17    0.17 
   3   9  -2    0.44    0.14 
  -3   9   2    0.60    0.14 
   1  -9  -2   10.20    0.48 
  -1  -9   2   10.62    0.53 
   1   9  -2   11.25    0.43 
  -1   9   2   10.12    0.43 
  -1  -9  -2   18.11    0.68 
   1  -9   2   16.50    0.67 
  -1   9  -2   17.30    0.56 
   1   9   2   17.15    0.62 
   3  -9   2    1.03    0.21 
  -3  -9  -2    1.19    0.23 
   3   9   2    1.21    0.21 
  -3   9  -2    1.40    0.15 
  -5  -9  -2    4.78    0.43 
   5  -9   2    5.89    0.39 
  -5   9  -2    5.37    0.23 
   5   9   2    5.69    0.37 
  -7  -9  -2    0.64    0.25 
   7  -9   2    0.88    0.21 
   7   9   2    0.83    0.20 
   7   9   2    0.52    0.19 
   9  -9   2   19.89    0.80 
  -9  -9  -2   19.92    0.95 
   9   9   2   20.05    0.79 
   9   9   2   20.54    0.79 
  11  -9   2    0.92    0.25 
 -11  -9  -2    0.80    0.31 
  11   9   2    0.97    0.25 
  11   9   2    1.46    0.28 
 -13  -9  -2    0.85    0.36 
  13  -9   2    1.13    0.28 
  13   9   2    1.13    0.28 
  13   9   2    0.93    0.28 
 -15  -9  -2    6.29    0.74 
  15  -9   2    5.06    0.50 
  15   9   2    6.61    0.52 
  15   9   2    5.12    0.50 
  17  -9   2    0.17    0.26 
  17   9   2    0.21    0.27 
  17   9   2   -0.15    0.21 
 -20 -10   2    0.49    0.43 
  20 -10  -2    0.64    0.28 
  20  10  -2    0.11    0.26 
  20  10  -2    0.58    0.33 
  18 -10  -2    3.47    0.41 
 -18 -10   2    2.73    0.56 
  18  10  -2    3.30    0.47 
  18  10  -2    3.25    0.43 
 -16 -10   2    0.48    0.35 
  16 -10  -2    0.62    0.24 
  16  10  -2    0.51    0.25 
  16  10  -2    0.85    0.30 
  14 -10  -2    0.05    0.16 
 -14 -10   2   -0.09    0.27 
  14  10  -2    0.12    0.21 
  14  10  -2   -0.10    0.17 
 -12 -10   2    1.51    0.37 
  12 -10  -2    1.12    0.23 
  12  10  -2    1.04    0.24 
 -10 -10   2    5.62    0.54 
  10 -10  -2    5.25    0.36 
  10  10  -2    7.00    0.45 
   8 -10  -2   29.53    0.94 
  -8 -10   2   31.29    1.16 
  -8  10   2   28.60    0.79 
   8  10  -2   28.81    0.97 
   6 -10  -2    3.18    0.29 
  -6 -10   2    5.22    0.45 
   6  10  -2    4.12    0.32 
  -6  10   2    3.73    0.24 
   4 -10  -2   11.40    0.50 
  -4 -10   2   10.93    0.60 
  -4  10   2   11.54    0.45 
   4  10  -2   11.49    0.50 
  -2 -10   2   18.98    0.80 
   2 -10  -2   21.63    0.74 
   2  10  -2   20.22    0.68 
  -2  10   2   21.18    0.69 
   0 -10   2    1.72    0.27 
   0 -10  -2    2.07    0.27 
   0  10  -2    1.77    0.20 
   0  10   2    2.11    0.25 
   2 -10   2    0.09    0.15 
  -2 -10  -2    0.10    0.16 
  -2  10  -2    0.07    0.10 
   2  10   2   -0.08    0.13 
   4 -10   2    2.77    0.33 
  -4 -10  -2    2.49    0.34 
   4  10   2    2.68    0.29 
  -4  10  -2    2.54    0.20 
   6 -10   2    0.05    0.15 
  -6 -10  -2    0.09    0.20 
   6  10   2    0.06    0.16 
   8 -10   2    0.24    0.19 
  -8 -10  -2    0.06    0.22 
   8  10   2    0.21    0.17 
   8  10   2   -0.05    0.17 
  10 -10   2   20.21    0.84 
 -10 -10  -2   20.03    0.99 
  10  10   2   18.75    0.80 
  10  10   2   20.05    0.81 
  12 -10   2   -0.22    0.18 
 -12 -10  -2    0.08    0.30 
  12  10   2   -0.08    0.20 
  12  10   2   -0.05    0.20 
  14 -10   2   -0.07    0.21 
 -14 -10  -2    0.05    0.33 
  14  10   2    0.00    0.23 
  14  10   2    0.06    0.23 
  16 -10   2    0.15    0.26 
 -16 -10  -2    0.30    0.38 
  16  10   2   -0.32    0.22 
  16  10   2    0.00    0.24 
 -19 -11   2    0.01    0.36 
  19  11  -2    0.00    0.29 
  19  11  -2   -0.02    0.25 
  17 -11  -2    0.14    0.22 
 -17 -11   2    0.15    0.34 
  17  11  -2   -0.26    0.22 
  17  11  -2    0.11    0.23 
 -15 -11   2    1.15    0.40 
  15 -11  -2    0.31    0.21 
  15  11  -2    0.37    0.25 
  15  11  -2    0.42    0.24 
  13 -11  -2    0.04    0.18 
 -13 -11   2    0.17    0.30 
  13  11  -2    0.12    0.21 
 -11 -11   2    1.30    0.38 
  11 -11  -2    1.28    0.24 
  11  11  -2    0.97    0.24 
   9 -11  -2   13.40    0.60 
  -9 -11   2   13.40    0.78 
   9  11  -2   14.32    0.65 
   7 -11  -2    1.88    0.27 
  -7 -11   2    2.23    0.39 
  -7  11   2    2.34    0.21 
   7  11  -2    2.89    0.33 
   5 -11  -2    5.97    0.40 
  -5 -11   2    6.17    0.52 
  -5  11   2    6.49    0.34 
   5  11  -2    6.19    0.39 
   3 -11  -2    4.89    0.37 
  -3 -11   2    4.77    0.43 
  -3  11   2    5.12    0.32 
   3  11  -2    4.08    0.33 
  -1 -11   2    7.58    0.51 
   1 -11  -2    7.34    0.45 
  -1  11   2    6.60    0.39 
   1  11  -2    6.95    0.38 
   1 -11   2    3.55    0.37 
  -1 -11  -2    2.48    0.32 
  -1  11  -2    3.08    0.25 
   1  11   2    3.41    0.32 
  -3 -11  -2    3.47    0.39 
   3 -11   2    4.05    0.38 
  -3  11  -2    3.95    0.26 
   3  11   2    2.86    0.32 
  -5 -11  -2    5.19    0.48 
   5 -11   2    4.70    0.41 
   5  11   2    5.44    0.41 
  -7 -11  -2    0.73    0.28 
   7 -11   2    0.79    0.24 
   7  11   2    0.74    0.22 
  -9 -11  -2    5.40    0.60 
   9 -11   2    5.03    0.45 
   9  11   2    5.52    0.45 
   9  11   2    5.56    0.47 
  11 -11   2    9.64    0.61 
 -11 -11  -2    9.70    0.77 
  11  11   2   11.84    0.65 
  11  11   2   10.84    0.65 
 -13 -11  -2    0.92    0.38 
  13 -11   2    0.99    0.29 
  13  11   2    1.68    0.34 
  13  11   2    1.19    0.32 
 -15 -11  -2    1.04    0.45 
  15 -11   2    1.14    0.33 
  15  11   2    1.42    0.35 
  15  11   2    1.10    0.31 
 -18 -12   2    0.86    0.47 
  18  12  -2    0.45    0.29 
  18  12  -2    0.84    0.32 
 -16 -12   2    4.64    0.69 
  16  12  -2    4.49    0.53 
  16  12  -2    3.27    0.45 
 -14 -12   2    1.49    0.44 
  14  12  -2    1.40    0.33 
  14  12  -2    2.09    0.34 
 -12 -12   2   -0.27    0.24 
  12 -12  -2    0.14    0.18 
  12  12  -2   -0.07    0.19 
 -10 -12   2    2.60    0.46 
  10 -12  -2    1.77    0.29 
  10  12  -2    1.68    0.30 
   8 -12  -2   -0.06    0.15 
  -8 -12   2    0.11    0.26 
   8  12  -2   -0.08    0.18 
  -6 -12   2    0.03    0.23 
   6 -12  -2    0.05    0.16 
  -6  12   2   -0.06    0.11 
   6  12  -2    0.17    0.17 
  -4 -12   2   13.38    0.72 
   4 -12  -2   13.01    0.60 
  -4  12   2   12.43    0.51 
   4  12  -2   12.32    0.57 
  -2 -12   2   30.13    1.11 
   2 -12  -2   29.99    1.02 
   2  12  -2   28.53    0.93 
  -2  12   2   28.33    0.92 
   0 -12   2    1.66    0.31 
   0 -12  -2    1.57    0.28 
   0  12  -2    1.39    0.21 
   0  12   2    1.14    0.22 
  -2 -12  -2    0.60    0.25 
   2 -12   2    0.62    0.24 
   2  12   2    1.05    0.23 
  -2  12  -2    0.86    0.17 
   4 -12   2    0.32    0.21 
  -4 -12  -2    0.31    0.23 
   4  12   2    0.09    0.18 
  -6 -12  -2    5.35    0.53 
   6 -12   2    6.18    0.48 
   6  12   2    5.43    0.45 
  -8 -12  -2   -0.10    0.25 
   8 -12   2    0.17    0.22 
   8  12   2   -0.04    0.21 
   8  12   2    0.02    0.18 
  10 -12   2    0.74    0.26 
 -10 -12  -2    0.66    0.33 
  10  12   2    0.94    0.29 
  10  12   2    1.11    0.28 
 -12 -12  -2    0.40    0.34 
  12 -12   2    0.47    0.27 
  12  12   2    0.23    0.24 
  12  12   2    0.26    0.26 
  14 -12   2    0.33    0.27 
 -14 -12  -2    0.03    0.34 
  14  12   2   -0.25    0.23 
  14  12   2    0.01    0.25 
 -15 -13   2    1.79    0.52 
  15  13  -2    2.35    0.41 
  15  13  -2    2.70    0.41 
 -13 -13   2    0.07    0.32 
  13  13  -2    0.22    0.23 
 -11 -13   2    2.23    0.46 
  11  13  -2    1.94    0.34 
   9 -13  -2    0.90    0.31 
  -9 -13   2    0.43    0.30 
   9  13  -2    0.75    0.25 
   7 -13  -2   10.06    0.56 
  -7 -13   2   10.91    0.73 
   7  13  -2    9.58    0.55 
   5 -13  -2   20.24    0.81 
  -5 -13   2   21.02    0.96 
   5  13  -2   18.89    0.77 
  -5  13   2   19.46    0.69 
  -3 -13   2   15.35    0.81 
   3 -13  -2   15.59    0.71 
   3  13  -2   15.34    0.64 
  -3  13   2   14.56    0.60 
   1 -13  -2    2.06    0.33 
  -1 -13   2    1.71    0.34 
   1  13  -2    2.29    0.28 
  -1  13   2    1.89    0.27 
  -1 -13  -2    5.25    0.47 
   1 -13   2    4.43    0.48 
  -1  13  -2    5.83    0.37 
   1  13   2    5.03    0.40 
  -3 -13  -2    7.54    0.56 
   3 -13   2    7.67    0.56 
   3  13   2    7.56    0.49 
   5 -13   2    1.70    0.33 
  -5 -13  -2    2.05    0.39 
   5  13   2    2.32    0.34 
   7 -13   2    0.28    0.24 
  -7 -13  -2    0.78    0.31 
   7  13   2    0.41    0.24 
   9 -13   2    0.16    0.25 
  -9 -13  -2   -0.10    0.29 
   9  13   2    0.45    0.22 
   9  13   2    0.04    0.24 
  11 -13   2    3.91    0.47 
 -11 -13  -2    4.26    0.59 
  11  13   2    4.09    0.48 
  11  13   2    3.56    0.43 
 -13 -13  -2    0.30    0.37 
  13 -13   2    0.58    0.29 
  13  13   2    0.69    0.30 
  13  13   2    0.81    0.30 
 -14 -14   2    1.46    0.47 
  14  14  -2    2.22    0.41 
 -12 -14   2    1.00    0.41 
  12  14  -2    2.05    0.35 
 -10 -14   2   -0.03    0.28 
  10  14  -2    0.16    0.20 
  -8 -14   2    0.90    0.34 
   8  14  -2    0.54    0.23 
  -6 -14   2    0.51    0.31 
   6  14  -2    0.80    0.24 
  -4 -14   2    0.78    0.31 
   4  14  -2    0.60    0.22 
  -4  14   2    0.62    0.20 
   2 -14  -2    3.23    0.39 
  -2 -14   2    3.00    0.46 
   2  14  -2    3.45    0.35 
  -2  14   2    3.15    0.33 
   0 -14  -2    0.04    0.21 
   0 -14   2    0.31    0.26 
   0  14  -2    0.09    0.16 
   0  14   2   -0.05    0.17 
  -2 -14  -2    0.02    0.24 
   2 -14   2   -0.29    0.19 
   2  14   2    0.23    0.20 
   4 -14   2    2.23    0.38 
  -4 -14  -2    1.27    0.34 
   4  14   2    1.67    0.30 
  -6 -14  -2    4.95    0.57 
   6 -14   2    5.93    0.56 
   6  14   2    6.50    0.51 
   8 -14   2    4.57    0.50 
  -8 -14  -2    5.23    0.62 
   8  14   2    4.16    0.45 
   8  14   2    5.20    0.51 
  10 -14   2    0.20    0.27 
 -10 -14  -2   -0.03    0.31 
  10  14   2   -0.02    0.24 
  10  14   2    0.10    0.24 
 -12 -14  -2    2.59    0.54 
  12 -14   2    3.24    0.47 
  12  14   2    3.30    0.47 
  12  14   2    3.28    0.45 
 -13 -15   2    0.39    0.38 
  13  15  -2   -0.08    0.26 
 -11 -15   2    0.26    0.36 
  11  15  -2    0.96    0.31 
  -9 -15   2    0.34    0.33 
   9  15  -2    0.04    0.23 
  -7 -15   2    2.16    0.46 
   7  15  -2    1.62    0.31 
  -5 -15   2    1.29    0.37 
   5  15  -2    0.88    0.25 
  -3 -15   2    1.77    0.39 
   3  15  -2    2.16    0.32 
  -3  15   2    2.10    0.29 
  -1 -15   2    0.32    0.29 
  -1  15   2    0.20    0.22 
   1  15  -2    0.50    0.29 
   1 -15   2    1.47    0.36 
   1  15   2    0.70    0.26 
   3 -15   2   -0.17    0.24 
   3  15   2   -0.12    0.21 
   5 -15   2    1.36    0.35 
  -5 -15  -2    0.98    0.37 
   5  15   2    1.38    0.31 
   7 -15   2    0.81    0.30 
  -7 -15  -2    0.74    0.36 
   7  15   2    0.45    0.26 
  -9 -15  -2    1.61    0.45 
   9 -15   2    1.49    0.37 
   9  15   2    2.40    0.42 
   9  15   2    1.50    0.33 
 -10 -16   2    0.11    0.36 
  10  16  -2    0.42    0.26 
  -8 -16   2    0.06    0.33 
   8  16  -2    0.30    0.26 
  -6 -16   2    0.22    0.33 
   6  16  -2    0.00    0.22 
  -4 -16   2    0.28    0.32 
   4  16  -2    0.06    0.21 
  -2 -16   2    0.19    0.35 
  -2  16   2    0.41    0.22 
   2  16  -2    0.35    0.21 
   0 -16   2   -0.22    0.26 
   0  16   2   -0.01    0.21 
   2 -16   2    0.08    0.28 
   2  16   2    0.24    0.23 
   4 -16   2    0.85    0.33 
   4  16   2    0.58    0.27 
   6 -16   2   -0.11    0.28 
   6  16   2   -0.07    0.24 
   8  16   2   -0.05    0.27 
  -7 -17   2    0.53    0.38 
   7  17  -2    0.29    0.25 
  -5 -17   2   -0.19    0.32 
   5  17  -2    0.12    0.24 
  -3 -17   2    0.09    0.33 
   3  17  -2   -0.02    0.22 
  -1 -17   2    0.18    0.31 
   1 -17   2    0.36    0.32 
   1  17   2    0.68    0.29 
   3  17   2   -0.20    0.25 
  24   0  -3   -0.31    0.23 
  22   0  -3   -0.05    0.22 
  20   0  -3    0.20    0.21 
  18   0  -3    0.07    0.11 
  18   0  -3   -0.06    0.16 
  16   0  -3   -0.05    0.09 
  16   0  -3    0.01    0.14 
  14   0  -3    0.05    0.09 
  14   0  -3    0.22    0.14 
 -12   0   3    0.16    0.17 
  12   0  -3    0.00    0.08 
  12   0  -3   -0.05    0.11 
  10   0  -3    0.10    0.08 
 -10   0   3    0.06    0.09 
  10   0  -3   -0.01    0.10 
 -10   0   3    0.03    0.15 
   8   0  -3    0.04    0.09 
  -8   0   3   -0.11    0.12 
   8   0  -3    0.01    0.06 
  -8   0   3    0.06    0.08 
   6   0  -3   -0.05    0.06 
  -6   0   3    0.05    0.10 
   6   0  -3   -0.01    0.08 
  -6   0   3   -0.09    0.07 
   4   0  -3   -0.05    0.06 
  -4   0   3    0.00    0.08 
   4   0  -3    0.00    0.06 
  -4   0   3    0.01    0.08 
  -2   0   3   -0.07    0.06 
   2   0  -3    0.03    0.06 
  -2   0   3   -0.02    0.05 
   2   0  -3    0.07    0.05 
   0   0   3   -0.10    0.06 
   0   0  -3    0.06    0.06 
   0   0  -3    0.03    0.06 
   0   0   3    0.04    0.07 
  -2   0  -3   -0.03    0.06 
   2   0   3    0.00    0.07 
   2   0   3   -0.08    0.08 
   4   0   3    0.16    0.10 
   4   0   3    0.05    0.07 
   6   0   3    0.00    0.08 
   6   0   3    0.10    0.12 
   8   0   3    0.12    0.09 
   8   0   3    0.01    0.12 
  10   0   3   -0.06    0.13 
  10   0   3    0.01    0.09 
  12   0   3   -0.11    0.10 
  12   0   3   -0.05    0.15 
  14   0   3    0.06    0.13 
  14   0   3    0.06    0.18 
  16   0   3    0.15    0.22 
  18   0   3   -0.19    0.23 
  20   0   3    0.11    0.26 
  23  -1  -3    2.34    0.40 
  23   1  -3    1.35    0.34 
  21  -1  -3    0.06    0.21 
  21   1  -3    0.21    0.22 
  19  -1  -3   -0.06    0.17 
  19   1  -3    0.12    0.14 
  19   1  -3   -0.04    0.17 
  17  -1  -3    7.19    0.45 
  17  -1  -3    6.49    0.31 
  17   1  -3    6.34    0.35 
  17   1  -3    6.39    0.44 
  15  -1  -3    0.10    0.09 
 -15  -1   3   -0.08    0.21 
  15  -1  -3   -0.05    0.13 
  15   1  -3    0.09    0.16 
  15   1  -3    0.00    0.10 
 -13  -1   3    8.45    0.53 
  13  -1  -3    8.95    0.33 
  13  -1  -3    8.12    0.41 
  13   1  -3    8.37    0.43 
  13   1  -3    8.07    0.35 
  11  -1  -3    1.74    0.15 
  11  -1  -3    1.94    0.20 
 -11  -1   3    1.80    0.27 
 -11   1   3    1.86    0.17 
  11   1  -3    2.26    0.23 
  11   1  -3    1.95    0.18 
  -9  -1   3   46.27    1.34 
   9  -1  -3   49.37    1.22 
   9  -1  -3   47.65    1.22 
  -9  -1   3   46.97    1.22 
   9  -1  -3   45.96    1.16 
   9   1  -3   47.92    1.20 
  -9   1   3   49.61    1.33 
   9   1  -3   47.72    1.25 
  -9   1   3   48.80    1.19 
   7  -1  -3   46.39    1.10 
  -7  -1   3   44.54    1.21 
   7  -1  -3   45.29    1.17 
   7  -1  -3   45.08    1.11 
  -7  -1   3   44.38    1.14 
  -7   1   3   45.31    1.18 
  -7   1   3   45.12    1.10 
   7   1  -3   43.05    1.11 
   5  -1  -3   99.13    2.24 
  -5  -1   3   97.80    2.27 
   5  -1  -3   96.81    2.22 
  -5  -1   3   94.76    2.31 
   5  -1  -3   96.07    2.25 
   5   1  -3   98.25    2.30 
  -5   1   3   96.55    2.24 
  -5   1   3   97.20    2.26 
   5   1  -3   98.47    2.27 
  -3  -1   3   20.12    0.56 
   3  -1  -3   20.72    0.50 
   3  -1  -3   20.71    0.54 
  -3  -1   3   20.02    0.57 
  -3   1   3   20.92    0.51 
   3   1  -3   21.96    0.56 
  -3   1   3   20.29    0.55 
   3   1  -3   21.66    0.57 
  -1  -1   3  217.21    4.99 
   1  -1  -3  226.31    4.99 
  -1  -1   3  225.20    5.10 
   1  -1  -3  220.26    4.98 
  -1   1   3  220.14    4.99 
  -1   1   3  214.92    4.99 
   1   1  -3  221.71    4.99 
   1   1  -3  228.36    5.08 
   1  -1   3  201.12    4.49 
  -1  -1  -3  199.27    4.50 
   1  -1   3  193.46    4.52 
  -1  -1  -3  201.02    4.50 
   1   1   3  199.62    4.51 
  -1   1  -3  201.21    4.52 
   1   1   3  195.82    4.50 
  -1   1  -3  200.55    4.49 
   3  -1   3  323.82    7.49 
   3  -1   3  330.04    7.49 
   3   1   3  328.28    7.45 
  -3   1  -3  339.37    7.42 
   3   1   3  334.65    7.47 
   5  -1   3  123.85    2.98 
   5  -1   3  127.48    2.89 
  -5   1  -3  126.49    2.88 
   5   1   3  124.16    2.92 
   5   1   3  126.30    2.98 
   7  -1   3   33.86    0.87 
   7  -1   3   34.52    1.00 
   7   1   3   33.73    0.98 
   7   1   3   33.01    0.91 
   9  -1   3    3.21    0.20 
   9  -1   3    3.09    0.29 
   9   1   3    3.76    0.24 
   9   1   3    2.98    0.28 
  11  -1   3   18.26    0.71 
  11  -1   3   18.52    0.57 
  11   1   3   17.51    0.71 
  11   1   3   17.79    0.60 
  13  -1   3    0.04    0.11 
  13  -1   3    0.20    0.18 
  13   1   3    0.16    0.13 
  13   1   3    0.02    0.16 
  15  -1   3    2.35    0.35 
  15   1   3    1.75    0.23 
  15   1   3    1.62    0.31 
  17  -1   3    3.61    0.44 
  17   1   3    3.28    0.42 
  19  -1   3    0.14    0.26 
  19   1   3    0.40    0.28 
  24  -2  -3   -0.25    0.21 
  24   2  -3    0.48    0.28 
  22  -2  -3    0.15    0.23 
  22   2  -3   -0.03    0.23 
  20  -2  -3   14.44    0.72 
  20   2  -3   15.67    0.75 
  20   2  -3   13.75    0.59 
  18  -2  -3    4.23    0.39 
  18   2  -3    4.59    0.46 
  18   2  -3    3.91    0.31 
  16  -2  -3    3.89    0.22 
 -16  -2   3    3.03    0.42 
  16  -2  -3    3.47    0.33 
  16   2  -3    4.11    0.36 
  16   2  -3    3.48    0.28 
 -14  -2   3    2.16    0.36 
  14  -2  -3    2.09    0.16 
  14  -2  -3    2.10    0.24 
  14   2  -3    1.83    0.20 
  14   2  -3    2.21    0.28 
  12  -2  -3    1.08    0.12 
  12  -2  -3    0.90    0.16 
 -12  -2   3    0.67    0.22 
  12   2  -3    1.19    0.16 
  12   2  -3    0.84    0.17 
  10  -2  -3   14.87    0.43 
 -10  -2   3   13.86    0.62 
  10  -2  -3   15.50    0.50 
  10  -2  -3   14.46    0.43 
  10   2  -3   14.64    0.54 
  10   2  -3   14.47    0.49 
 -10   2   3   14.45    0.44 
   8  -2  -3   52.37    1.32 
  -8  -2   3   54.18    1.37 
   8  -2  -3   55.19    1.29 
  -8   2   3   53.48    1.29 
   8   2  -3   54.14    1.35 
  -6  -2   3  224.23    5.26 
  -6  -2   3  229.20    5.20 
   6  -2  -3  226.15    5.19 
   6  -2  -3  226.98    5.13 
   6  -2  -3  227.68    5.18 
   6   2  -3  229.82    5.18 
  -6   2   3  228.18    5.14 
  -6   2   3  232.17    5.13 
   4  -2  -3   24.00    0.57 
  -4  -2   3   24.73    0.67 
   4  -2  -3   23.95    0.62 
  -4  -2   3   24.27    0.70 
   4  -2  -3   23.81    0.59 
   4   2  -3   24.32    0.69 
   4   2  -3   25.38    0.67 
  -4   2   3   24.45    0.63 
   4   2  -3   24.33    0.65 
  -2  -2   3  749.19   17.24 
   2  -2  -3  754.04   17.16 
  -2  -2   3  758.24   17.40 
  -2   2   3  738.18   17.16 
   2   2  -3  757.57   17.18 
   2   2  -3  768.76   17.35 
   0  -2   3  121.96    2.82 
   0  -2   3  123.41    2.86 
   0  -2  -3  121.61    2.80 
   0  -2  -3  126.86    2.87 
   0   2   3  124.10    2.84 
   0   2   3  122.31    2.80 
   0   2  -3  125.60    2.82 
   0   2   3  121.66    2.84 
   2  -2   3   37.50    0.99 
   2  -2   3   37.19    0.91 
  -2  -2  -3   37.72    0.95 
   2   2   3   37.25    0.96 
   2   2   3   35.97    0.95 
  -2   2  -3   38.98    0.91 
   2   2   3   38.14    1.02 
   4  -2   3   10.19    0.40 
   4  -2   3   10.79    0.32 
   4   2   3   10.86    0.40 
   4   2   3   10.52    0.38 
  -4   2  -3   10.55    0.31 
   6  -2   3   29.06    0.87 
   6  -2   3   30.15    0.74 
   6   2   3   29.14    0.82 
  -6   2  -3   28.16    0.73 
   6   2   3   28.35    0.85 
   8  -2   3   19.60    0.69 
   8  -2   3   19.94    0.55 
   8   2   3   19.19    0.68 
   8   2   3   18.77    0.62 
  10  -2   3    8.93    0.33 
  10  -2   3    8.58    0.47 
  10   2   3    9.48    0.47 
  10   2   3    8.69    0.40 
  12  -2   3    1.18    0.14 
  12  -2   3    1.20    0.25 
  12   2   3    1.24    0.24 
  12   2   3    1.16    0.19 
  14  -2   3    3.22    0.38 
  14   2   3    3.34    0.30 
  14   2   3    3.14    0.36 
  16  -2   3    1.44    0.32 
  16   2   3    1.64    0.25 
  16   2   3    1.61    0.33 
  18  -2   3    0.92    0.32 
  18   2   3    0.91    0.32 
  20  -2   3    1.20    0.35 
  20   2   3    1.58    0.39 
  23  -3  -3    3.11    0.44 
  23   3  -3    2.60    0.43 
  21  -3  -3    1.34    0.30 
  21   3  -3    1.13    0.24 
  21   3  -3    1.01    0.29 
  19  -3  -3    3.11    0.36 
  19   3  -3    3.64    0.43 
  19   3  -3    3.56    0.33 
  17  -3  -3    1.93    0.28 
 -17  -3   3    2.24    0.43 
  17   3  -3    1.94    0.24 
  17   3  -3    2.39    0.34 
 -15  -3   3    0.32    0.23 
  15  -3  -3    0.30    0.15 
  15  -3  -3    0.14    0.08 
  15   3  -3    0.17    0.13 
  15   3  -3    0.18    0.15 
  13  -3  -3    0.46    0.10 
  13  -3  -3    0.68    0.10 
  13  -3  -3    0.77    0.17 
 -13  -3   3    0.76    0.24 
  13   3  -3    0.71    0.18 
  13   3  -3    0.51    0.14 
  11  -3  -3    0.23    0.07 
  11  -3  -3    0.23    0.11 
  11  -3  -3    0.12    0.07 
 -11  -3   3    0.37    0.20 
 -11   3   3    0.19    0.07 
  11   3  -3    0.39    0.12 
  11   3  -3    0.14    0.14 
  -9  -3   3   22.12    0.82 
   9  -3  -3   22.92    0.66 
   9  -3  -3   23.09    0.60 
  -9   3   3   23.03    0.61 
   9   3  -3   23.74    0.70 
   7  -3  -3   31.74    0.81 
   7  -3  -3   30.67    0.87 
  -7  -3   3   32.19    0.89 
  -7  -3   3   33.12    0.98 
   7  -3  -3   32.15    0.79 
   7   3  -3   31.11    0.86 
  -7   3   3   32.43    0.81 
  -7   3   3   31.83    0.80 
   5  -3  -3   16.24    0.43 
  -5  -3   3   15.74    0.55 
  -5  -3   3   14.64    0.49 
   5  -3  -3   15.42    0.40 
   5   3  -3   15.54    0.48 
  -5   3   3   14.91    0.43 
  -5   3   3   16.00    0.40 
   3  -3  -3    6.29    0.24 
  -3  -3   3    6.92    0.32 
  -3  -3   3    6.81    0.28 
   3   3  -3    6.40    0.26 
  -3   3   3    6.76    0.25 
  -1  -3   3    0.46    0.12 
   1  -3  -3    0.45    0.08 
  -1  -3   3    0.25    0.09 
   1   3  -3    0.34    0.09 
  -1   3   3    0.39    0.06 
  -1   3   3    0.41    0.09 
  -1   3   3    0.27    0.07 
   1  -3   3    9.71    0.37 
  -1  -3  -3   10.13    0.38 
   1  -3   3    9.72    0.31 
  -1   3  -3   10.46    0.31 
   1   3   3   10.25    0.37 
   1   3   3    9.72    0.32 
   1   3   3    9.17    0.34 
   3  -3   3    4.94    0.19 
   3  -3   3    5.09    0.27 
  -3  -3  -3    5.52    0.34 
   3   3   3    5.33    0.26 
   3   3   3    4.80    0.26 
  -3   3  -3    5.35    0.19 
   5  -3   3    0.07    0.06 
   5  -3   3    0.09    0.12 
   5   3   3   -0.03    0.10 
  -5   3  -3    0.01    0.05 
   5   3   3    0.06    0.11 
   7  -3   3   25.20    0.64 
   7  -3   3   25.79    0.81 
   7   3   3   23.92    0.75 
   7   3   3   24.84    0.79 
  -7   3  -3   25.03    0.63 
   9  -3   3    6.01    0.22 
  -9   3  -3    4.60    0.20 
   9   3   3    7.07    0.39 
  11  -3   3   41.62    1.31 
  11  -3   3   42.69    1.07 
  11   3   3   45.84    1.33 
  11   3   3   44.26    1.23 
  13  -3   3    1.34    0.27 
  13   3   3    2.21    0.27 
  13   3   3    1.85    0.30 
  15  -3   3   14.64    0.73 
  15   3   3   14.50    0.72 
  15   3   3   13.72    0.60 
  17  -3   3    7.49    0.60 
  17   3   3    7.66    0.60 
  17   3   3    7.88    0.48 
  19  -3   3    0.11    0.29 
  19   3   3    0.40    0.29 
  24  -4  -3    1.44    0.36 
  24   4  -3    0.85    0.34 
  22  -4  -3   -0.07    0.22 
  22   4  -3    0.26    0.25 
  22   4  -3   -0.10    0.19 
  20  -4  -3    1.11    0.28 
  20   4  -3    0.93    0.23 
  20   4  -3    0.82    0.28 
 -18  -4   3    2.94    0.49 
  18  -4  -3    2.03    0.30 
  18   4  -3    2.83    0.38 
  18   4  -3    2.90    0.32 
 -16  -4   3    4.07    0.51 
  16  -4  -3    3.79    0.34 
  16   4  -3    3.85    0.33 
  16   4  -3    3.78    0.37 
  14  -4  -3    0.69    0.09 
  14  -4  -3    0.73    0.17 
 -14  -4   3    0.70    0.24 
  14   4  -3    0.44    0.16 
  14   4  -3    1.03    0.19 
  12  -4  -3    0.27    0.07 
  12  -4  -3    0.46    0.08 
 -12  -4   3    0.39    0.22 
  12  -4  -3    0.53    0.14 
  12   4  -3    0.21    0.12 
 -12   4   3    0.50    0.08 
  12   4  -3    0.58    0.18 
  10  -4  -3   11.63    0.43 
  10  -4  -3   12.24    0.35 
 -10  -4   3   12.73    0.61 
  10   4  -3   11.71    0.46 
 -10   4   3   11.68    0.35 
   8  -4  -3   12.55    0.35 
   8  -4  -3   12.35    0.40 
  -8  -4   3   11.88    0.55 
   8   4  -3   12.40    0.46 
  -8   4   3   12.29    0.36 
   6  -4  -3   30.21    0.76 
   6  -4  -3   29.69    0.76 
  -6  -4   3   30.28    0.93 
  -6   4   3   30.35    0.77 
   6   4  -3   29.50    0.84 
  -6   4   3   31.48    0.76 
   4  -4  -3  218.26    4.80 
  -4  -4   3  211.56    4.97 
   4  -4  -3  214.08    4.84 
  -4  -4   3  207.87    4.90 
   4   4  -3  215.53    4.89 
  -4   4   3  215.22    4.79 
  -4   4   3  215.17    4.85 
   2  -4  -3  156.49    3.53 
  -2  -4   3  157.92    3.60 
  -2   4   3  157.02    3.52 
  -2   4   3  151.51    3.58 
   2   4  -3  157.46    3.58 
   0  -4  -3   35.20    0.91 
   0  -4   3   34.54    0.95 
   0  -4   3   33.98    0.88 
   0   4  -3   34.43    0.87 
   0   4  -3   35.57    0.88 
   0   4   3   35.79    0.90 
   0   4   3   35.01    0.86 
   0   4   3   34.27    0.92 
   2  -4   3    3.55    0.24 
  -2  -4  -3    3.64    0.26 
   2  -4   3    3.31    0.17 
   2   4   3    3.44    0.23 
   2   4   3    3.15    0.20 
  -2   4  -3    3.47    0.16 
   4  -4   3   54.13    1.44 
  -4  -4  -3   53.34    1.49 
   4  -4   3   54.59    1.29 
  -4   4  -3   57.36    1.29 
   4   4   3   56.46    1.40 
   4   4   3   51.74    1.40 
   6  -4   3   21.93    0.55 
  -6  -4  -3   22.55    0.83 
   6  -4   3   21.20    0.72 
  -6   4  -3   21.77    0.54 
   6   4   3   22.07    0.71 
   6   4   3   21.74    0.69 
   8  -4   3    0.06    0.13 
   8  -4   3    0.06    0.05 
   8   4   3    0.23    0.13 
  -8   4  -3    0.05    0.05 
   8   4   3   -0.05    0.12 
  10  -4   3    3.78    0.32 
  10  -4   3    3.52    0.16 
  10   4   3    3.26    0.28 
  10   4   3    3.13    0.32 
  12  -4   3    0.51    0.21 
  12   4   3    0.52    0.21 
  12   4   3    0.30    0.16 
  14  -4   3    0.11    0.20 
  14   4   3    0.22    0.20 
  14   4   3    0.16    0.17 
  16  -4   3    2.08    0.37 
  16   4   3    1.86    0.30 
  16   4   3    2.19    0.38 
  18  -4   3    0.44    0.30 
  18   4   3    0.21    0.27 
  18   4   3    0.63    0.25 
  20  -4   3    0.85    0.35 
  20   4   3    0.91    0.34 
  23  -5  -3    4.40    0.50 
  23   5  -3    4.15    0.46 
  23   5  -3    3.50    0.48 
  21  -5  -3    0.91    0.29 
  21   5  -3    0.83    0.25 
  21   5  -3    0.75    0.31 
 -19  -5   3   -0.33    0.27 
  19  -5  -3    0.26    0.21 
  19   5  -3    0.60    0.25 
  19   5  -3    0.32    0.19 
 -17  -5   3    5.38    0.64 
  17  -5  -3    6.13    0.44 
  17   5  -3    5.69    0.47 
  17   5  -3    6.25    0.42 
  15  -5  -3    5.07    0.36 
 -15  -5   3    5.68    0.54 
  15   5  -3    5.24    0.41 
  15   5  -3    5.71    0.38 
  13  -5  -3    0.58    0.07 
 -13  -5   3    0.17    0.20 
  13  -5  -3    0.74    0.09 
  13  -5  -3    0.50    0.15 
  13   5  -3    0.51    0.16 
  13   5  -3    0.44    0.16 
  11  -5  -3   10.85    0.43 
  11  -5  -3   11.21    0.31 
 -11  -5   3   10.93    0.61 
 -11   5   3   10.97    0.32 
  11   5  -3   11.17    0.47 
   9  -5  -3   49.07    1.27 
   9  -5  -3   50.85    1.18 
  -9  -5   3   48.94    1.48 
   9   5  -3   49.23    1.33 
  -9   5   3   50.20    1.19 
  -7  -5   3    1.62    0.26 
   7  -5  -3    1.21    0.13 
   7  -5  -3    1.29    0.11 
   7   5  -3    1.01    0.17 
  -7   5   3    1.23    0.12 
  -5  -5   3  119.20    3.01 
   5  -5  -3  124.71    2.82 
  -5   5   3  121.35    2.84 
  -5   5   3  126.57    2.81 
   5   5  -3  122.37    2.91 
   3  -5  -3    2.61    0.16 
  -3  -5   3    2.64    0.24 
   3   5  -3    2.64    0.19 
  -3   5   3    2.72    0.14 
  -3   5   3    2.44    0.18 
  -1  -5   3   66.62    1.60 
   1  -5  -3   65.76    1.59 
  -1  -5   3   64.54    1.67 
  -1   5   3   65.05    1.61 
  -1   5   3   66.48    1.57 
   1   5  -3   64.91    1.58 
   1  -5   3   13.57    0.51 
  -1  -5  -3   14.25    0.50 
   1  -5   3   13.62    0.43 
  -1   5  -3   14.69    0.42 
  -1   5  -3   14.52    0.43 
   1   5   3   12.96    0.47 
   3  -5   3    0.40    0.14 
   3  -5   3    0.16    0.07 
  -3  -5  -3    0.25    0.14 
   3   5   3    0.30    0.11 
   3   5   3    0.57    0.14 
  -3   5  -3    0.23    0.07 
  -3   5  -3    0.28    0.07 
   5  -5   3    0.10    0.12 
   5  -5   3    0.09    0.05 
  -5  -5  -3   -0.05    0.14 
   5   5   3    0.09    0.11 
   5   5   3   -0.06    0.10 
  -5   5  -3    0.00    0.05 
  -5   5  -3   -0.01    0.04 
  -7  -5  -3    7.74    0.50 
   7  -5   3    7.82    0.42 
   7   5   3    7.85    0.39 
   7   5   3    7.49    0.39 
   9  -5   3    4.72    0.36 
   9   5   3    4.35    0.34 
   9   5   3    4.58    0.33 
  11  -5   3    0.08    0.18 
  11   5   3    0.22    0.16 
  11   5   3    0.24    0.17 
  13  -5   3    0.17    0.20 
  13   5   3    0.16    0.19 
  13   5   3    0.06    0.16 
  15  -5   3    4.21    0.46 
  15   5   3    3.61    0.43 
  15   5   3    4.18    0.40 
  17  -5   3    0.98    0.31 
  17   5   3    1.72    0.31 
  17   5   3    1.04    0.31 
  19  -5   3    0.42    0.30 
  19   5   3   -0.14    0.26 
  19   5   3    0.10    0.26 
  22  -6  -3   10.28    0.68 
  22   6  -3   11.22    0.77 
  22   6  -3   10.44    0.61 
 -20  -6   3    4.59    0.67 
  20  -6  -3    3.73    0.42 
  20   6  -3    3.68    0.40 
  20   6  -3    3.78    0.47 
  18  -6  -3    0.97    0.25 
 -18  -6   3    0.48    0.32 
  18   6  -3    0.69    0.26 
  18   6  -3    0.81    0.23 
  16  -6  -3    2.07    0.29 
 -16  -6   3    1.62    0.37 
  16   6  -3    2.13    0.29 
  16   6  -3    1.36    0.28 
  14  -6  -3    1.72    0.24 
 -14  -6   3    1.10    0.31 
  14   6  -3    2.13    0.31 
  14   6  -3    2.48    0.29 
  10  -6  -3    2.71    0.22 
  10  -6  -3    2.73    0.14 
 -10   6   3    2.76    0.14 
  10   6  -3    2.85    0.26 
  -8  -6   3    0.30    0.20 
   8  -6  -3    0.37    0.08 
   8  -6  -3    0.37    0.10 
   8   6  -3    0.29    0.11 
  -8   6   3    0.32    0.08 
  -6  -6   3    1.83    0.27 
   6  -6  -3    1.95    0.16 
  -6   6   3    1.58    0.15 
  -6   6   3    2.35    0.20 
   6   6  -3    2.45    0.21 
  -4  -6   3   64.17    1.71 
   4  -6  -3   64.56    1.54 
  -4   6   3   62.77    1.55 
  -4   6   3   63.58    1.51 
   4   6  -3   64.16    1.60 
   2  -6  -3    1.28    0.15 
  -2  -6   3    1.27    0.20 
  -2   6   3    1.37    0.13 
  -2   6   3    1.19    0.15 
   2   6  -3    1.14    0.15 
   0  -6   3   57.07    1.48 
   0  -6  -3   55.04    1.42 
   0   6  -3   55.43    1.36 
   0   6   3   53.97    1.41 
   2  -6   3    4.17    0.28 
  -2  -6  -3    4.11    0.30 
   2   6   3    3.88    0.28 
  -2   6  -3    4.11    0.19 
  -4  -6  -3   -0.10    0.13 
   4  -6   3    0.11    0.13 
   4   6   3   -0.04    0.10 
   4   6   3    0.08    0.12 
  -4   6  -3    0.00    0.06 
  -4   6  -3    0.16    0.07 
   6  -6   3    3.71    0.30 
  -6  -6  -3    2.58    0.32 
  -6   6  -3    2.88    0.12 
  -6   6  -3    2.99    0.12 
  -8  -6  -3    4.53    0.43 
   8  -6   3    3.74    0.33 
   8   6   3    3.93    0.31 
   8   6   3    4.06    0.32 
  10  -6   3    5.19    0.40 
 -10  -6  -3    5.15    0.51 
  10   6   3    4.65    0.36 
  10   6   3    5.61    0.41 
  12  -6   3    3.48    0.39 
  12   6   3    2.86    0.33 
  12   6   3    2.01    0.31 
  14  -6   3    3.10    0.40 
  14   6   3    3.21    0.38 
  14   6   3    2.75    0.34 
  16  -6   3    0.03    0.24 
  16   6   3    0.10    0.21 
  16   6   3   -0.16    0.21 
  18  -6   3    3.04    0.45 
  18   6   3    2.88    0.44 
  18   6   3    3.34    0.41 
  23  -7  -3   -0.09    0.26 
  23   7  -3    0.17    0.33 
  23   7  -3   -0.03    0.25 
  21  -7  -3    9.86    0.65 
 -21  -7   3    9.67    0.90 
  21   7  -3    9.90    0.63 
  21   7  -3    9.66    0.69 
  19  -7  -3   26.64    1.00 
 -19  -7   3   26.70    1.31 
  19   7  -3   26.71    1.08 
  19   7  -3   25.82    0.99 
 -17  -7   3   20.32    1.06 
  17  -7  -3   18.24    0.76 
  17   7  -3   18.85    0.78 
  17   7  -3   19.47    0.85 
  15  -7  -3    0.51    0.18 
 -15  -7   3    0.46    0.30 
  15   7  -3    0.28    0.22 
  15   7  -3    0.57    0.19 
 -13  -7   3    0.57    0.26 
  13  -7  -3    0.51    0.16 
  13   7  -3    0.45    0.17 
  11  -7  -3    6.91    0.35 
 -11  -7   3    7.07    0.51 
 -11   7   3    6.18    0.22 
  11   7  -3    6.86    0.39 
  -9  -7   3   42.14    1.37 
   9  -7  -3   42.96    1.03 
   9  -7  -3   41.63    1.13 
   9   7  -3   42.11    1.21 
  -9   7   3   41.92    1.04 
   7  -7  -3   20.42    0.61 
  -7  -7   3   18.47    0.77 
   7   7  -3   21.14    0.69 
  -7   7   3   20.24    0.57 
   5  -7  -3    6.98    0.30 
  -5  -7   3    7.37    0.45 
   5   7  -3    6.80    0.34 
  -5   7   3    7.08    0.30 
  -3  -7   3    4.38    0.34 
   3  -7  -3    5.25    0.26 
  -3   7   3    5.05    0.27 
   3   7  -3    4.82    0.27 
   1  -7  -3    1.03    0.16 
  -1  -7   3    0.77    0.17 
   1   7  -3    0.97    0.14 
  -1   7   3    1.15    0.16 
   1  -7   3   15.27    0.60 
  -1  -7  -3   15.55    0.58 
  -1   7  -3   16.12    0.49 
   1   7   3   16.00    0.56 
  -3  -7  -3    1.04    0.21 
   3  -7   3    0.66    0.17 
   3   7   3    0.87    0.18 
  -3   7  -3    0.86    0.11 
  -5  -7  -3    0.75    0.21 
   5  -7   3    1.19    0.20 
  -5   7  -3    1.03    0.10 
   5   7   3    1.08    0.18 
   5   7   3    1.23    0.20 
  -5   7  -3    1.08    0.11 
  -7  -7  -3    2.05    0.32 
   7  -7   3    1.64    0.25 
   7   7   3    1.87    0.24 
   7   7   3    2.09    0.26 
  -9  -7  -3    0.90    0.28 
   9  -7   3    0.73    0.21 
   9   7   3    0.85    0.21 
   9   7   3    0.52    0.19 
  11  -7   3   12.83    0.64 
 -11  -7  -3   12.96    0.78 
  11   7   3   12.32    0.60 
  11   7   3   11.99    0.61 
  13  -7   3    0.09    0.21 
  13   7   3   -0.06    0.19 
  13   7   3    0.12    0.20 
  15  -7   3    3.64    0.46 
  15   7   3    3.18    0.38 
  15   7   3    2.97    0.40 
  17  -7   3    0.54    0.30 
  17   7   3    0.09    0.25 
  17   7   3    0.17    0.25 
  19   7   3    2.57    0.41 
 -22  -8   3    1.23    0.53 
  22  -8  -3    1.66    0.36 
  22   8  -3    1.90    0.42 
  22   8  -3    1.56    0.35 
  20  -8  -3    2.24    0.36 
 -20  -8   3    1.71    0.50 
  20   8  -3    1.62    0.38 
  20   8  -3    2.07    0.35 
 -18  -8   3    0.15    0.32 
  18  -8  -3    0.81    0.25 
  18   8  -3    1.54    0.30 
  18   8  -3    1.28    0.33 
  16  -8  -3    3.30    0.35 
 -16  -8   3    2.25    0.47 
  16   8  -3    3.94    0.44 
  16   8  -3    2.37    0.32 
  14  -8  -3    0.60    0.18 
 -14  -8   3    0.47    0.28 
  14   8  -3    0.85    0.22 
 -12  -8   3   15.96    0.84 
  12  -8  -3   16.08    0.60 
  12   8  -3   15.29    0.66 
  10  -8  -3    9.96    0.42 
 -10  -8   3    8.83    0.60 
  10   8  -3    8.92    0.45 
 -10   8   3    9.57    0.31 
   8  -8  -3    3.88    0.25 
  -8  -8   3    3.77    0.40 
   8   8  -3    4.02    0.31 
  -8   8   3    4.12    0.21 
   6  -8  -3   99.62    2.36 
  -6  -8   3   96.85    2.58 
  -6   8   3   97.65    2.32 
   6   8  -3   96.42    2.43 
   4  -8  -3    0.05    0.10 
  -4  -8   3    0.08    0.15 
   4   8  -3    0.14    0.11 
  -4   8   3    0.05    0.09 
  -2  -8   3    3.40    0.33 
   2  -8  -3    3.52    0.26 
  -2   8   3    3.48    0.25 
   2   8  -3    3.54    0.25 
   0  -8  -3   24.68    0.81 
   0  -8   3   25.44    0.87 
   0   8   3   25.77    0.79 
   0   8  -3   26.45    0.74 
   2  -8   3   -0.01    0.13 
  -2  -8  -3   -0.11    0.12 
   2   8   3    0.01    0.11 
  -2   8  -3    0.00    0.07 
  -4  -8  -3    5.97    0.42 
   4  -8   3    5.51    0.37 
   4   8   3    5.34    0.35 
  -4   8  -3    5.40    0.23 
   4   8   3    5.65    0.33 
  -6  -8  -3    0.56    0.23 
   6  -8   3    0.25    0.16 
   6   8   3    0.29    0.16 
   6   8   3    0.47    0.16 
  -6   8  -3    0.46    0.07 
   8  -8   3    5.67    0.41 
  -8  -8  -3    6.35    0.53 
   8   8   3    5.95    0.40 
   8   8   3    5.40    0.40 
  10  -8   3    5.33    0.45 
 -10  -8  -3    5.80    0.55 
  10   8   3    5.53    0.42 
  10   8   3    5.81    0.43 
  12  -8   3    2.54    0.37 
 -12  -8  -3    2.07    0.44 
  12   8   3    2.36    0.33 
  12   8   3    2.16    0.33 
  14  -8   3    2.08    0.36 
  14   8   3    2.27    0.36 
  14   8   3    2.61    0.37 
  16  -8   3    0.90    0.31 
  16   8   3    0.34    0.25 
  16   8   3    0.45    0.25 
  18  -8   3    2.99    0.46 
  18   8   3    2.47    0.44 
  18   8   3    2.91    0.43 
  21  -9  -3    0.35    0.26 
 -21  -9   3    0.84    0.46 
  21   9  -3    0.05    0.25 
  21   9  -3   -0.10    0.27 
 -19  -9   3    0.22    0.36 
  19  -9  -3    0.13    0.22 
  19   9  -3   -0.09    0.22 
  19   9  -3   -0.39    0.22 
 -17  -9   3    0.11    0.33 
  17  -9  -3    0.19    0.19 
  17   9  -3    0.53    0.24 
  17   9  -3    0.33    0.25 
  15  -9  -3    3.32    0.34 
 -15  -9   3    4.21    0.59 
  15   9  -3    4.11    0.40 
  15   9  -3    4.16    0.46 
  13  -9  -3   -0.07    0.14 
 -13  -9   3   -0.20    0.23 
  13   9  -3    0.13    0.17 
  11  -9  -3    0.41    0.15 
 -11  -9   3   -0.10    0.22 
  11   9  -3    0.54    0.19 
  -9  -9   3   -0.06    0.20 
   9  -9  -3    0.26    0.13 
   9   9  -3    0.10    0.15 
  -9   9   3    0.14    0.08 
   7  -9  -3   12.36    0.48 
  -7  -9   3   11.89    0.65 
  -7   9   3   12.30    0.43 
   7   9  -3   11.94    0.53 
  -5  -9   3   24.94    0.94 
   5  -9  -3   25.27    0.77 
  -5   9   3   24.38    0.73 
   5   9  -3   24.02    0.79 
   3   9  -3    2.56    0.24 
   1  -9  -3    3.97    0.31 
  -1  -9   3    4.37    0.36 
  -1   9   3    4.13    0.30 
   1   9  -3    4.65    0.28 
   1  -9   3    5.15    0.38 
  -1  -9  -3    4.67    0.35 
  -1   9  -3    5.48    0.27 
   1   9   3    5.44    0.34 
   3  -9   3   19.56    0.75 
  -3  -9  -3   20.96    0.79 
  -3   9  -3   18.87    0.57 
   3   9   3   18.36    0.69 
  -5  -9  -3    9.79    0.57 
   5  -9   3   11.00    0.54 
   5   9   3    9.83    0.49 
   5   9   3   10.52    0.48 
  -5   9  -3   10.35    0.34 
  -7  -9  -3    7.35    0.54 
   7  -9   3    7.08    0.47 
   7   9   3    6.62    0.41 
   7   9   3    7.64    0.46 
   9  -9   3    1.80    0.30 
  -9  -9  -3    2.02    0.39 
   9   9   3    1.70    0.29 
   9   9   3    2.54    0.32 
  11  -9   3    2.41    0.36 
 -11  -9  -3    1.68    0.40 
  11   9   3    2.70    0.36 
  11   9   3    2.02    0.32 
 -13  -9  -3   -0.14    0.31 
  13  -9   3    0.10    0.22 
  13   9   3    0.15    0.22 
  13   9   3    0.00    0.20 
  15  -9   3    0.61    0.27 
  15   9   3    0.65    0.27 
  15   9   3    0.83    0.28 
  17  -9   3    0.49    0.30 
  17   9   3    0.20    0.26 
  17   9   3    0.09    0.26 
 -20 -10   3    0.39    0.41 
  20  10  -3    0.00    0.24 
  20  10  -3   -0.11    0.26 
  18 -10  -3    1.96    0.32 
 -18 -10   3    2.54    0.54 
  18  10  -3    1.11    0.33 
  18  10  -3    1.91    0.36 
  16 -10  -3    6.23    0.45 
 -16 -10   3    4.86    0.63 
  16  10  -3    5.72    0.49 
  16  10  -3    5.16    0.53 
 -14 -10   3    5.75    0.66 
  14 -10  -3    5.48    0.40 
  14  10  -3    5.50    0.46 
  12 -10  -3    3.64    0.33 
 -12 -10   3    4.21    0.56 
  12  10  -3    3.82    0.38 
  10 -10  -3    0.15    0.14 
 -10 -10   3    0.06    0.24 
  10  10  -3   -0.16    0.14 
   8 -10  -3    0.72    0.17 
  -8 -10   3    0.82    0.28 
  -8  10   3    1.13    0.15 
   8  10  -3    0.80    0.20 
   6 -10  -3    0.17    0.13 
  -6 -10   3    0.47    0.24 
   6  10  -3    0.16    0.15 
  -6  10   3    0.24    0.11 
   4 -10  -3    6.26    0.36 
  -4 -10   3    6.92    0.50 
   4  10  -3    6.70    0.37 
  -4  10   3    6.63    0.34 
   2 -10  -3   -0.09    0.13 
  -2 -10   3   -0.12    0.15 
   2  10  -3    0.05    0.11 
  -2  10   3    0.22    0.13 
   0 -10   3    0.02    0.15 
   0 -10  -3    0.20    0.15 
   0  10   3    0.21    0.14 
   0  10  -3    0.10    0.11 
  -2 -10  -3    4.06    0.38 
   2 -10   3    4.44    0.38 
   2  10   3    3.56    0.33 
  -2  10  -3    4.72    0.26 
  -4 -10  -3    5.41    0.44 
   4 -10   3    4.92    0.41 
   4  10   3    4.88    0.38 
  -4  10  -3    4.74    0.25 
  -6 -10  -3    0.71    0.26 
   6 -10   3    0.86    0.23 
   6  10   3    0.63    0.19 
   6  10   3    0.79    0.22 
   8 -10   3    4.99    0.44 
  -8 -10  -3    4.98    0.52 
   8  10   3    4.47    0.39 
   8  10   3    4.75    0.42 
 -10 -10  -3    2.01    0.42 
  10 -10   3    0.79    0.26 
  10  10   3    1.51    0.29 
  10  10   3    1.44    0.29 
 -12 -10  -3    1.00    0.37 
  12 -10   3    1.08    0.29 
  12  10   3    1.37    0.30 
  12  10   3    0.72    0.25 
 -14 -10  -3    3.88    0.60 
  14 -10   3    5.06    0.51 
  14  10   3    4.48    0.48 
  14  10   3    4.38    0.49 
  16 -10   3    0.37    0.27 
  16  10   3    0.90    0.32 
  16  10   3    0.69    0.31 
 -19 -11   3    3.39    0.63 
  19  11  -3    4.89    0.56 
  19  11  -3    3.59    0.46 
 -17 -11   3    0.85    0.42 
  17  11  -3    1.08    0.33 
  17  11  -3    0.88    0.28 
 -15 -11   3    3.51    0.57 
  15  11  -3    4.46    0.47 
 -13 -11   3    4.97    0.64 
  13 -11  -3    4.18    0.38 
  13  11  -3    4.35    0.45 
  11 -11  -3    0.61    0.19 
 -11 -11   3    1.12    0.34 
  11  11  -3    0.02    0.16 
  -9 -11   3   21.13    1.00 
   9 -11  -3   22.17    0.78 
   9  11  -3   22.93    0.84 
   7 -11  -3    0.65    0.18 
  -7 -11   3    0.56    0.28 
  -7  11   3    0.86    0.16 
   7  11  -3    0.50    0.19 
  -5 -11   3   24.55    1.00 
   5 -11  -3   26.27    0.85 
   5  11  -3   24.24    0.85 
  -5  11   3   24.78    0.78 
   3 -11  -3   24.00    0.84 
  -3 -11   3   26.19    0.99 
  -3  11   3   24.43    0.80 
   3  11  -3   24.28    0.81 
   1 -11  -3    7.65    0.46 
  -1 -11   3    6.44    0.50 
  -1  11   3    8.08    0.42 
   1  11  -3    8.24    0.40 
  -1 -11  -3   35.93    1.16 
   1 -11   3   34.14    1.19 
   1  11   3   35.57    1.10 
  -1  11  -3   35.48    1.00 
  -3 -11  -3   11.14    0.61 
   3 -11   3   10.69    0.59 
   3  11   3   11.56    0.56 
  -3  11  -3   11.61    0.43 
   5 -11   3    1.29    0.28 
  -5 -11  -3    0.95    0.28 
   5  11   3    1.99    0.30 
  -7 -11  -3    1.45    0.34 
   7 -11   3    1.21    0.27 
   7  11   3    1.67    0.28 
   7  11   3    1.59    0.28 
  -9 -11  -3    9.93    0.73 
   9 -11   3    9.42    0.62 
   9  11   3   10.18    0.58 
   9  11   3   11.06    0.62 
  11 -11   3   -0.06    0.22 
 -11 -11  -3    0.07    0.29 
  11  11   3    0.13    0.22 
  11  11   3    0.19    0.22 
  13 -11   3    0.17    0.25 
 -13 -11  -3    0.64    0.38 
  13  11   3    0.01    0.23 
  13  11   3   -0.22    0.22 
  15 -11   3    1.33    0.35 
  15  11   3    0.91    0.34 
  15  11   3    1.21    0.34 
 -18 -12   3    0.95    0.45 
  18  12  -3    0.79    0.31 
  18  12  -3    1.06    0.35 
 -16 -12   3    2.14    0.50 
  16  12  -3    3.28    0.46 
  16  12  -3    2.56    0.40 
 -14 -12   3    0.09    0.32 
  14  12  -3    0.07    0.21 
 -12 -12   3    1.33    0.39 
  12  12  -3    2.27    0.35 
  10 -12  -3   14.45    0.78 
 -10 -12   3   15.21    0.87 
  10  12  -3   13.50    0.67 
   8 -12  -3    0.05    0.15 
  -8 -12   3    0.00    0.23 
   8  12  -3    0.12    0.17 
  -6 -12   3    3.60    0.47 
   6 -12  -3    2.41    0.29 
   6  12  -3    3.04    0.33 
  -6  12   3    2.84    0.26 
   4 -12  -3    0.95    0.22 
  -4 -12   3    0.64    0.27 
   4  12  -3    0.83    0.21 
  -4  12   3    0.64    0.18 
   2 -12  -3    6.15    0.44 
  -2 -12   3    7.29    0.55 
   2  12  -3    6.01    0.38 
  -2  12   3    7.25    0.42 
   0 -12  -3    6.42    0.46 
   0 -12   3    6.86    0.53 
   0  12   3    7.05    0.44 
   0  12  -3    6.67    0.37 
  -2 -12  -3    0.53    0.23 
   2 -12   3    0.59    0.24 
   2  12   3    0.14    0.18 
  -2  12  -3    0.57    0.15 
   4 -12   3    0.44    0.24 
  -4 -12  -3    0.40    0.24 
   4  12   3    0.37    0.21 
  -6 -12  -3    0.39    0.26 
   6 -12   3    0.17    0.23 
   6  12   3    0.35    0.22 
   6  12   3    0.30    0.18 
   8 -12   3   19.31    0.89 
  -8 -12  -3   18.36    0.96 
   8  12   3   19.88    0.86 
   8  12   3   19.47    0.80 
  10 -12   3    0.23    0.24 
 -10 -12  -3    0.40    0.32 
  10  12   3    0.38    0.25 
  10  12   3    0.28    0.22 
  12 -12   3    1.83    0.37 
 -12 -12  -3    1.23    0.41 
  12  12   3    1.27    0.33 
  12  12   3    2.23    0.38 
  14 -12   3    4.01    0.52 
 -14 -12  -3    3.67    0.62 
  14  12   3    3.54    0.48 
  14  12   3    3.51    0.47 
 -17 -13   3    1.50    0.50 
  17  13  -3    1.39    0.37 
  17  13  -3    0.97    0.31 
 -15 -13   3    1.90    0.51 
  15  13  -3    1.94    0.36 
 -13 -13   3    0.66    0.39 
  13  13  -3    0.17    0.22 
 -11 -13   3    0.64    0.35 
  11  13  -3    0.93    0.27 
  -9 -13   3    4.48    0.58 
   9  13  -3    3.72    0.40 
  -7 -13   3    0.40    0.29 
   7  13  -3    0.30    0.20 
  -5 -13   3   -0.04    0.25 
  -5  13   3    0.10    0.15 
   5  13  -3   -0.07    0.16 
   3 -13  -3    3.75    0.39 
  -3 -13   3    4.42    0.50 
  -3  13   3    4.44    0.36 
   3  13  -3    3.99    0.36 
  -1 -13   3    3.28    0.44 
   1 -13  -3    3.95    0.41 
   1  13  -3    4.23    0.34 
  -1  13   3    4.12    0.36 
   1 -13   3    5.35    0.49 
  -1 -13  -3    4.91    0.47 
   1  13   3    5.12    0.41 
  -1  13  -3    5.23    0.35 
  -3 -13  -3    2.46    0.38 
   3 -13   3    2.29    0.38 
   3  13   3    3.06    0.37 
   5 -13   3    4.17    0.48 
  -5 -13  -3    3.21    0.46 
   5  13   3    3.24    0.39 
  -7 -13  -3   -0.09    0.26 
   7 -13   3   -0.04    0.23 
   7  13   3    0.20    0.22 
   7  13   3   -0.10    0.19 
   9 -13   3    0.26    0.26 
  -9 -13  -3    0.24    0.33 
   9  13   3    0.28    0.23 
   9  13   3    0.26    0.26 
  11 -13   3    0.05    0.23 
 -11 -13  -3    0.44    0.36 
  11  13   3    0.32    0.25 
  11  13   3   -0.03    0.24 
 -13 -13  -3    0.67    0.41 
  13 -13   3    0.74    0.31 
  13  13   3    0.13    0.29 
  13  13   3    0.49    0.30 
 -14 -14   3    0.43    0.38 
  14  14  -3   -0.11    0.21 
 -12 -14   3    0.04    0.31 
  12  14  -3    0.18    0.24 
 -10 -14   3   -0.07    0.28 
  10  14  -3   -0.14    0.20 
  -8 -14   3    0.80    0.37 
   8  14  -3    0.37    0.22 
  -6 -14   3    2.05    0.42 
   6  14  -3    2.43    0.33 
  -4 -14   3   -0.25    0.23 
   4  14  -3    0.12    0.18 
  -4  14   3    0.27    0.18 
  -2 -14   3    0.09    0.25 
  -2  14   3   -0.12    0.17 
   2  14  -3    0.00    0.16 
   0 -14   3    0.02    0.23 
   0  14  -3   -0.07    0.15 
   0  14   3    0.06    0.19 
  -2 -14  -3    4.49    0.74 
   2 -14   3    4.19    0.50 
   2  14   3    3.24    0.38 
   4 -14   3   -0.04    0.24 
  -4 -14  -3   -0.08    0.24 
   4  14   3    0.08    0.21 
   6 -14   3    2.59    0.41 
  -6 -14  -3    3.18    0.48 
   6  14   3    4.06    0.47 
   6  14   3    3.21    0.38 
  -8 -14  -3    0.02    0.29 
   8 -14   3    0.19    0.26 
   8  14   3    0.13    0.25 
   8  14   3    0.38    0.23 
  10 -14   3    0.06    0.27 
 -10 -14  -3    0.28    0.34 
  10  14   3    0.07    0.27 
  10  14   3   -0.09    0.22 
 -13 -15   3    0.34    0.36 
  13  15  -3    0.27    0.26 
 -11 -15   3    1.39    0.44 
  11  15  -3    0.57    0.27 
  -9 -15   3    2.67    0.50 
   9  15  -3    3.82    0.44 
  -7 -15   3    0.02    0.27 
   7  15  -3    0.01    0.20 
  -5 -15   3    1.52    0.38 
   5  15  -3    1.69    0.29 
  -3 -15   3    3.25    0.51 
   3  15  -3    3.30    0.36 
  -3  15   3    3.90    0.39 
  -1 -15   3    0.19    0.28 
  -1  15   3    0.28    0.21 
   1  15  -3    0.42    0.20 
   1 -15   3    2.45    0.43 
   1  15   3    2.19    0.35 
   3 -15   3    0.05    0.26 
   3  15   3   -0.01    0.23 
   5 -15   3    1.28    0.36 
   5  15   3    1.77    0.34 
   7 -15   3    4.24    0.52 
   7  15   3    4.15    0.49 
   9 -15   3    0.96    0.35 
   9  15   3    0.28    0.29 
 -10 -16   3    0.48    0.37 
  10  16  -3    0.43    0.28 
  -8 -16   3    3.48    0.57 
   8  16  -3    3.59    0.45 
  -6 -16   3    2.10    0.46 
   6  16  -3    1.84    0.32 
  -4 -16   3    0.53    0.34 
   4  16  -3    0.30    0.22 
  -2 -16   3   -0.02    0.29 
   2  16  -3    0.17    0.19 
  -2  16   3   -0.21    0.19 
   0 -16   3    0.09    0.30 
   0  16   3    0.30    0.23 
   2 -16   3    0.90    0.35 
   2  16   3    0.42    0.27 
   4 -16   3    0.14    0.30 
   4  16   3   -0.05    0.24 
   6 -16   3   -0.07    0.28 
   6  16   3   -0.07    0.26 
  -7 -17   3    0.39    0.38 
   7  17  -3    0.22    0.23 
  -5 -17   3    4.15    0.61 
   5  17  -3    3.96    0.44 
  -3 -17   3    1.86    0.45 
   3  17  -3    1.53    0.31 
  -1 -17   3   -0.19    0.29 
  -1  17   3    0.18    0.24 
   1 -17   3    0.92    0.37 
   1  17   3    0.90    0.30 
   3 -17   3    0.29    0.33 
   3  17   3    0.23    0.26 
  24   0  -4    8.84    0.65 
  22   0  -4    8.13    0.59 
  20   0  -4    5.86    0.38 
  20   0  -4    5.47    0.47 
  18   0  -4    0.63    0.21 
  18   0  -4    0.14    0.12 
  16   0  -4    0.95    0.15 
  16   0  -4    0.72    0.19 
  14   0  -4    6.80    0.31 
 -14   0   4    7.45    0.50 
  14   0  -4    6.05    0.36 
  12   0  -4   81.12    2.05 
  12   0  -4   80.55    1.98 
 -12   0   4   82.29    2.01 
 -12   0   4   83.01    2.18 
 -10   0   4   89.36    2.25 
  10   0  -4   87.53    2.10 
  10   0  -4   87.26    2.14 
 -10   0   4   87.83    2.12 
  -8   0   4   51.51    1.36 
  -8   0   4   51.56    1.29 
   6   0  -4   99.88    2.31 
  -6   0   4   96.30    2.29 
  -6   0   4   97.38    2.32 
  -4   0   4   29.91    0.77 
   4   0  -4   29.83    0.78 
  -4   0   4   29.03    0.78 
   4   0  -4   32.11    0.77 
  -2   0   4   81.49    1.90 
  -2   0   4   80.49    1.92 
   2   0  -4   81.80    1.89 
   2   0  -4   83.07    1.92 
   0   0  -4 1000.00   22.04 
   0   0  -4  962.91   22.07 
   0   0   4  939.12   22.02 
   0   0   4  980.40   22.02 
   2   0   4  160.72    3.67 
   2   0   4  159.88    3.70 
   4   0   4   40.32    1.04 
   4   0   4   40.80    1.09 
   6   0   4   55.28    1.38 
   6   0   4   54.69    1.46 
   8   0   4   19.23    0.71 
   8   0   4   20.49    0.62 
  10   0   4   31.82    0.90 
  10   0   4   30.74    1.02 
  12   0   4    6.11    0.33 
  12   0   4    4.63    0.41 
  14   0   4    3.05    0.40 
  14   0   4    2.29    0.25 
  16   0   4    1.80    0.34 
  18   0   4    7.03    0.61 
  25  -1  -4   -0.10    0.25 
  25   1  -4    0.03    0.27 
  23  -1  -4    0.68    0.26 
  23   1  -4    0.71    0.28 
  21  -1  -4    6.54    0.51 
  21   1  -4    6.60    0.52 
  19  -1  -4   21.75    0.73 
  19  -1  -4   22.91    0.87 
  19   1  -4   21.56    0.74 
  19   1  -4   21.78    0.88 
  17  -1  -4   87.39    2.13 
  17  -1  -4   87.57    2.29 
  17   1  -4   87.52    2.32 
  17   1  -4   85.28    2.17 
 -15  -1   4    2.08    0.35 
  15  -1  -4    1.87    0.19 
  15  -1  -4    1.52    0.23 
  15   1  -4    1.77    0.19 
  15   1  -4    1.55    0.24 
  13  -1  -4    0.82    0.12 
  13  -1  -4    0.94    0.17 
 -13  -1   4    0.40    0.20 
 -13   1   4    0.63    0.13 
  13   1  -4    0.66    0.17 
  13   1  -4    0.48    0.12 
 -11  -1   4    2.19    0.21 
  11  -1  -4    1.98    0.20 
  11  -1  -4    1.97    0.17 
 -11  -1   4    2.29    0.29 
  11   1  -4    2.10    0.22 
 -11   1   4    1.95    0.18 
  11   1  -4    2.19    0.19 
 -11   1   4    1.69    0.25 
   9  -1  -4   17.22    0.52 
  -9  -1   4   17.47    0.64 
  -9  -1   4   16.99    0.55 
  -9   1   4   17.73    0.52 
   9   1  -4   17.14    0.53 
  -9   1   4   16.84    0.60 
  -7  -1   4    0.28    0.10 
  -7  -1   4    0.15    0.12 
   7  -1  -4    0.26    0.10 
   7  -1  -4    0.25    0.08 
  -7   1   4    0.10    0.10 
  -7   1   4    0.11    0.09 
  -5  -1   4    5.10    0.27 
   5  -1  -4    5.01    0.22 
   5  -1  -4    5.30    0.21 
  -5  -1   4    4.55    0.24 
  -5   1   4    5.02    0.21 
   5   1  -4    5.70    0.26 
  -5   1   4    4.78    0.23 
   3  -1  -4   41.36    0.96 
  -3  -1   4   39.45    1.03 
   3  -1  -4   40.92    1.02 
  -3  -1   4   40.47    1.03 
   3   1  -4   41.54    1.02 
   3   1  -4   41.18    1.03 
  -3   1   4   40.80    1.02 
  -3   1   4   41.72    0.97 
   1  -1  -4    5.39    0.20 
  -1  -1   4    5.46    0.24 
  -1  -1   4    5.08    0.23 
   1   1  -4    5.67    0.23 
   1   1  -4    5.14    0.23 
  -1   1   4    5.49    0.20 
  -1   1   4    5.70    0.25 
   1  -1   4  824.38   19.51 
  -1  -1  -4  888.54   19.72 
   1  -1   4  864.50   19.57 
   1   1   4  861.33   19.58 
   1   1   4  866.53   19.65 
  -1   1  -4  870.54   19.57 
   3  -1   4   13.89    0.43 
   3  -1   4   13.93    0.48 
   3   1   4   14.40    0.48 
   3   1   4   13.96    0.45 
   5  -1   4    2.12    0.22 
   5  -1   4    1.76    0.17 
   5   1   4    2.25    0.23 
   5   1   4    1.77    0.18 
   7  -1   4   61.90    1.64 
   7  -1   4   63.30    1.52 
   7   1   4   60.65    1.55 
   7   1   4   59.55    1.62 
   9  -1   4    6.06    0.28 
   9  -1   4    5.79    0.38 
   9   1   4    5.28    0.30 
   9   1   4    5.89    0.38 
  11  -1   4    0.33    0.19 
  11  -1   4    0.75    0.14 
  11   1   4    0.72    0.16 
  11   1   4    0.56    0.21 
  13  -1   4    4.47    0.43 
  13  -1   4    4.82    0.29 
  13   1   4    4.75    0.42 
  13   1   4    4.98    0.33 
  15  -1   4    0.87    0.28 
  15   1   4    1.11    0.21 
  15   1   4    1.85    0.35 
  17  -1   4    6.81    0.59 
  17   1   4    7.54    0.60 
  19  -1   4    0.61    0.32 
  19   1   4    0.94    0.34 
  24  -2  -4    0.24    0.25 
  24   2  -4    0.02    0.24 
  22  -2  -4   -0.22    0.19 
  22   2  -4   -0.06    0.21 
  20  -2  -4    9.08    0.55 
  20   2  -4    8.35    0.45 
  20   2  -4    7.85    0.55 
 -18  -2   4    0.28    0.28 
  18  -2  -4    0.27    0.12 
  18  -2  -4    0.20    0.18 
  18   2  -4    0.42    0.21 
  18   2  -4    0.30    0.15 
  16  -2  -4   12.46    0.54 
 -16  -2   4   11.07    0.68 
  16  -2  -4   11.42    0.41 
  16   2  -4   11.74    0.57 
  16   2  -4   11.99    0.49 
  14  -2  -4    3.82    0.29 
  14  -2  -4    3.51    0.20 
 -14  -2   4    2.64    0.37 
  14   2  -4    3.14    0.29 
  14   2  -4    3.20    0.24 
 -12  -2   4   11.64    0.61 
  12  -2  -4   13.59    0.42 
  12  -2  -4   12.99    0.48 
 -12   2   4   13.64    0.44 
  12   2  -4   12.96    0.52 
  12   2  -4   12.86    0.48 
 -10  -2   4   11.15    0.44 
  10  -2  -4   10.59    0.39 
 -10  -2   4   11.47    0.53 
  10   2  -4   10.46    0.40 
 -10   2   4   10.08    0.36 
  -8  -2   4   47.87    1.27 
  -8  -2   4   50.02    1.36 
   8  -2  -4   50.61    1.21 
   8  -2  -4   50.37    1.27 
  -8   2   4   49.33    1.22 
   8   2  -4   47.16    1.25 
  -6  -2   4    9.33    0.36 
   6  -2  -4    9.68    0.31 
   6  -2  -4    9.35    0.31 
   6  -2  -4    9.52    0.28 
  -6  -2   4    9.17    0.40 
   6   2  -4    8.99    0.34 
  -6   2   4    8.67    0.31 
  -6   2   4    9.64    0.33 
  -4  -2   4    0.90    0.13 
   4  -2  -4    1.09    0.14 
  -4  -2   4    1.00    0.15 
  -4   2   4    0.69    0.11 
  -2  -2   4  238.88    5.37 
   2  -2  -4  237.46    5.29 
  -2  -2   4  232.50    5.40 
  -2   2   4  229.79    5.34 
  -2   2   4  233.30    5.37 
   2   2  -4  251.61    5.42 
   0  -2   4   34.93    0.90 
   0  -2  -4   35.40    0.88 
   0  -2   4   35.29    0.94 
   0   2   4   35.56    0.88 
   0   2  -4   37.28    0.90 
   0   2   4   35.18    0.92 
   2  -2   4  137.05    3.31 
   2  -2   4  140.24    3.24 
   2   2   4  142.94    3.27 
  -2   2  -4  143.78    3.23 
   2   2   4  142.62    3.29 
   4  -2   4   16.42    0.58 
   4  -2   4   17.31    0.49 
   4   2   4   16.64    0.55 
  -4   2  -4   17.74    0.49 
   4   2   4   16.44    0.54 
   6  -2   4   48.31    1.36 
   6  -2   4   51.55    1.24 
   6   2   4   51.88    1.36 
   6   2   4   49.30    1.31 
   8  -2   4   32.51    1.04 
   8  -2   4   34.47    0.90 
   8   2   4   34.96    0.98 
   8   2   4   34.12    1.04 
  10  -2   4    1.01    0.22 
  10  -2   4    1.35    0.16 
  10   2   4    1.44    0.25 
  10   2   4    1.58    0.21 
  12  -2   4    0.09    0.10 
  12  -2   4   -0.05    0.16 
  12   2   4    0.04    0.13 
  12   2   4    0.15    0.19 
  14  -2   4    3.28    0.41 
  14   2   4    2.87    0.30 
  14   2   4    3.13    0.38 
  16  -2   4    2.69    0.41 
  16   2   4    2.26    0.45 
  16   2   4    2.20    0.38 
  18  -2   4    2.35    0.42 
  18   2   4    2.24    0.42 
  25  -3  -4    0.01    0.25 
  25   3  -4   -0.08    0.26 
  23  -3  -4    0.61    0.27 
  23   3  -4    0.75    0.29 
  21  -3  -4    0.93    0.26 
  21   3  -4    0.90    0.28 
  21   3  -4    0.83    0.21 
 -19  -3   4    1.39    0.40 
  19  -3  -4    1.70    0.30 
  19   3  -4    1.68    0.24 
  19   3  -4    1.70    0.32 
  17  -3  -4    9.73    0.52 
  17  -3  -4   10.24    0.44 
 -17  -3   4   10.04    0.69 
  17   3  -4   10.67    0.57 
  17   3  -4   10.66    0.49 
  15  -3  -4    1.12    0.20 
  15  -3  -4    1.16    0.13 
 -15  -3   4    0.93    0.29 
  15   3  -4    1.22    0.23 
  15   3  -4    1.01    0.18 
  13  -3  -4   15.61    0.56 
  13  -3  -4   15.55    0.47 
 -13   3   4   15.57    0.48 
  13   3  -4   15.43    0.56 
  13   3  -4   16.25    0.62 
  11  -3  -4   13.85    0.48 
 -11  -3   4   14.34    0.65 
 -11   3   4   14.17    0.44 
  11   3  -4   14.89    0.52 
  -9  -3   4   52.42    1.47 
   9  -3  -4   50.75    1.28 
  -9  -3   4   51.40    1.36 
   9  -3  -4   51.97    1.27 
  -9   3   4   49.83    1.26 
   9   3  -4   51.60    1.33 
   7  -3  -4   15.04    0.47 
  -7  -3   4   15.70    0.59 
   7  -3  -4   14.72    0.42 
  -7  -3   4   14.93    0.52 
   7  -3  -4   15.23    0.47 
  -7   3   4   15.29    0.45 
  -7   3   4   15.23    0.42 
   7   3  -4   15.03    0.50 
  -5  -3   4    8.41    0.38 
   5  -3  -4    8.33    0.23 
   5  -3  -4    8.21    0.21 
  -5  -3   4    7.97    0.34 
   5   3  -4    8.02    0.32 
  -5   3   4    7.70    0.29 
  -3  -3   4   10.35    0.37 
  -3  -3   4   10.70    0.41 
  -3   3   4   10.86    0.37 
  -1  -3   4   16.83    0.50 
  -1  -3   4   16.98    0.55 
  -1   3   4   16.54    0.44 
  -1   3   4   17.23    0.52 
  -1   3   4   17.12    0.48 
  -1  -3  -4   39.50    0.99 
   1  -3   4   39.47    0.99 
   1  -3   4   39.86    1.06 
   1   3   4   38.38    1.04 
  -1   3  -4   40.54    0.99 
   1   3   4   39.21    0.99 
   1   3   4   39.92    1.05 
   3  -3   4    2.15    0.15 
   3  -3   4    2.25    0.23 
   3   3   4    2.08    0.20 
  -3   3  -4    2.35    0.15 
   3   3   4    2.35    0.20 
   5  -3   4    0.18    0.07 
   5  -3   4    0.13    0.13 
   5   3   4    0.29    0.13 
   5   3   4    0.15    0.13 
  -5   3  -4    0.21    0.07 
   7  -3   4    8.12    0.29 
   7  -3   4    7.85    0.43 
   7   3   4    8.30    0.38 
  -7   3  -4    8.39    0.31 
   7   3   4    7.94    0.40 
   9  -3   4    4.83    0.37 
   9  -3   4    4.38    0.22 
   9   3   4    5.34    0.32 
   9   3   4    4.50    0.34 
  11  -3   4    2.59    0.32 
  11  -3   4    2.42    0.19 
  11   3   4    2.73    0.28 
  11   3   4    2.07    0.29 
  13  -3   4   -0.21    0.19 
  13   3   4    0.10    0.16 
  13   3   4   -0.11    0.17 
  15  -3   4    0.09    0.22 
  15   3   4    0.09    0.18 
  15   3   4   -0.22    0.20 
  17  -3   4   -0.06    0.23 
  17   3   4   -0.05    0.25 
  19  -3   4    0.21    0.28 
  19   3   4    0.00    0.27 
  24  -4  -4    3.01    0.43 
  24   4  -4    2.12    0.41 
  22  -4  -4   15.70    0.77 
  22   4  -4   15.31    0.83 
  22   4  -4   16.67    0.72 
  20  -4  -4   20.11    0.84 
 -20  -4   4   22.14    1.14 
  20   4  -4   20.20    0.89 
  20   4  -4   20.83    0.79 
  18  -4  -4    0.98    0.24 
 -18  -4   4    1.38    0.37 
  18   4  -4    1.60    0.30 
  18   4  -4    1.53    0.24 
  16  -4  -4    0.31    0.15 
 -16  -4   4    0.47    0.26 
  16   4  -4    0.66    0.21 
  16   4  -4    0.24    0.16 
 -14  -4   4   -0.11    0.17 
  14  -4  -4    0.06    0.07 
  14  -4  -4   -0.02    0.10 
 -14   4   4   -0.03    0.07 
  14   4  -4   -0.03    0.13 
  14   4  -4    0.04    0.11 
 -12  -4   4    0.39    0.21 
  12  -4  -4    0.46    0.10 
  12  -4  -4    0.45    0.13 
  12   4  -4    0.59    0.15 
 -12   4   4    0.43    0.09 
 -10  -4   4    0.56    0.22 
  10  -4  -4    0.40    0.11 
  10  -4  -4    0.91    0.11 
  10   4  -4    0.80    0.16 
 -10   4   4    0.49    0.09 
  -8  -4   4    7.53    0.36 
   8  -4  -4    6.95    0.26 
   8  -4  -4    7.76    0.33 
  -8  -4   4    6.99    0.41 
  -8   4   4    7.58    0.28 
  -8   4   4    7.28    0.27 
   8   4  -4    7.82    0.35 
  -6  -4   4  114.61    2.71 
   6  -4  -4  112.39    2.56 
  -6  -4   4  113.23    2.78 
  -6   4   4  111.70    2.62 
   6   4  -4  111.84    2.68 
  -6   4   4  114.12    2.56 
  -4  -4   4    3.16    0.22 
  -4  -4   4    2.84    0.26 
  -4   4   4    2.69    0.19 
   4   4  -4    2.59    0.20 
   2  -4  -4    5.05    0.20 
  -2  -4   4    4.73    0.25 
  -2   4   4    5.60    0.19 
  -2   4   4    5.19    0.17 
   2   4  -4    5.16    0.24 
  -2   4   4    4.92    0.25 
   0  -4  -4   83.61    2.02 
   0  -4   4   85.92    2.00 
   0  -4   4   84.77    2.08 
   0   4   4   84.09    2.01 
   0   4   4   85.25    2.04 
   0   4   4   82.03    1.96 
   2  -4   4    0.80    0.11 
   2  -4   4    1.04    0.16 
   2   4   4    1.30    0.14 
  -2   4  -4    0.91    0.11 
   2   4   4    1.13    0.16 
   4  -4   4    0.01    0.07 
   4  -4   4    0.02    0.12 
   4   4   4    0.00    0.11 
   4   4   4   -0.08    0.09 
  -4   4  -4    0.00    0.06 
   6  -4   4    0.41    0.08 
   6  -4   4    0.48    0.15 
   6   4   4    0.68    0.16 
  -6   4  -4    0.37    0.07 
   6   4   4    0.64    0.15 
   8  -4   4   22.48    0.81 
   8  -4   4   23.17    0.61 
  -8   4  -4   22.55    0.59 
   8   4   4   23.51    0.79 
   8   4   4   22.08    0.75 
  10  -4   4   31.71    1.07 
  10   4   4   32.73    1.01 
  10   4   4   32.62    1.06 
  12  -4   4   11.21    0.61 
  12   4   4   10.60    0.53 
  12   4   4   11.66    0.59 
  14  -4   4    0.49    0.24 
  14   4   4    0.28    0.23 
  14   4   4    0.11    0.18 
  16  -4   4   -0.08    0.23 
  16   4   4   -0.36    0.16 
  16   4   4   -0.04    0.22 
  18  -4   4    1.37    0.38 
  18   4   4    0.70    0.32 
  23  -5  -4    4.94    0.51 
  23   5  -4    4.54    0.45 
  23   5  -4    4.25    0.53 
  21  -5  -4    2.63    0.36 
 -21  -5   4    2.57    0.54 
  21   5  -4    3.32    0.45 
  21   5  -4    1.84    0.30 
  19  -5  -4    0.46    0.20 
 -19  -5   4    0.09    0.30 
  19   5  -4    0.01    0.20 
  19   5  -4    0.06    0.16 
  17  -5  -4   30.97    1.01 
 -17  -5   4   30.11    1.26 
  17   5  -4   31.44    1.01 
  17   5  -4   29.60    1.07 
 -15  -5   4    0.29    0.25 
  15  -5  -4    0.00    0.13 
  15   5  -4    0.06    0.14 
  15   5  -4    0.05    0.17 
  13  -5  -4    0.34    0.08 
  13  -5  -4    0.28    0.12 
 -13  -5   4    0.22    0.22 
  13  -5  -4    0.29    0.07 
 -13   5   4    0.09    0.07 
  13   5  -4    0.20    0.13 
  11  -5  -4    5.90    0.29 
  11  -5  -4    6.15    0.23 
 -11   5   4    5.68    0.23 
  11   5  -4    5.33    0.33 
  -9  -5   4   20.77    0.81 
   9  -5  -4   21.23    0.60 
   9   5  -4   21.33    0.69 
  -9   5   4   20.60    0.58 
   7  -5  -4   26.26    0.68 
  -7  -5   4   24.82    0.87 
  -7   5   4   26.01    0.71 
   7   5  -4   25.91    0.78 
  -7   5   4   27.03    0.67 
   5  -5  -4    2.97    0.14 
  -5  -5   4    3.35    0.25 
  -5  -5   4    2.66    0.26 
  -5   5   4    3.08    0.20 
  -5   5   4    3.06    0.13 
   5   5  -4    2.95    0.22 
  -3  -5   4    4.82    0.27 
   3  -5  -4    4.87    0.20 
  -3  -5   4    4.46    0.31 
   3   5  -4    5.33    0.26 
  -3   5   4    4.72    0.17 
  -3   5   4    4.84    0.25 
  -1  -5   4   51.37    1.40 
  -1  -5   4   52.92    1.32 
   1  -5  -4   53.59    1.31 
  -1   5   4   52.80    1.35 
  -1   5   4   52.61    1.26 
   1   5  -4   52.42    1.30 
  -1   5   4   52.97    1.29 
  -1  -5  -4    2.51    0.23 
   1  -5   4    2.35    0.24 
   1  -5   4    2.58    0.18 
   1   5   4    2.05    0.18 
   1   5   4    2.27    0.22 
  -1   5  -4    2.67    0.16 
   3  -5   4    1.20    0.19 
   3  -5   4    1.28    0.13 
  -3  -5  -4    1.15    0.21 
   3   5   4    1.22    0.16 
  -3   5  -4    1.33    0.12 
   3   5   4    1.09    0.18 
   5  -5   4    0.33    0.08 
  -5  -5  -4    0.26    0.19 
   5  -5   4    0.46    0.16 
   5   5   4    0.32    0.13 
  -5   5  -4    0.41    0.08 
   5   5   4    0.66    0.16 
   7  -5   4   32.76    0.81 
   7  -5   4   33.45    1.05 
   7   5   4   32.74    1.00 
   7   5   4   33.15    1.00 
  -7   5  -4   33.03    0.80 
   9  -5   4    3.88    0.35 
   9   5   4    3.82    0.33 
   9   5   4    3.03    0.30 
  11  -5   4    4.98    0.42 
  11   5   4    3.54    0.37 
  11   5   4    4.84    0.38 
  13  -5   4    8.52    0.56 
  13   5   4    7.04    0.52 
  13   5   4    8.68    0.49 
  15  -5   4   -0.14    0.21 
  15   5   4   -0.06    0.21 
  15   5   4   -0.12    0.19 
  17  -5   4   10.93    0.73 
  17   5   4    9.96    0.70 
  17   5   4   10.81    0.61 
  19  -5   4    0.04    0.29 
  19   5   4   -0.08    0.28 
  24  -6  -4    2.44    0.41 
  24   6  -4    2.99    0.49 
  24   6  -4    2.56    0.39 
 -22  -6   4   -0.13    0.34 
  22  -6  -4    0.07    0.23 
  22   6  -4    0.51    0.28 
  22   6  -4    0.32    0.22 
  20  -6  -4    1.61    0.31 
 -20  -6   4    2.35    0.51 
  20   6  -4    2.65    0.35 
  20   6  -4    2.30    0.39 
 -18  -6   4    1.24    0.37 
  18  -6  -4    1.03    0.24 
  18   6  -4    0.76    0.25 
  18   6  -4    1.25    0.25 
 -16  -6   4   23.67    1.13 
  16  -6  -4   27.20    0.90 
  16   6  -4   26.88    0.99 
  16   6  -4   27.70    0.93 
  14  -6  -4    1.25    0.19 
 -14  -6   4    1.49    0.33 
  14   6  -4    1.23    0.22 
 -12  -6   4    6.72    0.52 
  12  -6  -4    6.75    0.24 
  12  -6  -4    7.26    0.34 
 -12   6   4    6.91    0.26 
  12   6  -4    7.78    0.41 
 -10  -6   4    0.09    0.17 
  10  -6  -4    0.16    0.09 
 -10   6   4    0.04    0.07 
  10   6  -4    0.24    0.13 
  -8  -6   4   19.78    0.79 
   8  -6  -4   19.71    0.56 
  -8   6   4   19.32    0.56 
   8   6  -4   19.95    0.67 
   6  -6  -4    0.37    0.08 
  -6  -6   4    0.30    0.18 
   6   6  -4    0.45    0.14 
  -6   6   4    0.19    0.09 
  -6   6   4    0.36    0.08 
  -4  -6   4    1.58    0.22 
   4  -6  -4    1.81    0.15 
  -4  -6   4    1.22    0.18 
  -4   6   4    2.07    0.18 
  -4   6   4    1.72    0.11 
   4   6  -4    1.78    0.19 
   2  -6  -4   37.27    0.95 
  -2  -6   4   34.94    1.07 
  -2  -6   4   35.16    0.98 
  -2   6   4   36.33    0.91 
   2   6  -4   35.22    0.96 
  -2   6   4   37.83    0.99 
   0  -6   4   66.75    1.79 
   0  -6   4   68.80    1.68 
   0  -6  -4   68.79    1.72 
   0   6  -4   69.06    1.66 
   0   6   4   67.54    1.73 
   0   6   4   70.15    1.65 
   2  -6   4    2.57    0.25 
  -2  -6  -4    3.50    0.29 
   2  -6   4    3.13    0.19 
   2   6   4    3.20    0.22 
  -2   6  -4    3.34    0.18 
   2   6   4    3.51    0.27 
  -4  -6  -4    0.13    0.15 
   4  -6   4    0.03    0.06 
   4  -6   4   -0.02    0.11 
   4   6   4   -0.02    0.10 
  -4   6  -4    0.00    0.06 
  -4   6  -4   -0.04    0.06 
   4   6   4    0.01    0.12 
   6  -6   4    1.86    0.25 
   6  -6   4    2.27    0.14 
  -6  -6  -4    2.03    0.31 
  -6   6  -4    2.30    0.13 
   6   6   4    2.40    0.27 
   6   6   4    2.22    0.24 
  -6   6  -4    2.45    0.13 
   8  -6   4    0.20    0.17 
   8   6   4    0.42    0.17 
   8   6   4    0.38    0.17 
  10  -6   4    0.19    0.18 
  10   6   4   -0.08    0.15 
  10   6   4   -0.01    0.16 
  12  -6   4    0.19    0.21 
  12   6   4    0.14    0.19 
  12   6   4    0.49    0.21 
  14  -6   4    1.59    0.33 
  14   6   4    0.70    0.24 
  14   6   4    1.33    0.30 
  16  -6   4    0.90    0.33 
  16   6   4    0.70    0.26 
  16   6   4    0.68    0.27 
  18  -6   4    0.80    0.33 
  18   6   4    1.21    0.30 
  18   6   4    0.59    0.32 
  23  -7  -4    0.07    0.25 
 -23  -7   4   -0.09    0.36 
  23   7  -4   -0.14    0.25 
  23   7  -4   -0.02    0.24 
  21  -7  -4    0.19    0.23 
 -21  -7   4    0.29    0.37 
  21   7  -4    0.30    0.27 
  21   7  -4    0.25    0.23 
 -19  -7   4    2.74    0.51 
  19  -7  -4    2.84    0.35 
  19   7  -4    3.03    0.42 
  19   7  -4    2.32    0.32 
 -17  -7   4    0.24    0.29 
  17  -7  -4   -0.04    0.16 
  17   7  -4    0.11    0.20 
  17   7  -4   -0.14    0.16 
  15  -7  -4    3.39    0.32 
 -15  -7   4    3.11    0.46 
  15   7  -4    3.71    0.36 
  15   7  -4    3.16    0.37 
 -13  -7   4    0.57    0.24 
  13  -7  -4    0.24    0.13 
  13   7  -4    0.26    0.16 
  11  -7  -4    1.12    0.16 
 -11  -7   4    0.97    0.26 
 -11   7   4    0.99    0.12 
  11   7  -4    0.71    0.18 
  -9  -7   4   29.90    1.07 
   9  -7  -4   28.54    0.81 
   9   7  -4   30.28    0.92 
  -9   7   4   29.50    0.79 
  -7  -7   4   11.77    0.59 
   7  -7  -4   11.42    0.39 
   7   7  -4   11.47    0.48 
  -7   7   4   11.97    0.41 
   5  -7  -4    5.80    0.25 
  -5  -7   4    4.97    0.38 
   5   7  -4    4.90    0.30 
  -5   7   4    5.35    0.22 
  -5   7   4    5.39    0.28 
  -3  -7   4    5.66    0.38 
   3  -7  -4    6.84    0.29 
  -3   7   4    6.51    0.32 
  -3   7   4    6.39    0.25 
   3   7  -4    6.41    0.31 
  -1  -7   4    0.41    0.15 
   1  -7  -4    0.62    0.14 
  -1   7   4    0.84    0.16 
   1   7  -4    0.48    0.12 
  -1  -7  -4   42.08    1.17 
   1  -7   4   40.27    1.21 
   1   7   4   39.46    1.14 
  -1   7  -4   40.68    1.05 
   1   7   4   42.12    1.08 
   3  -7   4    7.59    0.42 
  -3  -7  -4    7.25    0.44 
   3   7   4    8.25    0.40 
  -3   7  -4    7.74    0.28 
   3   7   4    6.92    0.34 
   5  -7   4    6.48    0.41 
  -5  -7  -4    5.60    0.44 
  -5   7  -4    6.45    0.24 
   5   7   4    7.22    0.40 
  -5   7  -4    6.39    0.23 
   5   7   4    7.13    0.37 
   7  -7   4    0.28    0.18 
  -7  -7  -4    0.09    0.20 
   7   7   4    0.02    0.13 
   7   7   4   -0.01    0.14 
   9  -7   4    5.53    0.43 
   9   7   4    5.31    0.40 
   9   7   4    5.26    0.39 
  11  -7   4    0.27    0.20 
  11   7   4   -0.14    0.16 
  11   7   4   -0.03    0.18 
  13  -7   4    0.23    0.23 
  13   7   4   -0.04    0.20 
  13   7   4   -0.01    0.19 
  15  -7   4    0.07    0.25 
  15   7   4   -0.22    0.19 
  15   7   4   -0.04    0.21 
  17  -7   4    0.22    0.28 
  17   7   4   -0.08    0.24 
  17   7   4   -0.17    0.24 
 -22  -8   4   -0.03    0.37 
  22  -8  -4    0.03    0.23 
  22   8  -4   -0.26    0.20 
  22   8  -4    0.08    0.29 
 -20  -8   4    2.46    0.52 
  20  -8  -4    2.89    0.37 
  20   8  -4    3.20    0.40 
  20   8  -4    2.57    0.42 
 -18  -8   4    1.10    0.38 
  18  -8  -4    1.17    0.26 
  18   8  -4    1.03    0.29 
  18   8  -4    1.37    0.28 
 -16  -8   4    3.24    0.48 
  16  -8  -4    2.36    0.28 
  16   8  -4    1.75    0.29 
  16   8  -4    2.56    0.34 
 -14  -8   4    0.20    0.27 
  14  -8  -4    0.15    0.14 
  14   8  -4    0.25    0.17 
 -12  -8   4   -0.21    0.21 
  12  -8  -4    0.10    0.11 
  12   8  -4    0.21    0.16 
 -12   8   4    0.02    0.11 
  10  -8  -4   14.81    0.52 
 -10  -8   4   14.45    0.75 
  10   8  -4   15.39    0.62 
 -10   8   4   15.44    0.47 
  -8  -8   4   13.53    0.68 
   8  -8  -4   13.09    0.46 
   8   8  -4   12.06    0.52 
  -8   8   4   13.89    0.45 
  -6  -8   4   32.06    1.12 
   6  -8  -4   32.92    0.89 
  -6   8   4   33.35    0.91 
   6   8  -4   33.02    0.98 
   4  -8  -4   20.15    0.61 
  -4  -8   4   18.76    0.76 
  -4   8   4   19.54    0.63 
   4   8  -4   19.83    0.65 
  -2  -8   4    1.79    0.26 
   2  -8  -4    1.07    0.17 
  -2   8   4    1.35    0.18 
   2   8  -4    1.01    0.16 
   0  -8  -4    3.68    0.29 
   0  -8   4    3.33    0.32 
   0   8   4    3.45    0.28 
   0   8  -4    3.40    0.22 
   2  -8   4    2.15    0.28 
  -2  -8  -4    2.20    0.28 
  -2   8  -4    1.82    0.17 
   2   8   4    2.24    0.26 
   2   8   4    1.91    0.20 
  -4  -8  -4    0.15    0.18 
   4  -8   4    0.19    0.15 
  -4   8  -4    0.29    0.09 
   4   8   4    0.20    0.15 
   4   8   4    0.03    0.12 
  -6  -8  -4    0.71    0.25 
   6  -8   4    0.80    0.21 
   6   8   4    0.92    0.20 
   6   8   4    1.28    0.24 
  -6   8  -4    1.00    0.11 
   8  -8   4    5.66    0.43 
  -8  -8  -4    4.12    0.48 
   8   8   4    5.57    0.42 
   8   8   4    5.85    0.39 
 -10  -8  -4    0.94    0.32 
  10  -8   4    0.78    0.24 
  10   8   4    0.71    0.23 
  10   8   4    1.02    0.25 
  12  -8   4    5.46    0.51 
  12   8   4    5.81    0.47 
  12   8   4    5.53    0.48 
  14  -8   4    1.11    0.33 
  14   8   4    1.64    0.33 
  14   8   4    0.92    0.28 
  16  -8   4    1.27    0.36 
  16   8   4    0.78    0.30 
  16   8   4    0.83    0.29 
 -21  -9   4    2.30    0.56 
  21   9  -4    2.23    0.36 
  21   9  -4    1.67    0.40 
 -19  -9   4    1.23    0.45 
  19  -9  -4    0.88    0.27 
  19   9  -4    0.97    0.28 
  19   9  -4    1.66    0.37 
  17  -9  -4    0.62    0.22 
 -17  -9   4    0.72    0.35 
  17   9  -4    1.19    0.26 
  17   9  -4    0.83    0.28 
  15  -9  -4    0.03    0.14 
 -15  -9   4    0.09    0.28 
  15   9  -4   -0.20    0.16 
 -13  -9   4    3.53    0.50 
  13  -9  -4    3.62    0.30 
  13   9  -4    4.18    0.38 
 -11  -9   4    8.07    0.61 
  11  -9  -4    8.82    0.41 
  11   9  -4    7.37    0.46 
 -11   9   4    8.91    0.34 
  -9  -9   4   15.91    0.78 
   9  -9  -4   14.80    0.54 
   9   9  -4   14.81    0.62 
  -9   9   4   15.49    0.50 
   7  -9  -4   33.94    0.95 
  -7  -9   4   32.52    1.18 
   7   9  -4   34.86    1.05 
  -7   9   4   34.50    0.94 
   5  -9  -4    0.03    0.10 
  -5  -9   4   -0.12    0.16 
  -5   9   4    0.19    0.11 
   5   9  -4    0.10    0.12 
  -3  -9   4   21.59    0.85 
   3  -9  -4   22.38    0.71 
   3   9  -4   22.78    0.73 
  -3   9   4   22.35    0.72 
   1  -9  -4    4.56    0.32 
  -1  -9   4    5.44    0.40 
  -1   9   4    5.82    0.35 
   1   9  -4    5.91    0.31 
  -1  -9  -4    9.33    0.48 
   1  -9   4   10.14    0.53 
  -1   9  -4   10.00    0.39 
   1   9   4   10.60    0.48 
   3  -9   4    6.67    0.45 
  -3  -9  -4    6.56    0.45 
   3   9   4    7.27    0.37 
  -3   9  -4    6.98    0.30 
   3   9   4    7.11    0.42 
  -5  -9  -4   -0.16    0.18 
   5  -9   4    0.34    0.18 
  -5   9  -4    0.18    0.09 
   5   9   4    0.14    0.14 
   5   9   4    0.25    0.17 
   7  -9   4    8.34    0.53 
  -7  -9  -4   10.22    0.63 
   7   9   4    9.41    0.49 
   7   9   4    9.40    0.53 
  -9  -9  -4    4.01    0.50 
   9  -9   4    3.27    0.40 
   9   9   4    2.47    0.33 
   9   9   4    3.44    0.37 
  11  -9   4    4.30    0.45 
 -11  -9  -4    3.17    0.52 
  11   9   4    4.05    0.42 
  11   9   4    4.26    0.44 
  13  -9   4    0.68    0.29 
  13   9   4    0.43    0.26 
  13   9   4    0.86    0.28 
  15  -9   4    0.28    0.26 
  15   9   4   -0.15    0.22 
  15   9   4   -0.06    0.23 
 -20 -10   4    2.20    0.57 
  20  10  -4    1.95    0.37 
  20  10  -4    2.85    0.46 
 -18 -10   4   -0.11    0.32 
  18  10  -4    0.15    0.22 
  18  10  -4   -0.09    0.24 
 -16 -10   4   13.70    0.92 
  16  10  -4   11.50    0.64 
  14 -10  -4    3.92    0.34 
 -14 -10   4    4.13    0.55 
  14  10  -4    3.02    0.35 
 -12 -10   4   -0.01    0.24 
  12 -10  -4    0.10    0.14 
  12  10  -4    0.25    0.19 
 -10 -10   4   41.72    1.49 
  10 -10  -4   42.37    1.19 
  10  10  -4   42.12    1.29 
 -10  10   4   42.05    1.11 
  -8 -10   4    2.46    0.38 
   8 -10  -4    2.41    0.24 
   8  10  -4    2.20    0.27 
  -8  10   4    2.38    0.22 
  -6 -10   4   12.60    0.68 
   6 -10  -4   12.44    0.49 
  -6  10   4   12.38    0.48 
   6  10  -4   12.09    0.54 
   4 -10  -4    2.35    0.25 
  -4 -10   4    4.10    0.43 
  -4  10   4    3.41    0.27 
   4  10  -4    3.63    0.29 
   2 -10  -4    1.34    0.22 
  -2 -10   4    1.27    0.27 
  -2  10   4    1.23    0.20 
   2  10  -4    1.30    0.19 
   0 -10   4    1.63    0.27 
   0 -10  -4    2.67    0.29 
   0  10   4    2.81    0.29 
   0  10  -4    2.92    0.24 
   2 -10   4    0.95    0.23 
  -2 -10  -4    0.50    0.20 
   2  10   4    0.71    0.21 
  -2  10  -4    1.00    0.16 
   4 -10   4    4.52    0.42 
  -4 -10  -4    4.85    0.45 
   4  10   4    5.46    0.40 
  -4  10  -4    5.15    0.26 
   4  10   4    5.21    0.35 
   6 -10   4    0.40    0.22 
  -6 -10  -4    0.55    0.26 
   6  10   4    0.80    0.23 
   6  10   4    0.50    0.18 
  -8 -10  -4    9.71    0.68 
   8 -10   4   11.41    0.64 
   8  10   4   11.32    0.59 
   8  10   4   10.67    0.56 
 -10 -10  -4    0.54    0.32 
  10 -10   4    0.32    0.24 
  10  10   4    0.17    0.21 
  10  10   4    0.40    0.22 
  12 -10   4    1.73    0.35 
  12  10   4    0.86    0.27 
  12  10   4    1.79    0.34 
  14 -10   4    0.39    0.28 
  14  10   4    0.14    0.25 
  14  10   4    0.13    0.25 
 -19 -11   4    1.26    0.48 
  19  11  -4    1.70    0.36 
  19  11  -4    1.68    0.38 
 -17 -11   4    0.37    0.37 
  17  11  -4    0.21    0.25 
  17  11  -4    0.80    0.30 
 -15 -11   4    0.09    0.32 
  15  11  -4    0.18    0.21 
 -13 -11   4    1.36    0.39 
  13  11  -4    1.28    0.27 
 -11 -11   4    3.85    0.51 
  11 -11  -4    4.21    0.51 
  11  11  -4    3.37    0.37 
  -9 -11   4    2.87    0.43 
   9 -11  -4    3.63    0.30 
   9  11  -4    2.85    0.32 
  -9  11   4    3.48    0.25 
  -7 -11   4    8.26    0.60 
   7 -11  -4    7.72    0.40 
  -7  11   4    7.55    0.37 
   7  11  -4    6.86    0.44 
  -5 -11   4    0.09    0.22 
   5 -11  -4    0.20    0.15 
   5  11  -4    0.42    0.16 
  -5  11   4    0.38    0.15 
   3 -11  -4   -0.07    0.14 
  -3 -11   4    0.21    0.21 
  -3  11   4   -0.11    0.13 
   3  11  -4    0.05    0.13 
  -1 -11   4    0.21    0.20 
   1 -11  -4    0.03    0.16 
  -1  11   4   -0.09    0.15 
   1  11  -4    0.02    0.12 
  -1 -11  -4    0.77    0.24 
   1 -11   4    0.68    0.23 
  -1  11  -4    1.00    0.18 
   1  11   4    1.12    0.22 
  -3 -11  -4    1.17    0.27 
   3 -11   4    0.74    0.25 
  -3  11  -4    1.24    0.17 
   3  11   4    1.39    0.26 
   5 -11   4    1.32    0.29 
  -5 -11  -4    0.36    0.25 
   5  11   4    1.12    0.23 
   5  11   4    1.42    0.27 
  -7 -11  -4    5.38    0.54 
   7 -11   4    4.93    0.47 
   7  11   4    4.84    0.40 
   7  11   4    4.57    0.46 
   9 -11   4    0.26    0.24 
  -9 -11  -4    0.22    0.28 
   9  11   4    0.71    0.26 
   9  11   4    0.37    0.22 
  11 -11   4    0.75    0.29 
 -11 -11  -4    0.66    0.36 
  11  11   4    0.75    0.27 
  11  11   4    1.02    0.30 
  13 -11   4    1.10    0.34 
  13  11   4    0.78    0.32 
  13  11   4    1.24    0.32 
 -18 -12   4    1.59    0.52 
  18  12  -4    1.52    0.37 
  18  12  -4    1.82    0.37 
 -16 -12   4    0.01    0.33 
  16  12  -4   -0.12    0.21 
 -14 -12   4    1.20    0.40 
  14  12  -4    1.40    0.30 
 -12 -12   4    2.39    0.47 
  12  12  -4    2.18    0.34 
 -10 -12   4    0.23    0.29 
  10  12  -4    0.67    0.23 
  -8 -12   4    0.13    0.25 
   8  12  -4    0.12    0.17 
  -8  12   4    0.01    0.11 
  -6 -12   4    0.94    0.32 
  -6  12   4    0.53    0.16 
   6  12  -4    0.47    0.19 
   4 -12  -4    1.99    0.27 
  -4 -12   4    2.85    0.41 
   4  12  -4    3.18    0.33 
  -4  12   4    2.51    0.28 
   2 -12  -4    0.20    0.18 
  -2 -12   4    0.61    0.25 
  -2  12   4    0.47    0.19 
   2  12  -4    0.08    0.14 
   0 -12   4    0.23    0.23 
   0 -12  -4    0.20    0.19 
   0  12  -4    0.10    0.13 
   0  12   4    0.41    0.19 
  -2 -12  -4   23.24    0.91 
   2 -12   4   22.60    0.94 
  -2  12  -4   21.17    0.70 
   2  12   4   22.07    0.85 
  -4 -12  -4   32.26    1.18 
   4 -12   4   32.17    1.18 
   4  12   4   31.71    1.02 
   4  12   4   31.07    1.09 
  -6 -12  -4   12.99    0.77 
   6 -12   4   13.24    0.73 
   6  12   4   14.37    0.70 
   6  12   4   12.86    0.62 
   8 -12   4    2.29    0.39 
  -8 -12  -4    2.69    0.45 
   8  12   4    2.79    0.39 
   8  12   4    2.04    0.32 
 -10 -12  -4    0.16    0.31 
  10 -12   4    0.20    0.25 
  10  12   4    0.09    0.22 
  10  12   4    0.35    0.26 
 -12 -12  -4   -0.10    0.34 
  12 -12   4    0.03    0.26 
  12  12   4    0.07    0.26 
  12  12   4   -0.08    0.22 
 -17 -13   4    0.37    0.40 
  17  13  -4    0.01    0.26 
  17  13  -4    0.08    0.27 
 -15 -13   4    0.17    0.33 
  15  13  -4    0.03    0.24 
 -13 -13   4    6.68    0.74 
  13  13  -4    7.29    0.55 
 -11 -13   4    0.62    0.34 
  11  13  -4    0.75    0.25 
  -9 -13   4   14.58    0.89 
   9  13  -4   14.66    0.69 
  -7 -13   4   10.38    0.73 
   7  13  -4    9.82    0.54 
  -7  13   4   10.07    0.47 
  -5 -13   4    0.93    0.32 
  -5  13   4    0.97    0.20 
   5  13  -4    1.20    0.25 
  -3 -13   4    3.49    0.47 
  -3  13   4    3.51    0.34 
   3  13  -4    3.96    0.35 
  -1 -13   4    0.67    0.29 
   1  13  -4    0.62    0.18 
  -1  13   4    0.73    0.23 
  -1 -13  -4    1.58    0.42 
   1 -13   4    2.45    0.39 
   1  13   4    1.94    0.31 
  -1  13  -4    1.84    0.24 
   3 -13   4    0.56    0.28 
  -3 -13  -4    0.68    0.27 
   3  13   4    0.69    0.25 
  -5 -13  -4    2.95    0.44 
   5 -13   4    3.64    0.47 
   5  13   4    3.10    0.35 
   5  13   4    3.93    0.43 
   7 -13   4    1.05    0.32 
  -7 -13  -4    1.25    0.37 
   7  13   4    0.81    0.28 
   7  13   4    1.23    0.27 
  -9 -13  -4    3.49    0.53 
   9 -13   4    4.49    0.53 
   9  13   4    3.66    0.47 
   9  13   4    3.07    0.40 
 -11 -13  -4    0.41    0.36 
  11 -13   4    0.76    0.31 
  11  13   4    0.41    0.29 
  11  13   4    0.56    0.27 
 -16 -14   4    1.14    0.47 
  16  14  -4    1.38    0.38 
 -14 -14   4    0.31    0.38 
  14  14  -4    1.09    0.30 
 -12 -14   4    0.28    0.35 
  12  14  -4    0.08    0.22 
 -10 -14   4    2.79    0.50 
  10  14  -4    2.83    0.37 
  -8 -14   4    0.16    0.27 
   8  14  -4   -0.14    0.19 
  -6 -14   4    1.22    0.36 
   6  14  -4    0.42    0.22 
  -6  14   4    0.33    0.20 
  -4 -14   4    0.98    0.33 
   4  14  -4    0.65    0.22 
  -4  14   4    0.70    0.21 
  -2 -14   4    0.82    0.32 
   2  14  -4    0.50    0.20 
  -2  14   4    0.63    0.22 
   0 -14   4    1.88    0.38 
   0  14  -4    1.63    0.25 
   0  14   4    1.27    0.28 
   2 -14   4    0.22    0.26 
   2  14   4    0.36    0.23 
   4 -14   4    4.15    0.51 
   4  14   4    4.01    0.45 
   6 -14   4    1.07    0.34 
   6  14   4    0.91    0.31 
   8 -14   4    1.21    0.37 
   8  14   4    0.47    0.29 
  10 -14   4    5.12    0.60 
  10  14   4    5.93    0.60 
 -13 -15   4    0.25    0.38 
  13  15  -4    0.20    0.28 
 -11 -15   4    0.52    0.36 
  11  15  -4    0.10    0.23 
  -9 -15   4    0.66    0.38 
   9  15  -4    0.78    0.27 
  -7 -15   4    2.02    0.44 
   7  15  -4    1.94    0.33 
  -5 -15   4    0.75    0.32 
   5  15  -4    0.83    0.25 
  -3 -15   4   -0.11    0.28 
  -3  15   4    0.26    0.20 
   3  15  -4    0.07    0.18 
  -1 -15   4    0.68    0.33 
  -1  15   4    1.76    0.32 
   1  15  -4    0.80    0.28 
   1 -15   4    1.04    0.34 
   1  15   4    1.85    0.33 
   3 -15   4    2.31    0.44 
   3  15   4    2.47    0.37 
   5 -15   4    3.01    0.47 
   5  15   4    3.29    0.45 
   7 -15   4   -0.19    0.28 
   7  15   4    0.20    0.27 
 -10 -16   4    0.12    0.34 
  10  16  -4    0.00    0.23 
  -8 -16   4    0.92    0.41 
   8  16  -4    0.57    0.26 
  -6 -16   4    0.02    0.31 
   6  16  -4    0.04    0.22 
  -4 -16   4    0.67    0.35 
   4  16  -4    0.94    0.26 
  -2 -16   4    1.12    0.39 
  -2  16   4    1.31    0.30 
   0 -16   4    0.40    0.31 
   0  16   4   -0.12    0.21 
   2 -16   4    0.31    0.33 
   2  16   4    0.10    0.23 
   4 -16   4   -0.51    0.25 
   4  16   4    0.10    0.25 
   6  16   4   -0.08    0.26 
  -7 -17   4    0.38    0.37 
   7  17  -4   -0.09    0.23 
  -5 -17   4    0.57    0.40 
   5  17  -4    0.69    0.27 
  -3 -17   4    2.09    0.49 
  -1 -17   4    1.16    0.40 
  -1  17   4    0.89    0.29 
   1 -17   4    0.04    0.33 
   1  17   4    0.09    0.26 
  24   0  -5   -0.01    0.23 
  22   0  -5   -0.11    0.19 
  20   0  -5    0.03    0.12 
  20   0  -5    0.16    0.19 
  18   0  -5    0.05    0.16 
  18   0  -5    0.00    0.11 
 -16   0   5   -0.23    0.17 
  16   0  -5   -0.02    0.10 
  16   0  -5    0.06    0.14 
 -14   0   5    0.10    0.17 
 -14   0   5    0.02    0.11 
  14   0  -5    0.03    0.09 
  14   0  -5    0.02    0.12 
 -12   0   5   -0.09    0.09 
  12   0  -5    0.06    0.09 
 -12   0   5    0.14    0.16 
  12   0  -5    0.07    0.11 
 -10   0   5   -0.13    0.13 
  10   0  -5    0.06    0.09 
 -10   0   5    0.05    0.10 
  -8   0   5    0.02    0.09 
  -8   0   5    0.13    0.12 
   6   0  -5   -0.07    0.06 
  -6   0   5   -0.10    0.09 
  -6   0   5   -0.03    0.09 
  -4   0   5    0.18    0.09 
  -4   0   5    0.00    0.07 
   4   0  -5   -0.04    0.06 
  -2   0   5    0.07    0.08 
  -2   0   5    0.02    0.07 
   2   0  -5    0.01    0.07 
   2   0   5   -0.14    0.10 
   2   0   5    0.11    0.09 
   4   0   5   -0.04    0.09 
   4   0   5   -0.19    0.11 
   6   0   5    0.00    0.10 
   6   0   5   -0.13    0.12 
   8   0   5    0.05    0.09 
   8   0   5    0.00    0.14 
  10   0   5   -0.03    0.16 
  10   0   5    0.19    0.12 
  12   0   5   -0.21    0.16 
  12   0   5    0.05    0.12 
  14   0   5    0.16    0.23 
  16   0   5   -0.22    0.22 
  18   0   5    0.14    0.26 
  25  -1  -5   -0.13    0.24 
  25   1  -5    0.35    0.26 
  23  -1  -5    0.10    0.23 
  23   1  -5   -0.16    0.21 
  21  -1  -5    6.66    0.50 
  21   1  -5    6.33    0.49 
  21   1  -5    5.90    0.38 
  19  -1  -5    3.23    0.26 
  19  -1  -5    3.72    0.36 
  19   1  -5    3.97    0.30 
  19   1  -5    3.13    0.36 
 -17  -1   5   12.54    0.72 
  17  -1  -5   12.51    0.46 
  17  -1  -5   11.06    0.54 
  17   1  -5   11.68    0.49 
  17   1  -5   11.91    0.57 
  15  -1  -5   30.56    0.87 
  15  -1  -5   30.56    0.96 
 -15  -1   5   29.36    1.11 
  15   1  -5   31.28    0.98 
  15   1  -5   31.15    0.91 
 -15   1   5   32.64    0.91 
  13  -1  -5    1.50    0.16 
 -13  -1   5    1.99    0.30 
  13  -1  -5    1.54    0.19 
 -13  -1   5    2.15    0.23 
  13   1  -5    1.83    0.20 
 -13   1   5    1.63    0.18 
  13   1  -5    1.89    0.23 
 -13   1   5    1.83    0.27 
 -11  -1   5    2.65    0.30 
  11  -1  -5    2.22    0.19 
 -11  -1   5    2.34    0.22 
 -11   1   5    2.56    0.28 
  11   1  -5    1.61    0.17 
 -11   1   5    2.41    0.20 
  -9  -1   5   61.12    1.61 
   9  -1  -5   60.65    1.48 
  -9  -1   5   60.12    1.53 
  -9   1   5   60.07    1.50 
   9   1  -5   59.95    1.50 
  -9   1   5   60.47    1.55 
   7  -1  -5   32.21    0.83 
  -7  -1   5   31.58    0.89 
  -7   1   5   30.71    0.84 
  -7   1   5   30.14    0.83 
   5  -1  -5   36.58    0.87 
  -5  -1   5   35.24    0.94 
  -5  -1   5   34.89    0.94 
  -5   1   5   34.91    0.93 
   5   1  -5   36.05    0.94 
  -5   1   5   35.08    0.88 
  -3  -1   5    7.42    0.30 
   3  -1  -5    7.43    0.24 
  -3  -1   5    6.79    0.29 
  -3   1   5    7.30    0.24 
   3   1  -5    6.79    0.28 
  -3   1   5    7.44    0.29 
  -1  -1   5   31.24    0.82 
  -1  -1   5   30.36    0.82 
   1  -1  -5   31.09    0.78 
  -1   1   5   29.67    0.82 
  -1   1   5   30.17    0.78 
   1  -1   5   41.70    1.08 
   1  -1   5   43.70    1.12 
   1   1   5   42.40    1.10 
   1   1   5   42.93    1.09 
   3  -1   5   91.76    2.20 
   3  -1   5   88.66    2.13 
   3   1   5   87.48    2.16 
   3   1   5   90.44    2.18 
   5  -1   5    0.63    0.16 
   5  -1   5    0.58    0.12 
   5   1   5    0.70    0.16 
   5   1   5    0.56    0.13 
   7  -1   5   -0.06    0.13 
   7  -1   5    0.06    0.09 
   7   1   5    0.06    0.10 
   7   1   5    0.33    0.16 
   9  -1   5    0.28    0.11 
   9  -1   5    0.48    0.17 
   9   1   5    0.26    0.13 
   9   1   5    0.66    0.20 
  11  -1   5    1.01    0.17 
  11  -1   5    0.41    0.20 
  11   1   5    1.11    0.26 
  11   1   5    0.81    0.17 
  13  -1   5    1.65    0.32 
  13   1   5    1.29    0.30 
  13   1   5    1.85    0.25 
  15  -1   5    0.53    0.27 
  15   1   5    0.47    0.27 
  17  -1   5    2.23    0.41 
  17   1   5    2.42    0.43 
  19  -1   5    0.73    0.52 
  19   1   5    1.10    0.39 
  24  -2  -5    4.03    0.47 
  24   2  -5    4.91    0.51 
  22  -2  -5    0.23    0.22 
  22   2  -5    0.13    0.21 
  22   2  -5    0.46    0.18 
 -20  -2   5    2.09    0.46 
  20  -2  -5    2.57    0.34 
  20   2  -5    1.86    0.25 
  20   2  -5    1.77    0.32 
  18  -2  -5    8.72    0.49 
  18  -2  -5    8.65    0.37 
 -18  -2   5    8.65    0.65 
  18   2  -5    8.88    0.51 
  18   2  -5    7.69    0.41 
  16  -2  -5    0.09    0.09 
 -16  -2   5    0.16    0.21 
  16  -2  -5    0.22    0.14 
  16   2  -5    0.23    0.16 
  16   2  -5    0.07    0.12 
  14  -2  -5    0.54    0.14 
  14  -2  -5    0.58    0.12 
 -14  -2   5    0.30    0.20 
  14   2  -5    0.50    0.13 
 -14   2   5    0.57    0.12 
  14   2  -5    0.41    0.15 
  12  -2  -5   72.99    1.78 
 -12  -2   5   69.28    1.96 
 -12  -2   5   69.55    1.82 
  12   2  -5   71.37    1.79 
 -12   2   5   71.64    1.75 
 -10  -2   5   34.07    1.06 
  10  -2  -5   33.28    0.90 
 -10  -2   5   35.79    0.98 
 -10   2   5   33.85    0.91 
  10   2  -5   34.31    0.95 
 -10   2   5   34.07    0.99 
  -8  -2   5   51.06    1.37 
   8  -2  -5   53.12    1.32 
  -8  -2   5   54.59    1.45 
   8  -2  -5   54.08    1.28 
  -8   2   5   52.46    1.33 
  -8   2   5   54.85    1.34 
   8   2  -5   52.54    1.35 
  -6  -2   5   43.53    1.16 
   6  -2  -5   43.40    1.02 
  -6  -2   5   40.54    1.12 
  -6   2   5   42.84    1.04 
  -6   2   5   43.75    1.09 
   4  -2  -5   12.99    0.32 
  -4  -2   5   12.92    0.44 
  -4  -2   5   11.82    0.44 
  -4   2   5   13.01    0.43 
  -4   2   5   13.07    0.33 
   2  -2  -5    6.33    0.21 
  -2  -2   5    6.26    0.28 
  -2  -2   5    5.97    0.29 
  -2   2   5    6.73    0.22 
  -2   2   5    6.41    0.28 
   0  -2  -5   16.67    0.48 
   0  -2   5   17.64    0.55 
   0  -2   5   16.55    0.51 
   0   2   5   16.15    0.53 
   0   2   5   16.50    0.48 
   2  -2   5   13.59    0.51 
   2  -2   5   14.82    0.46 
   2   2   5   15.19    0.50 
   2   2   5   15.20    0.49 
   4  -2   5   17.79    0.54 
   4  -2   5   19.12    0.64 
   4   2   5   16.70    0.58 
   4   2   5   18.67    0.61 
   6  -2   5   85.44    2.01 
   6  -2   5   82.45    2.15 
   6   2   5   84.56    2.13 
   6   2   5   82.90    2.08 
   8  -2   5    2.29    0.27 
   8  -2   5    2.01    0.18 
   8   2   5    1.97    0.22 
   8   2   5    1.98    0.25 
  10  -2   5    4.59    0.40 
  10  -2   5    4.71    0.27 
  10   2   5    4.41    0.38 
  10   2   5    4.06    0.31 
  12  -2   5    0.20    0.20 
  12   2   5    0.16    0.15 
  12   2   5    0.13    0.19 
  14  -2   5    1.16    0.32 
  14   2   5    1.75    0.34 
  14   2   5    1.42    0.24 
  16  -2   5    0.77    0.32 
  16   2   5    0.53    0.28 
  18  -2   5    0.19    0.27 
  18   2   5    0.09    0.27 
  25  -3  -5    1.37    0.35 
  25   3  -5    1.67    0.37 
  23  -3  -5    3.31    0.42 
  23   3  -5    2.86    0.43 
  23   3  -5    2.13    0.30 
 -21  -3   5    5.47    0.66 
  21  -3  -5    7.30    0.52 
  21   3  -5    7.74    0.56 
  21   3  -5    7.96    0.46 
 -19  -3   5    3.15    0.50 
  19  -3  -5    3.47    0.36 
  19   3  -5    3.89    0.40 
  19   3  -5    3.39    0.31 
  17  -3  -5    4.49    0.33 
  17  -3  -5    4.53    0.25 
 -17  -3   5    4.97    0.55 
  17   3  -5    4.85    0.39 
  17   3  -5    3.67    0.32 
 -15  -3   5    1.56    0.32 
  15  -3  -5    2.04    0.18 
  15  -3  -5    1.78    0.22 
  15   3  -5    2.24    0.28 
  15   3  -5    2.31    0.25 
 -15   3   5    1.88    0.19 
  13  -3  -5   13.10    0.49 
 -13  -3   5   14.04    0.68 
 -13   3   5   13.98    0.46 
  13   3  -5   14.51    0.53 
 -11  -3   5    0.96    0.18 
 -11  -3   5    0.85    0.22 
  11  -3  -5    1.25    0.15 
 -11   3   5    1.15    0.14 
  11   3  -5    1.00    0.17 
   9  -3  -5   70.34    1.74 
  -9  -3   5   72.05    1.90 
   9  -3  -5   70.19    1.68 
  -9  -3   5   71.78    1.81 
  -9   3   5   71.16    1.72 
   9   3  -5   70.88    1.77 
  -7  -3   5    3.46    0.29 
   7  -3  -5    3.29    0.14 
  -7  -3   5    3.10    0.24 
   7  -3  -5    3.50    0.17 
  -7   3   5    3.18    0.20 
   7   3  -5    3.22    0.22 
  -5  -3   5    0.17    0.10 
  -5  -3   5    0.13    0.12 
  -5   3   5   -0.04    0.08 
  -3  -3   5   29.51    0.85 
   3  -3  -5   29.19    0.68 
  -3  -3   5   29.06    0.80 
  -3   3   5   27.88    0.79 
  -3   3   5   28.38    0.67 
  -3   3   5   29.68    0.70 
   1  -3  -5    0.14    0.06 
  -1  -3   5    0.05    0.11 
  -1  -3   5    0.13    0.10 
  -1   3   5    0.11    0.08 
  -1   3   5    0.11    0.06 
  -1   3   5   -0.01    0.08 
   1  -3   5   13.91    0.52 
   1  -3   5   15.67    0.47 
   1   3   5   15.25    0.52 
   1   3   5   15.24    0.47 
   3  -3   5   40.31    1.07 
   3  -3   5   44.36    1.19 
   3   3   5   42.66    1.15 
   3   3   5   42.13    1.12 
   5  -3   5   -0.04    0.12 
   5  -3   5    0.00    0.07 
   5   3   5    0.15    0.11 
   5   3   5    0.00    0.11 
   7  -3   5   11.94    0.41 
   7  -3   5   12.90    0.56 
   7   3   5   12.19    0.50 
   7   3   5   12.62    0.53 
   9  -3   5   21.74    0.63 
   9  -3   5   21.40    0.81 
   9   3   5   21.95    0.74 
   9   3   5   21.41    0.79 
  11  -3   5    0.25    0.21 
  11   3   5   -0.33    0.14 
  11   3   5   -0.15    0.14 
  13  -3   5   19.80    0.86 
  13   3   5   19.31    0.75 
  13   3   5   18.45    0.83 
  15  -3   5    6.68    0.57 
  15   3   5    7.01    0.48 
  15   3   5    7.96    0.60 
  17  -3   5    0.74    0.32 
  17   3   5    0.25    0.27 
  24  -4  -5    0.20    0.24 
  24   4  -5   -0.12    0.24 
  24   4  -5   -0.08    0.23 
  22  -4  -5    1.40    0.30 
 -22  -4   5    0.93    0.40 
  22   4  -5    1.75    0.28 
  22   4  -5    1.11    0.30 
  20  -4  -5    1.61    0.28 
 -20  -4   5    0.41    0.32 
  20   4  -5    1.25    0.28 
  20   4  -5    0.93    0.23 
  18  -4  -5    4.73    0.37 
 -18  -4   5    3.95    0.52 
  18   4  -5    5.20    0.38 
  18   4  -5    4.85    0.43 
  16  -4  -5   -0.07    0.12 
  16  -4  -5    0.01    0.08 
 -16  -4   5   -0.03    0.21 
 -16   4   5    0.03    0.09 
  16   4  -5    0.03    0.13 
  16   4  -5   -0.03    0.15 
  14  -4  -5    1.32    0.19 
  14  -4  -5    1.32    0.14 
  14   4  -5    1.94    0.24 
 -14   4   5    1.32    0.15 
 -12  -4   5   11.63    0.61 
  12  -4  -5   11.78    0.43 
  12   4  -5   12.63    0.50 
 -12   4   5   12.06    0.41 
 -10  -4   5   -0.02    0.15 
 -10  -4   5    0.04    0.13 
  10  -4  -5   -0.03    0.07 
  10   4  -5   -0.07    0.11 
 -10   4   5    0.03    0.08 
  -8  -4   5   17.13    0.68 
  -8  -4   5   16.51    0.59 
   8  -4  -5   17.16    0.50 
   8  -4  -5   16.62    0.45 
   8   4  -5   16.45    0.57 
  -8   4   5   17.04    0.52 
  -8   4   5   17.17    0.46 
  -6  -4   5    9.03    0.43 
  -6  -4   5    8.88    0.39 
  -6   4   5    8.94    0.35 
   6   4  -5    9.66    0.38 
  -4  -4   5   18.73    0.64 
  -4  -4   5   18.16    0.59 
   4   4  -5   18.08    0.56 
  -4   4   5   18.51    0.57 
  -2  -4   5    7.46    0.32 
  -2  -4   5    7.30    0.36 
  -2   4   5    7.21    0.32 
  -2   4   5    7.57    0.26 
  -2   4   5    7.63    0.23 
   0  -4   5    4.20    0.23 
   0  -4   5    3.53    0.27 
   0   4   5    3.99    0.20 
   0   4   5    3.97    0.24 
   0   4   5    4.05    0.25 
   2  -4   5   14.89    0.56 
   2  -4   5   14.99    0.47 
   2   4   5   15.69    0.55 
   2   4   5   16.53    0.51 
   4  -4   5    0.46    0.16 
   4  -4   5    0.72    0.11 
   4   4   5    0.43    0.14 
   4   4   5    0.36    0.13 
   6  -4   5    9.51    0.34 
   6  -4   5    9.00    0.47 
   6   4   5    9.59    0.44 
   6   4   5   10.85    0.46 
   8  -4   5    1.30    0.25 
   8  -4   5    1.62    0.16 
   8   4   5    1.93    0.24 
   8   4   5    1.81    0.25 
  10  -4   5    3.97    0.42 
  10   4   5    4.34    0.34 
  10   4   5    4.51    0.39 
  12  -4   5    7.66    0.54 
  12   4   5    7.33    0.50 
  12   4   5    7.10    0.45 
  14  -4   5    1.47    0.32 
  14   4   5    2.22    0.36 
  14   4   5    1.89    0.29 
  16  -4   5   -0.09    0.24 
  16   4   5    0.07    0.25 
  16   4   5    0.24    0.21 
  18  -4   5   -0.14    0.27 
  18   4   5   -0.25    0.26 
 -23  -5   5    0.54    0.39 
  23  -5  -5    1.15    0.30 
  23   5  -5    0.65    0.31 
  23   5  -5    1.10    0.26 
  21  -5  -5    0.76    0.25 
 -21  -5   5    1.26    0.41 
  21   5  -5    0.95    0.29 
  21   5  -5    0.95    0.24 
  19  -5  -5    1.87    0.28 
 -19  -5   5    2.15    0.44 
  19   5  -5    2.23    0.31 
  19   5  -5    1.80    0.32 
  17  -5  -5   12.84    0.56 
 -17  -5   5   13.14    0.80 
  17   5  -5   12.15    0.63 
  17   5  -5   12.72    0.58 
 -15  -5   5    6.54    0.53 
  15  -5  -5    6.03    0.26 
  15  -5  -5    6.00    0.35 
  15   5  -5    6.23    0.42 
  15   5  -5    6.79    0.40 
 -15   5   5    6.45    0.28 
  13  -5  -5   15.74    0.54 
 -13   5   5   16.29    0.49 
  13   5  -5   15.01    0.60 
  11  -5  -5    3.04    0.19 
 -11  -5   5    2.42    0.32 
  11   5  -5    3.15    0.27 
 -11   5   5    2.69    0.19 
  -9  -5   5   52.34    1.43 
   9  -5  -5   52.97    1.33 
   9  -5  -5   53.06    1.27 
  -9  -5   5   51.71    1.53 
   9   5  -5   50.31    1.39 
  -9   5   5   52.43    1.27 
  -9   5   5   53.10    1.31 
   7  -5  -5   10.58    0.30 
  -7  -5   5   10.30    0.45 
   7  -5  -5   10.78    0.34 
  -7  -5   5   10.62    0.53 
  -7   5   5   10.96    0.30 
  -7   5   5   10.91    0.39 
   7   5  -5   10.83    0.44 
  -5  -5   5    1.17    0.21 
  -5  -5   5    1.70    0.20 
   5   5  -5    1.62    0.19 
  -3  -5   5   28.90    0.84 
   3  -5  -5   29.29    0.73 
  -3   5   5   30.20    0.72 
   3   5  -5   30.27    0.82 
  -3   5   5   29.02    0.70 
  -3   5   5   30.02    0.84 
  -1  -5   5   62.65    1.65 
  -1  -5   5   63.25    1.56 
   1  -5  -5   63.57    1.54 
   1   5  -5   61.36    1.53 
  -1   5   5   63.92    1.53 
  -1   5   5   61.33    1.48 
  -1   5   5   61.66    1.59 
   1  -5   5    0.71    0.17 
   1  -5   5    0.79    0.12 
   1   5   5    0.45    0.14 
   1   5   5    0.69    0.12 
   3  -5   5    0.01    0.12 
   3  -5   5    0.04    0.08 
   3   5   5    0.08    0.12 
   3   5   5    0.03    0.10 
   5  -5   5    2.38    0.28 
   5  -5   5    2.40    0.16 
   5   5   5    2.18    0.25 
   5   5   5    2.32    0.23 
   7  -5   5    4.82    0.22 
   7  -5   5    5.39    0.39 
   7   5   5    5.58    0.37 
   7   5   5    5.28    0.36 
   9  -5   5   -0.03    0.17 
   9   5   5   -0.08    0.14 
   9   5   5   -0.05    0.15 
  11  -5   5    0.14    0.20 
  11   5   5    0.32    0.19 
  11   5   5    0.25    0.19 
  13  -5   5    0.01    0.22 
  13   5   5    0.05    0.19 
  13   5   5    0.03    0.21 
  15  -5   5    0.23    0.26 
  15   5   5   -0.16    0.19 
  15   5   5    0.01    0.24 
  17  -5   5    1.01    0.36 
  17   5   5    0.62    0.32 
  17   5   5    1.30    0.31 
 -24  -6   5   16.92    1.18 
  24  -6  -5   19.17    0.90 
  24   6  -5   18.24    0.84 
  24   6  -5   19.38    0.98 
  22  -6  -5    0.27    0.22 
 -22  -6   5    0.00    0.35 
  22   6  -5   -0.05    0.19 
  22   6  -5    0.26    0.26 
  20  -6  -5    0.17    0.19 
 -20  -6   5    0.36    0.32 
  20   6  -5    0.08    0.18 
  20   6  -5    0.04    0.22 
 -18  -6   5    4.26    0.58 
  18  -6  -5    3.98    0.35 
  18   6  -5    3.74    0.43 
  18   6  -5    3.87    0.37 
  16  -6  -5   19.22    0.68 
 -16  -6   5   18.25    0.92 
  16   6  -5   17.09    0.75 
  16   6  -5   17.86    0.72 
  14  -6  -5    6.29    0.33 
 -14  -6   5    5.33    0.51 
  14   6  -5    5.81    0.38 
 -14   6   5    5.70    0.26 
  12  -6  -5   12.81    0.46 
 -12  -6   5   12.55    0.68 
 -12   6   5   13.41    0.43 
  12   6  -5   12.02    0.54 
  10  -6  -5    7.72    0.30 
 -10  -6   5    6.51    0.49 
  10   6  -5    7.46    0.39 
 -10   6   5    7.15    0.30 
  -8  -6   5    5.56    0.43 
   8  -6  -5    6.42    0.24 
   8   6  -5    6.25    0.34 
  -8   6   5    5.80    0.22 
  -8   6   5    6.32    0.28 
  -6  -6   5    1.72    0.27 
   6  -6  -5    1.25    0.11 
  -6  -6   5    1.19    0.19 
  -6   6   5    1.71    0.17 
  -6   6   5    1.30    0.09 
   6   6  -5    1.34    0.18 
  -4  -6   5    5.06    0.36 
   4  -6  -5    4.93    0.20 
  -4  -6   5    5.38    0.31 
  -4   6   5    5.07    0.28 
  -4   6   5    5.24    0.17 
   4   6  -5    5.10    0.28 
   2  -6  -5   36.05    0.94 
  -2  -6   5   36.42    1.00 
   2   6  -5   37.92    0.98 
  -2   6   5   36.38    0.92 
  -2   6   5   35.45    0.89 
  -2   6   5   35.39    1.01 
   0  -6   5    7.50    0.41 
   0  -6   5    8.61    0.35 
   0  -6  -5    9.08    0.38 
   0   6   5    8.26    0.31 
   0   6   5    7.74    0.38 
   0   6  -5    8.16    0.32 
   2  -6   5    0.12    0.13 
  -2  -6  -5    0.16    0.14 
   2  -6   5    0.20    0.09 
   2   6   5    0.11    0.09 
  -2   6  -5    0.15    0.08 
   2   6   5    0.02    0.11 
   4  -6   5    0.72    0.20 
   4  -6   5    0.60    0.11 
   4   6   5    0.74    0.16 
  -4   6  -5    0.82    0.11 
   4   6   5    0.56    0.17 
   6  -6   5    8.78    0.48 
   6  -6   5    8.53    0.30 
   6   6   5    8.31    0.45 
   6   6   5    8.06    0.42 
   8  -6   5    2.42    0.31 
   8   6   5    2.76    0.30 
   8   6   5    3.46    0.34 
  10  -6   5    2.92    0.39 
  10   6   5    3.23    0.36 
  10   6   5    2.83    0.34 
  12  -6   5    0.48    0.24 
  12   6   5    0.62    0.23 
  12   6   5    0.38    0.21 
  14  -6   5    0.25    0.25 
  14   6   5    0.10    0.23 
  14   6   5    0.21    0.22 
  16  -6   5    3.09    0.47 
  16   6   5    3.22    0.45 
  16   6   5    3.64    0.43 
 -23  -7   5    1.96    0.56 
  23  -7  -5    3.21    0.46 
  23   7  -5    1.95    0.41 
  23   7  -5    2.59    0.38 
 -21  -7   5    4.57    0.69 
  21  -7  -5    6.52    0.50 
  21   7  -5    6.22    0.49 
  21   7  -5    6.31    0.57 
 -19  -7   5    4.05    0.60 
  19  -7  -5    3.31    0.36 
  19   7  -5    3.51    0.39 
  19   7  -5    4.25    0.48 
 -17  -7   5    0.01    0.27 
  17  -7  -5    0.16    0.15 
  17   7  -5   -0.02    0.17 
  17   7  -5    0.08    0.21 
 -15  -7   5    1.08    0.31 
  15  -7  -5    1.32    0.20 
  15   7  -5    1.11    0.23 
 -13  -7   5   26.93    1.10 
  13  -7  -5   28.67    0.82 
  13   7  -5   25.34    0.90 
 -13   7   5   26.85    0.74 
 -11  -7   5   52.48    1.64 
  11  -7  -5   53.10    1.32 
 -11   7   5   51.83    1.30 
  11   7  -5   49.39    1.44 
   9  -7  -5    0.41    0.09 
  -9  -7   5    0.30    0.19 
  -9   7   5    0.40    0.11 
   9   7  -5    0.31    0.15 
  -7  -7   5   75.44    2.08 
   7  -7  -5   74.98    1.78 
  -7   7   5   75.70    1.75 
  -7   7   5   74.14    1.85 
   7   7  -5   75.44    1.92 
   5  -7  -5   23.69    0.63 
  -5  -7   5   23.99    0.86 
  -5  -7   5   21.88    0.75 
   5   7  -5   23.04    0.73 
  -5   7   5   23.22    0.59 
  -5   7   5   24.88    0.72 
  -3  -7   5    6.24    0.40 
  -3  -7   5    6.57    0.34 
   3  -7  -5    6.70    0.28 
  -3   7   5    6.55    0.25 
   3   7  -5    6.74    0.32 
  -3   7   5    6.21    0.33 
  -1  -7   5   19.06    0.62 
  -1  -7   5   19.67    0.73 
   1  -7  -5   18.65    0.61 
  -1   7   5   19.44    0.55 
  -1   7   5   18.05    0.64 
   1   7  -5   20.01    0.60 
   1  -7   5    0.14    0.14 
  -1  -7  -5   -0.02    0.12 
   1  -7   5    0.09    0.09 
   1   7   5    0.09    0.12 
  -1   7  -5    0.09    0.09 
   1   7   5    0.05    0.09 
  -3  -7  -5    2.43    0.29 
   3  -7   5    3.01    0.31 
   3  -7   5    2.56    0.19 
  -3   7  -5    2.76    0.18 
   3   7   5    2.64    0.29 
   3   7   5    3.09    0.24 
  -5  -7  -5    4.42    0.41 
   5  -7   5    3.76    0.35 
   5  -7   5    3.71    0.20 
  -5   7  -5    3.47    0.18 
   5   7   5    4.03    0.33 
   5   7   5    4.33    0.30 
   7  -7   5    2.10    0.29 
   7   7   5    2.19    0.30 
   7   7   5    2.32    0.28 
   9  -7   5   18.44    0.80 
   9   7   5   18.02    0.74 
   9   7   5   19.46    0.76 
  11  -7   5   -0.09    0.20 
  11   7   5   -0.03    0.19 
  11   7   5    0.14    0.20 
  13  -7   5    1.32    0.32 
  13   7   5    1.34    0.31 
  13   7   5    0.90    0.27 
  15  -7   5   -0.12    0.25 
  15   7   5   -0.02    0.24 
  15   7   5    0.21    0.25 
  17  -7   5    7.80    0.71 
  17   7   5    7.30    0.64 
  17   7   5    7.44    0.60 
 -22  -8   5    0.79    0.44 
  22   8  -5    1.28    0.31 
  22   8  -5    1.27    0.36 
  20  -8  -5    0.16    0.21 
 -20  -8   5    0.16    0.34 
  20   8  -5    0.03    0.19 
  20   8  -5   -0.18    0.22 
 -18  -8   5    1.65    0.41 
  18  -8  -5    1.77    0.27 
  18   8  -5    2.41    0.33 
  18   8  -5    2.33    0.36 
  16  -8  -5    4.30    0.34 
 -16  -8   5    3.42    0.53 
  16   8  -5    4.40    0.41 
  14  -8  -5   14.36    0.54 
 -14  -8   5   13.75    0.82 
  14   8  -5   12.94    0.61 
  12  -8  -5    3.15    0.24 
 -12  -8   5    4.16    0.50 
 -12   8   5    3.41    0.21 
  12   8  -5    2.49    0.29 
  10  -8  -5    3.09    0.21 
 -10  -8   5    3.30    0.42 
  10   8  -5    2.33    0.27 
 -10   8   5    3.09    0.22 
  -8  -8   5    1.52    0.30 
   8  -8  -5    1.04    0.13 
   8   8  -5    0.73    0.18 
  -8   8   5    1.23    0.16 
   6  -8  -5    4.05    0.22 
  -6  -8   5    3.84    0.38 
   6   8  -5    4.38    0.30 
  -6   8   5    4.32    0.19 
  -6   8   5    4.57    0.27 
   4  -8  -5   23.83    0.69 
  -4  -8   5   24.62    0.90 
  -4   8   5   24.81    0.65 
  -4   8   5   23.55    0.75 
   4   8  -5   24.46    0.76 
   2  -8  -5    6.13    0.32 
  -2  -8   5    5.96    0.41 
   2   8  -5    6.60    0.32 
  -2   8   5    6.66    0.36 
   0  -8   5    3.98    0.35 
   0  -8  -5    4.23    0.30 
   0   8  -5    4.02    0.25 
   0   8   5    4.64    0.25 
   0   8   5    4.18    0.30 
  -2  -8  -5    0.77    0.20 
   2  -8   5    0.76    0.20 
   2   8   5    0.89    0.16 
   2   8   5    0.90    0.20 
  -2   8  -5    0.57    0.12 
   4  -8   5    0.07    0.14 
  -4  -8  -5    0.10    0.18 
  -4   8  -5    0.05    0.08 
   4   8   5   -0.16    0.14 
   4   8   5    0.06    0.12 
   6  -8   5    0.92    0.25 
  -6  -8  -5    0.97    0.28 
   6   8   5    0.52    0.20 
   6   8   5    1.06    0.20 
   8  -8   5    0.38    0.21 
   8   8   5    0.06    0.19 
   8   8   5    0.14    0.18 
  10  -8   5   -0.04    0.20 
  10   8   5    0.09    0.18 
  10   8   5    0.09    0.20 
  12  -8   5   -0.06    0.22 
  12   8   5   -0.12    0.19 
  12   8   5   -0.07    0.21 
  14  -8   5   -0.14    0.23 
  14   8   5    0.30    0.25 
  14   8   5   -0.32    0.21 
  16  -8   5    0.71    0.34 
  16   8   5    0.25    0.27 
  16   8   5    1.19    0.33 
 -21  -9   5    0.23    0.36 
  21   9  -5    0.27    0.25 
  21   9  -5    0.35    0.27 
 -19  -9   5   -0.19    0.29 
  19   9  -5   -0.11    0.19 
  19   9  -5    0.14    0.25 
 -17  -9   5    0.06    0.27 
  17   9  -5    0.35    0.21 
  15  -9  -5    2.51    0.27 
 -15  -9   5    2.10    0.43 
  15   9  -5    2.65    0.35 
 -13  -9   5    1.97    0.38 
  13  -9  -5    2.99    0.26 
  13   9  -5    2.95    0.33 
 -11  -9   5   31.79    1.25 
  11  -9  -5   33.93    0.95 
  11   9  -5   33.23    1.08 
 -11   9   5   33.16    0.91 
   9  -9  -5    0.76    0.14 
  -9  -9   5    0.35    0.22 
   9   9  -5    0.51    0.17 
  -9   9   5    0.64    0.14 
  -7  -9   5    4.16    0.44 
   7  -9  -5    3.96    0.24 
  -7   9   5    3.83    0.27 
   7   9  -5    4.83    0.33 
  -5  -9   5    9.56    0.56 
   5  -9  -5    8.85    0.37 
  -5   9   5    9.73    0.42 
   5   9  -5    9.31    0.43 
  -3  -9   5    7.48    0.48 
   3  -9  -5    6.80    0.34 
   3   9  -5    6.88    0.35 
  -3   9   5    7.38    0.39 
   1  -9  -5    1.72    0.22 
  -1  -9   5    1.12    0.23 
  -1   9   5    1.07    0.20 
   1   9  -5    1.86    0.20 
  -1  -9  -5    4.43    0.35 
   1  -9   5    4.19    0.38 
   1   9   5    4.18    0.27 
   1   9   5    4.53    0.34 
  -1   9  -5    3.64    0.24 
   3  -9   5    5.98    0.44 
  -3  -9  -5    5.48    0.42 
   3   9   5    6.61    0.42 
   3   9   5    5.85    0.33 
  -3   9  -5    5.15    0.26 
  -5  -9  -5    0.21    0.21 
   5  -9   5    0.26    0.19 
   5   9   5    0.31    0.19 
   5   9   5    0.06    0.14 
   7  -9   5    0.60    0.23 
  -7  -9  -5    0.43    0.26 
   7   9   5    0.92    0.21 
   7   9   5    0.27    0.20 
   9  -9   5    3.89    0.44 
   9   9   5    3.47    0.38 
   9   9   5    3.40    0.39 
  11  -9   5    0.64    0.27 
  11   9   5    0.82    0.27 
  11   9   5    0.13    0.21 
  13  -9   5    0.31    0.27 
  13   9   5    0.32    0.24 
  13   9   5   -0.21    0.22 
  15  -9   5    0.25    0.29 
  15   9   5   -0.10    0.24 
  15   9   5    0.10    0.25 
 -20 -10   5    1.51    0.47 
  20  10  -5    1.99    0.39 
  20  10  -5    2.27    0.38 
 -18 -10   5    0.95    0.42 
  18  10  -5    0.61    0.28 
  18  10  -5    1.59    0.31 
 -16 -10   5    3.65    0.59 
  16  10  -5    3.14    0.39 
 -14 -10   5    3.00    0.51 
  14  10  -5    2.39    0.33 
 -12 -10   5    8.05    0.65 
  12  10  -5    9.97    0.54 
  10 -10  -5    5.86    0.33 
 -10 -10   5    6.94    0.58 
  10  10  -5    7.00    0.45 
 -10  10   5    6.93    0.33 
   8 -10  -5   15.45    0.54 
  -8 -10   5   16.00    0.81 
  -8  10   5   14.93    0.55 
   8  10  -5   16.37    0.66 
  -6 -10   5    1.37    0.31 
   6 -10  -5    1.34    0.18 
  -6  10   5    1.38    0.20 
   6  10  -5    1.73    0.25 
  -4 -10   5    6.78    0.50 
   4 -10  -5    7.19    0.36 
  -4  10   5    6.86    0.38 
   4  10  -5    7.94    0.40 
   2 -10  -5    5.14    0.34 
  -2 -10   5    4.84    0.43 
  -2  10   5    4.74    0.34 
   2  10  -5    4.54    0.31 
   0 -10  -5    0.72    0.19 
   0 -10   5    0.59    0.21 
   0  10  -5    0.36    0.13 
   0  10   5    0.75    0.20 
   2 -10   5    0.09    0.18 
  -2 -10  -5    0.22    0.19 
   2  10   5    0.35    0.14 
  -2  10  -5    0.18    0.11 
   2  10   5    0.20    0.18 
   4 -10   5   11.43    0.63 
  -4 -10  -5   11.33    0.62 
   4  10   5   11.39    0.51 
   4  10   5   11.11    0.57 
  -6 -10  -5    2.97    0.42 
   6 -10   5    3.24    0.39 
   6  10   5    3.08    0.32 
   6  10   5    2.63    0.35 
   8 -10   5    0.09    0.21 
  -8 -10  -5    0.08    0.26 
   8  10   5    0.00    0.20 
   8  10   5   -0.26    0.15 
  10 -10   5    2.52    0.40 
  10  10   5    2.73    0.38 
  10  10   5    2.55    0.35 
  12 -10   5    0.32    0.27 
  12  10   5    0.52    0.28 
  12  10   5    0.48    0.26 
  14 -10   5   -0.14    0.25 
  14  10   5   -0.30    0.25 
  14  10   5    0.37    0.27 
 -19 -11   5    0.22    0.38 
  19  11  -5    0.41    0.30 
  19  11  -5    0.51    0.26 
 -17 -11   5    0.86    0.40 
  17  11  -5    1.33    0.31 
 -15 -11   5    2.54    0.53 
  15  11  -5    2.33    0.35 
 -13 -11   5    6.06    0.63 
  13  11  -5    6.44    0.48 
 -11 -11   5   13.38    0.82 
  11  11  -5   12.95    0.64 
  -9 -11   5    9.79    0.68 
   9  11  -5    9.04    0.51 
  -9  11   5    9.29    0.42 
  -7 -11   5   76.37    2.24 
  -7  11   5   76.45    1.93 
   7  11  -5   73.18    2.01 
   5 -11  -5    7.75    0.45 
  -5 -11   5    8.03    0.58 
  -5  11   5    9.02    0.43 
   5  11  -5   10.65    0.49 
   3 -11  -5    0.20    0.15 
  -3 -11   5    0.24    0.21 
   3  11  -5    0.05    0.14 
  -3  11   5   -0.01    0.14 
  -1 -11   5    0.09    0.19 
   1 -11  -5    0.15    0.16 
  -1  11   5    0.08    0.16 
   1  11  -5    0.15    0.13 
   1 -11   5    2.44    0.36 
  -1 -11  -5    2.39    0.32 
   1  11   5    2.57    0.32 
  -1  11  -5    2.67    0.25 
  -3 -11  -5    4.61    0.45 
   3 -11   5    5.41    0.48 
   3  11   5    5.00    0.42 
   3  11   5    5.09    0.35 
   5 -11   5   -0.13    0.19 
  -5 -11  -5   -0.13    0.21 
   5  11   5    0.13    0.21 
   5  11   5    0.10    0.16 
  -7 -11  -5    5.67    0.56 
   7 -11   5    5.17    0.50 
   7  11   5    5.42    0.48 
   7  11   5    6.19    0.44 
  -9 -11  -5   14.01    0.88 
   9 -11   5   15.17    0.80 
   9  11   5   14.76    0.76 
   9  11   5   14.21    0.70 
  11 -11   5    0.23    0.26 
  11  11   5    0.19    0.23 
  11  11   5    0.30    0.27 
  13 -11   5    0.47    0.30 
  13  11   5    0.09    0.26 
  13  11   5    0.10    0.25 
 -18 -12   5    2.26    0.55 
  18  12  -5    4.18    0.54 
  18  12  -5    3.36    0.46 
 -16 -12   5   -0.09    0.32 
  16  12  -5   -0.06    0.20 
 -14 -12   5    1.51    0.42 
  14  12  -5    1.59    0.31 
 -12 -12   5    0.44    0.32 
  12  12  -5    0.27    0.21 
 -10 -12   5    0.10    0.25 
  10  12  -5    0.04    0.17 
  -8 -12   5    8.81    0.68 
  -8  12   5    9.37    0.44 
   8  12  -5    8.60    0.51 
  -6 -12   5    0.58    0.29 
   6  12  -5    0.44    0.19 
  -6  12   5    0.46    0.17 
  -4 -12   5    1.14    0.31 
  -4  12   5    1.89    0.26 
   4  12  -5    1.89    0.26 
  -2 -12   5    0.18    0.24 
   2  12  -5    0.74    0.18 
  -2  12   5    0.35    0.19 
   0 -12  -5    6.64    0.69 
   0 -12   5    7.09    0.55 
   0  12   5    6.41    0.46 
   0  12  -5    6.97    0.38 
  -2 -12  -5    2.31    0.34 
   2 -12   5    3.24    0.43 
   2  12   5    2.88    0.35 
   2  12   5    2.88    0.30 
   4 -12   5    0.16    0.24 
  -4 -12  -5   -0.11    0.22 
   4  12   5    0.11    0.20 
  -6 -12  -5   -0.18    0.25 
   6 -12   5   -0.32    0.21 
   6  12   5   -0.04    0.21 
   6  12   5    0.00    0.18 
   8 -12   5    0.53    0.28 
  -8 -12  -5    0.70    0.33 
   8  12   5    0.43    0.22 
   8  12   5    0.68    0.28 
 -10 -12  -5    5.04    0.64 
  10 -12   5    3.57    0.49 
  10  12   5    3.80    0.47 
  10  12   5    4.77    0.47 
  12 -12   5    2.26    0.44 
  12  12   5    2.07    0.40 
  12  12   5    1.33    0.33 
 -17 -13   5    1.34    0.49 
  17  13  -5    1.29    0.33 
 -15 -13   5    1.16    0.45 
  15  13  -5    1.56    0.32 
 -13 -13   5    0.29    0.33 
  13  13  -5    0.34    0.23 
 -11 -13   5    0.11    0.30 
  11  13  -5    0.28    0.21 
  -9 -13   5    0.24    0.29 
   9  13  -5    0.23    0.21 
  -7 -13   5   11.33    0.76 
   7  13  -5   10.67    0.57 
  -5 -13   5    4.88    0.57 
  -5  13   5    3.50    0.34 
   5  13  -5    4.23    0.38 
  -3 -13   5    0.29    0.26 
  -3  13   5    0.32    0.19 
   3  13  -5    0.02    0.16 
  -1 -13   5    1.45    0.35 
   1  13  -5    1.15    0.22 
  -1  13   5    1.44    0.27 
   1 -13   5    1.31    0.33 
   1  13   5    1.18    0.27 
   3 -13   5    2.12    0.38 
   3  13   5    2.46    0.35 
   5 -13   5    1.96    0.39 
   5  13   5    1.93    0.35 
   7 -13   5    0.30    0.28 
   7  13   5    0.14    0.24 
   9 -13   5    0.82    0.33 
   9  13   5    0.16    0.26 
  11 -13   5    2.28    0.42 
  11  13   5    2.29    0.42 
 -16 -14   5    0.26    0.38 
  16  14  -5    0.19    0.26 
 -14 -14   5   -0.06    0.33 
  14  14  -5   -0.09    0.23 
 -12 -14   5    0.07    0.33 
  12  14  -5   -0.15    0.20 
 -10 -14   5    2.65    0.52 
  10  14  -5    2.64    0.37 
  -8 -14   5    2.09    0.46 
   8  14  -5    1.40    0.28 
  -6 -14   5    0.88    0.34 
   6  14  -5    1.87    0.29 
  -6  14   5    1.85    0.28 
  -4 -14   5    0.09    0.27 
   4  14  -5    0.18    0.19 
  -4  14   5    0.15    0.18 
  -2 -14   5    0.09    0.25 
   2  14  -5   -0.07    0.16 
  -2  14   5   -0.27    0.17 
   0 -14   5    7.81    0.65 
   0  14   5    7.97    0.53 
   2 -14   5    0.03    0.26 
   2  14   5    0.20    0.23 
   4 -14   5    1.25    0.36 
   4  14   5    2.36    0.39 
   6 -14   5   -0.04    0.27 
   6  14   5   -0.30    0.24 
   8 -14   5    2.06    0.43 
   8  14   5    1.86    0.38 
 -13 -15   5    0.17    0.36 
  13  15  -5    0.17    0.25 
 -11 -15   5    0.10    0.34 
  11  15  -5    0.01    0.23 
  -9 -15   5    0.07    0.30 
   9  15  -5    0.21    0.24 
  -7 -15   5    1.45    0.42 
   7  15  -5    0.90    0.26 
  -5 -15   5    0.79    0.35 
  -5  15   5    1.61    0.28 
   5  15  -5    1.05    0.26 
  -3 -15   5    0.21    0.29 
  -3  15   5    0.04    0.20 
   3  15  -5   -0.07    0.18 
  -1 -15   5    1.64    0.40 
  -1  15   5    1.03    0.28 
   1 -15   5    0.31    0.32 
   1  15   5    0.19    0.25 
   3 -15   5    1.75    0.41 
   3  15   5    2.31    0.37 
   5 -15   5    4.12    0.54 
   5  15   5    3.94    0.49 
   7 -15   5    0.21    0.31 
   7  15   5   -0.04    0.26 
 -10 -16   5   -0.01    0.33 
  10  16  -5    0.12    0.25 
  -8 -16   5    2.93    0.53 
   8  16  -5    3.25    0.42 
  -6 -16   5    0.22    0.32 
   6  16  -5   -0.09    0.21 
  -4 -16   5    0.16    0.33 
  -4  16   5    0.08    0.20 
   4  16  -5    0.00    0.20 
  -2 -16   5    0.39    0.33 
  -2  16   5    0.10    0.22 
   0 -16   5    4.55    0.60 
   0  16   5    3.86    0.45 
   2 -16   5    0.59    0.34 
   2  16   5    0.19    0.26 
   4 -16   5    0.53    0.34 
   4  16   5    0.62    0.31 
  -5 -17   5    0.13    0.34 
   5  17  -5    0.12    0.23 
  -3 -17   5    1.47    0.43 
  -1 -17   5    1.61    0.44 
  -1  17   5    1.50    0.34 
  26   0  -6    4.98    0.54 
  24   0  -6    0.49    0.27 
  22   0  -6    2.96    0.38 
  20   0  -6    9.37    0.45 
  20   0  -6   10.72    0.57 
  18   0  -6    2.78    0.32 
  18   0  -6    2.80    0.26 
 -18   0   6    2.53    0.39 
 -16   0   6   26.06    0.82 
  16   0  -6   25.47    0.86 
 -16   0   6   25.94    1.00 
  16   0  -6   25.35    0.79 
 -14   0   6   10.08    0.55 
  14   0  -6    9.79    0.41 
 -14   0   6   10.11    0.44 
  14   0  -6   10.50    0.45 
 -12   0   6  189.41    4.56 
  12   0  -6  193.84    4.42 
 -12   0   6  187.89    4.45 
  12   0  -6  191.51    4.44 
 -10   0   6   -0.02    0.09 
 -10   0   6    0.04    0.13 
  -8   0   6   19.65    0.62 
  -8   0   6   18.92    0.60 
  -6   0   6   74.08    1.78 
   6   0  -6   70.82    1.73 
  -6   0   6   71.82    1.75 
  -4   0   6   72.74    1.78 
   4   0  -6   72.31    1.73 
  -4   0   6   73.09    1.74 
  -2   0   6   46.35    1.16 
  -2   0   6   45.55    1.18 
   0   0   6   58.36    1.46 
   0   0   6   58.66    1.47 
   2   0   6  183.01    4.24 
   2   0   6  180.31    4.20 
   4   0   6   18.58    0.66 
   4   0   6   20.13    0.62 
   8   0   6    1.28    0.18 
   8   0   6    1.47    0.24 
  10   0   6    1.99    0.30 
  10   0   6    2.30    0.25 
  12   0   6    5.86    0.49 
  12   0   6    6.28    0.37 
  14   0   6    0.29    0.25 
  16   0   6    1.53    0.36 
  18   0   6    0.08    0.35 
  25  -1  -6    1.13    0.32 
  25   1  -6    0.77    0.30 
  23  -1  -6   -0.02    0.19 
  23   1  -6   -0.01    0.20 
  21  -1  -6    0.07    0.19 
  21   1  -6   -0.02    0.18 
  21   1  -6   -0.02    0.14 
  19  -1  -6   17.46    0.63 
  19  -1  -6   18.90    0.75 
 -19  -1   6   18.79    0.94 
  19   1  -6   19.53    0.69 
  19   1  -6   19.60    0.78 
 -17  -1   6   12.05    0.68 
  17  -1  -6   10.47    0.52 
  17  -1  -6   11.69    0.46 
 -17   1   6   11.53    0.48 
  17   1  -6   11.05    0.48 
  17   1  -6   10.98    0.54 
  15  -1  -6    4.43    0.26 
 -15  -1   6    3.99    0.42 
 -15  -1   6    4.58    0.32 
  15  -1  -6    3.92    0.29 
  15   1  -6    4.38    0.33 
 -15   1   6    4.12    0.28 
  15   1  -6    4.35    0.28 
 -15   1   6    4.97    0.42 
  13  -1  -6    0.17    0.10 
 -13  -1   6    0.14    0.16 
  13  -1  -6    0.06    0.09 
 -13  -1   6    0.11    0.12 
  13   1  -6    0.15    0.12 
 -13   1   6    0.05    0.15 
  13   1  -6    0.07    0.09 
 -13   1   6    0.09    0.11 
 -11  -1   6    0.00    0.14 
 -11  -1   6    0.06    0.11 
  11  -1  -6   -0.01    0.08 
 -11   1   6    0.00    0.09 
  11   1  -6    0.09    0.09 
 -11   1   6    0.01    0.13 
  -9  -1   6    0.19    0.14 
  -9  -1   6    0.22    0.11 
  -9   1   6    0.23    0.12 
  -9   1   6    0.21    0.12 
   7  -1  -6   16.68    0.48 
  -7  -1   6   15.54    0.53 
  -7  -1   6   15.68    0.55 
  -7   1   6   16.49    0.52 
  -7   1   6   15.07    0.49 
  -5  -1   6    5.57    0.29 
  -5  -1   6    5.88    0.29 
   5  -1  -6    5.61    0.21 
  -5   1   6    5.56    0.28 
  -5   1   6    5.69    0.23 
  -3  -1   6   69.11    1.69 
  -3  -1   6   67.83    1.69 
   3  -1  -6   71.42    1.62 
  -3   1   6   68.72    1.63 
  -3   1   6   66.85    1.69 
  -1  -1   6  114.90    2.74 
  -1  -1   6  117.08    2.74 
  -1   1   6  115.41    2.75 
  -1   1   6  116.71    2.70 
   1  -1   6    2.25    0.19 
   1  -1   6    2.22    0.22 
   1   1   6    2.16    0.20 
   1   1   6    1.63    0.18 
   3  -1   6   37.92    1.09 
   3  -1   6   38.68    1.03 
   3   1   6   38.78    1.07 
   3   1   6   38.69    1.05 
   5  -1   6   15.29    0.59 
   5  -1   6   15.28    0.51 
   5   1   6   13.97    0.56 
   5   1   6   14.76    0.53 
   7  -1   6   -0.13    0.09 
   7   1   6    0.06    0.11 
   7   1   6   -0.17    0.13 
   9  -1   6    6.67    0.45 
   9  -1   6    7.14    0.35 
   9   1   6    5.99    0.43 
   9   1   6    6.56    0.36 
  11  -1   6   10.47    0.60 
  11  -1   6   10.02    0.45 
  11   1   6   11.27    0.60 
  11   1   6    9.84    0.47 
  13  -1   6    5.96    0.52 
  13   1   6    5.36    0.39 
  13   1   6    6.46    0.52 
  15  -1   6    3.02    0.44 
  15   1   6    3.07    0.43 
  17  -1   6    0.04    0.28 
  17   1   6   -0.02    0.26 
  26  -2  -6    0.14    0.26 
  26   2  -6   -0.16    0.24 
  24  -2  -6   -0.19    0.21 
  24   2  -6    0.12    0.22 
  22  -2  -6    0.14    0.20 
  22   2  -6    0.11    0.21 
  22   2  -6   -0.04    0.15 
  20  -2  -6    4.18    0.38 
 -20  -2   6    4.08    0.53 
  20   2  -6    3.22    0.37 
  20   2  -6    3.56    0.32 
  18  -2  -6    0.28    0.16 
 -18  -2   6    0.42    0.26 
  18  -2  -6    0.17    0.12 
  18   2  -6    0.08    0.17 
  18   2  -6    0.42    0.15 
  16  -2  -6    0.26    0.12 
  16  -2  -6    0.18    0.13 
 -16  -2   6    0.25    0.22 
 -16   2   6    0.19    0.12 
  16   2  -6    0.02    0.11 
  16   2  -6    0.19    0.15 
  14  -2  -6    3.85    0.24 
 -14  -2   6    3.69    0.29 
  14  -2  -6    3.13    0.25 
 -14  -2   6    3.69    0.39 
  14   2  -6    3.70    0.26 
  14   2  -6    3.99    0.31 
 -14   2   6    3.85    0.26 
 -12  -2   6    0.79    0.16 
  12  -2  -6    0.37    0.11 
 -12  -2   6    0.85    0.23 
 -12   2   6    0.35    0.12 
  12   2  -6    0.50    0.14 
 -12   2   6    0.43    0.15 
  10  -2  -6   29.29    0.78 
 -10  -2   6   29.52    0.87 
 -10  -2   6   28.15    0.93 
 -10   2   6   28.63    0.83 
 -10   2   6   29.19    0.85 
  10   2  -6   29.47    0.85 
  -8  -2   6    7.64    0.40 
  -8  -2   6    8.08    0.37 
   8  -2  -6    8.85    0.31 
   8  -2  -6    8.58    0.28 
  -8   2   6    7.77    0.34 
  -8   2   6    8.41    0.32 
   6  -2  -6   24.28    0.60 
  -6  -2   6   23.77    0.74 
  -6  -2   6   24.25    0.72 
  -6   2   6   24.19    0.70 
  -6   2   6   23.77    0.62 
   4  -2  -6   24.46    0.61 
  -4  -2   6   23.43    0.73 
  -4  -2   6   24.63    0.72 
  -4   2   6   25.07    0.62 
  -4   2   6   25.24    0.72 
  -2  -2   6    4.77    0.26 
  -2  -2   6    4.37    0.26 
   2  -2  -6    4.89    0.20 
  -2   2   6    4.64    0.20 
  -2   2   6    4.85    0.27 
   0  -2   6    9.95    0.38 
   0  -2   6   10.91    0.43 
   0   2   6   11.23    0.42 
   0   2   6   10.17    0.37 
   2  -2   6    5.40    0.27 
   2  -2   6    4.88    0.32 
   2   2   6    5.46    0.29 
   2   2   6    5.01    0.30 
   4  -2   6   13.69    0.56 
   4  -2   6   15.05    0.49 
   4   2   6   13.76    0.52 
   4   2   6   15.45    0.55 
   6  -2   6    0.79    0.19 
   6  -2   6    0.91    0.15 
   6   2   6    1.02    0.20 
   6   2   6    0.92    0.17 
   8  -2   6    0.34    0.12 
   8  -2   6    0.14    0.17 
   8   2   6    0.20    0.16 
   8   2   6    0.22    0.14 
  10  -2   6    0.26    0.12 
  10  -2   6    0.30    0.21 
  10   2   6    0.41    0.20 
  10   2   6    0.23    0.15 
  12  -2   6   18.26    0.82 
  12   2   6   16.73    0.78 
  12   2   6   16.10    0.66 
  14  -2   6    1.48    0.34 
  14   2   6    1.57    0.26 
  14   2   6    0.92    0.29 
  16  -2   6    0.19    0.28 
  16   2   6    0.71    0.31 
  25  -3  -6    1.37    0.33 
  25   3  -6    1.65    0.36 
  23  -3  -6    0.32    0.23 
  23   3  -6    0.35    0.26 
  23   3  -6    0.34    0.19 
 -21  -3   6    0.99    0.36 
  21  -3  -6    1.11    0.25 
  21   3  -6    1.24    0.29 
 -19  -3   6    5.64    0.58 
  19  -3  -6    6.77    0.43 
  19   3  -6    5.40    0.39 
  19   3  -6    6.02    0.46 
  17  -3  -6   13.75    0.48 
 -17  -3   6   12.69    0.75 
  17  -3  -6   13.76    0.56 
 -17   3   6   13.32    0.50 
  17   3  -6   13.34    0.57 
  17   3  -6   13.40    0.62 
  15  -3  -6   21.80    0.66 
  15  -3  -6   22.17    0.72 
 -15  -3   6   23.36    0.95 
  15   3  -6   22.50    0.80 
  15   3  -6   23.66    0.76 
 -15   3   6   22.10    0.69 
 -13  -3   6   10.65    0.58 
  13  -3  -6    9.60    0.39 
 -13  -3   6    9.58    0.46 
 -13   3   6    9.42    0.39 
  13   3  -6   10.08    0.44 
 -11  -3   6    1.81    0.23 
  11  -3  -6    1.91    0.16 
 -11  -3   6    1.78    0.26 
  11   3  -6    1.98    0.22 
 -11   3   6    2.03    0.19 
   9  -3  -6   88.84    2.08 
   9  -3  -6   91.46    2.12 
  -9  -3   6   90.25    2.31 
   9   3  -6   86.58    2.19 
  -9   3   6   90.65    2.17 
   7  -3  -6   18.72    0.47 
  -7  -3   6   18.66    0.66 
   7  -3  -6   18.53    0.45 
  -7  -3   6   17.38    0.60 
  -7   3   6   18.48    0.58 
  -5  -3   6   26.85    0.82 
  -5  -3   6   25.45    0.77 
  -5   3   6   27.15    0.76 
  -3  -3   6    8.72    0.39 
  -3  -3   6    8.41    0.35 
   3  -3  -6    8.34    0.25 
  -3   3   6    8.25    0.25 
  -3   3   6    8.37    0.36 
  -1  -3   6    0.19    0.11 
  -1  -3   6    0.09    0.12 
   1  -3  -6    0.06    0.06 
  -1   3   6    0.03    0.07 
  -1   3   6    0.10    0.10 
  -1   3   6    0.12    0.11 
   1  -3   6   21.47    0.72 
   1  -3   6   21.26    0.65 
   1   3   6   22.91    0.65 
   1   3   6   22.41    0.70 
   3  -3   6   25.59    0.72 
   3  -3   6   26.02    0.83 
   3   3   6   24.13    0.78 
   3   3   6   25.68    0.77 
   5  -3   6    0.70    0.12 
   5  -3   6    1.14    0.22 
   5   3   6    1.16    0.18 
   5   3   6    0.71    0.16 
   7  -3   6    9.62    0.38 
   7  -3   6   10.62    0.53 
   7   3   6   10.19    0.47 
   7   3   6    9.74    0.48 
   9  -3   6    0.10    0.10 
   9  -3   6    0.29    0.19 
   9   3   6    0.12    0.15 
   9   3   6    0.18    0.17 
  11  -3   6    0.80    0.25 
  11   3   6    1.50    0.29 
  11   3   6    1.04    0.22 
  13  -3   6   -0.09    0.21 
  13   3   6    0.14    0.18 
  13   3   6   -0.21    0.19 
  15  -3   6    0.09    0.25 
  15   3   6    0.37    0.21 
  15   3   6    0.43    0.27 
  17  -3   6   -0.13    0.26 
  17   3   6   -0.34    0.25 
  24  -4  -6    2.15    0.38 
  24   4  -6    2.21    0.40 
  24   4  -6    2.95    0.36 
 -22  -4   6    5.78    0.69 
  22  -4  -6    4.29    0.44 
  22   4  -6    6.34    0.53 
  22   4  -6    6.17    0.45 
 -20  -4   6    0.56    0.33 
  20  -4  -6    0.76    0.21 
  20   4  -6    1.06    0.23 
  20   4  -6    0.49    0.24 
 -18  -4   6   -0.10    0.25 
  18  -4  -6    0.23    0.15 
  18   4  -6   -0.11    0.13 
  18   4  -6    0.32    0.20 
 -16  -4   6    0.42    0.26 
  16  -4  -6    0.58    0.12 
  16  -4  -6    0.62    0.15 
  16   4  -6    0.81    0.22 
  16   4  -6    0.48    0.17 
 -16   4   6    0.58    0.14 
  14  -4  -6    8.75    0.38 
 -14  -4   6    9.50    0.59 
 -14   4   6    9.20    0.37 
  14   4  -6    8.11    0.42 
 -12  -4   6   10.99    0.59 
  12  -4  -6   11.06    0.40 
 -12  -4   6   12.18    0.52 
  12   4  -6   11.41    0.48 
 -12   4   6   11.33    0.42 
  10  -4  -6    3.73    0.18 
  10  -4  -6    3.57    0.23 
 -10  -4   6    4.16    0.36 
 -10  -4   6    3.16    0.28 
  10   4  -6    4.09    0.28 
 -10   4   6    3.82    0.24 
   8  -4  -6  171.67    3.94 
  -8  -4   6  173.97    4.15 
   8  -4  -6  175.81    3.97 
  -8  -4   6  179.75    4.24 
   8   4  -6  179.38    4.12 
  -8   4   6  175.36    4.07 
  -6  -4   6   16.01    0.58 
  -6  -4   6   16.75    0.63 
   6   4  -6   17.20    0.57 
  -6   4   6   16.79    0.54 
  -4  -4   6    6.62    0.33 
  -4   4   6    7.15    0.33 
  -2  -4   6    8.71    0.37 
  -2  -4   6    8.73    0.41 
  -2   4   6    9.11    0.39 
  -2   4   6    9.17    0.28 
  -2   4   6    9.24    0.32 
   0  -4   6    0.15    0.10 
   0  -4   6    0.06    0.11 
   0   4   6    0.18    0.12 
   0   4   6    0.11    0.08 
   2  -4   6   48.21    1.22 
   2  -4   6   45.18    1.32 
   2   4   6   48.34    1.24 
   2   4   6   48.96    1.30 
   4  -4   6    5.33    0.36 
   4  -4   6    5.71    0.27 
   4   4   6    5.72    0.34 
   4   4   6    5.76    0.32 
   6  -4   6    8.01    0.33 
   6  -4   6    8.09    0.46 
   6   4   6    7.92    0.42 
   6   4   6    8.21    0.42 
   8  -4   6   32.04    1.07 
   8  -4   6   31.79    0.86 
   8   4   6   30.26    0.99 
   8   4   6   30.87    1.01 
  10  -4   6    0.15    0.20 
  10   4   6    0.17    0.17 
  10   4   6    0.31    0.20 
  12  -4   6    3.03    0.38 
  12   4   6    3.62    0.37 
  12   4   6    3.92    0.44 
  14  -4   6    0.37    0.25 
  14   4   6    0.17    0.20 
  14   4   6    0.26    0.24 
  16  -4   6    2.67    0.44 
  16   4   6    2.67    0.43 
  16   4   6    3.52    0.61 
  25  -5  -6    3.62    0.46 
  25   5  -6    2.91    0.47 
  25   5  -6    2.46    0.37 
  23  -5  -6    1.14    0.28 
 -23  -5   6    0.85    0.42 
  23   5  -6    0.94    0.26 
  23   5  -6    1.06    0.32 
 -21  -5   6    2.52    0.50 
  21  -5  -6    1.67    0.28 
  21   5  -6    2.40    0.38 
  21   5  -6    2.05    0.31 
 -19  -5   6    4.90    0.62 
  19  -5  -6    4.96    0.38 
  19   5  -6    4.96    0.45 
  19   5  -6    4.37    0.38 
 -17  -5   6    1.13    0.33 
  17  -5  -6    1.10    0.20 
  17   5  -6    0.88    0.21 
  17   5  -6    1.07    0.25 
  15  -5  -6    0.09    0.11 
 -15  -5   6    0.05    0.22 
 -15   5   6    0.12    0.10 
  15   5  -6   -0.03    0.15 
 -13  -5   6    7.97    0.55 
  13  -5  -6    7.50    0.33 
 -13   5   6    8.27    0.34 
  13   5  -6    9.15    0.44 
 -11  -5   6    5.94    0.38 
  11  -5  -6    6.56    0.26 
 -11  -5   6    5.97    0.44 
 -11   5   6    6.41    0.30 
  11   5  -6    6.21    0.36 
   9  -5  -6   73.39    1.75 
  -9  -5   6   75.25    2.03 
  -9  -5   6   72.13    1.91 
   9  -5  -6   74.56    1.71 
  -9   5   6   73.58    1.82 
   9   5  -6   73.99    1.88 
  -7  -5   6    0.55    0.17 
  -7  -5   6    0.55    0.15 
   7   5  -6    0.53    0.14 
  -7   5   6    0.83    0.14 
  -5  -5   6    3.87    0.27 
  -5  -5   6    3.58    0.31 
  -5   5   6    3.92    0.25 
   5   5  -6    3.89    0.26 
  -3  -5   6    2.05    0.24 
  -3  -5   6    1.80    0.20 
  -3   5   6    1.53    0.20 
  -3   5   6    1.54    0.10 
  -3   5   6    1.39    0.12 
  -1  -5   6   10.17    0.41 
  -1  -5   6   11.55    0.50 
  -1   5   6   10.43    0.34 
  -1   5   6   10.40    0.44 
  -1   5   6   10.87    0.39 
   1  -5   6   25.49    0.73 
   1  -5   6   25.16    0.84 
   1   5   6   25.27    0.72 
   1   5   6   24.78    0.79 
   3  -5   6    8.73    0.45 
   3  -5   6    9.24    0.35 
   3   5   6    8.85    0.38 
   3   5   6    9.04    0.44 
   5  -5   6   30.91    0.82 
   5  -5   6   27.69    0.98 
   5   5   6   30.62    0.95 
   5   5   6   30.65    0.92 
   7  -5   6    4.46    0.39 
   7  -5   6    3.85    0.22 
   7   5   6    4.01    0.34 
   7   5   6    3.93    0.32 
   9  -5   6   30.22    1.09 
   9   5   6   31.33    1.02 
   9   5   6   29.92    1.03 
  11  -5   6    1.50    0.32 
  11   5   6    1.19    0.28 
  11   5   6    1.69    0.28 
  13  -5   6    1.38    0.33 
  13   5   6    3.13    0.41 
  13   5   6    1.86    0.31 
  15  -5   6    4.27    0.51 
  15   5   6    4.99    0.53 
  15   5   6    4.12    0.43 
  17  -5   6   -0.02    0.29 
  17   5   6   -0.38    0.26 
 -24  -6   6    3.01    0.61 
  24  -6  -6    3.48    0.67 
  24   6  -6    2.28    0.42 
  24   6  -6    3.64    0.42 
 -22  -6   6    7.74    0.79 
  22  -6  -6    8.44    0.55 
  22   6  -6    7.46    0.53 
  22   6  -6    9.53    0.65 
  20  -6  -6    5.51    0.43 
 -20  -6   6    6.22    0.73 
  20   6  -6    5.86    0.52 
  20   6  -6    6.22    0.46 
  18  -6  -6    1.16    0.22 
 -18  -6   6    0.44    0.32 
  18   6  -6    1.18    0.29 
  18   6  -6    1.09    0.25 
 -16  -6   6    0.65    0.29 
  16  -6  -6    0.67    0.17 
  16   6  -6    0.39    0.18 
  14  -6  -6   11.64    0.44 
 -14  -6   6   11.45    0.69 
 -14   6   6   11.12    0.41 
  14   6  -6   10.58    0.52 
 -12  -6   6    0.59    0.23 
  12  -6  -6    0.35    0.10 
  12   6  -6    0.69    0.18 
 -12   6   6    0.28    0.10 
 -10  -6   6    0.89    0.18 
  10  -6  -6    1.03    0.11 
 -10  -6   6    0.79    0.24 
  10  -6  -6    1.14    0.15 
 -10   6   6    0.93    0.15 
 -10   6   6    0.96    0.11 
  10   6  -6    0.85    0.17 
   8  -6  -6   16.82    0.44 
   8  -6  -6   17.33    0.46 
  -8  -6   6   17.33    0.64 
  -8  -6   6   16.03    0.71 
   8   6  -6   16.63    0.60 
  -8   6   6   16.95    0.55 
  -8   6   6   16.31    0.42 
  -6   6   6    4.85    0.28 
  -4  -6   6   25.08    0.88 
  -4  -6   6   26.08    0.81 
   4   6  -6   27.55    0.79 
  -4   6   6   26.49    0.80 
  -2  -6   6  102.63    2.64 
  -2  -6   6  106.16    2.53 
  -2   6   6  105.36    2.44 
  -2   6   6  101.71    2.55 
   2   6  -6  106.74    2.51 
  -2   6   6  103.77    2.40 
   0  -6   6   13.96    0.58 
   0  -6   6   13.04    0.47 
   0   6  -6   13.01    0.45 
   0   6   6   13.23    0.53 
   0   6   6   13.55    0.43 
   2  -6   6    1.41    0.16 
   2  -6   6    0.90    0.20 
   2   6   6    1.21    0.17 
   2   6   6    1.26    0.19 
   4  -6   6    4.07    0.36 
   4  -6   6    4.29    0.24 
   4   6   6    4.18    0.33 
   4   6   6    5.15    0.31 
   6  -6   6    0.14    0.09 
   6  -6   6    0.00    0.14 
   6   6   6    0.14    0.14 
   6   6   6    0.24    0.15 
   8  -6   6    9.89    0.58 
   8   6   6   11.96    0.56 
   8   6   6   10.16    0.52 
  10  -6   6    2.08    0.34 
  10   6   6    2.02    0.31 
  10   6   6    2.45    0.32 
  12  -6   6    1.04    0.30 
  12   6   6    0.37    0.22 
  12   6   6    0.33    0.23 
  14  -6   6    0.51    0.30 
  14   6   6    0.02    0.25 
  14   6   6    0.27    0.23 
  16  -6   6    0.87    0.36 
  16   6   6    0.29    0.29 
  16   6   6    0.60    0.28 
 -23  -7   6    0.32    0.37 
  23   7  -6   -0.01    0.21 
  23   7  -6    0.13    0.26 
  21  -7  -6    0.07    0.28 
 -21  -7   6   -0.20    0.30 
  21   7  -6    0.04    0.24 
  21   7  -6    0.02    0.19 
  19  -7  -6    0.24    0.17 
 -19  -7   6    0.09    0.31 
  19   7  -6   -0.06    0.19 
  19   7  -6   -0.01    0.20 
  17  -7  -6    5.29    0.36 
 -17  -7   6    5.81    0.60 
  17   7  -6    5.33    0.43 
 -15  -7   6   -0.12    0.24 
  15  -7  -6    0.08    0.12 
  15   7  -6   -0.03    0.14 
  13  -7  -6   14.42    0.49 
 -13  -7   6   14.45    0.77 
 -13   7   6   13.04    0.47 
  13   7  -6   14.76    0.62 
 -11  -7   6    3.38    0.42 
  11  -7  -6    4.44    0.22 
 -11   7   6    3.88    0.25 
  11   7  -6    3.82    0.32 
   9  -7  -6    0.13    0.07 
  -9  -7   6   -0.07    0.15 
  -9   7   6    0.04    0.06 
   9   7  -6    0.04    0.13 
  -9   7   6    0.12    0.10 
  -7  -7   6    2.12    0.26 
  -7  -7   6    1.89    0.30 
   7   7  -6    2.26    0.24 
  -7   7   6    2.11    0.10 
  -7   7   6    1.96    0.20 
  -5  -7   6    5.36    0.41 
  -5  -7   6    7.61    0.38 
  -5   7   6    6.32    0.33 
   5   7  -6    7.04    0.35 
  -3  -7   6    8.07    0.38 
   3  -7  -6    8.27    0.31 
  -3  -7   6    7.34    0.43 
   3   7  -6    7.79    0.36 
  -3   7   6    8.13    0.26 
  -3   7   6    7.50    0.27 
  -3   7   6    8.27    0.39 
  -1  -7   6    0.03    0.10 
  -1  -7   6    0.00    0.14 
   1  -7  -6    0.21    0.11 
  -1   7   6    0.07    0.13 
  -1   7   6    0.05    0.07 
   1   7  -6    0.07    0.09 
   1  -7   6    7.23    0.44 
   1  -7   6    7.22    0.33 
  -1  -7  -6    7.04    0.40 
   1   7   6    7.20    0.40 
  -1   7  -6    7.53    0.32 
   1   7   6    6.87    0.32 
   3  -7   6    9.82    0.37 
   3  -7   6    9.52    0.50 
   3   7   6    9.18    0.47 
  -3   7  -6    9.26    0.35 
   3   7   6    9.74    0.42 
   5  -7   6    0.30    0.18 
   5  -7   6    0.25    0.10 
   5   7   6    0.44    0.16 
   5   7   6    0.55    0.17 
  -5   7  -6    0.32    0.10 
   7  -7   6    6.63    0.49 
   7   7   6    7.09    0.45 
   7   7   6    6.63    0.41 
   9  -7   6    1.23    0.29 
   9   7   6    2.15    0.31 
   9   7   6    1.61    0.29 
  11  -7   6    1.51    0.34 
  11   7   6    1.40    0.29 
  11   7   6    1.44    0.30 
  13  -7   6    0.42    0.28 
  13   7   6    0.09    0.23 
  13   7   6    0.44    0.25 
  15  -7   6    0.44    0.31 
  15   7   6    0.18    0.25 
  15   7   6    0.10    0.27 
 -22  -8   6    2.94    0.59 
  22   8  -6    2.27    0.36 
  22   8  -6    3.30    0.48 
 -20  -8   6   -0.22    0.29 
  20   8  -6    0.19    0.24 
  20   8  -6    0.20    0.21 
 -18  -8   6    0.56    0.33 
  18   8  -6    0.86    0.28 
  18   8  -6    0.42    0.23 
  16  -8  -6    1.57    0.22 
 -16  -8   6    1.94    0.42 
  16   8  -6    1.32    0.26 
 -14  -8   6    5.88    0.56 
  14  -8  -6    5.54    0.31 
  14   8  -6    6.10    0.43 
 -12  -8   6    0.29    0.23 
  12  -8  -6    0.05    0.09 
 -12   8   6    0.21    0.11 
  12   8  -6   -0.01    0.14 
 -10  -8   6   12.19    0.68 
  10  -8  -6   11.33    0.39 
 -10   8   6   11.47    0.44 
  10   8  -6   13.06    0.56 
  -8  -8   6    8.95    0.55 
   8  -8  -6    8.64    0.30 
  -8   8   6    9.20    0.39 
  -8   8   6    8.81    0.28 
   8   8  -6    8.63    0.44 
   6  -8  -6   14.76    0.43 
  -6  -8   6   13.88    0.68 
   6   8  -6   14.20    0.56 
  -6   8   6   14.51    0.39 
  -6   8   6   15.40    0.55 
   4  -8  -6    0.43    0.11 
  -4  -8   6    0.25    0.14 
  -4  -8   6    0.50    0.20 
  -4   8   6    0.33    0.08 
  -4   8   6    0.63    0.16 
   4   8  -6    0.20    0.12 
   2  -8  -6    4.70    0.28 
  -2  -8   6    5.57    0.40 
  -2  -8   6    4.39    0.29 
  -2   8   6    4.75    0.22 
  -2   8   6    4.22    0.31 
   2   8  -6    5.00    0.29 
   0  -8  -6    3.11    0.28 
   0  -8   6    4.15    0.37 
   0  -8   6    3.05    0.25 
   0   8  -6    3.84    0.25 
   0   8   6    4.16    0.24 
   0   8   6    4.16    0.33 
   2  -8   6    6.53    0.45 
  -2  -8  -6    7.08    0.44 
   2  -8   6    6.92    0.33 
   2   8   6    6.94    0.41 
   2   8   6    6.84    0.34 
  -2   8  -6    6.99    0.31 
   4  -8   6   -0.11    0.09 
   4  -8   6    0.04    0.16 
   4   8   6   -0.09    0.12 
   4   8   6   -0.10    0.13 
  -4   8  -6   -0.09    0.08 
   6  -8   6   13.47    0.68 
   6   8   6   14.20    0.64 
   6   8   6   12.48    0.56 
   8  -8   6    7.27    0.53 
   8   8   6    6.90    0.46 
   8   8   6    7.20    0.49 
  10  -8   6    4.80    0.50 
  10   8   6    4.60    0.45 
  10   8   6    4.27    0.43 
  12  -8   6    0.14    0.25 
  12   8   6    0.15    0.23 
  12   8   6    0.17    0.24 
  14  -8   6    2.07    0.40 
  14   8   6    1.70    0.36 
  14   8   6    2.00    0.37 
 -21  -9   6    2.18    0.52 
  21   9  -6    2.15    0.36 
  21   9  -6    2.64    0.44 
 -19  -9   6    0.82    0.41 
  19   9  -6    0.95    0.27 
  19   9  -6    1.39    0.34 
 -17  -9   6    3.89    0.56 
  17   9  -6    4.85    0.45 
 -15  -9   6    2.56    0.45 
  15   9  -6    3.31    0.38 
 -13  -9   6    0.45    0.27 
  13   9  -6    0.36    0.20 
  11  -9  -6   19.15    0.66 
 -11  -9   6   19.52    0.92 
 -11   9   6   19.64    0.63 
  11   9  -6   17.89    0.73 
  -9  -9   6   21.46    0.95 
   9  -9  -6   22.30    0.65 
  -9   9   6   23.53    0.72 
   9   9  -6   23.15    0.81 
  -7  -9   6   25.88    1.01 
   7  -9  -6   24.33    0.69 
   7   9  -6   25.36    0.84 
  -7   9   6   24.59    0.78 
  -5  -9   6    9.12    0.56 
   5  -9  -6    8.71    0.35 
  -5   9   6    9.90    0.44 
   5   9  -6    9.39    0.44 
  -3  -9   6    1.19    0.25 
   3  -9  -6    1.43    0.18 
  -3   9   6    0.84    0.17 
   3   9  -6    1.09    0.18 
   1  -9  -6    4.20    0.31 
  -1  -9   6    4.80    0.40 
  -1   9   6    4.23    0.24 
   1   9  -6    3.79    0.27 
  -1   9   6    4.82    0.35 
  -1  -9  -6    3.71    0.34 
   1  -9   6    4.12    0.39 
  -1   9  -6    4.37    0.26 
   1   9   6    5.15    0.37 
   1   9   6    4.50    0.28 
  -3  -9  -6    1.50    0.28 
   3  -9   6    1.26    0.27 
  -3   9  -6    1.28    0.16 
   3   9   6    1.85    0.27 
   3   9   6    1.13    0.19 
  -5  -9  -6    7.91    0.56 
   5  -9   6    8.05    0.54 
   5   9   6    8.24    0.50 
   5   9   6    7.56    0.43 
   7  -9   6    1.58    0.31 
   7   9   6    1.73    0.27 
   7   9   6    2.11    0.33 
   9  -9   6    3.51    0.45 
   9   9   6    2.70    0.36 
   9   9   6    3.35    0.37 
  11  -9   6    0.29    0.26 
  11   9   6    0.60    0.27 
  11   9   6    0.56    0.25 
  13  -9   6    0.06    0.26 
  13   9   6   -0.20    0.23 
  13   9   6   -0.14    0.22 
 -22 -10   6    1.47    0.61 
  22  10  -6    2.12    0.39 
  22  10  -6    2.08    0.54 
 -20 -10   6    0.48    0.37 
  20  10  -6    0.13    0.23 
  20  10  -6    0.31    0.28 
 -18 -10   6    2.69    0.53 
  18  10  -6    4.32    0.46 
 -16 -10   6    0.27    0.33 
  16  10  -6    0.36    0.23 
 -14 -10   6   12.42    0.82 
  14  10  -6   12.40    0.64 
 -12 -10   6    9.26    0.68 
  12  10  -6    7.80    0.50 
 -10 -10   6   10.81    0.72 
  10  10  -6   12.36    0.59 
 -10  10   6   12.42    0.48 
  -8 -10   6   46.99    1.58 
   8  10  -6   47.74    1.38 
  -8  10   6   46.43    1.29 
  -6 -10   6    6.96    0.53 
  -6  10   6    5.90    0.36 
   6  10  -6    7.26    0.41 
  -4 -10   6   11.97    0.66 
   4 -10  -6   12.46    0.48 
  -4  10   6   12.43    0.54 
   4  10  -6   13.03    0.53 
   2 -10  -6   21.19    0.72 
  -2 -10   6   21.24    0.89 
   2  10  -6   21.20    0.71 
  -2  10   6   20.88    0.77 
  -2  10   6   21.85    0.64 
   0 -10  -6    0.67    0.20 
   0 -10   6    0.77    0.24 
   0  10   6    0.72    0.15 
   0  10  -6    0.63    0.15 
   0  10   6    0.30    0.18 
  -2 -10  -6    0.09    0.19 
   2 -10   6    0.21    0.20 
   2  10   6    0.11    0.17 
   2  10   6   -0.08    0.12 
  -2  10  -6    0.10    0.11 
  -4 -10  -6    3.27    0.40 
   4 -10   6    2.80    0.39 
   4  10   6    3.10    0.29 
   4  10   6    3.35    0.38 
   6 -10   6    3.86    0.43 
  -6 -10  -6    4.42    0.51 
   6  10   6    3.94    0.35 
   6  10   6    4.07    0.43 
   8 -10   6    6.67    0.56 
   8  10   6    7.75    0.55 
   8  10   6    6.57    0.47 
  10 -10   6    1.87    0.37 
  10  10   6    1.23    0.29 
  10  10   6    0.25    0.25 
  12 -10   6   -0.02    0.27 
  12  10   6    0.04    0.24 
  12  10   6   -0.08    0.24 
  21  11  -6    2.44    0.41 
  21  11  -6    2.98    0.70 
 -19 -11   6   -0.26    0.33 
  19  11  -6    0.07    0.26 
  19  11  -6   -0.14    0.20 
 -17 -11   6    0.94    0.43 
  17  11  -6    0.95    0.29 
 -15 -11   6    0.09    0.31 
  15  11  -6    0.11    0.20 
 -13 -11   6    0.05    0.28 
  13  11  -6    0.00    0.18 
 -11 -11   6    2.80    0.45 
  11  11  -6    4.02    0.39 
  -9 -11   6    0.50    0.27 
  -9  11   6    0.43    0.15 
   9  11  -6    0.97    0.24 
  -7 -11   6    8.54    0.62 
   7  11  -6    7.76    0.46 
  -7  11   6    7.22    0.41 
  -5 -11   6    1.09    0.29 
   5  11  -6    1.06    0.21 
  -5  11   6    1.09    0.21 
  -3 -11   6   -0.23    0.19 
   3  11  -6   -0.01    0.13 
  -3  11   6   -0.03    0.14 
  -1 -11   6    2.30    0.36 
   1  11  -6    2.37    0.25 
  -1  11   6    1.98    0.31 
  -1  11   6    1.16    0.23 
   1 -11   6    0.95    0.27 
  -1 -11  -6    1.39    0.26 
  -1  11  -6    0.96    0.18 
   1  11   6    1.43    0.20 
   1  11   6    1.06    0.25 
   3 -11   6    2.03    0.35 
  -3 -11  -6    2.15    0.34 
   3  11   6    3.32    0.39 
   3  11   6    3.34    0.30 
   5 -11   6    5.10    0.51 
  -5 -11  -6    4.55    0.50 
   5  11   6    5.15    0.47 
  -7 -11  -6    2.76    0.45 
   7 -11   6    1.88    0.35 
   7  11   6    2.20    0.31 
   7  11   6    2.29    0.36 
   9 -11   6    0.55    0.29 
   9  11   6    0.71    0.29 
   9  11   6    0.32    0.23 
  11 -11   6    7.57    0.66 
  11  11   6    7.98    0.57 
  11  11   6    8.55    0.64 
 -18 -12   6    0.32    0.37 
  18  12  -6   -0.09    0.22 
 -16 -12   6    2.04    0.50 
  16  12  -6    1.16    0.32 
 -14 -12   6    0.36    0.34 
  14  12  -6    0.35    0.23 
 -12 -12   6    0.53    0.32 
  12  12  -6    0.58    0.23 
 -10 -12   6    1.90    0.41 
  10  12  -6    1.27    0.26 
  -8 -12   6   -0.21    0.22 
  -8  12   6   -0.08    0.13 
   8  12  -6   -0.19    0.16 
  -6 -12   6    3.32    0.45 
   6  12  -6    3.54    0.35 
  -6  12   6    3.68    0.33 
  -4 -12   6    0.04    0.24 
  -4  12   6    0.26    0.17 
   4  12  -6    0.22    0.16 
  -2 -12   6   -0.37    0.19 
  -2  12   6    0.01    0.17 
   2  12  -6   -0.11    0.14 
   0 -12   6    2.52    0.40 
   0  12  -6    2.92    0.29 
   0  12   6    3.09    0.37 
   2 -12   6    0.76    0.29 
   2  12   6    1.05    0.26 
   4 -12   6   10.94    0.70 
   4  12   6   10.95    0.63 
   6 -12   6    3.67    0.49 
   6  12   6    5.10    0.49 
   8 -12   6    0.20    0.27 
   8  12   6    0.22    0.26 
   8  12   6    0.23    0.24 
  10 -12   6   -0.10    0.25 
  10  12   6    0.03    0.25 
  10  12   6    0.31    0.26 
 -17 -13   6    0.11    0.40 
  17  13  -6    0.24    0.25 
 -15 -13   6    5.99    0.74 
  15  13  -6    4.42    0.48 
 -13 -13   6    0.89    0.39 
  13  13  -6    0.88    0.27 
 -11 -13   6   13.57    0.89 
  11  13  -6   13.46    0.68 
  -9 -13   6    0.53    0.31 
   9  13  -6    0.36    0.21 
  -7 -13   6    2.02    0.44 
   7  13  -6    2.05    0.30 
  -7  13   6    2.40    0.29 
  -5 -13   6    2.53    0.45 
   5  13  -6    2.16    0.30 
  -5  13   6    2.27    0.30 
  -3 -13   6    0.63    0.31 
   3  13  -6    0.70    0.20 
  -3  13   6    0.39    0.20 
  -1 -13   6    3.71    0.49 
  -1  13   6    4.34    0.43 
   1 -13   6    1.70    0.38 
   1  13   6    2.02    0.33 
   3 -13   6    1.53    0.37 
   3  13   6    2.50    0.38 
   5 -13   6    2.68    0.43 
   5  13   6    1.75    0.34 
   7 -13   6    0.39    0.31 
   7  13   6   -0.09    0.24 
   9 -13   6    0.25    0.31 
   9  13   6   -0.21    0.24 
 -16 -14   6    2.11    0.54 
  16  14  -6    1.22    0.32 
 -14 -14   6   -0.04    0.33 
  14  14  -6    0.28    0.24 
 -12 -14   6    0.73    0.37 
  12  14  -6    0.51    0.24 
 -10 -14   6    0.96    0.38 
  10  14  -6    0.59    0.24 
  -8 -14   6    0.02    0.29 
   8  14  -6   -0.04    0.19 
  -6 -14   6    0.11    0.29 
   6  14  -6    0.03    0.19 
  -6  14   6    0.24    0.18 
  -4 -14   6    2.54    0.44 
  -4  14   6    3.38    0.38 
   4  14  -6    3.18    0.36 
  -2 -14   6    2.09    0.42 
  -2  14   6    2.28    0.34 
   2  14  -6    2.67    0.31 
   0 -14   6    4.17    0.53 
   0  14   6    4.80    0.47 
   2 -14   6    9.15    0.72 
   2  14   6    8.38    0.58 
   4 -14   6    1.95    0.41 
   4  14   6    2.30    0.38 
   6 -14   6   -0.04    0.28 
   6  14   6    0.36    0.27 
   8 -14   6    1.70    0.43 
   8  14   6    2.13    0.43 
 -13 -15   6    1.37    0.46 
  13  15  -6    0.92    0.30 
 -11 -15   6   -0.14    0.32 
  11  15  -6    0.18    0.24 
  -9 -15   6    0.16    0.34 
   9  15  -6    0.35    0.23 
  -7 -15   6   -0.04    0.30 
   7  15  -6    0.09    0.20 
  -5 -15   6    0.19    0.31 
  -5  15   6    0.10    0.19 
   5  15  -6    0.01    0.19 
  -3 -15   6    0.11    0.29 
   3  15  -6    0.36    0.21 
  -3  15   6    0.33    0.22 
  -1 -15   6    1.87    0.44 
  -1  15   6    2.16    0.36 
   1 -15   6    3.43    0.52 
   1  15   6    2.79    0.41 
   3 -15   6    0.16    0.29 
   3  15   6    0.04    0.25 
   5 -15   6   -0.18    0.29 
   5  15   6   -0.19    0.26 
 -10 -16   6   -0.08    0.32 
  10  16  -6    0.12    0.23 
  -8 -16   6    0.27    0.35 
   8  16  -6    0.11    0.23 
  -6 -16   6   -0.24    0.29 
   6  16  -6   -0.07    0.21 
  -4 -16   6    0.12    0.33 
  -4  16   6    0.16    0.21 
   4  16  -6    0.04    0.22 
  -2 -16   6    0.08    0.32 
  -2  16   6    0.05    0.22 
   0 -16   6    0.29    0.34 
   0  16   6    0.01    0.25 
   2 -16   6   -0.26    0.32 
   2  16   6    0.04    0.25 
  26   0  -7    0.04    0.24 
  24   0  -7    0.23    0.22 
  22   0  -7   -0.10    0.14 
  22   0  -7   -0.14    0.17 
  20   0  -7   -0.09    0.12 
  20   0  -7   -0.01    0.15 
 -18   0   7   -0.12    0.13 
  18   0  -7    0.01    0.12 
  18   0  -7    0.05    0.13 
 -18   0   7    0.04    0.21 
  16   0  -7   -0.04    0.11 
 -16   0   7   -0.16    0.12 
 -16   0   7    0.01    0.18 
  16   0  -7   -0.03    0.10 
  14   0  -7   -0.05    0.09 
 -14   0   7    0.02    0.11 
 -14   0   7    0.10    0.16 
  14   0  -7    0.04    0.09 
 -12   0   7   -0.02    0.11 
 -12   0   7    0.03    0.14 
 -10   0   7   -0.01    0.12 
 -10   0   7   -0.20    0.09 
  -8   0   7   -0.13    0.10 
  -8   0   7    0.03    0.11 
  -6   0   7    0.17    0.11 
  -6   0   7    0.02    0.09 
  -4   0   7   -0.09    0.08 
  -4   0   7   -0.02    0.09 
  -2   0   7    0.03    0.10 
  -2   0   7    0.04    0.09 
   2   0   7    0.10    0.12 
   2   0   7    0.15    0.12 
   4   0   7   -0.05    0.13 
   4   0   7   -0.04    0.10 
   6   0   7    0.02    0.11 
   6   0   7    0.15    0.16 
   8   0   7   -0.03    0.12 
   8   0   7    0.01    0.16 
  10   0   7    0.01    0.18 
  10   0   7    0.09    0.14 
  12   0   7    0.09    0.21 
  14   0   7    0.54    0.27 
  16   0   7    0.18    0.30 
  25  -1  -7    0.16    0.23 
  25   1  -7    0.18    0.24 
  23  -1  -7    9.67    0.59 
  23   1  -7    8.65    0.59 
  23   1  -7    9.51    0.73 
  21  -1  -7    9.11    0.54 
 -21  -1   7    7.47    0.66 
  21  -1  -7    9.83    0.45 
  21   1  -7    9.19    0.47 
  21   1  -7    8.94    0.55 
 -19  -1   7    9.78    0.66 
  19  -1  -7    9.12    0.44 
  19  -1  -7   10.72    0.52 
  19   1  -7    9.29    0.46 
 -19   1   7    9.73    0.47 
  19   1  -7   10.48    0.55 
 -17  -1   7    6.54    0.53 
 -17  -1   7    5.84    0.38 
  17  -1  -7    6.46    0.38 
  17  -1  -7    6.48    0.35 
 -17   1   7    6.11    0.49 
  17   1  -7    6.79    0.37 
 -17   1   7    5.83    0.36 
  17   1  -7    6.56    0.40 
 -15  -1   7   12.93    0.55 
  15  -1  -7   12.91    0.52 
 -15  -1   7   14.52    0.69 
  15  -1  -7   13.72    0.50 
 -15   1   7   14.48    0.54 
  15   1  -7   13.01    0.55 
  15   1  -7   12.74    0.51 
 -15   1   7   14.31    0.64 
 -13  -1   7   19.67    0.75 
  13  -1  -7   17.74    0.59 
 -13  -1   7   17.40    0.64 
  13   1  -7   18.18    0.61 
 -13   1   7   18.42    0.70 
 -13   1   7   18.29    0.62 
 -11  -1   7    2.89    0.29 
 -11  -1   7    2.83    0.25 
  11  -1  -7    2.83    0.20 
 -11   1   7    2.78    0.27 
 -11   1   7    2.72    0.24 
  -9  -1   7    1.37    0.20 
  -9  -1   7    1.20    0.18 
  -9   1   7    1.63    0.19 
  -9   1   7    1.37    0.17 
  -7  -1   7   -0.05    0.10 
   7  -1  -7    0.05    0.06 
  -7  -1   7    0.18    0.12 
  -7   1   7   -0.13    0.11 
  -7   1   7    0.06    0.09 
   5  -1  -7    0.75    0.10 
  -5  -1   7    0.76    0.14 
  -5  -1   7    0.72    0.14 
  -5   1   7    1.19    0.17 
  -5   1   7    0.81    0.11 
  -3  -1   7    0.14    0.12 
  -3  -1   7    0.08    0.10 
  -3   1   7    0.17    0.10 
  -3   1   7    0.03    0.08 
  -1  -1   7   32.12    0.90 
  -1  -1   7   31.57    0.90 
  -1   1   7   33.07    0.91 
  -1   1   7   31.32    0.87 
   1  -1   7    7.65    0.34 
   1  -1   7    7.85    0.38 
   1   1   7    7.95    0.35 
   1   1   7    7.12    0.35 
   3  -1   7   49.16    1.38 
   3  -1   7   50.82    1.32 
   3   1   7   49.96    1.34 
   3   1   7   51.02    1.36 
   5  -1   7   24.70    0.86 
   5  -1   7   26.74    0.78 
   5   1   7   25.63    0.84 
   5   1   7   24.77    0.80 
   7  -1   7   23.80    0.87 
   7  -1   7   23.17    0.75 
   7   1   7   24.38    0.79 
   7   1   7   24.42    0.86 
   9  -1   7   11.72    0.62 
   9  -1   7   11.73    0.49 
   9   1   7   12.52    0.53 
   9   1   7   10.98    0.59 
  11  -1   7    0.13    0.20 
  11  -1   7   -0.02    0.17 
  11   1   7   -0.24    0.19 
  11   1   7    0.10    0.15 
  13  -1   7    0.51    0.27 
  13   1   7    0.53    0.26 
  15  -1   7    3.14    0.45 
  15   1   7    4.55    0.54 
  26  -2  -7    7.57    0.60 
  26   2  -7    7.41    0.62 
  24  -2  -7    0.21    0.22 
  24   2  -7    0.35    0.25 
  22  -2  -7    5.60    0.44 
 -22  -2   7    5.34    0.64 
  22   2  -7    5.69    0.48 
  22   2  -7    5.34    0.40 
  20  -2  -7    0.62    0.16 
  20  -2  -7    0.37    0.19 
 -20  -2   7    0.39    0.28 
  20   2  -7    0.30    0.20 
  20   2  -7    0.50    0.18 
  18  -2  -7    1.41    0.22 
 -18  -2   7    0.92    0.29 
  18  -2  -7    1.22    0.19 
  18   2  -7    1.18    0.21 
 -18   2   7    1.04    0.19 
  18   2  -7    1.36    0.25 
 -16  -2   7    1.40    0.23 
 -16  -2   7    1.41    0.30 
  16  -2  -7    1.13    0.19 
  16  -2  -7    1.20    0.17 
 -16   2   7    1.11    0.19 
  16   2  -7    1.32    0.21 
  16   2  -7    1.02    0.20 
 -14  -2   7    7.97    0.50 
 -14  -2   7    7.91    0.41 
  14  -2  -7    7.24    0.35 
 -14   2   7    7.11    0.36 
  14   2  -7    7.72    0.38 
 -14   2   7    7.97    0.45 
 -12  -2   7   20.98    0.79 
 -12  -2   7   20.73    0.71 
  12  -2  -7   20.73    0.62 
 -12   2   7   20.84    0.70 
 -12   2   7   21.68    0.67 
  12   2  -7   19.99    0.68 
 -10  -2   7  104.00    2.58 
  10  -2  -7  107.91    2.46 
 -10  -2   7  103.42    2.64 
 -10   2   7  105.93    2.53 
 -10   2   7  104.69    2.54 
  -8  -2   7    3.03    0.26 
   8  -2  -7    3.37    0.18 
  -8  -2   7    3.31    0.28 
  -8   2   7    3.11    0.24 
  -8   2   7    3.47    0.20 
  -6  -2   7   70.80    1.82 
   6  -2  -7   73.10    1.67 
  -6  -2   7   73.01    1.81 
  -6   2   7   72.61    1.69 
  -6   2   7   70.29    1.80 
  -4  -2   7   20.95    0.67 
  -4  -2   7   20.22    0.65 
   4  -2  -7   21.14    0.55 
  -4   2   7   21.37    0.66 
  -4   2   7   20.85    0.56 
  -2  -2   7   25.94    0.79 
  -2  -2   7   25.47    0.76 
  -2   2   7   26.53    0.78 
  -2   2   7   25.95    0.70 
   0  -2   7    4.47    0.30 
   0  -2   7    4.63    0.27 
   0   2   7    4.61    0.29 
   0   2   7    4.25    0.25 
   2  -2   7    4.96    0.28 
   2  -2   7    4.95    0.32 
   2   2   7    4.87    0.30 
   2   2   7    5.22    0.30 
   4  -2   7    0.97    0.16 
   4  -2   7    1.57    0.24 
   4   2   7    0.71    0.16 
   4   2   7    1.07    0.19 
   6  -2   7   10.94    0.43 
   6   2   7   10.68    0.51 
   6   2   7   10.18    0.47 
   8  -2   7   11.99    0.62 
   8  -2   7   13.42    0.50 
   8   2   7   12.50    0.60 
   8   2   7   13.73    0.56 
  10  -2   7    0.39    0.17 
  10  -2   7    0.44    0.22 
  10   2   7    0.20    0.20 
  10   2   7    0.30    0.17 
  12  -2   7    1.28    0.31 
  12   2   7    1.51    0.26 
  12   2   7    1.63    0.34 
  14  -2   7   -0.07    0.23 
  14   2   7    0.18    0.25 
  16  -2   7    0.02    0.27 
  16   2   7    0.19    0.30 
  25  -3  -7    1.29    0.31 
  25   3  -7    1.08    0.33 
 -23  -3   7   11.59    0.89 
  23  -3  -7   12.09    0.66 
  23   3  -7   13.02    0.72 
  23   3  -7   11.86    0.61 
  21  -3  -7    2.64    0.32 
 -21  -3   7    2.69    0.50 
  21   3  -7    2.60    0.37 
  21   3  -7    2.41    0.31 
  19  -3  -7    3.42    0.27 
  19  -3  -7    3.36    0.32 
 -19  -3   7    3.23    0.46 
  19   3  -7    3.66    0.35 
 -19   3   7    3.19    0.28 
  19   3  -7    2.71    0.33 
  17  -3  -7    1.60    0.19 
  17  -3  -7    1.80    0.23 
 -17  -3   7    1.48    0.32 
 -17   3   7    1.64    0.21 
  17   3  -7    1.55    0.23 
  17   3  -7    1.29    0.23 
  15  -3  -7    2.70    0.23 
 -15  -3   7    1.93    0.26 
 -15  -3   7    2.14    0.34 
  15   3  -7    2.13    0.26 
 -15   3   7    1.98    0.21 
  13  -3  -7    4.92    0.26 
 -13  -3   7    4.90    0.34 
 -13  -3   7    4.34    0.40 
  13   3  -7    5.15    0.32 
 -13   3   7    4.71    0.28 
 -11  -3   7    3.73    0.35 
 -11  -3   7    4.09    0.30 
  11  -3  -7    3.81    0.20 
  11   3  -7    3.44    0.26 
 -11   3   7    3.63    0.25 
   9  -3  -7    1.73    0.12 
  -9  -3   7    2.04    0.26 
   9  -3  -7    1.66    0.14 
  -9  -3   7    1.97    0.24 
  -9   3   7    1.87    0.21 
  -9   3   7    1.51    0.16 
  -7  -3   7    8.10    0.42 
   7  -3  -7    8.55    0.23 
  -7  -3   7    7.87    0.38 
  -7   3   7    8.11    0.36 
  -5  -3   7   16.69    0.56 
  -5  -3   7   16.09    0.59 
   5  -3  -7   16.05    0.40 
  -5   3   7   16.30    0.55 
  -5   3   7   16.13    0.42 
   3  -3  -7   24.99    0.62 
  -3  -3   7   24.45    0.74 
  -3  -3   7   23.61    0.77 
  -3   3   7   24.18    0.62 
  -3   3   7   23.06    0.74 
  -1  -3   7   15.41    0.57 
  -1  -3   7   14.93    0.52 
  -1   3   7   15.01    0.54 
  -1   3   7   14.98    0.47 
   1  -3   7   44.90    1.18 
   1  -3   7   43.26    1.25 
   1   3   7   43.69    1.22 
   1   3   7   45.63    1.17 
   3  -3   7    0.42    0.12 
   3  -3   7    0.30    0.15 
   3   3   7    0.60    0.15 
   3   3   7    0.38    0.14 
   5  -3   7    2.16    0.21 
   5  -3   7    2.37    0.28 
   5   3   7    2.40    0.27 
   5   3   7    2.27    0.25 
   7  -3   7    8.18    0.49 
   7  -3   7    7.47    0.35 
   7   3   7    7.58    0.46 
   7   3   7    6.97    0.42 
   9  -3   7    0.17    0.14 
   9  -3   7   -0.01    0.19 
   9   3   7    0.05    0.15 
   9   3   7   -0.11    0.16 
  11  -3   7   15.52    0.76 
  11   3   7   14.97    0.65 
  11   3   7   14.03    0.72 
  13  -3   7   -0.17    0.22 
  13   3   7    0.19    0.23 
  13   3   7    0.36    0.20 
  15  -3   7    5.32    0.57 
  15   3   7    4.62    0.53 
  26  -4  -7   -0.21    0.23 
  26   4  -7   -0.12    0.25 
  24  -4  -7   -0.09    0.19 
 -24  -4   7    0.50    0.39 
  24   4  -7   -0.17    0.16 
  24   4  -7    0.11    0.23 
 -22  -4   7    1.07    0.39 
  22  -4  -7    1.84    0.30 
  22   4  -7    1.31    0.31 
  22   4  -7    1.26    0.27 
 -20  -4   7   -0.16    0.24 
  20  -4  -7    0.07    0.16 
  20   4  -7   -0.04    0.18 
  20   4  -7    0.09    0.16 
 -18  -4   7    9.65    0.68 
  18  -4  -7    9.62    0.39 
  18  -4  -7    9.11    0.46 
 -18   4   7    8.65    0.40 
  18   4  -7    8.94    0.49 
  18   4  -7    8.84    0.53 
  16  -4  -7   -0.01    0.11 
 -16  -4   7   -0.29    0.18 
 -16   4   7    0.03    0.11 
  16   4  -7    0.26    0.15 
 -14  -4   7   10.53    0.61 
  14  -4  -7   10.01    0.39 
 -14  -4   7   10.01    0.50 
  14   4  -7    9.51    0.47 
 -14   4   7   10.56    0.41 
  12  -4  -7    1.60    0.15 
 -12  -4   7    1.42    0.27 
 -12  -4   7    1.78    0.24 
 -12   4   7    1.54    0.18 
  12   4  -7    2.24    0.25 
  10  -4  -7    7.18    0.28 
 -10  -4   7    6.56    0.38 
  10  -4  -7    7.82    0.25 
 -10  -4   7    7.33    0.46 
 -10   4   7    7.18    0.34 
  10   4  -7    7.82    0.38 
  -8  -4   7   67.70    1.87 
  -8  -4   7   72.25    1.82 
   8   4  -7   71.40    1.78 
  -8   4   7   68.06    1.75 
  -6  -4   7    0.19    0.12 
  -6  -4   7    0.04    0.13 
  -6   4   7    0.01    0.11 
  -4  -4   7    8.73    0.43 
  -4  -4   7   10.08    0.42 
  -4   4   7    8.67    0.40 
  -4   4   7    9.37    0.26 
  -4   4   7    9.35    0.28 
  -2  -4   7    6.14    0.37 
   2  -4  -7    6.31    0.24 
  -2  -4   7    6.69    0.33 
  -2   4   7    6.49    0.25 
  -2   4   7    6.75    0.35 
  -2   4   7    6.25    0.29 
   0  -4   7    0.04    0.11 
   0  -4   7    0.07    0.13 
   0   4   7    0.16    0.10 
   0   4   7    0.03    0.12 
   2  -4   7    2.96    0.22 
   2  -4   7    3.02    0.30 
   2   4   7    3.13    0.27 
   2   4   7    2.60    0.23 
   4  -4   7    2.16    0.20 
   4  -4   7    2.09    0.27 
   4   4   7    1.76    0.22 
   4   4   7    2.25    0.26 
   6  -4   7    0.02    0.16 
   6  -4   7   -0.10    0.09 
   6   4   7    0.08    0.13 
   6   4   7   -0.16    0.13 
   8  -4   7    2.26    0.34 
   8  -4   7    2.00    0.31 
   8   4   7    2.16    0.30 
   8   4   7    2.22    0.29 
  10  -4   7    1.89    0.33 
  10   4   7    2.09    0.30 
  10   4   7    2.24    0.33 
  12  -4   7    1.17    0.30 
  12   4   7    1.15    0.30 
  12   4   7    1.07    0.26 
  14  -4   7    0.35    0.29 
  14   4   7    0.23    0.26 
  14   4   7    0.31    0.22 
  16  -4   7    1.30    0.38 
  16   4   7    1.41    0.38 
 -25  -5   7    0.14    0.37 
  25   5  -7    0.29    0.21 
  25   5  -7    0.19    0.26 
  23  -5  -7    0.33    0.21 
 -23  -5   7   -0.04    0.32 
  23   5  -7    0.14    0.21 
  23   5  -7   -0.05    0.24 
 -21  -5   7    5.18    0.65 
  21  -5  -7    5.01    0.41 
  21   5  -7    4.26    0.40 
  21   5  -7    4.78    0.50 
  19  -5  -7    1.69    0.25 
 -19  -5   7    3.28    0.51 
  19   5  -7    2.13    0.34 
  19   5  -7    2.08    0.30 
  17  -5  -7    8.80    0.37 
  17  -5  -7    8.73    0.42 
 -17  -5   7    9.27    0.66 
 -17   5   7    8.55    0.38 
  17   5  -7    9.49    0.50 
  15  -5  -7   52.85    1.37 
 -15  -5   7   52.20    1.70 
  15   5  -7   50.27    1.47 
 -15   5   7   53.35    1.37 
 -13  -5   7    6.39    0.40 
 -13  -5   7    5.26    0.46 
  13  -5  -7    5.49    0.27 
  13   5  -7    6.64    0.38 
 -13   5   7    6.45    0.32 
 -11  -5   7    2.96    0.37 
 -11  -5   7    3.07    0.29 
  11  -5  -7    2.64    0.15 
  11  -5  -7    2.55    0.20 
 -11   5   7    2.55    0.22 
  11   5  -7    3.07    0.30 
  -9  -5   7    4.96    0.40 
  -9  -5   7    5.53    0.35 
   9   5  -7    4.48    0.31 
  -9   5   7    5.03    0.29 
  -7  -5   7    1.85    0.24 
  -7  -5   7    1.62    0.26 
   7   5  -7    2.70    0.26 
  -7   5   7    2.23    0.21 
  -5  -5   7    7.36    0.42 
  -5  -5   7    8.52    0.39 
  -5   5   7    8.05    0.38 
  -3  -5   7   87.57    2.15 
  -3  -5   7   84.99    2.22 
  -3   5   7   85.97    2.02 
  -3   5   7   86.61    1.98 
  -3   5   7   87.23    2.16 
  -1  -5   7   31.14    0.90 
  -1  -5   7   32.58    1.00 
  -1   5   7   30.10    0.94 
  -1   5   7   32.19    0.83 
   1  -5   7    0.76    0.14 
   1  -5   7    0.98    0.20 
   1   5   7    0.99    0.15 
   1   5   7    0.68    0.16 
   3  -5   7    0.29    0.17 
   3  -5   7    0.07    0.10 
   3   5   7    0.39    0.16 
   3   5   7    0.18    0.12 
   5  -5   7    0.33    0.12 
   5  -5   7    0.38    0.20 
   5   5   7    0.39    0.16 
   5   5   7    0.61    0.19 
   7  -5   7    6.04    0.42 
   7  -5   7    6.32    0.47 
   7   5   7    5.65    0.39 
   7   5   7    5.27    0.40 
   9  -5   7    0.78    0.26 
   9   5   7    0.95    0.24 
   9   5   7    0.75    0.23 
  11  -5   7    0.36    0.26 
  11   5   7    0.11    0.19 
  11   5   7    0.27    0.22 
  13  -5   7    0.65    0.31 
  13   5   7    0.55    0.28 
  13   5   7    1.05    0.27 
  15  -5   7    0.66    0.33 
  15   5   7    1.39    0.32 
  15   5   7    1.40    0.36 
 -24  -6   7    0.18    0.35 
  24   6  -7    0.00    0.20 
  24   6  -7   -0.16    0.23 
 -22  -6   7    3.12    0.56 
  22   6  -7    2.63    0.36 
  22   6  -7    2.87    0.43 
  20  -6  -7    3.21    0.34 
 -20  -6   7    3.42    0.53 
  20   6  -7    3.80    0.41 
  20   6  -7    2.93    0.39 
  18  -6  -7   12.52    0.54 
 -18  -6   7   12.11    0.80 
  18   6  -7   12.89    0.62 
  16  -6  -7    4.57    0.29 
 -16  -6   7    4.96    0.56 
 -16   6   7    4.12    0.27 
  16   6  -7    3.90    0.37 
 -14  -6   7    1.47    0.32 
  14  -6  -7    2.27    0.20 
 -14   6   7    2.12    0.21 
  14   6  -7    1.71    0.25 
 -12  -6   7    1.60    0.26 
  12  -6  -7    1.75    0.14 
 -12  -6   7    1.26    0.29 
  12   6  -7    1.84    0.25 
 -12   6   7    1.54    0.19 
  10  -6  -7    9.91    0.29 
 -10  -6   7   10.22    0.57 
  10  -6  -7    9.57    0.32 
 -10  -6   7    9.13    0.48 
  10   6  -7    9.57    0.46 
 -10   6   7   10.32    0.41 
  -8  -6   7    5.02    0.34 
  -8  -6   7    4.40    0.37 
  -8   6   7    5.04    0.29 
   8   6  -7    4.99    0.32 
  -6  -6   7   10.27    0.47 
  -6  -6   7   10.25    0.53 
   6   6  -7   11.56    0.46 
  -6   6   7   10.75    0.44 
  -4  -6   7    2.34    0.28 
  -4  -6   7    1.69    0.21 
   4   6  -7    1.63    0.19 
  -4   6   7    2.69    0.24 
  -2  -6   7    2.19    0.23 
  -2  -6   7    2.54    0.29 
  -2   6   7    2.57    0.25 
  -2   6   7    2.46    0.19 
  -2   6   7    2.49    0.15 
   0  -6   7    5.90    0.31 
   0  -6   7    5.32    0.38 
   0   6   7    5.59    0.36 
   0   6   7    5.80    0.27 
   2  -6   7    4.56    0.35 
   2  -6   7    5.62    0.29 
   2   6   7    4.64    0.28 
   2   6   7    4.80    0.34 
   4  -6   7    8.20    0.36 
   4  -6   7    7.97    0.47 
   4   6   7    8.22    0.44 
   4   6   7    8.02    0.40 
   6  -6   7   -0.02    0.16 
   6  -6   7    0.23    0.20 
   6   6   7    0.23    0.16 
   6   6   7    0.24    0.17 
   8  -6   7    2.29    0.35 
   8   6   7    3.10    0.35 
   8   6   7    2.74    0.32 
  10  -6   7    0.15    0.22 
  10   6   7    0.39    0.22 
  10   6   7    0.36    0.22 
  12  -6   7    0.93    0.31 
  12   6   7    1.16    0.28 
  12   6   7    0.72    0.28 
  14  -6   7    0.88    0.33 
  14   6   7    0.48    0.25 
  14   6   7    0.51    0.29 
 -23  -7   7    0.04    0.35 
  23   7  -7    0.17    0.26 
  23   7  -7   -0.04    0.21 
 -21  -7   7    9.49    0.82 
  21   7  -7    9.23    0.58 
  21   7  -7    8.51    0.62 
 -19  -7   7    6.87    0.67 
  19   7  -7    6.02    0.52 
  19   7  -7    7.50    0.51 
 -17  -7   7   15.69    0.89 
  17  -7  -7   15.16    0.58 
  17   7  -7   14.70    0.68 
 -15  -7   7    0.12    0.24 
  15  -7  -7    0.45    0.13 
 -15   7   7    0.50    0.14 
  15   7  -7    0.26    0.20 
 -13  -7   7    1.43    0.32 
  13  -7  -7    1.98    0.17 
 -13   7   7    1.34    0.18 
  13   7  -7    1.94    0.27 
 -11  -7   7    3.28    0.43 
  11  -7  -7    3.41    0.17 
 -11  -7   7    2.51    0.30 
  11   7  -7    3.23    0.30 
 -11   7   7    3.62    0.25 
  -9  -7   7   19.02    0.72 
  -9  -7   7   18.67    0.82 
   9   7  -7   18.51    0.68 
  -9   7   7   18.04    0.62 
  -7  -7   7    6.20    0.38 
   7   7  -7    6.84    0.37 
  -7   7   7    6.33    0.34 
  -5  -7   7    6.88    0.37 
  -5  -7   7    6.50    0.44 
  -5   7   7    5.92    0.35 
   5   7  -7    6.05    0.34 
  -3  -7   7    0.73    0.19 
  -3  -7   7    1.02    0.18 
  -3   7   7    0.66    0.09 
   3   7  -7    0.82    0.16 
  -3   7   7    0.45    0.09 
  -3   7   7    0.52    0.15 
  -1  -7   7    1.17    0.18 
  -1  -7   7    0.94    0.20 
   1   7  -7    1.32    0.17 
  -1   7   7    1.35    0.14 
  -1   7   7    1.42    0.21 
   1  -7   7   49.87    1.48 
   1  -7   7   48.19    1.32 
   1   7   7   50.89    1.30 
   1   7   7   50.01    1.42 
  -1   7  -7   50.99    1.30 
   3  -7   7    7.90    0.50 
   3  -7   7    8.29    0.36 
  -3   7  -7    8.04    0.34 
   3   7   7    8.61    0.47 
   3   7   7    8.61    0.41 
   5  -7   7    2.60    0.33 
   5  -7   7    2.46    0.34 
   5   7   7    2.91    0.29 
   5   7   7    2.77    0.33 
   7  -7   7   14.85    0.73 
   7   7   7   15.21    0.69 
   7   7   7   13.86    0.62 
   9  -7   7    0.23    0.23 
   9   7   7   -0.18    0.18 
   9   7   7   -0.07    0.19 
  11  -7   7    7.12    0.59 
  11   7   7    7.41    0.56 
  11   7   7    7.13    0.53 
  13  -7   7    0.19    0.27 
  13   7   7    0.04    0.25 
  13   7   7    0.33    0.25 
  15   7   7    0.61    0.29 
  24   8  -7    0.27    0.24 
 -22  -8   7    0.18    0.36 
  22   8  -7    0.11    0.26 
  22   8  -7    0.17    0.22 
 -20  -8   7   -0.33    0.27 
  20   8  -7   -0.31    0.18 
  20   8  -7    0.12    0.22 
 -18  -8   7   20.48    1.07 
  18   8  -7   18.24    0.81 
 -16  -8   7   29.25    1.29 
  16   8  -7   32.53    1.09 
 -14  -8   7    0.14    0.24 
  14   8  -7    0.11    0.16 
 -14   8   7   -0.07    0.10 
 -12  -8   7    5.50    0.53 
  12   8  -7    6.22    0.42 
 -12   8   7    5.69    0.32 
 -10  -8   7    0.78    0.27 
  10  -8  -7    0.53    0.13 
 -10   8   7    0.40    0.14 
  10   8  -7    0.49    0.17 
  -8  -8   7    5.94    0.48 
  -8  -8   7    6.16    0.40 
   8   8  -7    5.86    0.37 
  -8   8   7    6.02    0.34 
  -6  -8   7   30.39    0.98 
  -6  -8   7   30.61    1.09 
   6   8  -7   31.17    0.95 
  -6   8   7   30.10    0.93 
  -4  -8   7    0.82    0.18 
  -4  -8   7    0.50    0.20 
   4   8  -7    0.53    0.15 
  -4   8   7    0.59    0.08 
  -4   8   7    0.82    0.18 
  -4   8   7    0.62    0.08 
  -2  -8   7    7.28    0.39 
  -2  -8   7    8.03    0.49 
  -2   8   7    7.30    0.41 
   2   8  -7    7.76    0.37 
  -2   8   7    7.52    0.29 
   0  -8   7    0.42    0.20 
   0  -8   7    0.66    0.15 
   0   8   7    0.50    0.17 
   0   8   7    0.87    0.14 
   0   8  -7    0.63    0.14 
   2  -8   7    8.37    0.51 
   2  -8   7    9.17    0.40 
   2   8   7    9.73    0.42 
   2   8   7    9.69    0.51 
  -2   8  -7    9.47    0.38 
   4  -8   7   -0.07    0.13 
   4  -8   7    0.24    0.20 
  -4   8  -7    0.09    0.10 
   4   8   7    0.18    0.14 
   4   8   7    0.11    0.15 
   6  -8   7    0.26    0.22 
   6   8   7    0.19    0.16 
   6   8   7    0.04    0.19 
   8  -8   7   -0.07    0.22 
   8   8   7   -0.03    0.20 
   8   8   7   -0.10    0.16 
  10  -8   7    0.33    0.27 
  10   8   7    0.37    0.25 
  10   8   7    0.47    0.24 
  12  -8   7    1.47    0.36 
  12   8   7    1.88    0.35 
  12   8   7    1.11    0.31 
  14  -8   7   -0.03    0.28 
  14   8   7    0.27    0.29 
  14   8   7   -0.15    0.24 
 -23  -9   7    1.46    0.49 
  23   9  -7    0.86    0.34 
  23   9  -7    1.10    0.30 
 -21  -9   7   -0.06    0.33 
  21   9  -7    0.09    0.21 
  21   9  -7    0.07    0.26 
 -19  -9   7   -0.02    0.30 
  19   9  -7   -0.10    0.19 
 -17  -9   7    1.86    0.44 
  17   9  -7    1.90    0.32 
 -15  -9   7    5.78    0.60 
  15   9  -7    6.36    0.47 
 -13  -9   7   -0.09    0.22 
 -13   9   7    0.01    0.11 
  13   9  -7    0.16    0.18 
 -11  -9   7    0.03    0.23 
  11   9  -7   -0.05    0.15 
 -11   9   7    0.02    0.11 
  -9  -9   7    0.10    0.22 
  -9   9   7   -0.10    0.11 
   9   9  -7   -0.07    0.15 
  -7  -9   7    2.89    0.39 
   7   9  -7    2.63    0.28 
  -7   9   7    3.30    0.28 
  -5  -9   7   18.13    0.70 
  -5  -9   7   17.53    0.81 
   5   9  -7   18.83    0.67 
  -5   9   7   19.13    0.68 
   3  -9  -7    5.37    0.29 
  -3  -9   7    5.15    0.35 
  -3  -9   7    5.17    0.44 
  -3   9   7    5.62    0.24 
  -3   9   7    5.31    0.36 
   3   9  -7    5.18    0.33 
  -1  -9   7    0.25    0.14 
   1  -9  -7    0.17    0.14 
  -1  -9   7    0.08    0.20 
  -1   9   7    0.20    0.10 
  -1   9   7    0.31    0.17 
   1   9  -7    0.33    0.13 
   1  -9   7    2.96    0.26 
   1  -9   7    3.25    0.39 
  -1   9  -7    2.62    0.23 
   1   9   7    2.48    0.24 
   1   9   7    2.72    0.32 
   3  -9   7   -0.04    0.19 
   3  -9   7    0.11    0.16 
   3   9   7    0.26    0.20 
  -3   9  -7   -0.04    0.10 
   3   9   7    0.07    0.13 
   5  -9   7   -0.26    0.17 
   5   9   7    0.11    0.15 
   5   9   7    0.27    0.20 
   7  -9   7    6.49    0.55 
   7   9   7    5.91    0.49 
   7   9   7    5.40    0.43 
   9  -9   7    0.94    0.30 
   9   9   7    0.50    0.23 
   9   9   7    0.74    0.28 
  11  -9   7    0.16    0.26 
  11   9   7    0.13    0.23 
  11   9   7    0.10    0.24 
  13  -9   7    0.09    0.27 
  13   9   7    0.04    0.26 
  13   9   7   -0.09    0.25 
 -22 -10   7    0.37    0.42 
  22  10  -7   -0.05    0.27 
  22  10  -7    0.27    0.26 
 -20 -10   7    1.28    0.43 
  20  10  -7    2.01    0.36 
  20  10  -7    1.96    0.39 
 -18 -10   7    0.21    0.33 
  18  10  -7    0.38    0.23 
 -16 -10   7    0.13    0.29 
  16  10  -7    0.02    0.20 
 -14 -10   7    0.10    0.27 
  14  10  -7    0.19    0.19 
 -12 -10   7    0.70    0.31 
 -12  10   7    0.79    0.17 
  12  10  -7    0.69    0.20 
 -10 -10   7   14.42    0.80 
 -10  10   7   11.92    0.51 
  10  10  -7   12.36    0.60 
  -8 -10   7    0.18    0.24 
  -8  10   7    0.20    0.15 
   8  10  -7    0.00    0.15 
  -6 -10   7    1.07    0.30 
  -6  10   7    0.52    0.17 
   6  10  -7    0.94    0.21 
  -4 -10   7   -0.03    0.19 
  -4  10   7   -0.05    0.14 
   4  10  -7   -0.11    0.13 
  -2 -10   7    4.41    0.44 
   2  10  -7    4.55    0.31 
  -2  10   7    4.49    0.38 
   0 -10  -7    4.78    0.39 
   0 -10   7    5.53    0.48 
   0  10   7    5.22    0.29 
   0  10  -7    4.81    0.31 
   0  10   7    5.25    0.41 
  -2 -10  -7   21.53    0.86 
   2 -10   7   22.26    0.95 
   2  10   7   22.13    0.74 
   2  10   7   22.92    0.87 
  -2  10  -7   22.64    0.70 
   4 -10   7   16.24    0.80 
   4  10   7   16.09    0.74 
   4  10   7   16.07    0.64 
   6 -10   7    1.81    0.36 
   6  10   7    1.87    0.28 
   6  10   7    1.27    0.30 
   8 -10   7    0.52    0.28 
   8  10   7    0.24    0.25 
   8  10   7    0.28    0.22 
  10 -10   7    0.16    0.27 
  10  10   7    0.12    0.23 
  10  10   7   -0.04    0.24 
  12 -10   7    1.65    0.39 
  12  10   7    1.67    0.36 
  12  10   7    1.10    0.34 
 -21 -11   7   -0.24    0.35 
  21  11  -7    0.08    0.29 
  21  11  -7    0.04    0.23 
 -19 -11   7    0.79    0.42 
  19  11  -7    1.06    0.30 
 -17 -11   7    0.24    0.34 
  17  11  -7    0.29    0.23 
 -15 -11   7    7.89    0.73 
  15  11  -7    8.77    0.58 
 -13 -11   7    4.24    0.58 
  13  11  -7    5.26    0.45 
 -11 -11   7    0.59    0.32 
  11  11  -7    0.30    0.20 
 -11  11   7    0.65    0.17 
  -9 -11   7   45.18    1.62 
  -9  11   7   45.75    1.31 
   9  11  -7   47.83    1.41 
  -7 -11   7    5.08    0.56 
  -7  11   7    4.54    0.35 
   7  11  -7    4.07    0.37 
  -5 -11   7    1.55    0.35 
  -5  11   7    2.56    0.30 
   5  11  -7    2.20    0.28 
  -3 -11   7    0.10    0.22 
  -3  11   7   -0.13    0.15 
   3  11  -7   -0.09    0.13 
  -1 -11   7    0.58    0.25 
  -1  11   7    0.84    0.24 
   1  11  -7    0.80    0.18 
   1 -11   7    9.36    0.64 
  -1  11  -7    9.60    0.44 
   1  11   7    9.90    0.56 
   3 -11   7    6.04    0.56 
   3  11   7    6.90    0.51 
   5 -11   7   -0.07    0.23 
   5  11   7    0.07    0.22 
   7 -11   7    0.85    0.30 
   7  11   7    0.58    0.27 
   7  11   7    0.61    0.26 
   9 -11   7    8.78    0.69 
   9  11   7    9.08    0.59 
   9  11   7   10.47    0.68 
  11 -11   7    0.15    0.28 
  11  11   7   -0.22    0.24 
  11  11   7   -0.26    0.22 
  20  12  -7    3.09    0.49 
 -18 -12   7    0.77    0.43 
  18  12  -7    0.67    0.28 
 -16 -12   7    1.42    0.45 
  16  12  -7    1.49    0.31 
 -14 -12   7    3.26    0.54 
  14  12  -7    3.79    0.44 
 -12 -12   7    9.73    0.77 
  12  12  -7    9.74    0.59 
 -10 -12   7    2.49    0.44 
  10  12  -7    2.51    0.34 
 -10  12   7    1.66    0.24 
  -8 -12   7    5.95    0.64 
  -8  12   7    6.56    0.41 
   8  12  -7    6.47    0.46 
  -6 -12   7    0.33    0.27 
   6  12  -7    0.11    0.17 
  -6  12   7   -0.06    0.15 
  -4 -12   7    5.20    0.57 
  -4  12   7    4.15    0.37 
   4  12  -7    3.68    0.33 
  -2 -12   7   12.97    0.78 
   2  12  -7   13.35    0.57 
  -2  12   7   13.43    0.64 
   0 -12   7    0.30    0.26 
   0  12   7    0.50    0.22 
   0  12  -7    0.33    0.17 
   2 -12   7    0.41    0.27 
   2  12   7    0.10    0.22 
   4 -12   7    0.10    0.25 
   4  12   7    0.28    0.24 
   6 -12   7    0.16    0.27 
   6  12   7   -0.01    0.23 
   8 -12   7    1.93    0.40 
   8  12   7    3.22    0.45 
  10 -12   7   -0.10    0.27 
  10  12   7    0.29    0.30 
 -17 -13   7    2.02    0.55 
  17  13  -7    1.19    0.32 
 -15 -13   7    0.06    0.33 
  15  13  -7   -0.19    0.20 
 -13 -13   7    0.05    0.30 
  13  13  -7   -0.26    0.17 
 -11 -13   7    0.62    0.35 
  11  13  -7    0.57    0.23 
  -9 -13   7    1.85    0.44 
   9  13  -7    1.75    0.30 
  -9  13   7    1.85    0.27 
  -7 -13   7    2.91    0.48 
  -7  13   7    3.78    0.36 
   7  13  -7    3.94    0.40 
  -5 -13   7    0.89    0.33 
   5  13  -7    0.46    0.20 
  -5  13   7    0.45    0.21 
  -3 -13   7    3.16    0.49 
  -3  13   7    1.99    0.31 
   3  13  -7    2.75    0.31 
  -1 -13   7    0.05    0.25 
   1  13  -7    0.03    0.21 
  -1  13   7    0.11    0.20 
   1 -13   7    1.00    0.35 
   1  13   7    1.35    0.31 
   3 -13   7    0.23    0.28 
   3  13   7   -0.11    0.22 
   5 -13   7    2.54    0.47 
   5  13   7    2.79    0.41 
   7 -13   7    2.27    0.45 
   7  13   7    3.64    0.47 
 -16 -14   7    1.49    0.50 
  16  14  -7    0.68    0.29 
 -14 -14   7    0.93    0.41 
  14  14  -7    0.99    0.31 
 -12 -14   7    0.02    0.32 
  12  14  -7    0.09    0.21 
 -10 -14   7    0.91    0.38 
  10  14  -7    1.06    0.28 
  -8 -14   7    0.35    0.32 
   8  14  -7    0.82    0.25 
  -8  14   7    0.88    0.24 
  -6 -14   7   -0.36    0.27 
  -6  14   7    0.03    0.18 
   6  14  -7    0.11    0.19 
  -4 -14   7   -0.34    0.26 
  -4  14   7    0.29    0.21 
   4  14  -7    0.27    0.19 
  -2 -14   7    1.48    0.40 
  -2  14   7    0.78    0.26 
   0 -14   7   -0.19    0.26 
   0  14   7    0.17    0.22 
   2 -14   7    3.90    0.53 
   2  14   7    3.51    0.45 
   4 -14   7   -0.18    0.26 
   4  14   7    0.11    0.25 
   6 -14   7   -0.08    0.29 
   6  14   7   -0.11    0.26 
 -13 -15   7    0.02    0.35 
  13  15  -7    0.05    0.24 
 -11 -15   7    0.07    0.34 
  11  15  -7   -0.08    0.21 
  -9 -15   7    0.88    0.39 
   9  15  -7    1.74    0.33 
  -7 -15   7    0.21    0.33 
   7  15  -7    0.21    0.22 
  -5 -15   7    1.34    0.40 
   5  15  -7    1.88    0.31 
  -5  15   7    1.78    0.31 
  -3 -15   7    0.02    0.31 
  -3  15   7   -0.14    0.20 
  -1 -15   7    0.04    0.31 
  -1  15   7    0.40    0.24 
   1 -15   7    1.09    0.37 
   1  15   7    1.03    0.31 
   3 -15   7    0.36    0.33 
   3  15   7    0.31    0.28 
 -10 -16   7    0.47    0.38 
  10  16  -7    0.36    0.26 
  -8 -16   7    0.30    0.36 
   8  16  -7   -0.05    0.22 
  -6 -16   7   -0.17    0.33 
   6  16  -7    0.18    0.22 
  -4 -16   7    0.02    0.32 
  -4  16   7    0.16    0.21 
  -2 -16   7    0.01    0.33 
  -2  16   7    0.09    0.23 
   0 -16   7    0.61    0.36 
   0  16   7    0.52    0.28 
  26   0  -8   11.34    0.71 
  24   0  -8    6.42    0.50 
  22   0  -8    8.79    0.47 
  22   0  -8    9.45    0.55 
 -20   0   8    1.03    0.32 
 -20   0   8    0.99    0.22 
  20   0  -8    0.80    0.18 
  20   0  -8    1.00    0.23 
 -18   0   8   33.05    1.01 
  18   0  -8   31.12    0.96 
 -18   0   8   30.08    1.15 
  18   0  -8   31.29    1.01 
  16   0  -8   14.15    0.55 
 -16   0   8   14.42    0.70 
 -16   0   8   14.33    0.59 
  16   0  -8   14.99    0.58 
  14   0  -8   26.72    0.83 
 -14   0   8   27.85    0.87 
 -14   0   8   27.40    0.95 
 -12   0   8    6.95    0.40 
 -12   0   8    7.57    0.38 
 -10   0   8  159.02    3.73 
 -10   0   8  154.59    3.72 
  -8   0   8    7.35    0.35 
  -8   0   8    7.57    0.37 
  -6   0   8    0.16    0.11 
  -6   0   8    0.24    0.11 
  -4   0   8   51.80    1.32 
  -4   0   8   51.00    1.36 
  -2   0   8   25.26    0.77 
  -2   0   8   24.62    0.74 
   0   0   8   78.95    1.96 
   0   0   8   76.69    1.96 
   2   0   8   89.43    2.21 
   2   0   8   84.56    2.16 
   4   0   8    1.31    0.20 
   4   0   8    1.10    0.21 
   6   0   8   10.83    0.48 
   6   0   8   11.21    0.56 
   8   0   8   33.97    1.05 
   8   0   8   36.00    1.18 
  10   0   8   11.43    0.53 
  10   0   8    9.72    0.61 
  12   0   8    5.61    0.53 
  14   0   8    0.95    0.32 
  25  -1  -8   -0.12    0.19 
  25   1  -8   -0.18    0.20 
  23  -1  -8    6.82    0.50 
  23   1  -8    6.20    0.51 
  23   1  -8    8.45    0.48 
  21  -1  -8    5.57    0.36 
  21  -1  -8    4.81    0.40 
 -21  -1   8    5.36    0.60 
  21   1  -8    4.59    0.41 
  21   1  -8    4.96    0.37 
  19  -1  -8   12.01    0.57 
  19  -1  -8   12.79    0.52 
 -19  -1   8   11.55    0.72 
 -19  -1   8   12.03    0.57 
  19   1  -8   11.68    0.58 
  19   1  -8   12.52    0.54 
 -19   1   8   12.67    0.55 
  17  -1  -8   41.01    1.19 
 -17  -1   8   39.28    1.37 
  17  -1  -8   40.63    1.15 
 -17  -1   8   41.25    1.23 
  17   1  -8   40.97    1.19 
 -17   1   8   41.72    1.19 
 -17   1   8   39.47    1.32 
  17   1  -8   41.33    1.23 
 -15  -1   8   18.83    0.79 
 -15  -1   8   19.26    0.69 
  15  -1  -8   18.62    0.64 
 -15   1   8   18.17    0.66 
  15   1  -8   18.67    0.65 
 -15   1   8   19.08    0.76 
  15   1  -8   18.37    0.67 
 -13  -1   8    0.14    0.16 
 -13  -1   8    0.30    0.14 
  13  -1  -8    0.29    0.10 
 -13   1   8    0.19    0.15 
 -13   1   8    0.31    0.14 
 -11  -1   8   18.01    0.63 
 -11  -1   8   17.46    0.66 
 -11   1   8   16.26    0.60 
 -11   1   8   17.49    0.61 
  -9  -1   8    2.97    0.26 
  -9  -1   8    2.93    0.27 
  -9   1   8    2.85    0.23 
  -9   1   8    3.38    0.26 
  -7  -1   8    8.04    0.38 
   7  -1  -8    8.28    0.30 
  -7  -1   8    7.76    0.37 
  -7   1   8    7.90    0.38 
  -7   1   8    8.14    0.32 
  -5  -1   8    2.83    0.24 
  -5  -1   8    2.84    0.25 
  -5   1   8    3.30    0.25 
  -5   1   8    2.92    0.19 
  -3  -1   8    8.26    0.37 
  -3  -1   8    8.19    0.38 
  -3   1   8    8.29    0.33 
  -3   1   8    9.02    0.40 
  -1  -1   8   27.07    0.82 
  -1  -1   8   27.00    0.82 
  -1   1   8   27.14    0.83 
  -1   1   8   27.12    0.79 
   1  -1   8   91.84    2.29 
   1  -1   8   93.90    2.33 
   1   1   8   93.15    2.31 
   1   1   8   93.83    2.30 
   3  -1   8   13.43    0.55 
   3  -1   8   12.31    0.49 
   3   1   8   12.56    0.52 
   3   1   8   12.36    0.51 
   5  -1   8    0.51    0.17 
   5  -1   8    0.24    0.13 
   5   1   8    0.50    0.18 
   5   1   8    0.40    0.15 
   7  -1   8    4.02    0.31 
   7  -1   8    4.02    0.39 
   7   1   8    4.63    0.35 
   7   1   8    4.23    0.39 
   9  -1   8    0.83    0.26 
   9  -1   8    0.42    0.17 
   9   1   8    0.53    0.19 
   9   1   8    0.61    0.23 
  11  -1   8    5.78    0.52 
  11   1   8    5.73    0.43 
  11   1   8    4.27    0.47 
  13  -1   8    2.78    0.44 
  13   1   8    3.64    0.47 
  15  -1   8    0.73    0.34 
  15   1   8    0.94    0.35 
  26  -2  -8    0.16    0.24 
  26   2  -8   -0.01    0.21 
  24  -2  -8    0.01    0.19 
 -24  -2   8    0.63    0.36 
  24   2  -8    0.10    0.22 
  24   2  -8    0.07    0.17 
  22  -2  -8    4.70    0.41 
 -22  -2   8    5.98    0.67 
  22   2  -8    6.00    0.41 
  22   2  -8    4.25    0.43 
  20  -2  -8    0.11    0.16 
 -20  -2   8    0.33    0.26 
  20  -2  -8    0.46    0.16 
 -20   2   8    0.20    0.16 
  20   2  -8    0.36    0.17 
  20   2  -8    0.24    0.19 
  18  -2  -8    7.28    0.41 
 -18  -2   8    7.07    0.44 
  18  -2  -8    8.16    0.39 
 -18  -2   8    7.62    0.58 
  18   2  -8    6.59    0.40 
 -18   2   8    7.85    0.42 
  18   2  -8    7.58    0.46 
 -16  -2   8    7.98    0.45 
 -16  -2   8    7.73    0.55 
  16  -2  -8    7.43    0.38 
  16   2  -8    8.26    0.42 
 -16   2   8    7.78    0.49 
 -16   2   8    8.58    0.41 
 -14  -2   8    2.24    0.32 
 -14  -2   8    2.86    0.28 
  14  -2  -8    2.81    0.22 
 -14   2   8    3.37    0.31 
 -14   2   8    2.61    0.26 
  14   2  -8    2.94    0.26 
 -12  -2   8    6.74    0.37 
  12  -2  -8    6.61    0.29 
 -12  -2   8    6.85    0.43 
 -12   2   8    6.90    0.36 
 -12   2   8    6.30    0.35 
 -10  -2   8   31.48    0.94 
 -10  -2   8   30.54    0.98 
  10  -2  -8   31.06    0.88 
 -10   2   8   29.15    0.85 
 -10   2   8   31.66    0.91 
   8  -2  -8   -0.03    0.05 
  -8  -2   8   -0.07    0.11 
  -8  -2   8   -0.03    0.12 
  -8   2   8   -0.25    0.09 
  -8   2   8    0.03    0.08 
  -6  -2   8   14.38    0.55 
   6  -2  -8   15.08    0.42 
  -6  -2   8   15.12    0.56 
  -6   2   8   13.79    0.52 
  -6   2   8   14.50    0.44 
   4  -2  -8    0.81    0.10 
  -4  -2   8    0.86    0.17 
  -4  -2   8    0.64    0.16 
  -4   2   8    0.72    0.11 
  -4   2   8    0.83    0.17 
  -2  -2   8   21.82    0.71 
  -2  -2   8   21.46    0.69 
  -2   2   8   21.26    0.63 
  -2   2   8   21.46    0.71 
   0  -2   8   12.24    0.50 
   0  -2   8   11.84    0.47 
   0   2   8   12.28    0.50 
   0   2   8   12.23    0.45 
   2  -2   8   42.63    1.18 
   2  -2   8   44.05    1.26 
   2   2   8   44.45    1.21 
   2   2   8   42.44    1.22 
   4  -2   8    0.44    0.14 
   4  -2   8    0.49    0.18 
   4   2   8    0.22    0.14 
   4   2   8    0.33    0.15 
   6  -2   8    0.09    0.17 
   6  -2   8    0.21    0.13 
   6   2   8    0.13    0.16 
   6   2   8    0.38    0.16 
   8  -2   8    1.10    0.20 
   8  -2   8    0.99    0.26 
   8   2   8    0.50    0.22 
   8   2   8    1.06    0.22 
  10  -2   8    0.71    0.27 
  10   2   8    0.47    0.24 
  10   2   8    0.32    0.18 
  12  -2   8    0.26    0.26 
  12   2   8    0.54    0.27 
  12   2   8    0.39    0.21 
  14  -2   8    0.31    0.28 
  14   2   8   -0.05    0.26 
  25  -3  -8    3.60    0.43 
 -25  -3   8    4.06    0.65 
  25   3  -8    4.09    0.50 
  25   3  -8    3.26    0.39 
 -23  -3   8    0.15    0.31 
  23  -3  -8    0.40    0.20 
  23   3  -8    0.25    0.19 
  23   3  -8   -0.07    0.21 
  21  -3  -8    2.11    0.29 
 -21  -3   8    2.85    0.48 
  21   3  -8    2.15    0.34 
  21   3  -8    3.14    0.35 
  19  -3  -8   12.84    0.56 
 -19  -3   8   12.90    0.79 
  19  -3  -8   14.42    0.53 
  19   3  -8   12.71    0.58 
 -19   3   8   12.84    0.53 
  19   3  -8   12.67    0.63 
 -17  -3   8   16.68    0.83 
  17  -3  -8   17.06    0.62 
 -17  -3   8   16.79    0.70 
  17   3  -8   17.32    0.70 
  17   3  -8   18.34    0.69 
 -17   3   8   16.09    0.61 
 -15  -3   8    4.55    0.35 
  15  -3  -8    4.36    0.27 
 -15  -3   8    4.26    0.46 
 -15   3   8    4.74    0.31 
  15   3  -8    4.15    0.32 
  13  -3  -8   11.63    0.40 
 -13  -3   8   10.79    0.51 
 -13  -3   8   11.86    0.60 
 -13   3   8   10.85    0.46 
  13   3  -8   10.27    0.47 
 -11  -3   8    0.51    0.19 
 -11  -3   8    0.16    0.14 
  11  -3  -8    0.11    0.09 
  11  -3  -8    0.41    0.09 
 -11   3   8    0.07    0.12 
  11   3  -8    0.20    0.13 
 -11   3   8    0.38    0.12 
   9  -3  -8    5.69    0.21 
   9  -3  -8    5.66    0.20 
  -9  -3   8    6.04    0.38 
  -9  -3   8    5.32    0.32 
  -9   3   8    5.66    0.32 
  -9   3   8    5.30    0.24 
  -7  -3   8   22.74    0.77 
   7  -3  -8   22.46    0.54 
  -7  -3   8   21.90    0.73 
  -7   3   8   21.90    0.57 
  -7   3   8   21.94    0.71 
   5  -3  -8    0.06    0.05 
  -5  -3   8   -0.05    0.11 
  -5  -3   8    0.16    0.13 
  -5   3   8   -0.06    0.11 
  -5   3   8    0.05    0.06 
  -3  -3   8   20.10    0.69 
   3  -3  -8   20.37    0.55 
  -3  -3   8   19.57    0.65 
  -3   3   8   18.98    0.66 
  -3   3   8   19.96    0.56 
  -1  -3   8   22.34    0.69 
  -1  -3   8   21.33    0.73 
  -1   3   8   21.48    0.63 
  -1   3   8   19.94    0.70 
   1  -3   8    6.20    0.33 
   1  -3   8    6.04    0.37 
   1   3   8    6.41    0.32 
   1   3   8    5.73    0.35 
   3  -3   8    6.82    0.34 
   3  -3   8    6.45    0.41 
   3   3   8    6.61    0.39 
   3   3   8    7.01    0.38 
   5  -3   8    2.66    0.32 
   5  -3   8    2.85    0.25 
   5   3   8    2.70    0.30 
   5   3   8    3.10    0.30 
   7  -3   8    4.54    0.30 
   7  -3   8    4.81    0.45 
   7   3   8    4.25    0.35 
   7   3   8    4.43    0.39 
   9  -3   8    1.40    0.31 
   9   3   8    1.36    0.28 
   9   3   8    1.34    0.26 
  11  -3   8    3.53    0.46 
  11   3   8    3.03    0.34 
  11   3   8    3.52    0.42 
  13  -3   8    3.35    0.48 
  13   3   8    2.24    0.39 
  13   3   8    3.29    0.38 
  15  -3   8    0.13    0.30 
  15   3   8   -0.16    0.27 
 -26  -4   8    1.96    0.53 
  26   4  -8    1.96    0.41 
 -24  -4   8    2.93    0.54 
  24  -4  -8    3.60    0.41 
  24   4  -8    2.77    0.41 
  24   4  -8    3.34    0.39 
 -22  -4   8    0.54    0.32 
  22  -4  -8    0.59    0.21 
  22   4  -8    0.34    0.20 
  22   4  -8    0.67    0.26 
 -20  -4   8    1.13    0.36 
  20  -4  -8    0.77    0.20 
  20   4  -8    0.53    0.23 
  20   4  -8    0.88    0.22 
  18  -4  -8    2.10    0.22 
  18  -4  -8    2.16    0.24 
 -18  -4   8    2.23    0.41 
  18   4  -8    2.25    0.32 
 -18   4   8    1.77    0.23 
  18   4  -8    1.77    0.27 
 -16  -4   8    0.04    0.22 
 -16  -4   8    0.09    0.16 
  16  -4  -8    0.38    0.13 
 -16   4   8    0.38    0.15 
  16   4  -8   -0.04    0.14 
  14  -4  -8    1.57    0.16 
 -14  -4   8    1.28    0.28 
 -14  -4   8    2.55    0.31 
 -14   4   8    1.82    0.21 
  14   4  -8    2.21    0.27 
 -12  -4   8    0.78    0.19 
  12  -4  -8    0.79    0.11 
 -12  -4   8    0.54    0.22 
 -12   4   8    0.61    0.15 
  12   4  -8    0.86    0.17 
 -10  -4   8   38.89    1.17 
  10  -4  -8   40.14    0.97 
  10  -4  -8   39.59    0.95 
 -10  -4   8   39.53    1.24 
 -10   4   8   41.85    1.12 
  10   4  -8   38.70    1.13 
  -8  -4   8    0.19    0.13 
  -8  -4   8    0.14    0.15 
  -8   4   8    0.36    0.13 
  -6  -4   8   25.82    0.84 
  -6  -4   8   28.82    0.91 
  -6   4   8   27.60    0.84 
  -4  -4   8    0.00    0.14 
   4  -4  -8    0.19    0.06 
  -4  -4   8    0.23    0.13 
  -4   4   8   -0.04    0.10 
  -4   4   8    0.14    0.06 
  -4   4   8    0.02    0.08 
  -2  -4   8    1.30    0.20 
  -2  -4   8    1.18    0.18 
  -2   4   8    1.31    0.14 
  -2   4   8    1.38    0.20 
   0  -4   8   38.26    1.07 
   0  -4   8   38.11    1.16 
   0   4   8   38.41    1.13 
   0   4   8   39.17    1.03 
   2  -4   8    6.90    0.43 
   2  -4   8    6.61    0.34 
   2   4   8    6.82    0.35 
   2   4   8    6.87    0.40 
   4  -4   8    7.43    0.46 
   4  -4   8    6.73    0.34 
   4   4   8    6.17    0.40 
   4   4   8    6.91    0.39 
   6  -4   8    9.69    0.56 
   6  -4   8    9.75    0.42 
   6   4   8    8.59    0.49 
   6   4   8    9.83    0.51 
   8  -4   8    0.87    0.27 
   8   4   8    0.38    0.22 
   8   4   8    0.71    0.21 
  10  -4   8    0.33    0.26 
  10   4   8    0.54    0.21 
  10   4   8    0.01    0.20 
  12  -4   8    0.84    0.30 
  12   4   8    0.43    0.25 
  12   4   8    0.47    0.22 
  14  -4   8    0.01    0.28 
  14   4   8    0.71    0.27 
  14   4   8    0.36    0.30 
 -25  -5   8   -0.01    0.36 
  25   5  -8   -0.07    0.24 
  25   5  -8   -0.13    0.20 
 -23  -5   8    1.15    0.40 
  23   5  -8    1.11    0.32 
  23   5  -8    1.44    0.29 
 -21  -5   8    0.32    0.32 
  21  -5  -8    0.66    0.20 
  21   5  -8    0.26    0.20 
  21   5  -8    0.25    0.22 
 -19  -5   8    5.26    0.59 
  19  -5  -8    4.53    0.33 
  19   5  -8    4.78    0.44 
  19   5  -8    5.06    0.41 
 -17  -5   8   19.21    0.94 
  17  -5  -8   18.36    0.65 
 -17   5   8   19.96    0.67 
  17   5  -8   20.45    0.77 
 -15  -5   8    8.38    0.50 
  15  -5  -8    9.06    0.37 
 -15  -5   8    8.73    0.61 
  15   5  -8    9.58    0.49 
 -15   5   8    9.01    0.41 
 -13  -5   8   11.10    0.54 
  13  -5  -8   10.53    0.36 
 -13  -5   8   10.28    0.61 
 -13   5   8   10.79    0.45 
  13   5  -8   10.17    0.49 
  11  -5  -8    9.38    0.31 
 -11  -5   8    9.77    0.47 
 -11  -5   8   11.08    0.59 
  11  -5  -8    9.81    0.29 
 -11   5   8   10.03    0.43 
  11   5  -8    9.12    0.45 
  -9  -5   8   -0.18    0.11 
  -9  -5   8    0.02    0.16 
   9   5  -8    0.06    0.12 
  -9   5   8   -0.04    0.11 
  -7  -5   8    4.49    0.32 
  -7  -5   8    5.27    0.38 
  -7   5   8    5.40    0.31 
   7   5  -8    5.24    0.31 
  -5  -5   8    2.43    0.28 
  -5  -5   8    2.70    0.25 
  -5   5   8    2.61    0.25 
  -3  -5   8    0.97    0.18 
  -3  -5   8    1.11    0.21 
  -3   5   8    1.10    0.11 
  -3   5   8    0.96    0.13 
  -3   5   8    0.95    0.18 
  -1  -5   8    1.64    0.25 
  -1  -5   8    1.23    0.18 
  -1   5   8    1.40    0.20 
  -1   5   8    1.74    0.17 
   1  -5   8   59.79    1.53 
   1  -5   8   57.70    1.66 
   1   5   8   59.71    1.51 
   1   5   8   58.68    1.61 
   3  -5   8   28.80    1.01 
   3  -5   8   29.50    0.88 
   3   5   8   30.35    0.98 
   3   5   8   30.66    0.91 
   5  -5   8    2.09    0.21 
   5  -5   8    1.76    0.28 
   5   5   8    1.90    0.28 
   5   5   8    2.09    0.26 
   7  -5   8   17.87    0.80 
   7   5   8   16.36    0.70 
   7   5   8   17.61    0.73 
   9  -5   8    0.05    0.22 
   9   5   8   -0.24    0.17 
   9   5   8   -0.07    0.17 
  11  -5   8    6.09    0.56 
  11   5   8    5.71    0.47 
  11   5   8    5.37    0.50 
  13  -5   8    1.13    0.34 
  13   5   8    1.70    0.33 
  13   5   8    1.29    0.33 
 -24  -6   8    3.06    0.60 
  24   6  -8    3.59    0.42 
  24   6  -8    2.53    0.43 
 -22  -6   8    0.13    0.31 
  22   6  -8    0.03    0.21 
  22   6  -8    0.02    0.23 
 -20  -6   8    0.75    0.34 
  20   6  -8    0.49    0.24 
  20   6  -8    0.94    0.26 
 -18  -6   8    4.99    0.58 
  18  -6  -8    4.75    0.36 
  18   6  -8    4.53    0.41 
  16  -6  -8   55.23    1.42 
 -16  -6   8   55.58    1.82 
 -16   6   8   55.88    1.46 
  16   6  -8   53.00    1.57 
 -14  -6   8   26.23    1.05 
  14  -6  -8   25.17    0.71 
 -14  -6   8   25.66    0.92 
  14   6  -8   25.48    0.88 
 -14   6   8   24.84    0.79 
  12  -6  -8    3.67    0.17 
 -12  -6   8    3.44    0.33 
 -12  -6   8    4.30    0.43 
  12   6  -8    3.15    0.30 
 -12   6   8    3.43    0.27 
 -10  -6   8   10.77    0.52 
 -10  -6   8   10.40    0.59 
  10   6  -8   11.16    0.50 
 -10   6   8   11.44    0.46 
  -8  -6   8    2.75    0.34 
  -8  -6   8    2.10    0.26 
   8   6  -8    1.77    0.22 
  -8   6   8    2.35    0.24 
  -6  -6   8    0.80    0.18 
  -6  -6   8    1.01    0.22 
   6   6  -8    1.06    0.18 
  -6   6   8    0.82    0.17 
  -4  -6   8    0.11    0.12 
  -4  -6   8    0.00    0.13 
  -4   6   8   -0.03    0.12 
  -4   6   8    0.02    0.05 
  -2  -6   8    2.92    0.32 
  -2  -6   8    2.51    0.25 
  -2   6   8    3.08    0.18 
  -2   6   8    3.18    0.29 
   0  -6   8   39.70    1.11 
   0  -6   8   39.73    1.24 
   0   6   8   39.71    1.18 
   0   6   8   39.47    1.05 
   2  -6   8    4.85    0.30 
   2  -6   8    4.53    0.39 
   2   6   8    4.23    0.35 
   2   6   8    4.75    0.30 
   4  -6   8    0.20    0.12 
   4  -6   8    0.48    0.19 
   4   6   8    0.18    0.15 
   4   6   8    0.03    0.16 
   6  -6   8    0.33    0.22 
   6   6   8    0.14    0.17 
   6   6   8    0.22    0.19 
   8  -6   8    2.44    0.38 
   8   6   8    3.02    0.36 
   8   6   8    3.18    0.36 
  10  -6   8    0.61    0.29 
  10   6   8    0.62    0.26 
  10   6   8    0.35    0.23 
  12  -6   8   -0.08    0.24 
  12   6   8   -0.02    0.22 
  12   6   8    0.07    0.22 
  14  -6   8    3.32    0.52 
  14   6   8    2.43    0.44 
  14   6   8    2.50    0.38 
 -23  -7   8    0.55    0.38 
  23   7  -8    0.66    0.26 
  23   7  -8    0.14    0.24 
 -21  -7   8   -0.31    0.28 
  21   7  -8    0.02    0.21 
  21   7  -8   -0.05    0.21 
 -19  -7   8    5.16    0.63 
  19   7  -8    7.05    0.49 
 -17  -7   8    0.04    0.25 
  17   7  -8   -0.01    0.18 
 -15  -7   8    0.01    0.22 
 -15   7   8    0.08    0.12 
  15   7  -8    0.06    0.18 
 -13  -7   8    0.53    0.26 
 -13  -7   8    0.21    0.17 
  13   7  -8    0.40    0.17 
 -13   7   8    0.19    0.13 
 -11  -7   8    0.87    0.27 
 -11  -7   8    1.12    0.24 
  11   7  -8    1.01    0.21 
 -11   7   8    0.90    0.17 
  -9  -7   8    1.21    0.28 
  -9  -7   8    0.45    0.18 
   9   7  -8    0.73    0.18 
  -9   7   8    1.11    0.19 
  -7  -7   8    1.43    0.22 
  -7  -7   8    1.12    0.26 
   7   7  -8    1.63    0.21 
  -7   7   8    1.41    0.21 
  -5  -7   8    3.36    0.29 
  -5  -7   8    3.56    0.38 
  -5   7   8    2.91    0.28 
   5   7  -8    3.58    0.27 
  -3  -7   8    4.56    0.32 
  -3  -7   8    5.04    0.40 
  -3   7   8    4.34    0.33 
  -3   7   8    4.86    0.20 
   3   7  -8    5.50    0.32 
  -3   7   8    4.62    0.22 
  -1  -7   8    0.04    0.16 
  -1  -7   8    0.14    0.13 
  -1   7   8    0.18    0.14 
   1   7  -8   -0.02    0.10 
  -1   7   8    0.08    0.09 
   1  -7   8    6.12    0.44 
   1  -7   8    4.97    0.31 
   1   7   8    5.70    0.40 
   1   7   8    5.73    0.31 
   3  -7   8    3.90    0.42 
   3  -7   8    3.72    0.27 
   3   7   8    3.95    0.30 
   3   7   8    3.12    0.33 
   5  -7   8    2.41    0.36 
   5   7   8    2.83    0.30 
   5   7   8    2.31    0.31 
   7  -7   8    1.04    0.28 
   7   7   8    1.19    0.25 
   7   7   8    0.95    0.25 
   9  -7   8    2.41    0.38 
   9   7   8    2.41    0.36 
   9   7   8    2.01    0.34 
  11  -7   8    0.37    0.29 
  11   7   8    0.14    0.23 
  11   7   8   -0.24    0.20 
  13  -7   8    0.36    0.30 
  13   7   8    0.36    0.26 
  13   7   8    0.23    0.27 
 -24  -8   8    0.27    0.38 
  24   8  -8    0.19    0.29 
  24   8  -8    0.09    0.23 
 -22  -8   8    0.80    0.41 
  22   8  -8    0.27    0.24 
  22   8  -8    0.46    0.27 
 -20  -8   8   -0.21    0.29 
  20   8  -8   -0.19    0.20 
 -18  -8   8   15.02    0.93 
  18   8  -8   14.91    0.72 
 -16  -8   8    5.75    0.60 
  16   8  -8    6.26    0.46 
 -14  -8   8    8.04    0.64 
 -14   8   8    7.78    0.39 
  14   8  -8    7.91    0.49 
 -12  -8   8    8.86    0.63 
 -12   8   8    9.20    0.43 
  12   8  -8   10.09    0.52 
 -10  -8   8    3.50    0.44 
 -10  -8   8    2.58    0.31 
 -10   8   8    3.26    0.28 
  10   8  -8    2.46    0.28 
  -8  -8   8    8.20    0.54 
  -8  -8   8    8.79    0.48 
   8   8  -8    8.76    0.45 
  -8   8   8    7.90    0.42 
  -6  -8   8    0.77    0.19 
  -6  -8   8    0.98    0.25 
  -6   8   8    0.67    0.17 
   6   8  -8    0.53    0.17 
  -4  -8   8    0.27    0.17 
  -4  -8   8    0.37    0.16 
   4   8  -8    0.37    0.15 
  -4   8   8    0.41    0.07 
  -4   8   8    0.39    0.16 
  -2  -8   8    6.39    0.45 
  -2  -8   8    6.61    0.38 
   2   8  -8    6.18    0.34 
  -2   8   8    6.06    0.40 
  -2   8   8    5.87    0.26 
   0  -8   8    3.34    0.39 
   0  -8   8    2.90    0.27 
   0   8   8    3.07    0.23 
   0   8  -8    2.73    0.24 
   0   8   8    2.15    0.28 
   2  -8   8    2.13    0.23 
   2  -8   8    0.99    0.25 
   2   8   8    1.28    0.25 
  -2   8  -8    1.73    0.19 
   2   8   8    1.47    0.20 
   4  -8   8   17.89    0.82 
   4   8   8   17.38    0.66 
   4   8   8   17.90    0.76 
   6  -8   8   11.83    0.69 
   6   8   8   12.66    0.65 
   6   8   8   11.71    0.57 
   8  -8   8    0.43    0.26 
   8   8   8    0.66    0.24 
   8   8   8    0.72    0.26 
  10  -8   8    1.32    0.36 
  10   8   8    1.33    0.31 
  10   8   8    0.36    0.25 
  12  -8   8    0.86    0.34 
  12   8   8    0.83    0.30 
  12   8   8    0.45    0.28 
 -23  -9   8    0.62    0.44 
  23   9  -8    0.49    0.26 
  23   9  -8   -0.08    0.26 
 -21  -9   8   -0.34    0.31 
  21   9  -8    0.41    0.25 
  21   9  -8    0.08    0.26 
 -19  -9   8    3.52    0.58 
  19   9  -8    4.54    0.47 
 -17  -9   8    1.86    0.44 
  17   9  -8    1.87    0.33 
 -15  -9   8    8.23    0.68 
  15   9  -8    8.37    0.53 
 -13  -9   8   26.82    1.17 
 -13   9   8   27.87    0.86 
  13   9  -8   27.80    0.99 
 -11  -9   8   24.93    1.07 
  11   9  -8   24.33    0.88 
 -11   9   8   23.49    0.79 
  -9  -9   8   36.38    1.34 
  -9   9   8   38.04    1.11 
   9   9  -8   37.89    1.16 
  -7  -9   8   10.40    0.53 
  -7  -9   8    9.11    0.60 
  -7   9   8    7.98    0.44 
   7   9  -8    9.67    0.48 
  -5  -9   8    8.99    0.48 
  -5  -9   8    8.70    0.58 
   5   9  -8    9.80    0.46 
  -5   9   8    9.90    0.48 
  -3  -9   8    6.85    0.50 
  -3  -9   8    6.30    0.39 
   3   9  -8    6.19    0.36 
  -3   9   8    6.67    0.42 
  -1  -9   8    0.25    0.21 
  -1  -9   8    0.04    0.14 
  -1   9   8    0.30    0.12 
   1   9  -8    0.54    0.15 
  -1   9   8    0.39    0.19 
   1  -9   8    3.37    0.43 
   1  -9   8    3.32    0.29 
  -1   9  -8    2.95    0.25 
   1   9   8    2.96    0.26 
   1   9   8    3.22    0.36 
   3  -9   8   19.19    0.86 
   3   9   8   18.47    0.78 
   3   9   8   17.37    0.66 
   5  -9   8    1.04    0.29 
   5   9   8    0.94    0.26 
   7  -9   8    4.08    0.50 
   7   9   8    4.73    0.49 
   7   9   8    5.13    0.43 
   9  -9   8    0.31    0.27 
   9   9   8    0.45    0.25 
   9   9   8    0.16    0.21 
  11  -9   8    0.73    0.33 
  11   9   8    0.60    0.27 
  11   9   8    0.41    0.27 
 -22 -10   8   -0.05    0.34 
  22  10  -8    0.04    0.28 
  22  10  -8    0.24    0.25 
 -20 -10   8    1.05    0.44 
  20  10  -8    1.23    0.32 
 -18 -10   8    0.37    0.36 
  18  10  -8    0.03    0.22 
 -16 -10   8    6.29    0.67 
  16  10  -8    6.51    0.51 
 -14 -10   8    0.24    0.28 
  14  10  -8    0.37    0.20 
 -12 -10   8   -0.05    0.24 
  12  10  -8   -0.09    0.16 
 -12  10   8    0.11    0.13 
 -10 -10   8    2.66    0.43 
 -10  10   8    1.44    0.23 
  10  10  -8    1.36    0.25 
  -8 -10   8   -0.13    0.21 
   8  10  -8    0.03    0.16 
  -8  10   8    0.06    0.14 
  -6 -10   8   16.21    0.81 
  -6  10   8   16.13    0.65 
   6  10  -8   13.48    0.60 
  -4 -10   8    2.19    0.36 
  -4  10   8    1.71    0.26 
   4  10  -8    2.28    0.26 
  -2 -10   8    3.23    0.40 
  -2 -10   8    4.15    0.34 
   2  10  -8    3.96    0.30 
  -2  10   8    4.80    0.39 
   0 -10   8    3.64    0.43 
   0 -10   8    3.39    0.31 
   0  10   8    3.76    0.38 
   0  10  -8    3.52    0.28 
   2 -10   8    0.18    0.23 
   2  10   8    0.13    0.20 
   4 -10   8    0.84    0.29 
   4  10   8    0.82    0.27 
   6 -10   8    2.44    0.41 
   6  10   8    2.62    0.39 
   6  10   8    2.10    0.31 
   8 -10   8   -0.12    0.25 
   8  10   8   -0.05    0.24 
   8  10   8   -0.12    0.19 
  10 -10   8    0.16    0.29 
  10  10   8    0.25    0.28 
  10  10   8   -0.03    0.23 
 -21 -11   8    0.26    0.39 
  21  11  -8    0.05    0.24 
 -19 -11   8    0.17    0.37 
  19  11  -8    0.41    0.25 
 -17 -11   8    0.16    0.33 
  17  11  -8   -0.31    0.20 
 -15 -11   8    0.20    0.31 
  15  11  -8    0.26    0.23 
 -13 -11   8    0.66    0.35 
  13  11  -8    0.44    0.23 
 -11 -11   8    1.95    0.43 
 -11  11   8    1.05    0.20 
  11  11  -8    1.07    0.25 
  -9 -11   8   21.67    1.05 
  -9  11   8   22.17    0.80 
   9  11  -8   23.72    0.86 
  -7 -11   8   19.94    0.95 
   7  11  -8   18.91    0.75 
  -7  11   8   19.05    0.74 
  -5 -11   8    2.37    0.41 
   5  11  -8    2.32    0.29 
  -5  11   8    2.51    0.31 
  -3 -11   8    0.73    0.27 
   3  11  -8    1.13    0.22 
  -3  11   8    1.07    0.24 
  -1 -11   8    0.39    0.24 
  -1  11   8    0.31    0.21 
   1  11  -8   -0.02    0.14 
   1 -11   8    0.15    0.24 
   1  11   8   -0.06    0.19 
   3 -11   8    1.30    0.34 
   3  11   8    0.95    0.28 
   5 -11   8    0.51    0.29 
   5  11   8    0.50    0.27 
   7 -11   8    0.42    0.28 
   7  11   8    0.18    0.26 
   9 -11   8    2.87    0.49 
   9  11   8    2.77    0.44 
  20  12  -8   -0.24    0.26 
 -18 -12   8    0.19    0.38 
  18  12  -8    0.22    0.25 
 -16 -12   8    1.03    0.40 
  16  12  -8    0.34    0.26 
 -14 -12   8    2.02    0.47 
  14  12  -8    2.13    0.37 
 -12 -12   8    1.10    0.35 
  12  12  -8    1.09    0.29 
 -10 -12   8    0.21    0.28 
 -10  12   8    0.11    0.16 
  10  12  -8   -0.16    0.17 
  -8 -12   8    0.17    0.27 
   8  12  -8    0.20    0.19 
  -8  12   8   -0.07    0.15 
  -6 -12   8    2.60    0.45 
  -6  12   8    2.39    0.32 
   6  12  -8    3.26    0.35 
  -4 -12   8    0.36    0.28 
  -4  12   8    0.17    0.20 
   4  12  -8    0.34    0.18 
  -2 -12   8    5.96    0.58 
  -2  12   8    6.62    0.49 
   0 -12   8    2.30    0.41 
   0  12   8    2.36    0.34 
   2 -12   8    0.88    0.33 
   2  12   8    1.10    0.30 
   4 -12   8    1.05    0.36 
   4  12   8    1.43    0.34 
   6 -12   8   -0.05    0.27 
   6  12   8    0.23    0.25 
   8 -12   8    0.72    0.33 
   8  12   8    1.03    0.34 
 -17 -13   8    1.35    0.47 
  17  13  -8    0.84    0.29 
 -15 -13   8   -0.18    0.29 
  15  13  -8    0.10    0.22 
 -13 -13   8   10.54    0.85 
  13  13  -8   10.64    0.66 
 -11 -13   8    6.39    0.70 
  11  13  -8    5.86    0.49 
  -9 -13   8    4.11    0.57 
  -9  13   8    3.62    0.36 
   9  13  -8    4.72    0.45 
  -7 -13   8    0.15    0.28 
   7  13  -8    0.00    0.20 
  -7  13   8    0.14    0.18 
  -5 -13   8    0.27    0.28 
   5  13  -8    0.57    0.23 
  -5  13   8    0.52    0.21 
  -3 -13   8    1.51    0.39 
   3  13  -8    0.69    0.21 
  -3  13   8    0.88    0.25 
  -1 -13   8    0.94    0.33 
  -1  13   8    0.58    0.25 
   1 -13   8    0.23    0.29 
   1  13   8    0.40    0.24 
   3 -13   8   -0.34    0.25 
   3  13   8   -0.17    0.22 
   5 -13   8    2.22    0.46 
   5  13   8    2.09    0.40 
   7 -13   8    2.08    0.45 
   7  13   8    2.32    0.43 
 -16 -14   8    0.11    0.36 
  16  14  -8    0.09    0.24 
 -14 -14   8   -0.05    0.35 
  14  14  -8    0.43    0.26 
 -12 -14   8    2.01    0.48 
  12  14  -8    1.90    0.34 
 -10 -14   8    2.08    0.48 
  10  14  -8    2.23    0.35 
  -8 -14   8   -0.01    0.31 
  -8  14   8    0.33    0.20 
   8  14  -8    0.09    0.21 
  -6 -14   8    0.69    0.36 
  -6  14   8    0.29    0.21 
   6  14  -8    0.49    0.24 
  -4 -14   8    1.98    0.45 
  -4  14   8    1.54    0.31 
   4  14  -8    2.63    0.33 
  -2 -14   8    0.37    0.32 
  -2  14   8    0.88    0.28 
   0 -14   8    1.80    0.42 
   0  14   8    2.51    0.39 
   2 -14   8   -0.10    0.27 
   2  14   8   -0.25    0.22 
   4 -14   8    0.12    0.31 
   4  14   8    0.26    0.28 
 -13 -15   8    0.36    0.38 
  13  15  -8    0.52    0.28 
 -11 -15   8    0.47    0.38 
  11  15  -8   -0.11    0.21 
  -9 -15   8    0.54    0.36 
   9  15  -8    0.36    0.24 
  -7 -15   8    1.89    0.48 
  -7  15   8    1.32    0.27 
   7  15  -8    1.17    0.27 
  -5 -15   8    0.21    0.33 
  -5  15   8    0.34    0.22 
   5  15  -8    0.18    0.19 
  -3 -15   8    1.59    0.43 
  -3  15   8    1.12    0.30 
  -1 -15   8    0.84    0.39 
  -1  15   8    1.08    0.30 
   1 -15   8    0.37    0.34 
   1  15   8    0.18    0.27 
  -8 -16   8    1.15    0.42 
   8  16  -8    1.63    0.33 
  -6 -16   8    0.09    0.34 
  -6  16   8   -0.15    0.19 
   6  16  -8   -0.02    0.21 
  -4 -16   8    0.45    0.37 
  -4  16   8    0.41    0.24 
  -2 -16   8    0.36    0.37 
  -2  16   8    0.59    0.27 
  26   0  -9   -0.04    0.22 
  24   0  -9   -0.11    0.18 
 -22   0   9    0.11    0.26 
  22   0  -9   -0.03    0.14 
  22   0  -9   -0.03    0.17 
  20   0  -9   -0.04    0.15 
 -20   0   9   -0.07    0.14 
 -20   0   9   -0.07    0.21 
  20   0  -9   -0.16    0.12 
 -18   0   9    0.08    0.20 
  18   0  -9    0.08    0.14 
  18   0  -9    0.14    0.13 
 -18   0   9    0.17    0.16 
 -16   0   9   -0.02    0.14 
  16   0  -9    0.03    0.11 
 -16   0   9   -0.03    0.17 
  16   0  -9    0.06    0.12 
 -14   0   9   -0.05    0.14 
 -14   0   9   -0.05    0.12 
 -12   0   9   -0.08    0.11 
 -12   0   9   -0.08    0.12 
 -10   0   9   -0.15    0.11 
 -10   0   9   -0.02    0.12 
  -8   0   9   -0.07    0.10 
  -8   0   9   -0.01    0.13 
  -6   0   9   -0.07    0.09 
  -6   0   9   -0.07    0.12 
  -4   0   9   -0.02    0.12 
  -4   0   9   -0.10    0.09 
  -2   0   9   -0.08    0.10 
  -2   0   9    0.08    0.12 
   0   0   9    0.57    0.15 
   2   0   9    0.14    0.14 
   2   0   9    0.13    0.13 
   4   0   9   -0.11    0.12 
   4   0   9    0.00    0.14 
   6   0   9    0.01    0.17 
   6   0   9    0.07    0.15 
   8   0   9    0.05    0.16 
   8   0   9   -0.19    0.18 
  10   0   9   -0.08    0.17 
  10   0   9   -0.09    0.22 
  12   0   9   -0.13    0.23 
  14   0   9    0.05    0.30 
  27  -1  -9    0.50    0.27 
  27   1  -9    0.04    0.23 
  25  -1  -9    0.96    0.28 
  25   1  -9    0.56    0.25 
 -23  -1   9    0.41    0.31 
  23  -1  -9    0.45    0.22 
  23   1  -9    0.61    0.21 
  23   1  -9    0.54    0.23 
 -21  -1   9    4.54    0.53 
  21  -1  -9    3.46    0.32 
  21  -1  -9    4.41    0.37 
 -21  -1   9    4.04    0.39 
  21   1  -9    4.17    0.38 
 -21   1   9    4.62    0.37 
  21   1  -9    4.60    0.36 
  19  -1  -9    1.69    0.23 
 -19  -1   9    1.46    0.26 
  19  -1  -9    1.34    0.22 
 -19  -1   9    1.07    0.31 
 -19   1   9    1.21    0.23 
  19   1  -9    1.56    0.25 
 -19   1   9    1.50    0.31 
  19   1  -9    1.52    0.24 
  17  -1  -9   12.50    0.51 
  17  -1  -9   11.55    0.50 
 -17  -1   9   12.66    0.57 
 -17  -1   9   11.00    0.65 
 -17   1   9   12.17    0.54 
  17   1  -9   11.52    0.53 
 -17   1   9   10.87    0.61 
  17   1  -9   12.61    0.53 
  15  -1  -9    2.32    0.22 
 -15  -1   9    2.64    0.34 
 -15  -1   9    2.42    0.27 
  15   1  -9    2.12    0.24 
 -15   1   9    2.45    0.31 
 -15   1   9    2.38    0.26 
 -13  -1   9    4.66    0.33 
 -13  -1   9    4.68    0.37 
 -13   1   9    4.98    0.32 
 -13   1   9    4.31    0.33 
 -11  -1   9    6.15    0.38 
 -11  -1   9    5.59    0.35 
 -11   1   9    5.89    0.34 
 -11   1   9    6.32    0.35 
  -9  -1   9    6.63    0.36 
  -9  -1   9    6.40    0.37 
  -9   1   9    6.55    0.32 
  -9   1   9    6.33    0.36 
  -7  -1   9   38.36    1.12 
  -7  -1   9   39.81    1.10 
  -7   1   9   38.33    1.03 
  -7   1   9   39.12    1.12 
  -5  -1   9   -0.03    0.11 
  -5  -1   9    0.01    0.10 
  -5   1   9    0.06    0.12 
  -5   1   9   -0.01    0.08 
  -3  -1   9    0.80    0.17 
  -3  -1   9    0.95    0.17 
  -3   1   9    1.12    0.16 
  -3   1   9    0.97    0.18 
  -1  -1   9    0.10    0.13 
  -1  -1   9    0.16    0.13 
  -1   1   9    0.05    0.11 
  -1   1   9    0.46    0.16 
   1  -1   9   13.97    0.54 
   1  -1   9   14.23    0.57 
   1   1   9   13.82    0.55 
   1   1   9   13.64    0.55 
   3  -1   9   -0.04    0.14 
   3  -1   9    0.05    0.12 
   3   1   9   -0.08    0.13 
   3   1   9   -0.05    0.13 
   5  -1   9    3.67    0.31 
   5  -1   9    4.50    0.40 
   5   1   9    3.81    0.37 
   5   1   9    3.75    0.33 
   7  -1   9    0.47    0.17 
   7  -1   9    0.46    0.22 
   7   1   9    0.55    0.19 
   7   1   9    0.47    0.21 
   9  -1   9    1.57    0.25 
   9  -1   9    2.18    0.35 
   9   1   9    1.80    0.28 
   9   1   9    1.25    0.29 
  11  -1   9    1.05    0.32 
  11   1   9    0.83    0.29 
  11   1   9    0.73    0.23 
  13  -1   9    3.54    0.49 
  13   1   9    4.55    0.54 
  26  -2  -9    0.27    0.23 
  26   2  -9    0.07    0.24 
 -24  -2   9    2.96    0.54 
  24  -2  -9    2.43    0.35 
  24   2  -9    3.17    0.42 
  24   2  -9    3.45    0.37 
  22  -2  -9    0.29    0.18 
 -22  -2   9    0.26    0.29 
  22   2  -9    0.42    0.19 
  22   2  -9   -0.04    0.19 
 -20  -2   9    0.36    0.19 
 -20  -2   9    0.86    0.31 
  20  -2  -9    0.19    0.15 
  20  -2  -9    0.34    0.15 
  20   2  -9    0.57    0.21 
 -20   2   9    0.83    0.20 
  20   2  -9    0.38    0.17 
 -18  -2   9   16.10    0.79 
  18  -2  -9   14.11    0.56 
 -18  -2   9   14.82    0.65 
  18  -2  -9   13.63    0.57 
 -18   2   9   13.43    0.58 
  18   2  -9   14.23    0.62 
  18   2  -9   15.06    0.61 
 -16  -2   9    9.09    0.58 
 -16  -2   9    9.01    0.50 
  16  -2  -9    9.70    0.42 
 -16   2   9   10.05    0.47 
  16   2  -9    8.82    0.45 
 -16   2   9   10.94    0.55 
 -14  -2   9   65.29    1.83 
  14  -2  -9   63.16    1.60 
 -14  -2   9   62.49    1.73 
 -14   2   9   63.72    1.68 
  14   2  -9   62.95    1.69 
 -14   2   9   64.36    1.71 
  12  -2  -9   33.90    0.89 
 -12  -2   9   31.40    1.02 
 -12  -2   9   33.86    1.09 
 -12   2   9   34.51    1.00 
 -12   2   9   33.16    0.97 
 -10  -2   9    7.15    0.40 
 -10  -2   9    8.14    0.44 
  10  -2  -9    7.92    0.37 
 -10   2   9    7.15    0.38 
 -10   2   9    7.63    0.33 
   8  -2  -9    0.20    0.07 
  -8  -2   9    0.36    0.14 
  -8  -2   9    0.32    0.15 
  -8   2   9    0.36    0.10 
  -8   2   9    0.34    0.14 
  -6  -2   9    5.94    0.35 
   6  -2  -9    6.79    0.25 
  -6  -2   9    6.29    0.36 
  -6   2   9    6.62    0.27 
  -6   2   9    7.31    0.36 
  -4  -2   9   30.86    0.92 
  -4  -2   9   30.11    0.91 
  -4   2   9   29.60    0.92 
  -4   2   9   29.75    0.81 
  -2  -2   9    9.41    0.43 
  -2  -2   9    9.38    0.44 
  -2   2   9    9.68    0.38 
  -2   2   9   10.05    0.45 
   0  -2   9    2.20    0.24 
   0  -2   9    1.90    0.24 
   0   2   9    2.22    0.25 
   0   2   9    2.30    0.22 
   2  -2   9   18.48    0.64 
   2  -2   9   19.46    0.72 
   2   2   9   17.61    0.67 
   2   2   9   17.49    0.65 
   4  -2   9    2.36    0.25 
   4  -2   9    2.44    0.31 
   4   2   9    1.94    0.26 
   4   2   9    1.84    0.25 
   6  -2   9    3.44    0.31 
   6  -2   9    3.91    0.41 
   6   2   9    3.62    0.36 
   6   2   9    3.81    0.35 
   8  -2   9    3.85    0.43 
   8  -2   9    3.53    0.31 
   8   2   9    2.72    0.33 
   8   2   9    3.16    0.37 
  10  -2   9    0.40    0.25 
  10   2   9    0.68    0.24 
  10   2   9    0.81    0.28 
  12  -2   9    0.27    0.27 
  12   2   9    0.25    0.32 
  12   2   9    0.32    0.27 
  14  -2   9    0.72    0.33 
  14   2   9    0.75    0.34 
 -25  -3   9    1.82    0.48 
  25  -3  -9    0.98    0.27 
  25   3  -9    0.78    0.29 
  25   3  -9    1.03    0.25 
  23  -3  -9    2.40    0.32 
 -23  -3   9    2.75    0.50 
  23   3  -9    2.51    0.34 
  23   3  -9    2.09    0.36 
 -21  -3   9    3.21    0.49 
  21  -3  -9    4.14    0.35 
  21   3  -9    4.18    0.37 
  21   3  -9    2.86    0.36 
  19  -3  -9    1.78    0.23 
  19  -3  -9    1.39    0.22 
 -19  -3   9    0.84    0.24 
 -19  -3   9    1.16    0.33 
  19   3  -9    1.53    0.25 
 -19   3   9    1.27    0.22 
  19   3  -9    1.50    0.27 
 -17  -3   9    5.78    0.50 
 -17  -3   9    6.02    0.43 
  17  -3  -9    6.59    0.35 
 -17   3   9    6.08    0.37 
  17   3  -9    6.24    0.40 
 -15  -3   9   15.27    0.64 
  15  -3  -9   14.65    0.51 
 -15  -3   9   14.79    0.73 
 -15   3   9   15.09    0.58 
  15   3  -9   14.10    0.59 
 -13  -3   9    0.70    0.18 
 -13  -3   9    0.62    0.21 
  13  -3  -9    0.89    0.13 
  13   3  -9    0.92    0.19 
 -13   3   9    0.64    0.16 
 -13   3   9    0.80    0.17 
 -11  -3   9   10.33    0.48 
 -11  -3   9   10.25    0.53 
  11  -3  -9    9.57    0.34 
  11  -3  -9   10.36    0.33 
 -11   3   9    9.64    0.37 
 -11   3   9   10.19    0.45 
  -9  -3   9    0.64    0.16 
  -9  -3   9    0.42    0.17 
   9  -3  -9    0.45    0.07 
  -9   3   9    0.44    0.09 
  -9   3   9    0.42    0.14 
  -7  -3   9   10.17    0.50 
   7  -3  -9   11.35    0.31 
  -7  -3   9   10.86    0.48 
  -7   3   9   11.01    0.46 
  -7   3   9   10.72    0.34 
   5  -3  -9   50.10    1.19 
  -5  -3   9   51.00    1.39 
  -5  -3   9   48.59    1.36 
  -5   3   9   48.73    1.20 
  -5   3   9   48.49    1.35 
  -3  -3   9   27.92    0.86 
  -3  -3   9   28.64    0.90 
  -3   3   9   27.45    0.87 
  -3   3   9   27.37    0.76 
  -1  -3   9   10.08    0.48 
  -1  -3   9    9.14    0.42 
  -1   3   9    9.64    0.38 
  -1   3   9    9.41    0.46 
   1  -3   9    2.49    0.29 
   1  -3   9    1.82    0.22 
   1   3   9    2.04    0.26 
   1   3   9    2.34    0.23 
   3  -3   9   24.43    0.80 
   3  -3   9   28.14    0.93 
   3   3   9   25.13    0.86 
   3   3   9   24.61    0.83 
   5  -3   9    0.16    0.14 
   5  -3   9    0.42    0.22 
   5   3   9    0.34    0.18 
   5   3   9    0.39    0.18 
   7  -3   9    3.08    0.40 
   7  -3   9    2.72    0.28 
   7   3   9    3.51    0.38 
   7   3   9    3.05    0.34 
   9   3   9    6.36    0.50 
   9   3   9    6.51    0.47 
  11  -3   9    1.43    0.35 
  11   3   9    1.38    0.33 
  11   3   9    2.15    0.33 
  13  -3   9    6.16    0.63 
  13   3   9    6.71    0.61 
 -26  -4   9    4.18    0.67 
  26   4  -9    5.62    0.50 
  26   4  -9    4.88    0.54 
 -24  -4   9    0.71    0.38 
  24   4  -9    1.06    0.27 
  24   4  -9    1.31    0.33 
  22  -4  -9    0.19    0.19 
 -22  -4   9    0.33    0.33 
  22   4  -9    0.28    0.20 
  22   4  -9    0.15    0.21 
 -20  -4   9    0.05    0.26 
  20  -4  -9    0.14    0.14 
  20   4  -9    0.41    0.21 
  20   4  -9    0.54    0.20 
 -18  -4   9    1.63    0.35 
 -18  -4   9    1.44    0.27 
  18  -4  -9    1.00    0.19 
 -18   4   9    1.13    0.21 
  18   4  -9    1.09    0.24 
  16  -4  -9    8.16    0.37 
 -16  -4   9    8.47    0.50 
 -16  -4   9   10.06    0.62 
 -16   4   9    8.57    0.42 
  16   4  -9    9.08    0.48 
 -14  -4   9    4.45    0.46 
  14  -4  -9    3.47    0.21 
 -14  -4   9    4.21    0.35 
  14   4  -9    3.01    0.29 
 -14   4   9    4.02    0.30 
 -12  -4   9   14.35    0.61 
 -12  -4   9   13.52    0.67 
  12  -4  -9   13.78    0.41 
  12  -4  -9   14.14    0.44 
 -12   4   9   14.23    0.55 
  12   4  -9   14.54    0.58 
 -10  -4   9   22.97    0.84 
 -10  -4   9   19.87    0.74 
 -10   4   9   21.52    0.72 
  -8  -4   9    3.09    0.31 
  -8  -4   9    2.96    0.28 
  -8   4   9    2.72    0.26 
  -6  -4   9    0.44    0.16 
   6  -4  -9    0.54    0.06 
  -6  -4   9    0.39    0.16 
  -6   4   9    0.45    0.08 
  -6   4   9    0.45    0.15 
   4  -4  -9   22.00    0.58 
  -4  -4   9   21.69    0.78 
  -4  -4   9   21.74    0.73 
  -4   4   9   20.75    0.73 
  -4   4   9   22.67    0.59 
  -4   4   9   21.65    0.64 
  -2  -4   9   24.35    0.86 
  -2  -4   9   24.34    0.81 
  -2   4   9   26.26    0.85 
  -2   4   9   26.42    0.72 
   0  -4   9    2.05    0.24 
   0  -4   9    1.96    0.27 
   0   4   9    2.40    0.21 
   0   4   9    2.04    0.26 
   2  -4   9    0.28    0.18 
   2  -4   9    0.62    0.16 
   2   4   9    0.53    0.16 
   2   4   9    0.86    0.20 
   4  -4   9    0.19    0.18 
   4  -4   9   -0.06    0.12 
   4   4   9    0.06    0.15 
   4   4   9   -0.14    0.13 
   6  -4   9    0.73    0.17 
   6  -4   9    0.71    0.25 
   6   4   9    1.09    0.24 
   6   4   9    1.13    0.24 
   8  -4   9   -0.02    0.22 
   8   4   9    0.01    0.20 
   8   4   9    0.11    0.18 
  10  -4   9    0.52    0.29 
  10   4   9    0.44    0.22 
  10   4   9    0.62    0.27 
  12  -4   9   -0.01    0.28 
  12   4   9    0.22    0.27 
  12   4   9   -0.18    0.19 
 -25  -5   9    0.34    0.39 
  25   5  -9   -0.11    0.23 
  25   5  -9    0.31    0.24 
 -23  -5   9    0.52    0.35 
  23   5  -9    0.44    0.23 
  23   5  -9    0.49    0.25 
 -21  -5   9    0.11    0.30 
  21   5  -9    0.15    0.21 
  21   5  -9    0.00    0.20 
 -19  -5   9    0.44    0.28 
  19   5  -9    0.40    0.20 
 -17  -5   9   -0.05    0.23 
  17  -5  -9    0.09    0.11 
 -17  -5   9   -0.13    0.16 
  17   5  -9   -0.07    0.16 
 -17   5   9    0.06    0.13 
 -15  -5   9    5.40    0.49 
  15  -5  -9    4.87    0.26 
 -15  -5   9    5.88    0.41 
 -15   5   9    5.64    0.34 
  15   5  -9    5.00    0.38 
  13  -5  -9    2.04    0.14 
 -13  -5   9    2.96    0.34 
 -13  -5   9    2.12    0.34 
 -13   5   9    2.25    0.24 
  13   5  -9    2.02    0.27 
 -11  -5   9    1.08    0.21 
 -11  -5   9    1.57    0.29 
 -11   5   9    0.88    0.17 
  11   5  -9    1.06    0.19 
  -9  -5   9    0.96    0.21 
  -9  -5   9    0.82    0.22 
  -9   5   9    1.08    0.19 
   9   5  -9    1.67    0.22 
  -7  -5   9   24.45    0.84 
  -7  -5   9   25.49    0.91 
  -7   5   9   26.55    0.83 
  -5  -5   9    2.33    0.25 
  -5  -5   9    1.92    0.25 
  -5   5   9    1.80    0.22 
  -3  -5   9    5.16    0.38 
  -3  -5   9    5.12    0.33 
   3  -5  -9    4.90    0.22 
  -3   5   9    5.30    0.35 
  -3   5   9    5.06    0.22 
  -3   5   9    4.97    0.27 
  -1  -5   9   19.36    0.73 
  -1  -5   9   16.70    0.62 
  -1   5   9   17.82    0.56 
  -1   5   9   17.04    0.67 
   1  -5   9    1.39    0.20 
   1  -5   9    1.52    0.26 
   1   5   9    1.24    0.24 
   1   5   9    1.43    0.19 
   3  -5   9    6.87    0.37 
   3  -5   9    6.34    0.47 
   3   5   9    6.73    0.39 
   3   5   9    6.59    0.43 
   5  -5   9    3.73    0.29 
   5  -5   9    4.14    0.43 
   5   5   9    3.96    0.35 
   5   5   9    3.79    0.37 
   7  -5   9    4.07    0.46 
   7   5   9    3.58    0.37 
   7   5   9    3.43    0.37 
   9  -5   9    2.91    0.42 
   9   5   9    4.10    0.42 
   9   5   9    2.80    0.38 
  11  -5   9    0.24    0.28 
  11   5   9   -0.09    0.24 
  11   5   9    0.29    0.23 
  13  -5   9    0.37    0.31 
  13   5   9    0.07    0.28 
  13   5   9    0.34    0.26 
 -24  -6   9    2.47    0.53 
  24   6  -9    2.43    0.41 
  24   6  -9    2.72    0.39 
 -22  -6   9   -0.20    0.28 
  22   6  -9    0.14    0.22 
  22   6  -9    0.30    0.22 
 -20  -6   9    0.54    0.33 
  20   6  -9    1.42    0.29 
 -16  -6   9    2.37    0.32 
 -16  -6   9    2.08    0.39 
 -16   6   9    2.37    0.26 
  16   6  -9    2.33    0.30 
 -14  -6   9    4.02    0.38 
 -14  -6   9    3.14    0.42 
 -14   6   9    4.33    0.31 
  14   6  -9    3.30    0.36 
 -12  -6   9    4.02    0.45 
 -12  -6   9    3.89    0.35 
 -12   6   9    3.58    0.29 
  12   6  -9    3.26    0.31 
 -10  -6   9    3.00    0.33 
 -10  -6   9    3.09    0.38 
  10   6  -9    2.72    0.29 
 -10   6   9    2.44    0.26 
  -8  -6   9    4.96    0.35 
  -8  -6   9    5.29    0.42 
   8   6  -9    4.44    0.32 
  -8   6   9    3.81    0.31 
  -4  -6   9    8.74    0.43 
  -4   6   9    8.60    0.30 
  -4   6   9    8.84    0.27 
  -4   6   9    9.06    0.45 
  -2  -6   9    1.69    0.23 
  -2  -6   9    0.99    0.23 
  -2   6   9    1.45    0.23 
  -2   6   9    1.54    0.16 
   0  -6   9   36.56    1.07 
   0  -6   9   35.10    1.18 
   0   6   9   37.00    1.14 
   0   6   9   36.60    1.00 
   2  -6   9   16.81    0.76 
   2  -6   9   17.57    0.63 
   2   6   9   17.02    0.71 
   2   6   9   18.27    0.63 
   4  -6   9    0.89    0.18 
   4  -6   9    0.68    0.25 
   4   6   9    0.75    0.23 
   4   6   9    0.77    0.20 
   6  -6   9    9.36    0.61 
   6   6   9    8.20    0.52 
   6   6   9    8.51    0.50 
   8  -6   9    0.28    0.25 
   8   6   9   -0.09    0.19 
   8   6   9    0.41    0.23 
  10  -6   9    0.75    0.31 
  10   6   9    0.68    0.26 
  10   6   9    0.72    0.26 
  12  -6   9    0.03    0.28 
  12   6   9    0.30    0.27 
  12   6   9    0.23    0.23 
  25   7  -9   -0.47    0.19 
 -23  -7   9    2.35    0.54 
  23   7  -9    2.81    0.43 
  23   7  -9    2.75    0.40 
 -21  -7   9    0.06    0.30 
  21   7  -9    0.22    0.21 
  21   7  -9    0.36    0.25 
 -19  -7   9    3.88    0.58 
  19   7  -9    3.24    0.38 
 -17  -7   9    1.66    0.38 
  17   7  -9    1.08    0.25 
 -15  -7   9    0.01    0.23 
 -15  -7   9    0.12    0.18 
 -15   7   9   -0.14    0.12 
  15   7  -9    0.34    0.19 
 -13  -7   9   13.41    0.65 
 -13  -7   9   14.91    0.78 
 -13   7   9   14.79    0.57 
  13   7  -9   12.75    0.61 
 -11  -7   9   22.57    0.85 
 -11  -7   9   22.01    0.94 
 -11   7   9   22.99    0.76 
  11   7  -9   22.13    0.81 
  -9  -7   9    0.12    0.18 
  -9  -7   9    0.18    0.17 
   9   7  -9    0.08    0.14 
  -9   7   9    0.11    0.13 
  -7  -7   9    6.26    0.41 
  -7  -7   9    6.82    0.49 
   7   7  -9    7.70    0.40 
  -7   7   9    6.30    0.38 
  -5  -7   9    0.32    0.16 
  -5  -7   9    0.21    0.17 
   5   7  -9    0.20    0.14 
  -5   7   9    0.18    0.14 
  -3  -7   9   -0.12    0.12 
  -3  -7   9    0.01    0.18 
  -3   7   9    0.05    0.14 
   3   7  -9   -0.10    0.11 
  -3   7   9    0.03    0.07 
  -1  -7   9    2.58    0.27 
  -1  -7   9    2.03    0.31 
  -1   7   9    1.85    0.25 
  -1   7   9    1.82    0.19 
   1  -7   9    2.37    0.33 
   1  -7   9    2.12    0.24 
   1   7   9    1.80    0.28 
   1   7   9    2.19    0.23 
   3  -7   9   22.16    0.73 
   3  -7   9   21.04    0.89 
   3   7   9   20.25    0.83 
   3   7   9   23.01    0.76 
   5  -7   9   16.13    0.80 
   5   7   9   15.80    0.67 
   5   7   9   17.30    0.75 
   7  -7   9    0.13    0.23 
   7   7   9    0.04    0.20 
   7   7   9    0.11    0.19 
   9  -7   9    1.63    0.38 
   9   7   9    1.45    0.31 
   9   7   9    1.48    0.32 
  11  -7   9    1.96    0.41 
  11   7   9    1.45    0.34 
  11   7   9    1.32    0.32 
 -24  -8   9    1.21    0.47 
  24   8  -9    0.85    0.34 
  24   8  -9    0.94    0.32 
 -22  -8   9    0.08    0.34 
  22   8  -9   -0.17    0.21 
  22   8  -9   -0.30    0.21 
 -20  -8   9    0.59    0.36 
  20   8  -9    0.68    0.26 
 -18  -8   9    8.24    0.72 
  18   8  -9    8.11    0.54 
 -16  -8   9    1.51    0.37 
  16   8  -9    1.92    0.30 
 -14  -8   9    1.13    0.33 
 -14   8   9    1.25    0.21 
  14   8  -9    1.11    0.24 
 -12  -8   9    0.05    0.17 
 -12  -8   9    0.19    0.23 
  12   8  -9    0.10    0.16 
 -12   8   9    0.00    0.12 
 -10  -8   9   32.34    1.08 
 -10  -8   9   32.70    1.21 
 -10   8   9   30.71    0.98 
  10   8  -9   31.55    1.03 
  -8  -8   9   24.14    0.88 
  -8  -8   9   24.24    1.00 
  -8   8   9   25.19    0.84 
   8   8  -9   25.24    0.85 
  -6  -8   9   -0.08    0.18 
  -6  -8   9   -0.11    0.14 
   6   8  -9    0.14    0.14 
  -6   8   9    0.12    0.15 
  -4  -8   9   13.57    0.58 
  -4  -8   9   13.65    0.69 
  -4   8   9   13.56    0.60 
   4   8  -9   12.77    0.54 
  -2  -8   9   -0.06    0.13 
  -2  -8   9    0.10    0.20 
   2   8  -9    0.00    0.13 
  -2   8   9    0.09    0.16 
   0  -8   9    9.05    0.58 
   0  -8   9    8.02    0.43 
   0   8  -9    8.70    0.41 
   0   8   9    8.77    0.38 
   0   8   9    9.27    0.52 
   2  -8   9    0.02    0.14 
   2  -8   9    0.08    0.20 
   2   8   9    0.21    0.14 
   2   8   9   -0.04    0.17 
  -2   8  -9    0.14    0.13 
   4  -8   9   -0.11    0.20 
   4   8   9   -0.10    0.19 
   4   8   9   -0.23    0.14 
   6  -8   9    1.53    0.35 
   6   8   9    1.40    0.26 
   6   8   9    1.22    0.30 
   8  -8   9    0.70    0.30 
   8   8   9    0.61    0.26 
   8   8   9    0.72    0.25 
  10  -8   9    0.89    0.34 
  10   8   9    0.46    0.27 
  10   8   9    0.89    0.29 
 -23  -9   9   -0.14    0.37 
  23   9  -9   -0.04    0.26 
  23   9  -9   -0.06    0.24 
 -21  -9   9    0.17    0.34 
  21   9  -9    0.11    0.23 
 -19  -9   9    1.41    0.43 
  19   9  -9    0.87    0.28 
 -17  -9   9    1.37    0.40 
  17   9  -9    0.71    0.25 
 -15  -9   9    0.21    0.26 
  15   9  -9    0.63    0.24 
 -13  -9   9    0.18    0.25 
  13   9  -9    0.54    0.22 
 -13   9   9    0.40    0.16 
 -11  -9   9    3.80    0.51 
 -11  -9   9    3.41    0.40 
 -11   9   9    3.66    0.32 
  11   9  -9    4.12    0.40 
  -9  -9   9   18.61    0.89 
  -9  -9   9   18.31    0.76 
   9   9  -9   17.62    0.72 
  -9   9   9   18.78    0.70 
  -7  -9   9    0.28    0.18 
  -7  -9   9   -0.12    0.18 
   7   9  -9   -0.04    0.15 
  -7   9   9    0.33    0.17 
  -5  -9   9   -0.04    0.15 
  -5  -9   9   -0.13    0.19 
   5   9  -9   -0.02    0.13 
  -5   9   9    0.14    0.16 
  -3  -9   9    0.72    0.21 
  -3  -9   9    0.81    0.26 
  -3   9   9    0.55    0.19 
   3   9  -9    0.81    0.18 
  -1  -9   9    1.75    0.33 
  -1  -9   9    1.40    0.23 
   1   9  -9    1.43    0.21 
  -1   9   9    1.64    0.28 
   1  -9   9    5.08    0.50 
   1  -9   9    5.18    0.36 
   1   9   9    5.04    0.43 
  -1   9  -9    6.00    0.34 
   3  -9   9    3.75    0.45 
   3   9   9    3.59    0.42 
   5  -9   9    0.08    0.24 
   5   9   9    0.02    0.20 
   5   9   9    0.04    0.19 
   7  -9   9    0.30    0.28 
   7   9   9    0.25    0.22 
   7   9   9    0.15    0.24 
   9  -9   9    1.01    0.37 
   9   9   9    1.45    0.32 
   9   9   9    1.52    0.33 
  11   9   9    0.30    0.28 
 -22 -10   9   -0.18    0.35 
  22  10  -9    0.22    0.29 
  22  10  -9    0.16    0.26 
 -20 -10   9    0.95    0.45 
  20  10  -9    0.69    0.29 
 -18 -10   9    0.64    0.36 
  18  10  -9    0.36    0.24 
 -16 -10   9    1.00    0.36 
  16  10  -9    1.17    0.28 
 -14 -10   9    1.25    0.36 
  14  10  -9    2.51    0.36 
 -12 -10   9    1.70    0.39 
 -12  10   9    1.58    0.24 
  12  10  -9    1.17    0.26 
 -10 -10   9    2.70    0.44 
 -10  10   9    2.95    0.31 
  10  10  -9    3.39    0.36 
  -8 -10   9    1.59    0.35 
  -8 -10   9    1.11    0.26 
   8  10  -9    0.79    0.21 
  -8  10   9    1.56    0.25 
  -6 -10   9    8.47    0.61 
  -6 -10   9    7.87    0.49 
  -6  10   9    7.32    0.46 
   6  10  -9    7.91    0.46 
  -4 -10   9    2.57    0.40 
  -4 -10   9    2.73    0.31 
  -4  10   9    2.32    0.30 
   4  10  -9    2.61    0.29 
  -2 -10   9    0.00    0.20 
  -2 -10   9    0.05    0.16 
  -2  10   9   -0.04    0.17 
   2  10  -9    0.02    0.13 
   0 -10   9    4.36    0.34 
   0 -10   9    5.21    0.52 
   0  10   9    5.25    0.45 
   0  10  -9    4.91    0.32 
   2 -10   9    0.00    0.24 
   2  10   9    0.41    0.23 
   4 -10   9    4.12    0.48 
   4  10   9    3.86    0.44 
   6 -10   9    0.21    0.27 
   6  10   9    0.29    0.26 
   8 -10   9   -0.18    0.26 
   8  10   9    0.10    0.25 
  10 -10   9   -0.06    0.33 
  10  10   9   -0.27    0.24 
 -21 -11   9    1.18    0.49 
  21  11  -9    0.58    0.30 
 -19 -11   9    2.57    0.54 
  19  11  -9    3.02    0.43 
 -17 -11   9    7.99    0.78 
  17  11  -9    7.01    0.56 
 -15 -11   9    6.14    0.72 
  15  11  -9    5.85    0.49 
 -13 -11   9    5.12    0.60 
  13  11  -9    5.65    0.47 
 -11 -11   9    0.95    0.34 
  11  11  -9    1.69    0.29 
 -11  11   9    1.61    0.25 
  -9 -11   9    1.97    0.41 
   9  11  -9    2.53    0.32 
  -9  11   9    2.06    0.29 
  -7 -11   9    7.72    0.65 
   7  11  -9    7.97    0.48 
  -7  11   9    9.25    0.51 
  -5 -11   9    3.78    0.49 
   5  11  -9    3.20    0.34 
  -5  11   9    3.22    0.35 
  -3 -11   9    8.93    0.65 
   3  11  -9    9.40    0.47 
  -3  11   9    9.17    0.54 
  -1 -11   9    3.06    0.45 
  -1  11   9    3.05    0.38 
   1  11  -9    3.21    0.30 
   1 -11   9    0.25    0.28 
   1  11   9    0.09    0.22 
   3 -11   9    4.30    0.51 
   3  11   9    3.84    0.43 
   5 -11   9    3.17    0.49 
   5  11   9    2.95    0.42 
   7 -11   9    0.11    0.28 
   7  11   9   -0.07    0.26 
 -18 -12   9    0.44    0.37 
  18  12  -9    0.41    0.26 
 -16 -12   9    1.61    0.45 
  16  12  -9    0.69    0.27 
 -14 -12   9    4.44    0.61 
  14  12  -9    5.74    0.50 
 -12 -12   9    2.49    0.47 
  12  12  -9    2.02    0.33 
 -10 -12   9    0.41    0.33 
  10  12  -9    0.86    0.25 
 -10  12   9    0.74    0.22 
  -8 -12   9    8.70    0.72 
   8  12  -9   10.34    0.57 
  -8  12   9    9.65    0.54 
  -6 -12   9   16.24    0.90 
   6  12  -9   15.75    0.67 
  -6  12   9   14.98    0.70 
  -4 -12   9    8.75    0.68 
  -4  12   9    8.54    0.53 
   4  12  -9    7.77    0.47 
  -2 -12   9    0.25    0.28 
  -2  12   9   -0.01    0.19 
   2  12  -9    0.17    0.16 
   0 -12   9    5.47    0.60 
   0  12   9    5.54    0.49 
   2 -12   9    1.31    0.38 
   2  12   9    1.13    0.30 
   4 -12   9   -0.11    0.26 
   4  12   9    0.04    0.24 
   6 -12   9    0.11    0.30 
   6  12   9    0.08    0.25 
 -17 -13   9   -0.16    0.34 
  17  13  -9    0.09    0.23 
 -15 -13   9    1.02    0.43 
  15  13  -9    0.60    0.27 
 -13 -13   9    0.04    0.30 
  13  13  -9    0.00    0.22 
 -11 -13   9    0.12    0.32 
  11  13  -9    0.12    0.22 
  -9 -13   9   -0.12    0.29 
  -9  13   9    0.25    0.20 
   9  13  -9   -0.20    0.17 
  -7 -13   9    2.13    0.45 
  -7  13   9    1.76    0.30 
   7  13  -9    2.10    0.31 
  -5 -13   9    0.47    0.33 
  -5  13   9    0.60    0.23 
   5  13  -9    1.03    0.25 
  -3 -13   9   -0.07    0.27 
  -3  13   9    0.19    0.21 
   3  13  -9    0.12    0.18 
  -1 -13   9    0.23    0.29 
  -1  13   9    0.19    0.23 
   1 -13   9    0.27    0.29 
   1  13   9    0.35    0.25 
   3 -13   9    0.51    0.32 
   3  13   9    0.47    0.28 
   5 -13   9    0.25    0.33 
   5  13   9   -0.03    0.26 
 -16 -14   9   -0.16    0.36 
  16  14  -9   -0.03    0.25 
 -14 -14   9    0.09    0.34 
  14  14  -9    0.35    0.24 
 -12 -14   9    0.27    0.35 
  12  14  -9   -0.16    0.22 
 -10 -14   9    0.17    0.33 
  10  14  -9    0.14    0.22 
  -8 -14   9   -0.12    0.31 
  -8  14   9   -0.04    0.19 
   8  14  -9   -0.22    0.19 
  -6 -14   9    2.49    0.49 
   6  14  -9    1.75    0.31 
  -6  14   9    1.33    0.28 
  -4 -14   9    2.66    0.48 
   4  14  -9    2.82    0.34 
  -4  14   9    2.89    0.38 
  -2 -14   9    0.67    0.36 
  -2  14   9    0.86    0.29 
   0 -14   9    1.48    0.41 
   0  14   9    2.41    0.39 
   2 -14   9    0.21    0.34 
   2  14   9    0.61    0.29 
 -13 -15   9    2.45    0.57 
  13  15  -9    2.11    0.38 
 -11 -15   9    1.29    0.46 
  11  15  -9    2.28    0.37 
  -9 -15   9    0.26    0.35 
   9  15  -9    0.15    0.23 
  -7 -15   9    4.31    0.64 
   7  15  -9    3.56    0.41 
  -7  15   9    3.66    0.43 
  -5 -15   9    1.62    0.44 
  -5  15   9    1.74    0.32 
  -3 -15   9    0.72    0.38 
  -3  15   9    0.89    0.29 
  -1 -15   9    1.00    0.39 
  -1  15   9    0.85    0.30 
  26   0 -10    5.07    0.48 
  24   0 -10    1.62    0.30 
  24   0 -10    1.98    0.31 
  22   0 -10    0.97    0.24 
  22   0 -10    1.17    0.23 
 -22   0  10    1.08    0.34 
 -22   0  10    1.31    0.27 
 -20   0  10   13.45    0.74 
  20   0 -10   12.78    0.57 
 -20   0  10   12.67    0.60 
  20   0 -10   11.88    0.57 
  18   0 -10   35.40    1.07 
 -18   0  10   33.91    1.10 
 -18   0  10   34.54    1.23 
  18   0 -10   34.53    1.07 
 -16   0  10   20.32    0.74 
  16   0 -10   19.51    0.68 
 -16   0  10   19.15    0.80 
 -14   0  10   38.03    1.14 
 -14   0  10   36.36    1.15 
 -12   0  10   69.31    1.85 
 -12   0  10   70.28    1.85 
 -10   0  10    5.03    0.34 
 -10   0  10    4.66    0.32 
  -8   0  10    9.74    0.42 
  -8   0  10    9.08    0.45 
  -6   0  10    0.52    0.16 
  -6   0  10    0.36    0.13 
  -4   0  10    9.91    0.42 
  -4   0  10   10.28    0.47 
  -2   0  10   10.33    0.46 
  -2   0  10   11.03    0.49 
   0   0  10   15.28    0.59 
   0   0  10   14.64    0.59 
   2   0  10   16.98    0.66 
   2   0  10   15.65    0.63 
   4   0  10    6.22    0.41 
   4   0  10    6.02    0.46 
   6   0  10    0.10    0.19 
   6   0  10   -0.03    0.15 
   8   0  10    3.94    0.38 
   8   0  10    3.10    0.40 
  10   0  10    2.57    0.40 
  12   0  10    4.14    0.53 
  27  -1 -10    2.49    0.38 
  27   1 -10    1.82    0.35 
  25  -1 -10    4.17    0.43 
  25   1 -10    3.86    0.45 
  23  -1 -10    0.65    0.22 
 -23  -1  10    0.78    0.34 
  23  -1 -10    0.66    0.21 
 -23   1  10    0.45    0.21 
  23   1 -10    0.67    0.21 
  23   1 -10    0.54    0.22 
 -21  -1  10    0.89    0.23 
  21  -1 -10    0.26    0.17 
  21  -1 -10    0.44    0.18 
 -21  -1  10    0.31    0.26 
 -21   1  10    0.36    0.19 
  21   1 -10    0.37    0.19 
 -21   1  10    0.04    0.23 
  21   1 -10    0.33    0.17 
  19  -1 -10    0.63    0.17 
 -19  -1  10    0.36    0.25 
 -19  -1  10    0.60    0.21 
  19  -1 -10    0.48    0.17 
  19   1 -10    0.52    0.18 
  19   1 -10    0.12    0.15 
 -19   1  10    0.28    0.18 
 -19   1  10    0.20    0.22 
 -17  -1  10    1.10    0.23 
  17  -1 -10    1.34    0.20 
 -17  -1  10    1.04    0.27 
 -17   1  10    1.35    0.23 
 -17   1  10    0.58    0.22 
  17   1 -10    1.23    0.21 
 -15  -1  10   25.73    0.96 
 -15  -1  10   26.99    0.91 
  15  -1 -10   26.40    0.80 
 -15   1  10   26.67    0.89 
 -15   1  10   26.57    0.91 
 -13  -1  10    1.56    0.26 
 -13  -1  10    2.17    0.27 
 -13   1  10    2.20    0.26 
 -13   1  10    2.04    0.24 
 -11  -1  10    7.07    0.41 
 -11  -1  10    7.28    0.40 
 -11   1  10    6.51    0.38 
 -11   1  10    7.02    0.36 
  -9  -1  10    1.44    0.21 
  -9  -1  10    1.25    0.20 
  -9   1  10    1.07    0.17 
  -9   1  10    1.25    0.21 
  -7  -1  10    4.90    0.31 
  -7  -1  10    4.77    0.34 
  -7   1  10    3.96    0.32 
  -7   1  10    4.48    0.26 
  -5  -1  10    0.04    0.11 
  -5  -1  10    0.21    0.14 
  -5   1  10    0.03    0.10 
  -5   1  10    0.07    0.12 
  -3  -1  10    1.46    0.21 
  -3  -1  10    1.53    0.21 
  -3   1  10    1.68    0.24 
  -3   1  10    1.55    0.19 
  -1  -1  10    5.81    0.36 
  -1  -1  10    5.62    0.36 
  -1   1  10    5.51    0.36 
  -1   1  10    5.54    0.33 
   1  -1  10    0.61    0.17 
   1  -1  10    1.00    0.21 
   1   1  10    0.99    0.20 
   1   1  10    0.60    0.18 
   3  -1  10    0.63    0.20 
   3  -1  10    1.19    0.21 
   3   1  10    0.80    0.20 
   3   1  10    1.17    0.22 
   5  -1  10    8.65    0.46 
   5  -1  10    8.45    0.54 
   5   1  10    8.60    0.49 
   5   1  10    8.64    0.51 
   7  -1  10    3.53    0.34 
   7  -1  10    4.68    0.48 
   7   1  10    4.03    0.42 
   7   1  10    3.53    0.36 
   9  -1  10   -0.10    0.22 
   9   1  10    0.04    0.22 
   9   1  10    0.15    0.19 
  11  -1  10    0.29    0.27 
  11   1  10    0.17    0.27 
  13  -1  10    8.12    0.70 
  13   1  10   10.21    0.76 
 -26  -2  10    1.09    0.44 
  26  -2 -10    1.30    0.43 
  26   2 -10    2.05    0.38 
 -24  -2  10    1.59    0.43 
  24  -2 -10    2.04    0.31 
  24   2 -10    2.60    0.33 
  24   2 -10    1.92    0.33 
 -22  -2  10    1.07    0.28 
  22  -2 -10    1.71    0.25 
  22  -2 -10    1.31    0.24 
 -22  -2  10    1.52    0.39 
  22   2 -10    1.23    0.27 
  22   2 -10    1.56    0.27 
 -22   2  10    1.55    0.26 
  20  -2 -10    0.06    0.14 
 -20  -2  10   -0.23    0.15 
 -20  -2  10   -0.02    0.22 
  20  -2 -10    0.07    0.15 
  20   2 -10    0.02    0.15 
 -20   2  10    0.12    0.17 
  20   2 -10    0.08    0.16 
  18  -2 -10   -0.12    0.11 
 -18  -2  10    0.12    0.22 
 -18  -2  10    0.07    0.17 
 -18   2  10    0.11    0.15 
 -18   2  10    0.04    0.19 
  18   2 -10    0.09    0.15 
 -16  -2  10    6.82    0.52 
  16  -2 -10    7.29    0.36 
 -16  -2  10    7.73    0.46 
  16   2 -10    6.72    0.41 
 -16   2  10    8.03    0.47 
 -16   2  10    7.73    0.43 
  14  -2 -10    0.26    0.11 
 -14  -2  10    0.21    0.18 
 -14  -2  10    0.39    0.17 
 -14   2  10    0.11    0.14 
 -14   2  10    0.20    0.14 
 -12  -2  10   15.00    0.62 
 -12  -2  10   17.05    0.68 
 -12   2  10   15.90    0.56 
 -12   2  10   14.60    0.60 
 -10  -2  10    1.18    0.22 
 -10  -2  10    1.82    0.24 
 -10   2  10    1.56    0.22 
 -10   2  10    1.21    0.16 
  -8  -2  10   11.70    0.51 
  -8  -2  10   10.90    0.50 
  -8   2  10   11.80    0.41 
  -8   2  10   10.41    0.49 
  -6  -2  10   11.97    0.51 
  -6  -2  10   11.13    0.50 
  -6   2  10   12.06    0.51 
  -6   2  10   11.02    0.40 
  -4  -2  10    1.69    0.22 
  -4  -2  10    2.75    0.27 
  -4   2  10    2.54    0.21 
  -4   2  10    1.95    0.23 
  -2  -2  10    0.20    0.14 
  -2  -2  10    0.21    0.14 
  -2   2  10   -0.05    0.12 
  -2   2  10    0.30    0.12 
   0  -2  10    4.98    0.34 
   0  -2  10    5.29    0.38 
   0   2  10    4.61    0.35 
   0   2  10    4.34    0.30 
   2  -2  10    1.10    0.23 
   2  -2  10    1.12    0.20 
   2   2  10    1.90    0.26 
   2   2  10    1.48    0.23 
   4  -2  10    1.47    0.23 
   4  -2  10    1.15    0.26 
   4   2  10    1.64    0.26 
   4   2  10    1.77    0.27 
   6  -2  10    4.24    0.45 
   6  -2  10    3.32    0.33 
   6   2  10    4.18    0.41 
   6   2  10    3.21    0.35 
   8  -2  10    1.04    0.30 
   8   2  10    0.44    0.25 
   8   2  10    0.79    0.24 
  10  -2  10    1.09    0.34 
  10   2  10    1.23    0.33 
  10   2  10    1.73    0.31 
  12  -2  10    0.37    0.32 
  12   2  10    0.25    0.28 
 -25  -3  10    0.12    0.31 
  25   3 -10    0.20    0.23 
  25   3 -10    0.25    0.21 
  23  -3 -10   -0.10    0.20 
 -23  -3  10   -0.07    0.27 
  23   3 -10    0.05    0.19 
  23   3 -10    0.17    0.19 
 -21  -3  10    0.30    0.28 
 -21  -3  10    0.84    0.26 
  21  -3 -10    0.92    0.20 
  21  -3 -10    0.62    0.19 
 -21   3  10    0.71    0.21 
  21   3 -10    0.67    0.23 
  21   3 -10    0.99    0.23 
 -19  -3  10    4.11    0.41 
 -19  -3  10    3.38    0.47 
  19  -3 -10    3.85    0.31 
 -19   3  10    3.80    0.34 
  19   3 -10    3.99    0.39 
 -17  -3  10    5.71    0.42 
 -17  -3  10    5.07    0.49 
  17  -3 -10    5.77    0.32 
  17   3 -10    5.51    0.39 
 -17   3  10    5.27    0.37 
 -15  -3  10   12.05    0.66 
  15  -3 -10   13.18    0.46 
 -15  -3  10   11.37    0.57 
 -15   3  10   13.13    0.54 
 -15   3  10   12.02    0.53 
  15   3 -10   13.43    0.57 
 -13  -3  10    1.13    0.22 
 -13  -3  10    1.56    0.28 
  13  -3 -10    1.11    0.13 
 -13   3  10    1.44    0.19 
 -13   3  10    1.06    0.20 
  11  -3 -10    2.88    0.17 
 -11  -3  10    3.44    0.36 
 -11  -3  10    2.80    0.31 
 -11   3  10    2.73    0.21 
 -11   3  10    2.72    0.29 
  -9  -3  10    5.64    0.37 
   9  -3 -10    5.03    0.19 
  -9  -3  10    4.50    0.37 
  -9   3  10    5.41    0.35 
  -9   3  10    5.09    0.23 
  -7  -3  10   21.71    0.77 
   7  -3 -10   20.58    0.56 
  -7  -3  10   21.57    0.75 
  -7   3  10   21.78    0.74 
  -7   3  10   21.18    0.59 
  -5  -3  10   -0.01    0.14 
  -5  -3  10    0.00    0.13 
  -5   3  10   -0.04    0.12 
  -5   3  10    0.05    0.08 
  -3  -3  10   11.03    0.49 
  -3  -3  10   10.54    0.50 
  -3   3  10   10.30    0.49 
  -3   3  10   11.07    0.40 
  -1  -3  10    6.06    0.36 
  -1  -3  10    6.38    0.42 
  -1   3  10    6.96    0.34 
  -1   3  10    6.59    0.40 
   1  -3  10    0.22    0.17 
   1  -3  10   -0.27    0.12 
   1   3  10    0.00    0.13 
   1   3  10   -0.06    0.14 
   3  -3  10    0.10    0.18 
   3  -3  10   -0.03    0.14 
   3   3  10   -0.22    0.14 
   3   3  10   -0.09    0.15 
   5  -3  10    2.26    0.33 
   5  -3  10    2.06    0.26 
   5   3  10    2.14    0.30 
   5   3  10    2.52    0.32 
   7  -3  10    1.37    0.32 
   7   3  10    1.25    0.27 
   7   3  10    1.37    0.28 
   9  -3  10    2.15    0.38 
   9   3  10    1.87    0.32 
   9   3  10    2.42    0.37 
  11  -3  10   -0.36    0.25 
  11   3  10    0.35    0.28 
  11   3  10    0.18    0.23 
  13  -3  10    0.46    0.34 
  13   3  10    0.00    0.28 
 -26  -4  10    0.61    0.41 
  26   4 -10    1.32    0.36 
  26   4 -10    0.78    0.27 
 -24  -4  10    2.40    0.51 
  24   4 -10    3.08    0.43 
  24   4 -10    3.49    0.41 
 -22  -4  10    0.09    0.27 
  22   4 -10    0.12    0.20 
  22   4 -10   -0.13    0.18 
 -20  -4  10   19.80    0.99 
 -20  -4  10   18.47    0.81 
  20  -4 -10   19.68    0.70 
 -20   4  10   18.72    0.72 
  20   4 -10   19.14    0.82 
  20   4 -10   20.45    0.80 
 -18  -4  10   28.93    1.18 
  18  -4 -10   28.87    0.87 
 -18  -4  10   30.14    1.05 
 -18   4  10   29.13    0.95 
  18   4 -10   27.91    0.98 
  16  -4 -10    3.50    0.24 
 -16  -4  10    3.71    0.37 
 -16  -4  10    4.62    0.51 
 -16   4  10    3.45    0.31 
  16   4 -10    3.35    0.33 
 -14  -4  10    0.42    0.18 
  14  -4 -10    0.47    0.10 
 -14  -4  10    0.42    0.22 
  14   4 -10    0.62    0.17 
 -14   4  10    0.45    0.16 
 -12  -4  10    0.94    0.21 
  12  -4 -10    0.90    0.10 
 -12  -4  10    1.11    0.25 
 -12   4  10    0.91    0.19 
  12   4 -10    0.74    0.17 
 -10  -4  10    5.14    0.37 
 -10  -4  10    5.09    0.41 
 -10   4  10    5.46    0.35 
  -8  -4  10   44.83    1.31 
  -8  -4  10   45.05    1.36 
  -8   4  10   45.32    1.29 
  -6  -4  10    0.43    0.17 
  -6  -4  10    0.52    0.17 
   6  -4 -10    0.64    0.08 
  -6   4  10    0.72    0.09 
  -6   4  10    0.56    0.16 
  -4  -4  10    9.02    0.48 
  -4  -4  10    7.99    0.43 
  -4   4  10    8.61    0.45 
  -4   4  10    8.48    0.31 
  -2  -4  10   21.34    0.74 
  -2  -4  10   21.42    0.80 
  -2   4  10   21.91    0.66 
  -2   4  10   22.06    0.78 
   0  -4  10    0.06    0.13 
   0  -4  10   -0.04    0.17 
   0   4  10    0.15    0.12 
   0   4  10    0.01    0.15 
   2  -4  10   12.63    0.63 
   2  -4  10   11.98    0.52 
   2   4  10   12.69    0.59 
   2   4  10   12.75    0.53 
   4  -4  10    0.28    0.15 
   4  -4  10    0.49    0.24 
   4   4  10    0.22    0.17 
   4   4  10   -0.04    0.17 
   6  -4  10    0.75    0.27 
   6   4  10    0.62    0.22 
   6   4  10    0.73    0.23 
   8  -4  10    1.13    0.33 
   8   4  10    0.92    0.26 
   8   4  10    0.78    0.26 
  10  -4  10    5.79    0.60 
  10   4  10    5.29    0.52 
  10   4  10    5.39    0.50 
  12  -4  10    0.33    0.32 
  12   4  10    0.63    0.31 
  12   4  10    0.48    0.28 
 -25  -5  10    1.45    0.46 
  25   5 -10    1.51    0.32 
  25   5 -10    1.84    0.37 
 -23  -5  10    4.01    0.59 
  23   5 -10    4.36    0.45 
  23   5 -10    3.60    0.43 
 -21  -5  10    6.86    0.67 
  21   5 -10    7.21    0.50 
  21   5 -10    7.08    0.53 
 -19  -5  10   24.63    1.14 
 -19  -5  10   27.71    1.01 
 -19   5  10   24.20    0.85 
  19   5 -10   26.38    0.95 
 -17  -5  10    4.91    0.54 
 -17  -5  10    4.38    0.41 
  17   5 -10    5.36    0.40 
 -17   5  10    4.92    0.35 
 -15  -5  10   -0.26    0.15 
 -15  -5  10   -0.02    0.19 
  15   5 -10    0.24    0.16 
 -15   5  10   -0.05    0.13 
 -13  -5  10    0.05    0.15 
 -13  -5  10   -0.12    0.17 
  13   5 -10    0.21    0.14 
 -13   5  10    0.04    0.13 
 -11  -5  10    2.16    0.33 
 -11  -5  10    2.84    0.32 
 -11   5  10    2.44    0.27 
  11   5 -10    2.02    0.25 
  -9  -5  10    3.30    0.32 
  -9  -5  10    3.56    0.37 
  -9   5  10    3.46    0.30 
  -7  -5  10   11.04    0.52 
  -7  -5  10   10.56    0.56 
  -7   5  10   10.94    0.50 
  -5  -5  10    0.92    0.21 
  -5  -5  10    0.50    0.18 
  -5   5  10    0.63    0.17 
  -5   5  10    0.55    0.11 
  -5   5  10    1.05    0.10 
  -3  -5  10    0.65    0.17 
  -3  -5  10    0.73    0.21 
  -3   5  10    0.71    0.11 
  -3   5  10    0.51    0.19 
  -1  -5  10   29.24    0.91 
  -1  -5  10   28.53    1.00 
  -1   5  10   28.86    0.97 
  -1   5  10   28.37    0.83 
   1  -5  10   21.53    0.75 
   1  -5  10   20.39    0.85 
   1   5  10   22.08    0.72 
   1   5  10   21.27    0.82 
   3  -5  10    0.47    0.24 
   3  -5  10    0.16    0.14 
   3   5  10    0.12    0.16 
   3   5  10   -0.16    0.16 
   5  -5  10    8.14    0.57 
   5   5  10    7.42    0.47 
   5   5  10    7.27    0.49 
   7  -5  10   -0.16    0.22 
   7   5  10   -0.06    0.19 
   7   5  10    0.26    0.21 
   9  -5  10   14.23    0.82 
   9   5  10   13.63    0.71 
   9   5  10   14.36    0.75 
  11  -5  10    0.20    0.30 
  11   5  10    0.52    0.29 
  11   5  10    0.39    0.25 
 -24  -6  10    1.05    0.44 
  24   6 -10    0.64    0.30 
  24   6 -10    0.86    0.29 
 -22  -6  10    0.84    0.39 
  22   6 -10    0.27    0.22 
  22   6 -10    0.37    0.24 
 -20  -6  10    0.59    0.32 
  20   6 -10    0.33    0.23 
 -18  -6  10   -0.21    0.23 
 -18  -6  10   -0.08    0.19 
  18   6 -10   -0.20    0.16 
 -18   6  10    0.14    0.15 
 -16  -6  10    1.83    0.37 
 -16  -6  10    1.34    0.29 
  16   6 -10    1.10    0.25 
 -16   6  10    0.90    0.19 
 -14  -6  10   14.75    0.78 
 -14  -6  10   13.53    0.66 
  14   6 -10   14.98    0.65 
 -14   6  10   15.00    0.60 
 -12  -6  10   24.10    0.89 
 -12  -6  10   24.13    0.98 
 -12   6  10   23.18    0.80 
  12   6 -10   23.30    0.84 
 -10  -6  10    0.00    0.18 
 -10  -6  10    0.18    0.16 
 -10   6  10    0.11    0.13 
  10   6 -10   -0.08    0.13 
  -8  -6  10   17.75    0.77 
  -8  -6  10   16.38    0.68 
   8   6 -10   16.68    0.64 
  -8   6  10   16.88    0.65 
  -6  -6  10    1.82    0.28 
  -6  -6  10    1.47    0.23 
  -6   6  10    1.51    0.23 
  -4  -6  10    5.22    0.36 
  -4  -6  10    4.64    0.41 
  -4   6  10    4.60    0.36 
  -4   6  10    4.89    0.20 
  -2  -6  10   20.24    0.83 
  -2  -6  10   18.91    0.72 
  -2   6  10   21.97    0.79 
  -2   6  10   19.83    0.60 
   0  -6  10    4.82    0.43 
   0  -6  10    4.88    0.35 
   0   6  10    5.82    0.32 
   0   6  10    5.45    0.41 
   2  -6  10    5.33    0.35 
   2  -6  10    7.01    0.51 
   2   6  10    5.87    0.44 
   2   6  10    5.46    0.36 
   4  -6  10    7.75    0.57 
   4   6  10    6.95    0.49 
   4   6  10    7.74    0.45 
   6  -6  10    1.59    0.34 
   6   6  10    1.29    0.28 
   6   6  10    0.95    0.25 
   8  -6  10    0.40    0.27 
   8   6  10    0.28    0.24 
   8   6  10    0.31    0.24 
  10  -6  10    1.41    0.37 
  10   6  10    0.96    0.29 
  10   6  10    0.40    0.27 
 -25  -7  10    0.73    0.45 
  25   7 -10    0.34    0.29 
  25   7 -10    0.62    0.28 
 -23  -7  10    0.75    0.39 
  23   7 -10    0.15    0.24 
  23   7 -10    0.07    0.24 
 -21  -7  10    0.15    0.30 
  21   7 -10    0.16    0.21 
 -19  -7  10    1.36    0.40 
  19   7 -10    1.25    0.28 
 -17  -7  10    3.55    0.51 
 -17  -7  10    2.63    0.38 
 -17   7  10    3.13    0.30 
  17   7 -10    3.59    0.38 
 -15  -7  10    2.32    0.42 
 -15  -7  10    2.10    0.32 
  15   7 -10    2.00    0.30 
 -15   7  10    2.04    0.25 
 -13  -7  10    0.50    0.22 
 -13  -7  10    0.39    0.23 
  13   7 -10    0.97    0.23 
 -13   7  10    0.74    0.18 
 -11  -7  10    5.06    0.39 
 -11  -7  10    4.65    0.47 
  11   7 -10    4.15    0.35 
 -11   7  10    4.68    0.35 
  -9  -7  10    1.07    0.29 
  -9  -7  10    0.73    0.21 
  -9   7  10    1.61    0.24 
   9   7 -10    0.85    0.19 
  -7  -7  10    0.00    0.15 
  -7  -7  10   -0.07    0.18 
   7   7 -10   -0.08    0.12 
  -7   7  10   -0.07    0.13 
  -5  -7  10    1.98    0.31 
  -5  -7  10    1.84    0.27 
  -5   7  10    1.86    0.27 
   5   7 -10    2.22    0.25 
  -3  -7  10    1.90    0.32 
  -3  -7  10    1.78    0.25 
  -3   7  10    1.61    0.27 
  -1  -7  10    0.26    0.22 
  -1  -7  10    0.18    0.16 
  -1   7  10    0.34    0.13 
  -1   7  10    0.36    0.18 
   1  -7  10    0.51    0.24 
   1  -7  10    0.99    0.21 
   1   7  10    0.55    0.21 
   1   7  10    1.00    0.19 
   3  -7  10    0.00    0.22 
   3   7  10    0.14    0.19 
   3   7  10    0.10    0.16 
   5  -7  10    1.02    0.31 
   5   7  10    0.60    0.24 
   5   7  10    0.54    0.21 
   7  -7  10    0.30    0.26 
   7   7  10   -0.09    0.20 
   7   7  10   -0.17    0.21 
   9  -7  10    0.30    0.28 
   9   7  10    0.25    0.24 
   9   7  10   -0.02    0.23 
  11  -7  10    0.48    0.34 
  11   7  10    0.36    0.27 
  11   7  10    0.10    0.27 
 -24  -8  10    0.38    0.40 
  24   8 -10    0.68    0.32 
  24   8 -10    0.56    0.28 
 -22  -8  10    2.07    0.49 
  22   8 -10    2.41    0.38 
 -20  -8  10   -0.04    0.32 
  20   8 -10    0.33    0.24 
 -18  -8  10    0.19    0.28 
  18   8 -10    0.35    0.23 
 -16  -8  10    1.35    0.35 
 -16   8  10    2.34    0.27 
  16   8 -10    2.78    0.35 
 -14  -8  10    0.20    0.26 
 -14  -8  10   -0.03    0.19 
 -14   8  10    0.20    0.16 
  14   8 -10    0.27    0.19 
 -12  -8  10    4.15    0.43 
 -12  -8  10    3.66    0.46 
  12   8 -10    3.88    0.37 
 -12   8  10    4.17    0.34 
 -10  -8  10    2.99    0.42 
 -10  -8  10    2.69    0.33 
 -10   8  10    3.04    0.31 
  10   8 -10    2.21    0.28 
  -8  -8  10    1.29    0.25 
  -8  -8  10    2.32    0.38 
  -8   8  10    1.53    0.25 
   8   8 -10    1.63    0.25 
  -6  -8  10    0.44    0.19 
  -6  -8  10    0.39    0.24 
  -6   8  10    0.78    0.21 
   6   8 -10    0.40    0.17 
  -4  -8  10   20.33    0.75 
  -4  -8  10   20.21    0.87 
  -4   8  10   19.03    0.76 
   4   8 -10   18.95    0.70 
  -2  -8  10   11.48    0.54 
  -2  -8  10   12.24    0.68 
   2   8 -10   11.34    0.51 
  -2   8  10   12.79    0.61 
   0  -8  10    0.08    0.22 
   0  -8  10    0.08    0.15 
   0   8  10    0.05    0.19 
   0   8 -10    0.23    0.14 
   2  -8  10    9.60    0.63 
   2   8  10    9.26    0.57 
   4  -8  10    2.11    0.36 
   4   8  10    2.00    0.33 
   4   8  10    1.92    0.32 
   6  -8  10    0.35    0.28 
   6   8  10    0.19    0.20 
   6   8  10    0.26    0.23 
   8  -8  10    1.89    0.41 
   8   8  10    1.37    0.32 
   8   8  10    1.43    0.31 
  10  -8  10    0.94    0.37 
  10   8  10    1.21    0.33 
  10   8  10    0.25    0.26 
 -23  -9  10    0.20    0.37 
  23   9 -10   -0.11    0.22 
  23   9 -10    0.11    0.27 
 -21  -9  10    2.99    0.58 
  21   9 -10    2.96    0.40 
 -19  -9  10    6.58    0.74 
  19   9 -10    6.40    0.54 
 -17  -9  10    1.04    0.39 
  17   9 -10    1.33    0.31 
 -15  -9  10    3.65    0.52 
 -15   9  10    2.51    0.28 
  15   9 -10    2.29    0.32 
 -13  -9  10    2.52    0.46 
 -13  -9  10    3.09    0.39 
 -13   9  10    2.44    0.29 
  13   9 -10    2.72    0.34 
 -11  -9  10    9.38    0.68 
 -11  -9  10    9.70    0.58 
 -11   9  10    9.97    0.50 
  11   9 -10    8.86    0.52 
  -9  -9  10   18.35    0.77 
  -9  -9  10   18.20    0.88 
  -9   9  10   17.45    0.71 
   9   9 -10   18.96    0.74 
  -7  -9  10   22.72    0.84 
  -7  -9  10   20.78    0.94 
  -7   9  10   19.51    0.78 
   7   9 -10   20.57    0.77 
  -5  -9  10    5.82    0.43 
  -5  -9  10    6.37    0.52 
   5   9 -10    5.58    0.38 
  -5   9  10    6.31    0.43 
  -3  -9  10    0.24    0.22 
  -3  -9  10    0.30    0.18 
  -3   9  10    0.17    0.18 
   3   9 -10    0.00    0.14 
  -1  -9  10   13.82    0.60 
  -1  -9  10   13.91    0.75 
  -1   9  10   12.59    0.65 
   1   9 -10   13.29    0.55 
   1  -9  10   17.64    0.87 
   1   9  10   17.99    0.80 
   3  -9  10    1.64    0.36 
   3   9  10    1.17    0.29 
   5  -9  10   -0.11    0.24 
   5   9  10   -0.03    0.22 
   7  -9  10    1.69    0.39 
   7   9  10    1.53    0.33 
   9  -9  10    5.74    0.64 
   9   9  10    4.58    0.53 
 -22 -10  10    1.86    0.54 
  22  10 -10    2.68    0.43 
 -20 -10  10    0.97    0.44 
  20  10 -10    1.05    0.32 
 -18 -10  10    4.51    0.64 
  18  10 -10    3.87    0.43 
 -16 -10  10   -0.01    0.30 
  16  10 -10    0.29    0.21 
 -14 -10  10    6.11    0.63 
 -14  10  10    6.16    0.41 
  14  10 -10    5.54    0.47 
 -12 -10  10    2.22    0.44 
 -12  10  10    1.97    0.28 
 -10 -10  10    0.12    0.21 
 -10 -10  10    0.52    0.29 
 -10  10  10    0.21    0.17 
  10  10 -10    0.46    0.20 
  -8 -10  10    8.67    0.66 
  -8 -10  10    7.87    0.52 
   8  10 -10    8.53    0.49 
  -8  10  10    7.70    0.48 
  -6 -10  10    5.61    0.44 
  -6 -10  10    6.20    0.56 
  -6  10  10    6.29    0.45 
   6  10 -10    5.76    0.41 
  -4 -10  10    9.01    0.50 
  -4 -10  10    8.36    0.62 
  -4  10  10    8.04    0.51 
   4  10 -10    7.70    0.45 
  -2 -10  10    0.12    0.23 
  -2 -10  10    0.10    0.17 
   2  10 -10    0.09    0.14 
  -2  10  10    0.12    0.20 
   0 -10  10    1.54    0.33 
   0  10  10    1.29    0.28 
   2 -10  10   -0.03    0.24 
   2  10  10    0.20    0.23 
   4 -10  10    0.34    0.29 
   4  10  10   -0.26    0.21 
   6 -10  10    3.62    0.51 
   6  10  10    3.96    0.49 
   8 -10  10    7.04    0.68 
   8  10  10    6.39    0.60 
 -21 -11  10    1.07    0.47 
  21  11 -10    0.61    0.29 
 -19 -11  10    0.32    0.36 
  19  11 -10    0.21    0.24 
 -17 -11  10   -0.15    0.28 
  17  11 -10   -0.10    0.21 
 -15 -11  10    1.29    0.40 
  15  11 -10    1.41    0.31 
 -13 -11  10    1.67    0.42 
 -13  11  10    1.35    0.24 
  13  11 -10    1.90    0.32 
 -11 -11  10    0.19    0.28 
  11  11 -10   -0.17    0.17 
 -11  11  10   -0.06    0.16 
  -9 -11  10    9.11    0.71 
  -9  11  10    9.09    0.52 
   9  11 -10    9.23    0.55 
  -7 -11  10    0.74    0.32 
  -7  11  10    1.33    0.27 
   7  11 -10    0.66    0.22 
  -5 -11  10    1.43    0.37 
  -5 -11  10    1.26    0.27 
   5  11 -10    1.39    0.25 
  -5  11  10    1.27    0.27 
  -3 -11  10   -0.02    0.23 
  -3 -11  10    0.41    0.21 
  -3  11  10    0.24    0.20 
   3  11 -10    0.56    0.19 
  -1 -11  10    1.11    0.33 
  -1  11  10    0.43    0.22 
   1 -11  10   -0.13    0.25 
   1  11  10    0.49    0.25 
   3 -11  10    0.68    0.33 
   3  11  10    0.92    0.31 
   5 -11  10    1.67    0.40 
   5  11  10    2.26    0.38 
   7 -11  10    0.39    0.34 
   7  11  10    0.64    0.32 
 -18 -12  10    0.31    0.36 
  18  12 -10   -0.01    0.24 
 -16 -12  10    0.53    0.36 
  16  12 -10    0.29    0.26 
 -14 -12  10    0.72    0.36 
  14  12 -10    0.86    0.26 
 -12 -12  10    1.32    0.40 
 -12  12  10    1.41    0.27 
  12  12 -10    1.54    0.30 
 -10 -12  10    0.12    0.30 
  10  12 -10   -0.11    0.18 
 -10  12  10   -0.12    0.17 
  -8 -12  10    0.40    0.31 
   8  12 -10    0.42    0.22 
  -8  12  10    0.19    0.20 
  -6 -12  10    1.14    0.34 
  -6  12  10    0.96    0.26 
   6  12 -10    0.56    0.22 
  -4 -12  10    1.02    0.34 
  -4  12  10    0.84    0.25 
   4  12 -10    0.82    0.26 
  -2 -12  10    0.32    0.31 
  -2  12  10    0.29    0.22 
   0 -12  10    1.71    0.40 
   0  12  10    1.93    0.35 
   2 -12  10    0.38    0.30 
   2  12  10    0.66    0.29 
   4 -12  10    0.02    0.30 
   4  12  10    0.44    0.27 
 -17 -13  10    3.47    0.63 
  17  13 -10    3.74    0.47 
 -15 -13  10   12.33    0.95 
  15  13 -10   11.49    0.71 
 -13 -13  10    0.91    0.40 
  13  13 -10    1.29    0.31 
 -11 -13  10    1.47    0.43 
 -11  13  10    1.39    0.27 
  11  13 -10    1.58    0.31 
  -9 -13  10   -0.09    0.29 
  -9  13  10    0.22    0.22 
   9  13 -10    0.08    0.20 
  -7 -13  10    0.39    0.31 
  -7  13  10    0.89    0.26 
   7  13 -10    0.61    0.24 
  -5 -13  10    1.05    0.36 
   5  13 -10    0.24    0.20 
  -5  13  10    0.84    0.26 
  -3 -13  10    0.77    0.33 
  -3  13  10    1.00    0.28 
  -1 -13  10    0.24    0.32 
  -1  13  10    0.72    0.27 
   1 -13  10    0.40    0.32 
   1  13  10    0.50    0.28 
   3 -13  10    3.29    0.54 
   3  13  10    2.62    0.44 
 -14 -14  10    3.75    0.64 
  14  14 -10    3.34    0.45 
 -12 -14  10    2.22    0.52 
 -10 -14  10    0.53    0.37 
  10  14 -10    0.26    0.26 
 -10  14  10    0.27    0.36 
  -8 -14  10    0.04    0.31 
  -8  14  10    0.02    0.20 
   8  14 -10    0.08    0.21 
  -6 -14  10    0.14    0.30 
  -6  14  10   -0.13    0.19 
   6  14 -10    0.03    0.20 
  -4 -14  10    0.69    0.35 
  -4  14  10    1.12    0.30 
  -2 -14  10    1.53    0.42 
  -2  14  10    1.47    0.35 
   0 -14  10    0.46    0.34 
   0  14  10    0.43    0.27 
 -11 -15  10    0.31    0.38 
  11  15 -10    0.05    0.25 
   9  15 -10    3.06    0.41 
  -7 -15  10    0.38    0.36 
   7  15 -10    0.43    0.25 
  -7  15  10    0.59    0.25 
  -5 -15  10    1.19    0.43 
  -5  15  10    1.10    0.31 
  -3 -15  10    0.12    0.36 
  -3  15  10    0.17    0.24 
  26   0 -11    0.10    0.20 
  24   0 -11   -0.11    0.15 
 -24   0  11    0.16    0.28 
 -24   0  11   -0.19    0.18 
  24   0 -11   -0.06    0.19 
  22   0 -11    0.15    0.17 
 -22   0  11    0.29    0.27 
  22   0 -11    0.11    0.17 
 -22   0  11    0.21    0.20 
  20   0 -11   -0.04    0.14 
  20   0 -11    0.04    0.14 
 -20   0  11   -0.23    0.15 
 -20   0  11    0.16    0.24 
  18   0 -11    0.18    0.14 
 -18   0  11   -0.10    0.19 
 -18   0  11   -0.07    0.15 
 -16   0  11    0.04    0.16 
 -16   0  11    0.01    0.17 
 -14   0  11    0.00    0.15 
 -14   0  11   -0.01    0.14 
 -12   0  11    0.06    0.15 
 -12   0  11    0.05    0.14 
 -10   0  11    0.01    0.12 
 -10   0  11    0.13    0.15 
  -8   0  11   -0.01    0.11 
  -8   0  11   -0.05    0.12 
  -6   0  11   -0.09    0.10 
  -6   0  11   -0.03    0.14 
  -4   0  11    0.00    0.11 
  -4   0  11   -0.02    0.14 
  -2   0  11    0.03    0.14 
  -2   0  11    0.11    0.13 
   2   0  11   -0.06    0.15 
   2   0  11   -0.06    0.16 
   4   0  11   -0.06    0.18 
   4   0  11   -0.19    0.16 
   6   0  11    0.33    0.20 
   6   0  11    0.20    0.23 
   8   0  11   -0.15    0.19 
   8   0  11    0.19    0.23 
  10   0  11    0.15    0.26 
  12   0  11   -0.09    0.28 
  27   1 -11    1.16    0.31 
  25  -1 -11    0.09    0.19 
 -25  -1  11    0.06    0.30 
  25   1 -11    0.14    0.19 
  25   1 -11    0.38    0.23 
 -23  -1  11    3.44    0.40 
  23  -1 -11    3.63    0.35 
 -23  -1  11    3.29    0.50 
  23  -1 -11    3.57    0.37 
  23   1 -11    3.34    0.38 
 -23   1  11    2.93    0.36 
  23   1 -11    3.96    0.39 
 -21  -1  11    0.63    0.29 
  21  -1 -11    1.02    0.21 
 -21  -1  11    0.75    0.24 
  21  -1 -11    0.86    0.21 
 -21   1  11    1.10    0.31 
  21   1 -11    0.96    0.23 
  21   1 -11    0.68    0.21 
 -21   1  11    0.72    0.23 
 -19  -1  11    8.98    0.61 
  19  -1 -11    8.28    0.44 
 -19  -1  11    9.95    0.54 
  19  -1 -11    8.16    0.45 
 -19   1  11    8.38    0.56 
  19   1 -11    8.91    0.48 
 -19   1  11    8.74    0.50 
  19   1 -11    9.40    0.49 
  17  -1 -11    2.57    0.26 
 -17  -1  11    1.94    0.32 
 -17  -1  11    2.47    0.32 
 -17   1  11    2.11    0.28 
 -17   1  11    2.47    0.34 
 -15  -1  11   22.33    0.85 
 -15  -1  11   20.57    0.80 
 -15   1  11   21.80    0.79 
 -15   1  11   20.71    0.78 
 -13  -1  11    9.28    0.50 
 -13  -1  11    9.19    0.49 
 -13   1  11    8.79    0.45 
 -13   1  11    9.16    0.48 
 -11  -1  11    0.52    0.18 
 -11  -1  11    0.77    0.19 
 -11   1  11    0.24    0.15 
 -11   1  11    0.42    0.15 
  -9  -1  11    0.99    0.21 
  -9  -1  11    0.62    0.17 
  -9   1  11    0.92    0.20 
  -9   1  11    0.74    0.15 
  -7  -1  11    7.60    0.42 
  -7  -1  11    7.84    0.40 
  -7   1  11    7.51    0.35 
  -7   1  11    7.24    0.42 
  -5  -1  11   21.94    0.79 
  -5  -1  11   23.24    0.77 
  -5   1  11   22.67    0.79 
  -5   1  11   22.16    0.71 
  -3  -1  11   -0.11    0.13 
  -3  -1  11   -0.12    0.11 
  -3   1  11   -0.01    0.11 
  -3   1  11    0.01    0.13 
  -1  -1  11    0.83    0.21 
  -1  -1  11    1.37    0.22 
  -1   1  11    1.30    0.21 
  -1   1  11    1.22    0.23 
   1  -1  11    6.23    0.44 
   1  -1  11    6.37    0.42 
   1   1  11    6.27    0.43 
   1   1  11    6.29    0.40 
   3  -1  11    1.42    0.26 
   3  -1  11    1.38    0.28 
   3   1  11    0.85    0.23 
   3   1  11    1.25    0.24 
   5  -1  11    0.51    0.25 
   5  -1  11    0.44    0.20 
   5   1  11    0.71    0.24 
   5   1  11    0.59    0.23 
   7  -1  11    3.42    0.37 
   7  -1  11    3.65    0.46 
   7   1  11    3.99    0.44 
   7   1  11    3.80    0.40 
   9  -1  11    0.87    0.32 
   9   1  11    0.14    0.26 
   9   1  11    0.63    0.24 
  11  -1  11    0.10    0.31 
  11   1  11   -0.11    0.26 
 -26  -2  11    2.42    0.51 
  26   2 -11    2.39    0.36 
  26   2 -11    1.97    0.35 
 -24  -2  11    2.67    0.49 
  24   2 -11    1.80    0.32 
  24   2 -11    2.52    0.34 
 -22  -2  11    6.46    0.61 
  22  -2 -11    6.49    0.42 
 -22  -2  11    6.30    0.50 
  22  -2 -11    6.64    0.44 
  22   2 -11    6.67    0.48 
  22   2 -11    5.35    0.43 
 -22   2  11    6.05    0.45 
 -20  -2  11    1.29    0.33 
  20  -2 -11    2.04    0.26 
  20  -2 -11    1.56    0.25 
 -20  -2  11    1.32    0.28 
  20   2 -11    1.33    0.24 
  20   2 -11    1.18    0.24 
 -20   2  11    1.21    0.25 
 -20   2  11    1.83    0.34 
 -18  -2  11   19.97    0.91 
 -18  -2  11   20.73    0.82 
  18  -2 -11   20.97    0.71 
 -18   2  11   20.80    0.79 
 -18   2  11   20.10    0.82 
  18   2 -11   19.92    0.77 
 -16  -2  11   22.16    0.86 
  16  -2 -11   24.18    0.74 
 -16  -2  11   22.73    0.93 
  16   2 -11   24.38    0.84 
 -16   2  11   23.28    0.83 
 -16   2  11   22.98    0.83 
 -14  -2  11    0.11    0.16 
 -14  -2  11    0.14    0.18 
 -14   2  11    0.16    0.16 
 -14   2  11   -0.09    0.13 
 -12  -2  11    2.30    0.29 
 -12  -2  11    2.63    0.32 
 -12   2  11    2.55    0.24 
 -12   2  11    2.45    0.28 
 -10  -2  11    5.81    0.39 
 -10  -2  11    6.83    0.40 
 -10   2  11    6.24    0.39 
 -10   2  11    5.73    0.30 
  -8  -2  11    0.31    0.16 
  -8  -2  11    0.28    0.15 
  -8   2  11    0.37    0.17 
  -8   2  11    0.31    0.11 
  -6  -2  11    3.64    0.32 
  -6  -2  11    3.09    0.29 
  -6   2  11    3.24    0.23 
  -6   2  11    3.17    0.30 
  -4  -2  11    0.17    0.14 
  -4  -2  11    0.22    0.15 
  -4   2  11    0.13    0.11 
  -4   2  11    0.16    0.15 
  -2  -2  11    4.45    0.35 
  -2  -2  11    4.93    0.37 
  -2   2  11    4.76    0.37 
  -2   2  11    5.39    0.32 
   0  -2  11    0.04    0.16 
   0  -2  11   -0.18    0.15 
   0   2  11    0.12    0.17 
   0   2  11    0.20    0.14 
   2  -2  11    1.32    0.24 
   2  -2  11    1.19    0.26 
   2   2  11    1.13    0.23 
   2   2  11    2.05    0.30 
   4  -2  11    0.33    0.19 
   4  -2  11    0.35    0.23 
   4   2  11    0.40    0.20 
   4   2  11    1.12    0.26 
   6  -2  11    1.72    0.27 
   6  -2  11    1.92    0.35 
   6   2  11    1.61    0.29 
   6   2  11    2.04    0.34 
   8  -2  11    1.83    0.38 
   8   2  11    1.85    0.35 
   8   2  11    1.59    0.31 
  10  -2  11    0.78    0.34 
  10   2  11    0.67    0.30 
  10   2  11    0.99    0.29 
 -25  -3  11    0.81    0.38 
  25   3 -11    1.13    0.27 
  25   3 -11    0.60    0.27 
 -23  -3  11    3.07    0.50 
  23   3 -11    2.55    0.36 
  23   3 -11    3.23    0.38 
 -21  -3  11    0.53    0.24 
  21  -3 -11    1.09    0.21 
 -21  -3  11    1.12    0.37 
  21   3 -11    1.03    0.25 
  21   3 -11    0.69    0.22 
 -21   3  11    0.67    0.22 
  19  -3 -11    7.78    0.42 
 -19  -3  11    9.15    0.64 
 -19  -3  11    9.25    0.56 
 -19   3  11    9.69    0.51 
  19   3 -11    8.65    0.51 
 -17  -3  11    1.42    0.26 
 -17  -3  11    1.90    0.36 
  17  -3 -11    2.16    0.22 
 -17   3  11    2.21    0.29 
 -17   3  11    1.85    0.27 
  17   3 -11    1.66    0.25 
 -15  -3  11    5.72    0.46 
  15  -3 -11    4.84    0.26 
 -15  -3  11    4.77    0.40 
  15   3 -11    4.82    0.37 
 -15   3  11    4.81    0.36 
 -15   3  11    4.92    0.33 
 -13  -3  11    7.84    0.45 
 -13  -3  11    6.45    0.47 
  13  -3 -11    6.47    0.27 
 -13   3  11    6.26    0.33 
 -13   3  11    5.29    0.38 
 -11  -3  11    1.48    0.26 
 -11  -3  11    0.87    0.21 
 -11   3  11    1.26    0.15 
 -11   3  11    1.00    0.21 
  -9  -3  11   13.07    0.60 
  -9  -3  11   12.97    0.58 
   9  -3 -11   13.18    0.39 
  -9   3  11   13.05    0.43 
  -9   3  11   12.86    0.57 
  -7  -3  11    4.65    0.35 
   7  -3 -11    4.06    0.31 
  -7  -3  11    3.75    0.34 
  -7   3  11    4.25    0.23 
  -7   3  11    4.65    0.34 
  -5  -3  11    5.71    0.38 
  -5  -3  11    6.73    0.41 
  -5   3  11    5.96    0.28 
  -5   3  11    6.80    0.40 
  -3  -3  11    4.04    0.34 
  -3  -3  11    3.70    0.32 
  -3   3  11    3.69    0.26 
  -3   3  11    3.61    0.34 
  -1  -3  11    0.75    0.21 
  -1  -3  11    0.46    0.18 
  -1   3  11    0.23    0.17 
  -1   3  11    0.37    0.14 
   1  -3  11   22.33    0.87 
   1  -3  11   22.79    0.80 
   1   3  11   20.76    0.81 
   1   3  11   23.20    0.78 
   3  -3  11    0.84    0.21 
   3   3  11    0.85    0.24 
   3   3  11    0.78    0.22 
   5  -3  11    2.62    0.38 
   5  -3  11    2.40    0.30 
   5   3  11    2.26    0.33 
   5   3  11    2.12    0.32 
   7  -3  11    0.21    0.25 
   7   3  11    0.21    0.22 
   7   3  11   -0.09    0.20 
   9  -3  11    5.54    0.58 
   9   3  11    4.96    0.49 
   9   3  11    5.01    0.51 
  11  -3  11    9.14    0.74 
  11   3  11    8.74    0.70 
  11   3  11    9.42    0.70 
 -26  -4  11    0.71    0.40 
  26   4 -11    0.72    0.28 
  26   4 -11    0.63    0.29 
 -24  -4  11    0.55    0.36 
  24   4 -11    1.27    0.30 
  24   4 -11    1.35    0.32 
 -22  -4  11    0.72    0.34 
  22   4 -11    0.95    0.26 
  22   4 -11    0.70    0.24 
 -20  -4  11    0.17    0.20 
 -20  -4  11    0.06    0.25 
 -20   4  11   -0.11    0.15 
  20   4 -11    0.09    0.18 
 -18  -4  11    4.13    0.50 
 -18  -4  11    4.24    0.42 
 -18   4  11    4.16    0.35 
  18   4 -11    3.73    0.37 
 -16  -4  11   12.32    0.63 
 -16  -4  11   12.45    0.70 
  16   4 -11   12.12    0.58 
 -16   4  11   12.26    0.56 
 -14  -4  11    5.62    0.42 
 -14  -4  11    5.56    0.47 
  14   4 -11    4.99    0.38 
 -14   4  11    5.06    0.36 
 -12  -4  11   12.26    0.59 
 -12  -4  11   13.23    0.65 
 -12   4  11   12.37    0.56 
 -10  -4  11    2.20    0.27 
 -10  -4  11    3.12    0.36 
 -10   4  11    2.18    0.27 
  -8  -4  11    0.39    0.18 
  -8  -4  11    0.02    0.15 
  -8   4  11    0.19    0.15 
  -8   4  11    0.03    0.07 
  -6  -4  11   15.95    0.65 
  -6  -4  11   15.32    0.67 
  -6   4  11   16.46    0.66 
  -6   4  11   15.92    0.47 
  -4  -4  11    9.74    0.50 
  -4  -4  11    9.40    0.51 
  -4   4  11    9.70    0.50 
  -4   4  11    9.28    0.36 
  -2  -4  11    1.99    0.26 
  -2  -4  11    1.46    0.26 
  -2   4  11    2.44    0.30 
  -2   4  11    1.78    0.20 
   0  -4  11    0.03    0.18 
   0  -4  11    0.06    0.15 
   0   4  11   -0.06    0.11 
   0   4  11   -0.10    0.15 
   2  -4  11    0.21    0.21 
   2  -4  11    0.11    0.15 
   2   4  11    0.17    0.16 
   2   4  11    0.15    0.18 
   4  -4  11    0.91    0.22 
   4  -4  11    1.20    0.31 
   4   4  11    1.14    0.28 
   4   4  11    0.92    0.24 
   6  -4  11    0.14    0.24 
   6   4  11    0.09    0.20 
   6   4  11    0.13    0.21 
   8  -4  11    0.07    0.25 
   8   4  11    0.18    0.22 
   8   4  11   -0.06    0.23 
  10  -4  11    0.33    0.31 
  10   4  11    0.27    0.27 
  10   4  11    0.20    0.25 
 -25  -5  11   -0.01    0.33 
  25   5 -11    0.17    0.25 
  25   5 -11   -0.14    0.22 
 -23  -5  11   -0.06    0.30 
  23   5 -11   -0.11    0.22 
  23   5 -11    0.03    0.23 
 -21  -5  11    1.06    0.30 
 -21  -5  11    0.93    0.33 
  21   5 -11    1.36    0.28 
 -19  -5  11    0.35    0.22 
 -19  -5  11    0.51    0.29 
  19   5 -11    0.15    0.20 
 -17  -5  11    2.14    0.32 
 -17  -5  11    2.51    0.40 
  17   5 -11    2.08    0.30 
 -17   5  11    2.82    0.31 
 -15  -5  11   40.77    1.43 
 -15  -5  11   40.93    1.32 
  15   5 -11   41.28    1.27 
 -15   5  11   40.88    1.23 
 -13  -5  11    9.76    0.54 
 -13  -5  11    9.89    0.61 
 -13   5  11   10.39    0.51 
  13   5 -11   10.35    0.52 
 -11  -5  11    8.83    0.55 
 -11  -5  11    6.95    0.45 
 -11   5  11    7.80    0.44 
  -9  -5  11    7.04    0.44 
  -9  -5  11    7.60    0.50 
  -9   5  11    7.50    0.43 
  -7  -5  11    6.91    0.44 
  -7  -5  11    8.41    0.50 
  -7   5  11    7.83    0.45 
  -5  -5  11    2.57    0.34 
  -5  -5  11    2.61    0.29 
  -5   5  11    1.94    0.15 
  -5   5  11    2.70    0.31 
  -3  -5  11    0.45    0.18 
  -3  -5  11    0.78    0.23 
  -3   5  11    0.56    0.12 
  -3   5  11    0.44    0.17 
  -1  -5  11   -0.02    0.15 
  -1  -5  11    0.03    0.18 
  -1   5  11    0.13    0.17 
  -1   5  11    0.17    0.12 
   1  -5  11    1.80    0.26 
   1  -5  11    2.11    0.33 
   1   5  11    1.72    0.24 
   1   5  11    1.60    0.28 
   3  -5  11    2.03    0.34 
   3  -5  11    1.39    0.24 
   3   5  11    1.48    0.24 
   3   5  11    1.92    0.32 
   5  -5  11    0.19    0.24 
   5   5  11    0.24    0.21 
   5   5  11    0.10    0.20 
   7  -5  11    1.93    0.40 
   7   5  11    1.70    0.32 
   7   5  11    2.23    0.35 
   9  -5  11    0.36    0.30 
   9   5  11   -0.10    0.23 
   9   5  11    0.06    0.24 
 -24  -6  11   -0.18    0.32 
  24   6 -11    0.28    0.26 
  24   6 -11    0.14    0.23 
 -22  -6  11    0.48    0.33 
  22   6 -11    0.12    0.24 
 -20  -6  11   -0.18    0.26 
  20   6 -11   -0.06    0.18 
 -18  -6  11    0.12    0.22 
 -18  -6  11    0.03    0.24 
 -18   6  11    0.26    0.16 
  18   6 -11   -0.03    0.18 
 -16  -6  11   -0.03    0.24 
 -16  -6  11    0.00    0.18 
 -16   6  11    0.13    0.15 
  16   6 -11   -0.12    0.16 
 -14  -6  11    0.18    0.19 
 -14  -6  11   -0.31    0.18 
  14   6 -11   -0.03    0.15 
 -14   6  11   -0.02    0.14 
 -12  -6  11    0.27    0.23 
 -12  -6  11    0.09    0.18 
 -12   6  11    0.17    0.16 
  12   6 -11   -0.06    0.15 
 -10  -6  11    5.69    0.48 
 -10  -6  11    5.36    0.41 
  10   6 -11    5.62    0.39 
 -10   6  11    6.47    0.40 
  -8  -6  11    2.17    0.32 
  -8  -6  11    1.98    0.27 
  -8   6  11    2.26    0.28 
  -6  -6  11    2.38    0.30 
  -6  -6  11    2.28    0.32 
  -6   6  11    2.92    0.33 
  -4  -6  11    8.27    0.53 
  -4  -6  11    8.26    0.46 
  -4   6  11    8.02    0.48 
  -2  -6  11   45.10    1.43 
  -2  -6  11   44.26    1.30 
  -2   6  11   44.04    1.17 
  -2   6  11   42.68    1.34 
   0  -6  11   16.58    0.66 
   0  -6  11   18.46    0.81 
   0   6  11   16.54    0.60 
   0   6  11   17.16    0.74 
   2  -6  11    1.18    0.23 
   2  -6  11    1.40    0.32 
   2   6  11    0.92    0.21 
   2   6  11    1.19    0.28 
   4  -6  11    1.66    0.34 
   4   6  11    1.69    0.27 
   4   6  11    1.67    0.32 
   6  -6  11    0.22    0.25 
   6   6  11    1.00    0.28 
   6   6  11    0.93    0.30 
   8  -6  11    3.78    0.50 
   8   6  11    3.38    0.42 
   8   6  11    4.83    0.51 
  10  -6  11    0.40    0.30 
  10   6  11    0.10    0.27 
  10   6  11    0.14    0.28 
  25   7 -11    1.31    0.33 
 -23  -7  11    2.09    0.49 
  23   7 -11    1.92    0.37 
  23   7 -11    2.78    0.42 
 -21  -7  11    1.22    0.42 
  21   7 -11    1.19    0.32 
 -19  -7  11    6.75    0.68 
  19   7 -11    7.52    0.53 
 -17  -7  11    3.20    0.42 
 -17  -7  11    2.96    0.47 
  17   7 -11    3.01    0.39 
 -15  -7  11    0.26    0.27 
 -15  -7  11    0.29    0.22 
  15   7 -11    0.53    0.21 
 -15   7  11    0.63    0.19 
 -13  -7  11    1.96    0.38 
 -13  -7  11    1.48    0.30 
 -13   7  11    1.65    0.25 
  13   7 -11    1.94    0.29 
 -11  -7  11   24.51    1.02 
 -11  -7  11   22.51    0.90 
  11   7 -11   24.01    0.87 
 -11   7  11   24.66    0.86 
  -9  -7  11   19.00    0.75 
  -9  -7  11   17.15    0.82 
  -9   7  11   15.98    0.68 
   9   7 -11   17.27    0.69 
  -7  -7  11    0.09    0.20 
  -7  -7  11   -0.17    0.16 
  -7   7  11    0.04    0.15 
   7   7 -11    0.05    0.15 
  -5  -7  11   13.15    0.68 
  -5  -7  11   12.97    0.60 
  -5   7  11   13.91    0.63 
  -3  -7  11    7.50    0.54 
  -3  -7  11    7.26    0.45 
  -3   7  11    7.06    0.47 
  -1  -7  11    0.14    0.17 
  -1  -7  11    0.25    0.21 
  -1   7  11    0.19    0.19 
   1  -7  11   24.33    0.85 
   1  -7  11   23.75    0.99 
   1   7  11   23.47    0.93 
   3  -7  11    0.75    0.27 
   3   7  11    0.99    0.27 
   5  -7  11    0.04    0.26 
   5   7  11    0.19    0.21 
   5   7  11   -0.05    0.21 
   7  -7  11   -0.11    0.25 
   7   7  11    0.34    0.24 
   7   7  11   -0.05    0.21 
   9  -7  11    3.94    0.55 
   9   7  11    3.47    0.45 
   9   7  11    2.83    0.42 
 -24  -8  11    0.25    0.37 
  24   8 -11   -0.07    0.24 
  24   8 -11   -0.42    0.21 
 -22  -8  11    0.56    0.38 
  22   8 -11    0.97    0.29 
 -20  -8  11   -0.04    0.31 
  20   8 -11   -0.11    0.22 
 -18  -8  11    0.79    0.35 
  18   8 -11    1.14    0.28 
 -16  -8  11   14.57    0.90 
 -16  -8  11   17.03    0.80 
  16   8 -11   17.14    0.75 
 -14  -8  11   -0.15    0.23 
 -14  -8  11    0.18    0.20 
  14   8 -11   -0.10    0.17 
 -14   8  11   -0.15    0.14 
 -12  -8  11    0.02    0.20 
 -12  -8  11    0.00    0.23 
  12   8 -11   -0.16    0.16 
 -12   8  11    0.05    0.15 
 -10  -8  11    0.99    0.25 
 -10  -8  11    0.42    0.26 
  10   8 -11    1.08    0.24 
 -10   8  11    1.24    0.24 
  -8  -8  11    1.22    0.32 
  -8  -8  11    1.14    0.26 
   8   8 -11    1.16    0.23 
  -8   8  11    1.21    0.25 
  -6  -8  11    1.83    0.28 
  -6  -8  11    1.46    0.32 
   6   8 -11    1.22    0.23 
  -6   8  11    1.88    0.29 
  -4  -8  11    9.23    0.51 
  -4  -8  11    9.27    0.61 
  -4   8  11    8.75    0.52 
   4   8 -11    8.46    0.46 
  -2  -8  11    5.23    0.54 
  -2  -8  11    5.38    0.40 
  -2   8  11    5.88    0.46 
   2   8 -11    6.00    0.37 
   0  -8  11    1.22    0.32 
   0  -8  11    1.56    0.25 
   0   8  11    1.76    0.32 
   2  -8  11    1.16    0.32 
   2   8  11    0.91    0.28 
   4  -8  11   -0.16    0.23 
   4   8  11    0.08    0.23 
   6  -8  11    0.12    0.29 
   6   8  11    0.12    0.24 
   8  -8  11    0.15    0.30 
   8   8  11   -0.07    0.24 
 -23  -9  11    0.22    0.37 
  23   9 -11    0.17    0.25 
 -21  -9  11   -0.20    0.32 
  21   9 -11    0.22    0.24 
 -19  -9  11    0.88    0.41 
  19   9 -11    0.25    0.24 
 -17  -9  11    3.58    0.53 
  17   9 -11    5.03    0.47 
 -15  -9  11    5.13    0.50 
 -15  -9  11    3.03    0.48 
  15   9 -11    4.07    0.42 
 -15   9  11    4.18    0.37 
 -13  -9  11    5.06    0.48 
 -13  -9  11    5.51    0.58 
 -13   9  11    5.96    0.42 
  13   9 -11    4.85    0.43 
 -11  -9  11    0.02    0.20 
 -11  -9  11    0.17    0.26 
 -11   9  11   -0.15    0.14 
  11   9 -11    0.15    0.17 
  -9  -9  11    0.18    0.25 
  -9  -9  11    0.03    0.20 
  -9   9  11    0.38    0.19 
   9   9 -11    0.26    0.18 
  -7  -9  11    0.04    0.20 
  -7  -9  11    0.21    0.24 
   7   9 -11    0.06    0.17 
  -7   9  11   -0.09    0.16 
  -5  -9  11    0.24    0.25 
  -5  -9  11    0.11    0.19 
  -5   9  11    0.17    0.19 
   5   9 -11    0.15    0.17 
  -3  -9  11    2.42    0.32 
  -3  -9  11    2.63    0.41 
   3   9 -11    1.93    0.27 
  -3   9  11    2.34    0.34 
  -1  -9  11    3.32    0.44 
  -1  -9  11    3.21    0.34 
  -1   9  11    3.22    0.39 
   1  -9  11    1.45    0.35 
   1   9  11    1.38    0.31 
   3  -9  11    0.38    0.26 
   3   9  11    0.23    0.24 
   5  -9  11    0.02    0.27 
   5   9  11    0.06    0.22 
   7  -9  11    0.81    0.36 
   7   9  11    1.07    0.33 
 -22 -10  11    0.47    0.43 
  22  10 -11    0.70    0.30 
 -20 -10  11    0.47    0.39 
  20  10 -11    1.07    0.32 
 -18 -10  11   -0.07    0.30 
  18  10 -11   -0.11    0.21 
 -16 -10  11    0.45    0.34 
  16  10 -11    0.69    0.27 
 -14 -10  11    1.90    0.44 
 -14  10  11    1.23    0.24 
  14  10 -11    1.12    0.28 
 -12 -10  11    0.85    0.29 
 -12 -10  11    1.01    0.36 
  12  10 -11    1.09    0.27 
 -12  10  11    0.65    0.22 
 -10 -10  11   -0.30    0.24 
 -10 -10  11   -0.17    0.20 
 -10  10  11   -0.03    0.17 
  10  10 -11   -0.10    0.18 
  -8 -10  11   30.25    1.06 
  -8 -10  11   28.76    1.21 
  -8  10  11   28.72    1.03 
   8  10 -11   28.70    1.00 
  -6 -10  11   10.53    0.72 
  -6 -10  11   10.38    0.57 
   6  10 -11   10.26    0.53 
  -6  10  11    9.87    0.57 
  -4 -10  11    1.40    0.28 
  -4 -10  11    1.04    0.34 
   4  10 -11    0.91    0.21 
  -4  10  11    0.62    0.23 
  -2 -10  11    2.10    0.40 
  -2 -10  11    1.20    0.26 
  -2  10  11    2.15    0.33 
   2  10 -11    1.66    0.26 
   0 -10  11   -0.10    0.24 
   0  10  11    0.03    0.20 
   2 -10  11    0.49    0.29 
   2  10  11    0.65    0.28 
   4 -10  11    0.14    0.28 
   4  10  11    0.87    0.31 
   6 -10  11   -0.04    0.28 
   6  10  11   -0.11    0.25 
 -19 -11  11   21.93    1.26 
  19  11 -11   21.19    0.96 
 -17 -11  11    1.25    0.42 
  17  11 -11    1.18    0.30 
 -15 -11  11    1.99    0.48 
  15  11 -11    1.74    0.34 
 -13 -11  11   -0.01    0.28 
  13  11 -11    0.27    0.22 
 -13  11  11    0.40    0.19 
 -11 -11  11    2.95    0.50 
 -11  11  11    2.57    0.33 
  11  11 -11    2.54    0.36 
  -9 -11  11    6.69    0.65 
  -9 -11  11    7.70    0.55 
   9  11 -11    8.21    0.51 
  -9  11  11    7.57    0.51 
  -7 -11  11    0.74    0.26 
  -7 -11  11    0.88    0.35 
   7  11 -11    0.79    0.23 
  -7  11  11    1.20    0.27 
  -5 -11  11    1.95    0.32 
  -5 -11  11    1.89    0.40 
   5  11 -11    1.41    0.26 
  -5  11  11    0.96    0.26 
  -3 -11  11    0.38    0.29 
  -3 -11  11    0.23    0.21 
  -3  11  11    0.47    0.25 
   3  11 -11    0.42    0.19 
  -1 -11  11    0.16    0.29 
  -1  11  11    0.36    0.24 
   1 -11  11    0.08    0.26 
   1  11  11    0.20    0.25 
   3 -11  11   -0.12    0.28 
   3  11  11    0.26    0.27 
   5 -11  11    0.26    0.33 
   5  11  11    0.35    0.30 
 -18 -12  11    2.81    0.56 
  18  12 -11    2.42    0.40 
 -16 -12  11    2.48    0.52 
  16  12 -11    4.13    0.47 
 -14 -12  11    0.02    0.33 
  14  12 -11    0.13    0.22 
 -12 -12  11    0.42    0.34 
 -12  12  11    0.48    0.22 
  12  12 -11    0.20    0.22 
 -10 -12  11    0.17    0.29 
 -10  12  11    0.57    0.23 
  10  12 -11    0.21    0.23 
  -8 -12  11    5.50    0.63 
   8  12 -11    4.41    0.44 
  -8  12  11    5.30    0.47 
  -6 -12  11    0.93    0.35 
   6  12 -11    1.01    0.25 
  -6  12  11    0.52    0.24 
  -4 -12  11    0.50    0.32 
   4  12 -11    0.28    0.19 
  -4  12  11    0.33    0.23 
  -2 -12  11    1.69    0.40 
  -2  12  11    1.35    0.31 
   0 -12  11    0.02    0.28 
   0  12  11    0.13    0.24 
   2 -12  11    0.75    0.35 
   2  12  11    1.32    0.35 
   4 -12  11    0.84    0.38 
   4  12  11    1.21    0.39 
 -17 -13  11    0.76    0.44 
  17  13 -11    1.37    0.36 
 -15 -13  11   -0.01    0.34 
  15  13 -11    0.20    0.24 
 -13 -13  11    0.14    0.31 
  13  13 -11   -0.02    0.23 
 -11 -13  11   -0.27    0.29 
  11  13 -11   -0.24    0.20 
 -11  13  11    0.14    0.21 
  -9 -13  11    0.71    0.37 
   9  13 -11    1.02    0.28 
  -9  13  11    0.81    0.27 
  -7 -13  11   -0.26    0.29 
  -7  13  11    0.23    0.22 
   7  13 -11    0.09    0.21 
  -5 -13  11    1.59    0.44 
  -5  13  11    0.70    0.27 
   5  13 -11    1.02    0.25 
  -3 -13  11    0.04    0.31 
  -3  13  11   -0.06    0.20 
  -1 -13  11    1.12    0.38 
  -1  13  11    1.40    0.34 
   1 -13  11    0.91    0.44 
   1  13  11    0.66    0.30 
 -14 -14  11    0.22    0.36 
  14  14 -11   -0.23    0.25 
 -12 -14  11    0.06    0.34 
  12  14 -11   -0.14    0.24 
 -10 -14  11    0.47    0.36 
 -10  14  11    0.13    0.21 
  10  14 -11    0.54    0.26 
  -8 -14  11    0.33    0.35 
   8  14 -11   -0.29    0.20 
  -8  14  11    0.09    0.24 
  -6 -14  11    0.00    0.33 
   6  14 -11    0.30    0.23 
  -6  14  11    0.56    0.26 
  -4 -14  11    1.39    0.44 
  -4  14  11    1.38    0.32 
  -2 -14  11    0.41    0.36 
  -2  14  11    0.20    0.27 
  26   0 -12    1.00    0.28 
  24   0 -12    4.08    0.39 
 -24   0  12    3.66    0.42 
  24   0 -12    4.72    0.42 
 -24   0  12    3.66    0.53 
 -22   0  12    9.75    0.69 
  22   0 -12   10.17    0.54 
  22   0 -12    9.59    0.53 
 -22   0  12    9.74    0.59 
  20   0 -12    9.41    0.52 
 -20   0  12    9.83    0.57 
  20   0 -12   10.27    0.51 
 -20   0  12    8.78    0.61 
  18   0 -12   23.15    0.80 
 -18   0  12   22.81    0.88 
 -18   0  12   23.46    0.93 
 -16   0  12   62.03    1.78 
 -16   0  12   63.75    1.80 
 -14   0  12   18.88    0.73 
 -14   0  12   18.17    0.74 
 -12   0  12    0.43    0.17 
 -12   0  12    0.44    0.19 
 -10   0  12    0.15    0.16 
 -10   0  12    0.59    0.17 
  -8   0  12    0.25    0.17 
  -8   0  12    0.33    0.14 
  -6   0  12    9.63    0.45 
  -6   0  12   10.04    0.52 
  -4   0  12    1.70    0.26 
  -4   0  12    1.46    0.23 
  -2   0  12    0.07    0.14 
  -2   0  12    0.11    0.16 
   0   0  12   98.15    2.54 
   0   0  12   96.86    2.52 
   2   0  12    5.03    0.42 
   2   0  12    4.90    0.41 
   4   0  12    1.38    0.31 
   4   0  12    1.38    0.27 
   6   0  12    2.14    0.36 
   6   0  12    2.25    0.32 
   8   0  12    0.70    0.32 
  10   0  12    1.64    0.43 
  27   1 -12    1.54    0.34 
 -25  -1  12    1.99    0.44 
 -25  -1  12    2.27    0.36 
  25   1 -12    2.19    0.34 
  25   1 -12    3.14    0.37 
 -23  -1  12    4.50    0.57 
  23  -1 -12    3.56    0.38 
  23  -1 -12    4.06    0.38 
 -23  -1  12    4.38    0.45 
 -23   1  12    4.43    0.53 
 -23   1  12    3.96    0.42 
  23   1 -12    3.97    0.40 
  23   1 -12    4.20    0.39 
  21  -1 -12    3.66    0.33 
 -21  -1  12    4.05    0.44 
  21  -1 -12    4.15    0.36 
 -21  -1  12    4.60    0.53 
  21   1 -12    3.80    0.39 
  21   1 -12    4.25    0.37 
 -21   1  12    3.31    0.38 
  19  -1 -12    4.40    0.33 
 -19  -1  12    4.60    0.41 
 -19  -1  12    5.54    0.50 
 -19   1  12    4.19    0.39 
 -19   1  12    4.04    0.43 
  19   1 -12    4.09    0.36 
  17  -1 -12   57.90    1.53 
 -17  -1  12   56.13    1.73 
 -17  -1  12   56.70    1.67 
 -17   1  12   57.85    1.67 
 -17   1  12   58.12    1.66 
 -15  -1  12    5.40    0.44 
 -15  -1  12    7.41    0.46 
 -15   1  12    5.93    0.42 
 -15   1  12    5.90    0.41 
 -13  -1  12    1.65    0.26 
 -13  -1  12    2.10    0.29 
 -13   1  12    1.75    0.28 
 -13   1  12    1.91    0.24 
 -11  -1  12    1.21    0.23 
 -11  -1  12    1.14    0.24 
 -11   1  12    1.50    0.21 
 -11   1  12    1.45    0.26 
  -9  -1  12   12.57    0.55 
  -9  -1  12   12.45    0.57 
  -9   1  12   12.74    0.58 
  -9   1  12   12.73    0.50 
  -7  -1  12    0.03    0.13 
  -7  -1  12   -0.02    0.15 
  -7   1  12    0.00    0.14 
  -7   1  12    0.02    0.11 
  -5  -1  12    0.18    0.16 
  -5  -1  12   -0.06    0.13 
  -5   1  12   -0.13    0.14 
  -5   1  12    0.01    0.12 
  -3  -1  12    0.26    0.16 
  -3  -1  12    0.19    0.18 
  -3   1  12    0.54    0.20 
  -3   1  12    0.31    0.15 
  -1  -1  12    1.50    0.27 
  -1  -1  12    1.73    0.27 
  -1   1  12    1.59    0.27 
  -1   1  12    1.64    0.25 
   1  -1  12   14.60    0.68 
   1  -1  12   14.57    0.67 
   1   1  12   15.54    0.65 
   1   1  12   15.49    0.68 
   3  -1  12    3.62    0.41 
   3  -1  12    3.04    0.36 
   3   1  12    3.88    0.41 
   3   1  12    3.64    0.39 
   5  -1  12    0.89    0.29 
   5  -1  12    0.47    0.22 
   5   1  12    0.54    0.26 
   5   1  12    0.70    0.24 
   7  -1  12    0.11    0.26 
   7   1  12    0.05    0.22 
   7   1  12   -0.26    0.24 
   9  -1  12    1.69    0.40 
   9   1  12    0.83    0.33 
 -26  -2  12   -0.29    0.29 
  26   2 -12    0.06    0.21 
  26   2 -12    0.06    0.21 
 -24  -2  12    1.42    0.41 
 -24  -2  12    1.37    0.31 
  24   2 -12    0.75    0.24 
  24   2 -12    0.74    0.25 
 -22  -2  12    1.28    0.30 
  22  -2 -12    1.20    0.24 
 -22  -2  12    1.18    0.37 
  22   2 -12    1.09    0.24 
 -22   2  12    1.36    0.28 
  22   2 -12    1.83    0.30 
 -20  -2  12    0.20    0.21 
 -20  -2  12    0.49    0.27 
  20  -2 -12    0.23    0.20 
  20   2 -12    0.49    0.20 
 -20   2  12    0.89    0.24 
 -20   2  12    0.18    0.23 
 -18  -2  12    5.78    0.51 
  18  -2 -12    5.95    0.35 
 -18  -2  12    5.69    0.45 
 -18   2  12    5.51    0.44 
 -18   2  12    6.33    0.44 
  18   2 -12    5.35    0.41 
  16  -2 -12    0.99    0.17 
 -16  -2  12    1.33    0.28 
 -16  -2  12    1.47    0.27 
 -16   2  12    1.04    0.23 
 -16   2  12    0.92    0.22 
 -14  -2  12    2.26    0.32 
 -14  -2  12    2.44    0.32 
 -14   2  12    2.61    0.31 
 -14   2  12    2.03    0.24 
 -12  -2  12    3.37    0.35 
 -12  -2  12    3.67    0.37 
 -12   2  12    3.16    0.26 
 -12   2  12    3.66    0.34 
 -10  -2  12    0.07    0.15 
 -10  -2  12   -0.12    0.14 
 -10   2  12   -0.11    0.10 
 -10   2  12    0.13    0.16 
  -8  -2  12   -0.02    0.14 
  -8  -2  12    0.07    0.16 
  -8   2  12    0.04    0.10 
  -8   2  12   -0.10    0.14 
  -6  -2  12    2.25    0.28 
  -6  -2  12    3.32    0.33 
  -6   2  12    2.71    0.23 
  -6   2  12    2.19    0.29 
  -4  -2  12   17.17    0.70 
  -4  -2  12   17.73    0.69 
  -4   2  12   16.42    0.70 
  -4   2  12   18.54    0.62 
  -2  -2  12   13.08    0.60 
  -2  -2  12   12.62    0.60 
  -2   2  12   12.83    0.53 
  -2   2  12   12.16    0.59 
   0  -2  12    8.65    0.49 
   0  -2  12    6.49    0.47 
   0   2  12    7.26    0.43 
   0   2  12    7.03    0.49 
   2  -2  12    2.73    0.37 
   2  -2  12    2.23    0.31 
   2   2  12    1.83    0.29 
   2   2  12    2.78    0.34 
   4  -2  12    0.50    0.22 
   4  -2  12    1.00    0.29 
   4   2  12    0.78    0.26 
   4   2  12    0.77    0.25 
   6  -2  12    0.39    0.25 
   6  -2  12    0.41    0.28 
   6   2  12    0.09    0.22 
   6   2  12   -0.08    0.23 
   8  -2  12    0.27    0.30 
   8   2  12    0.40    0.25 
   8   2  12    0.58    0.29 
  10  -2  12    0.10    0.32 
  10   2  12    0.27    0.30 
 -25  -3  12    0.89    0.39 
  25   3 -12    0.64    0.24 
  25   3 -12    0.80    0.27 
 -23  -3  12    6.29    0.67 
 -23  -3  12    5.74    0.52 
  23   3 -12    6.61    0.50 
  23   3 -12    5.95    0.48 
 -21  -3  12    5.50    0.56 
 -21  -3  12    5.74    0.50 
  21   3 -12    4.34    0.40 
  21   3 -12    5.65    0.45 
 -21   3  12    4.98    0.42 
 -19  -3  12    0.03    0.20 
 -19  -3  12    0.45    0.27 
 -19   3  12    0.23    0.19 
  19   3 -12    0.15    0.17 
 -17  -3  12    0.34    0.21 
 -17  -3  12    0.71    0.27 
  17   3 -12    0.24    0.17 
 -17   3  12    0.34    0.18 
 -15  -3  12   -0.08    0.19 
 -15  -3  12    0.29    0.19 
 -15   3  12    0.21    0.16 
 -13  -3  12   -0.06    0.17 
 -13  -3  12    0.17    0.16 
 -13   3  12    0.10    0.11 
 -13   3  12    0.06    0.16 
 -11  -3  12    0.07    0.17 
 -11  -3  12    0.01    0.15 
 -11   3  12    0.11    0.10 
 -11   3  12   -0.05    0.14 
  -9  -3  12   27.01    0.95 
  -9  -3  12   27.74    0.94 
  -9   3  12   26.71    0.75 
  -9   3  12   25.52    0.91 
  -7  -3  12    0.02    0.15 
  -7  -3  12   -0.07    0.13 
  -7   3  12    0.05    0.15 
  -7   3  12    0.08    0.09 
  -5  -3  12    8.81    0.49 
  -5  -3  12    8.47    0.48 
  -5   3  12    8.55    0.49 
  -5   3  12    9.02    0.37 
  -3  -3  12    3.07    0.34 
  -3  -3  12    2.86    0.33 
  -3   3  12    3.16    0.35 
  -3   3  12    2.97    0.26 
  -1  -3  12    0.46    0.19 
  -1  -3  12    0.68    0.23 
  -1   3  12    0.57    0.17 
  -1   3  12    0.38    0.20 
   1  -3  12    0.61    0.21 
   1  -3  12    0.53    0.23 
   1   3  12    1.07    0.26 
   1   3  12    0.40    0.18 
   5  -3  12    0.17    0.21 
   5  -3  12    0.06    0.24 
   5   3  12   -0.05    0.20 
   5   3  12   -0.26    0.20 
   7  -3  12    2.31    0.39 
   7   3  12    2.53    0.39 
   7   3  12    2.47    0.37 
   9  -3  12    0.46    0.32 
   9   3  12    0.92    0.30 
   9   3  12    0.57    0.31 
 -26  -4  12   -0.09    0.34 
  26   4 -12    0.03    0.24 
  26   4 -12   -0.13    0.24 
 -24  -4  12    0.80    0.37 
  24   4 -12    0.97    0.29 
  24   4 -12    0.74    0.26 
 -22  -4  12    2.50    0.38 
 -22  -4  12    2.13    0.45 
  22   4 -12    2.36    0.34 
  22   4 -12    1.95    0.33 
 -20  -4  12    3.18    0.47 
 -20  -4  12    3.38    0.41 
 -20   4  12    3.59    0.37 
  20   4 -12    3.62    0.38 
 -18  -4  12   -0.04    0.23 
 -18  -4  12    0.08    0.20 
  18   4 -12   -0.14    0.16 
 -18   4  12   -0.12    0.15 
 -16  -4  12    5.40    0.51 
 -16  -4  12    7.46    0.50 
  16   4 -12    8.51    0.49 
 -16   4  12    6.66    0.44 
 -14  -4  12    0.94    0.27 
 -14  -4  12    0.78    0.22 
 -14   4  12    0.95    0.22 
 -12  -4  12    6.44    0.48 
 -12  -4  12    7.09    0.46 
 -12   4  12    7.11    0.45 
 -10  -4  12   14.99    0.66 
 -10  -4  12   15.29    0.69 
 -10   4  12   13.41    0.62 
  -8  -4  12    3.66    0.35 
  -8  -4  12    3.16    0.36 
  -8   4  12    4.13    0.36 
  -6  -4  12   20.27    0.78 
  -6  -4  12   20.79    0.81 
  -6   4  12   20.55    0.61 
  -6   4  12   20.72    0.78 
  -4  -4  12   13.80    0.64 
  -4  -4  12   14.86    0.68 
  -4   4  12   14.40    0.51 
  -4   4  12   16.03    0.67 
  -2  -4  12    1.30    0.27 
  -2  -4  12    2.06    0.29 
  -2   4  12    1.57    0.28 
  -2   4  12    1.75    0.21 
   0  -4  12    1.70    0.27 
   0  -4  12    1.66    0.31 
   0   4  12    1.79    0.23 
   0   4  12    2.00    0.31 
   2  -4  12    3.91    0.45 
   2  -4  12    3.02    0.33 
   2   4  12    2.72    0.35 
   2   4  12    2.61    0.30 
   4  -4  12    7.47    0.58 
   4  -4  12    5.94    0.43 
   4   4  12    6.15    0.47 
   4   4  12    6.92    0.52 
   6  -4  12    0.42    0.27 
   6   4  12   -0.25    0.20 
   6   4  12    0.05    0.23 
   8  -4  12    1.87    0.41 
   8   4  12    1.77    0.36 
   8   4  12    1.99    0.37 
 -25  -5  12    0.65    0.38 
  25   5 -12    0.81    0.30 
  25   5 -12    0.68    0.29 
 -23  -5  12    7.90    0.73 
  23   5 -12    6.32    0.54 
  23   5 -12    8.04    0.55 
 -21  -5  12    0.57    0.26 
 -21  -5  12    0.17    0.31 
  21   5 -12    0.35    0.23 
 -19  -5  12   -0.05    0.19 
 -19  -5  12    0.71    0.31 
  19   5 -12    0.34    0.21 
 -19   5  12    0.20    0.17 
 -17  -5  12    2.93    0.37 
 -17  -5  12    2.17    0.39 
  17   5 -12    2.32    0.32 
 -17   5  12    2.63    0.32 
 -15  -5  12    4.35    0.42 
 -15  -5  12    4.55    0.48 
  15   5 -12    4.46    0.37 
 -15   5  12    4.98    0.39 
 -13  -5  12    0.22    0.21 
 -13  -5  12    0.28    0.20 
 -13   5  12    0.18    0.17 
  13   5 -12    0.21    0.17 
 -11  -5  12   -0.02    0.16 
 -11  -5  12    0.31    0.22 
 -11   5  12    0.23    0.16 
  -9  -5  12    5.27    0.40 
  -9  -5  12    4.38    0.43 
  -9   5  12    4.39    0.37 
  -7  -5  12    3.60    0.38 
  -7  -5  12    3.34    0.35 
  -7   5  12    4.82    0.39 
  -5  -5  12    0.97    0.23 
  -5  -5  12    1.19    0.27 
  -5   5  12    0.97    0.23 
  -3  -5  12    4.49    0.42 
  -3  -5  12    3.80    0.37 
  -3   5  12    3.95    0.29 
  -3   5  12    4.13    0.42 
  -1  -5  12    0.02    0.19 
  -1  -5  12   -0.03    0.16 
  -1   5  12    0.09    0.18 
  -1   5  12    0.11    0.14 
   1  -5  12   13.53    0.73 
   1  -5  12   13.76    0.62 
   1   5  12   13.49    0.68 
   1   5  12   14.14    0.58 
   3  -5  12    3.04    0.43 
   3  -5  12    2.79    0.32 
   3   5  12    3.17    0.40 
   3   5  12    3.00    0.34 
   5  -5  12    0.64    0.31 
   5   5  12    0.56    0.26 
   5   5  12    0.62    0.25 
   7  -5  12    5.85    0.60 
   7   5  12    6.29    0.55 
   7   5  12    6.50    0.55 
   9  -5  12   -0.10    0.29 
   9   5  12    0.04    0.27 
   9   5  12   -0.05    0.26 
 -24  -6  12    1.41    0.46 
  24   6 -12    1.13    0.32 
  24   6 -12    1.30    0.33 
 -22  -6  12    0.27    0.32 
  22   6 -12    0.45    0.26 
 -20  -6  12    0.11    0.28 
 -20  -6  12    0.14    0.22 
  20   6 -12    0.19    0.21 
 -18  -6  12    0.22    0.24 
 -18  -6  12    0.40    0.28 
 -18   6  12    0.25    0.19 
  18   6 -12    0.15    0.20 
 -16  -6  12    6.10    0.50 
 -16  -6  12    4.99    0.55 
 -16   6  12    5.01    0.40 
  16   6 -12    5.83    0.45 
 -14  -6  12   11.02    0.68 
 -14  -6  12   10.78    0.61 
  14   6 -12   11.77    0.58 
 -14   6  12   10.27    0.55 
 -12  -6  12    1.85    0.35 
 -12  -6  12    1.53    0.28 
  12   6 -12    0.88    0.22 
 -12   6  12    1.03    0.23 
 -10  -6  12    4.42    0.48 
 -10  -6  12    3.83    0.39 
 -10   6  12    2.62    0.31 
  -8  -6  12    0.42    0.21 
  -8  -6  12    0.69    0.25 
  -8   6  12    0.34    0.19 
  -6  -6  12   12.17    0.60 
  -6  -6  12   12.29    0.66 
  -6   6  12   12.85    0.61 
  -4  -6  12    9.97    0.54 
  -4  -6  12    9.96    0.60 
  -4   6  12   10.38    0.57 
  -2  -6  12    4.37    0.47 
  -2  -6  12    3.65    0.36 
  -2   6  12    3.14    0.35 
   0  -6  12    3.70    0.35 
   0  -6  12    4.19    0.47 
   0   6  12    3.63    0.41 
   2  -6  12    0.32    0.20 
   2  -6  12    0.32    0.25 
   2   6  12    0.35    0.23 
   4  -6  12    0.03    0.25 
   4   6  12   -0.20    0.20 
   4   6  12    0.10    0.22 
   6  -6  12    1.48    0.37 
   6   6  12    0.71    0.27 
   6   6  12    0.98    0.29 
   8  -6  12    1.04    0.37 
   8   6  12    1.40    0.35 
   8   6  12    1.74    0.37 
 -23  -7  12    0.48    0.36 
  23   7 -12    0.44    0.27 
 -21  -7  12    0.59    0.37 
  21   7 -12    0.43    0.25 
 -19  -7  12    1.28    0.32 
 -19  -7  12    0.93    0.37 
  19   7 -12    0.75    0.26 
 -17  -7  12    0.14    0.23 
 -17  -7  12    0.24    0.27 
  17   7 -12    0.12    0.19 
 -17   7  12    0.21    0.18 
 -15  -7  12    7.39    0.54 
 -15  -7  12    8.09    0.64 
 -15   7  12    8.50    0.49 
  15   7 -12    6.74    0.49 
 -13  -7  12    1.57    0.30 
 -13  -7  12    2.34    0.41 
  13   7 -12    1.55    0.26 
 -13   7  12    1.58    0.26 
 -11  -7  12    3.36    0.38 
 -11  -7  12    3.25    0.43 
 -11   7  12    3.53    0.34 
  11   7 -12    2.26    0.29 
  -9  -7  12    9.89    0.56 
  -9  -7  12    7.64    0.58 
  -9   7  12    8.99    0.52 
   9   7 -12    9.12    0.50 
  -7  -7  12    5.73    0.43 
  -7  -7  12    5.56    0.49 
  -7   7  12    6.13    0.44 
  -5  -7  12    2.29    0.31 
  -5  -7  12    1.79    0.31 
  -5   7  12    2.72    0.35 
  -3  -7  12    0.28    0.24 
  -3  -7  12    0.38    0.21 
  -3   7  12    0.52    0.23 
  -1  -7  12    1.18    0.24 
  -1  -7  12    1.23    0.30 
  -1   7  12    1.10    0.27 
   1  -7  12    3.99    0.38 
   1  -7  12    4.06    0.47 
   1   7  12    4.99    0.50 
   3  -7  12    1.13    0.34 
   3   7  12    1.11    0.29 
   5  -7  12   -0.28    0.26 
   5   7  12    0.16    0.24 
   7  -7  12    0.32    0.30 
   7   7  12    0.42    0.28 
  24   8 -12    1.67    0.36 
 -22  -8  12    0.08    0.32 
  22   8 -12    0.06    0.24 
 -20  -8  12    1.84    0.45 
  20   8 -12    2.02    0.36 
 -18  -8  12   -0.23    0.22 
 -18  -8  12   -0.02    0.27 
  18   8 -12    0.09    0.22 
 -16  -8  12    0.11    0.23 
 -16  -8  12    0.08    0.27 
 -16   8  12    0.36    0.19 
  16   8 -12    0.09    0.20 
 -14  -8  12   -0.02    0.25 
 -14  -8  12    0.08    0.22 
 -14   8  12    0.21    0.17 
  14   8 -12    0.25    0.20 
 -12  -8  12    1.20    0.29 
 -12  -8  12    0.50    0.30 
  12   8 -12    1.51    0.27 
 -12   8  12    0.88    0.23 
 -10  -8  12    0.22    0.21 
 -10  -8  12    0.36    0.25 
 -10   8  12    0.42    0.20 
  10   8 -12    0.34    0.18 
  -8  -8  12    8.58    0.54 
  -8  -8  12    9.40    0.64 
  -8   8  12    8.10    0.51 
   8   8 -12    9.47    0.51 
  -6  -8  12   19.92    0.81 
  -6  -8  12   20.19    0.92 
   6   8 -12   20.25    0.77 
  -6   8  12   20.00    0.82 
  -4  -8  12    0.20    0.24 
  -4  -8  12    0.52    0.21 
  -4   8  12    0.62    0.22 
   4   8 -12    0.44    0.19 
  -2  -8  12    5.91    0.45 
  -2  -8  12    6.77    0.57 
  -2   8  12    7.03    0.51 
   0  -8  12    2.26    0.40 
   0  -8  12    2.13    0.30 
   0   8  12    1.85    0.32 
   2  -8  12    0.15    0.27 
   2   8  12    0.17    0.22 
   4  -8  12    3.31    0.49 
   4   8  12    2.72    0.41 
   6  -8  12    0.36    0.32 
   6   8  12    0.59    0.29 
 -23  -9  12    2.39    0.57 
  23   9 -12    3.02    0.44 
 -21  -9  12    0.16    0.37 
  21   9 -12    0.46    0.28 
 -19  -9  12    2.26    0.49 
  19   9 -12    3.18    0.43 
 -17  -9  12    1.10    0.39 
 -17  -9  12    0.84    0.31 
  17   9 -12    1.75    0.31 
 -15  -9  12    3.24    0.44 
 -15  -9  12    2.37    0.45 
 -15   9  12    2.17    0.30 
  15   9 -12    3.58    0.42 
 -13  -9  12    3.80    0.50 
 -13  -9  12    5.00    0.50 
 -13   9  12    4.55    0.40 
  13   9 -12    4.27    0.42 
 -11  -9  12    6.03    0.59 
 -11  -9  12    5.04    0.47 
  11   9 -12    5.18    0.43 
 -11   9  12    4.65    0.42 
  -9  -9  12    2.45    0.36 
  -9  -9  12    2.83    0.44 
  -9   9  12    3.11    0.37 
   9   9 -12    2.24    0.32 
  -7  -9  12    0.72    0.30 
  -7  -9  12    1.04    0.28 
  -7   9  12    0.32    0.21 
   7   9 -12    0.54    0.22 
  -5  -9  12    8.35    0.51 
  -5  -9  12    8.87    0.65 
  -5   9  12    7.03    0.53 
   5   9 -12    7.34    0.45 
  -3  -9  12    6.65    0.58 
  -3  -9  12    6.17    0.46 
   3   9 -12    6.41    0.42 
  -3   9  12    6.52    0.50 
  -1  -9  12    0.45    0.29 
  -1  -9  12    0.25    0.21 
   1   9 -12    0.40    0.18 
  -1   9  12    0.38    0.23 
   1  -9  12    0.56    0.29 
   1   9  12    0.09    0.22 
   3  -9  12    1.37    0.36 
   3   9  12    1.88    0.36 
   5  -9  12   -0.22    0.26 
   5   9  12    0.59    0.30 
 -20 -10  12    2.98    0.57 
  20  10 -12    4.03    0.47 
 -18 -10  12    0.17    0.31 
  18  10 -12    0.24    0.24 
 -16 -10  12    1.31    0.44 
  16  10 -12    1.00    0.28 
 -14 -10  12    0.19    0.29 
 -14 -10  12    0.25    0.26 
  14  10 -12    0.14    0.21 
 -14  10  12   -0.20    0.18 
 -12 -10  12    0.50    0.32 
 -12 -10  12    0.29    0.25 
  12  10 -12    0.54    0.24 
 -12  10  12    0.33    0.20 
 -10 -10  12    3.82    0.52 
 -10 -10  12    4.37    0.47 
  10  10 -12    5.32    0.43 
 -10  10  12    4.34    0.42 
  -8 -10  12   11.85    0.78 
  -8 -10  12   10.91    0.63 
  -8  10  12   10.64    0.61 
   8  10 -12   10.86    0.58 
  -6 -10  12   13.69    0.69 
  -6 -10  12   12.31    0.80 
   6  10 -12   13.84    0.64 
  -6  10  12   12.54    0.67 
  -4 -10  12   -0.01    0.25 
  -4 -10  12    0.11    0.21 
   4  10 -12    0.17    0.18 
  -4  10  12    0.03    0.20 
  -2 -10  12    0.72    0.31 
  -2 -10  12    0.68    0.30 
  -2  10  12    0.59    0.26 
   2  10 -12    0.98    0.23 
   0 -10  12    0.08    0.25 
   0  10  12    0.48    0.27 
   2 -10  12   -0.02    0.29 
   2  10  12    0.13    0.24 
   4 -10  12    0.74    0.34 
   4  10  12    0.34    0.29 
 -19 -11  12    0.02    0.35 
  19  11 -12   -0.03    0.24 
 -17 -11  12    0.45    0.37 
  17  11 -12    1.03    0.30 
 -15 -11  12    1.10    0.39 
  15  11 -12    2.81    0.40 
 -13 -11  12   -0.18    0.26 
  13  11 -12    0.09    0.20 
 -13  11  12    0.03    0.18 
 -11 -11  12    0.08    0.28 
 -11 -11  12   -0.06    0.22 
  11  11 -12   -0.03    0.19 
 -11  11  12    0.14    0.19 
  -9 -11  12    0.37    0.31 
  -9 -11  12    0.09    0.22 
   9  11 -12    0.04    0.19 
  -9  11  12    0.05    0.20 
  -7 -11  12   -0.07    0.20 
  -7 -11  12    0.05    0.28 
   7  11 -12   -0.06    0.17 
  -7  11  12    0.00    0.19 
  -5 -11  12    0.60    0.31 
  -5 -11  12    1.27    0.29 
  -5  11  12    0.53    0.24 
   5  11 -12    0.93    0.23 
  -3 -11  12    0.23    0.29 
   3  11 -12   -0.24    0.15 
  -3  11  12   -0.17    0.20 
  -1 -11  12    0.61    0.32 
  -1  11  12    0.55    0.28 
   1 -11  12    0.23    0.30 
   1  11  12    0.41    0.27 
   3 -11  12   -0.09    0.30 
   3  11  12   -0.05    0.25 
 -18 -12  12    0.80    0.39 
  18  12 -12    0.63    0.30 
 -16 -12  12    0.73    0.40 
  16  12 -12    1.23    0.32 
 -14 -12  12    0.57    0.36 
  14  12 -12    1.28    0.30 
 -12 -12  12    0.32    0.34 
 -12  12  12    0.38    0.22 
  12  12 -12    0.45    0.24 
 -10 -12  12    0.02    0.32 
 -10  12  12    0.11    0.20 
  10  12 -12   -0.05    0.19 
  -8 -12  12    0.22    0.32 
  -8  12  12    0.07    0.21 
   8  12 -12    0.19    0.21 
  -6 -12  12    0.55    0.34 
  -6 -12  12    0.58    0.26 
  -6  12  12    0.37    0.24 
   6  12 -12    0.76    0.24 
  -4 -12  12    0.51    0.33 
  -4  12  12    0.28    0.25 
   4  12 -12    0.63    0.36 
  -2 -12  12    0.44    0.32 
  -2  12  12    0.30    0.25 
   0 -12  12    1.02    0.38 
   0  12  12    0.24    0.26 
   2 -12  12    0.51    0.37 
   2  12  12    0.16    0.30 
 -15 -13  12    0.44    0.38 
  15  13 -12    0.05    0.24 
 -13 -13  12    1.63    0.46 
  13  13 -12    1.25    0.32 
 -11 -13  12   -0.37    0.31 
 -11  13  12    0.00    0.21 
  11  13 -12    0.01    0.22 
  -9 -13  12    1.79    0.46 
   9  13 -12    2.00    0.35 
  -9  13  12    1.83    0.35 
  -7 -13  12    0.44    0.35 
  -7  13  12    0.54    0.27 
   7  13 -12    0.48    0.25 
  -5 -13  12    0.29    0.33 
  -5  13  12    0.26    0.25 
  -3 -13  12    2.28    0.49 
  -3  13  12    2.28    0.41 
  -1 -13  12    0.92    0.38 
  -1  13  12    0.51    0.28 
 -12 -14  12    0.21    0.36 
  12  14 -12   -0.33    0.21 
 -10 -14  12    1.58    0.47 
 -10  14  12    0.86    0.28 
  10  14 -12    1.17    0.32 
  -8 -14  12   -0.01    0.34 
   8  14 -12    0.06    0.22 
  -8  14  12    0.06    0.24 
  -6 -14  12    0.52    0.36 
  -6  14  12    0.32    0.27 
  -4 -14  12    0.15    0.37 
  -4  14  12   -0.24    0.23 
 -26   0  13    0.38    0.33 
  24   0 -13    0.13    0.18 
 -24   0  13    0.08    0.21 
 -24   0  13    0.18    0.31 
  22   0 -13   -0.14    0.16 
 -22   0  13    0.29    0.27 
  22   0 -13    0.08    0.16 
 -22   0  13   -0.05    0.19 
 -20   0  13    0.19    0.20 
  20   0 -13   -0.13    0.14 
 -18   0  13    0.03    0.18 
 -18   0  13   -0.15    0.17 
 -16   0  13    0.09    0.18 
 -16   0  13    0.04    0.17 
 -14   0  13    0.07    0.17 
 -14   0  13   -0.16    0.15 
 -12   0  13   -0.10    0.15 
 -12   0  13   -0.05    0.14 
 -10   0  13   -0.09    0.13 
 -10   0  13    0.06    0.17 
  -8   0  13   -0.02    0.16 
  -8   0  13    0.07    0.13 
  -6   0  13   -0.23    0.16 
  -6   0  13   -0.11    0.12 
  -4   0  13   -0.15    0.17 
  -4   0  13   -0.02    0.14 
  -2   0  13    0.13    0.17 
  -2   0  13   -0.22    0.17 
   2   0  13   -0.07    0.20 
   2   0  13    0.12    0.22 
   4   0  13   -0.11    0.21 
   4   0  13   -0.12    0.22 
   6   0  13    0.01    0.23 
   6   0  13   -0.13    0.24 
   8   0  13   -0.13    0.28 
 -25  -1  13    0.21    0.23 
 -25  -1  13    0.06    0.28 
  25  -1 -13    0.10    0.25 
 -25   1  13    0.18    0.23 
  25   1 -13    0.04    0.18 
  25   1 -13   -0.02    0.18 
 -23  -1  13    8.23    0.67 
 -23  -1  13    9.24    0.60 
  23  -1 -13    8.61    0.52 
 -23   1  13    9.06    0.58 
  23   1 -13    8.77    0.53 
  23   1 -13    8.57    0.53 
  21  -1 -13    8.25    0.48 
 -21  -1  13    6.83    0.54 
 -21  -1  13    9.35    0.66 
 -21   1  13    8.90    0.55 
  21   1 -13    8.95    0.50 
  21   1 -13    8.19    0.51 
 -19  -1  13    4.64    0.43 
  19  -1 -13    5.23    0.35 
 -19  -1  13    4.36    0.47 
 -19   1  13    5.37    0.44 
 -19   1  13    4.50    0.45 
 -17  -1  13    0.03    0.19 
 -17  -1  13    0.01    0.18 
 -17   1  13   -0.11    0.16 
 -17   1  13    0.01    0.16 
 -15  -1  13    3.52    0.38 
 -15  -1  13    3.59    0.39 
 -15   1  13    4.18    0.41 
 -15   1  13    3.26    0.34 
 -13  -1  13    6.62    0.44 
 -13  -1  13    6.48    0.45 
 -13   1  13    7.25    0.46 
 -13   1  13    6.70    0.40 
 -11  -1  13    2.31    0.29 
 -11  -1  13    2.69    0.33 
 -11   1  13    2.44    0.26 
 -11   1  13    1.89    0.28 
  -9  -1  13   13.50    0.58 
  -9  -1  13   12.36    0.61 
  -9   1  13   12.46    0.52 
  -9   1  13   12.64    0.61 
  -7  -1  13    4.75    0.36 
  -7  -1  13    4.91    0.40 
  -7   1  13    4.59    0.40 
  -7   1  13    4.98    0.32 
  -5  -1  13    0.62    0.22 
  -5  -1  13    0.38    0.18 
  -5   1  13    0.44    0.21 
  -5   1  13    0.51    0.17 
  -3  -1  13    0.38    0.18 
  -3  -1  13    0.72    0.23 
  -3   1  13    0.46    0.17 
  -3   1  13    0.51    0.21 
  -1  -1  13    0.10    0.18 
  -1  -1  13    0.01    0.19 
  -1   1  13   -0.22    0.18 
  -1   1  13    0.18    0.18 
   1  -1  13    0.20    0.22 
   1  -1  13    0.30    0.22 
   1   1  13    0.32    0.22 
   1   1  13    0.14    0.19 
   3  -1  13    2.86    0.38 
   3  -1  13    2.80    0.39 
   3   1  13    2.95    0.38 
   3   1  13    2.82    0.36 
   5  -1  13    0.28    0.24 
   5  -1  13    0.04    0.25 
   5   1  13    0.50    0.28 
   5   1  13    0.25    0.24 
   7  -1  13    0.70    0.33 
   7   1  13    0.87    0.34 
   7   1  13    1.04    0.31 
   9  -1  13    1.27    0.40 
   9   1  13    0.72    0.37 
 -26  -2  13    3.59    0.56 
 -26  -2  13    2.75    0.42 
  26   2 -13    3.31    0.40 
  26   2 -13    2.70    0.38 
 -24  -2  13    9.94    0.75 
  24  -2 -13   10.09    0.59 
 -24  -2  13    9.88    0.64 
 -24   2  13    9.31    0.60 
  24   2 -13    9.15    0.58 
  24   2 -13    9.32    0.58 
 -22  -2  13    1.10    0.30 
  22  -2 -13    1.57    0.27 
 -22  -2  13    0.92    0.35 
 -22   2  13    0.75    0.26 
  22   2 -13    1.37    0.28 
  22   2 -13    1.92    0.31 
 -20  -2  13   26.07    1.07 
 -20  -2  13   24.84    0.97 
  20   2 -13   23.02    0.91 
 -20   2  13   24.43    0.93 
 -18  -2  13   41.55    1.40 
 -18  -2  13   39.18    1.32 
 -18   2  13   39.84    1.29 
 -16  -2  13   12.84    0.67 
 -16  -2  13   12.93    0.65 
 -16   2  13   12.42    0.62 
 -14  -2  13    1.77    0.30 
 -14  -2  13    1.41    0.26 
 -14   2  13    1.45    0.22 
 -14   2  13    0.95    0.25 
 -12  -2  13    0.37    0.19 
 -12  -2  13    0.32    0.16 
 -12   2  13    0.37    0.19 
 -12   2  13    0.13    0.13 
 -10  -2  13   12.82    0.62 
 -10  -2  13   13.00    0.61 
 -10   2  13   14.25    0.64 
 -10   2  13   12.95    0.50 
  -8  -2  13    8.15    0.47 
  -8  -2  13    8.34    0.49 
  -8   2  13    8.13    0.49 
  -8   2  13    7.45    0.37 
  -6  -2  13    2.15    0.31 
  -6  -2  13    2.07    0.28 
  -6   2  13    2.13    0.23 
  -6   2  13    1.89    0.27 
  -4  -2  13   17.95    0.74 
  -4  -2  13   17.32    0.73 
  -4   2  13   16.96    0.63 
  -4   2  13   16.86    0.73 
  -2  -2  13    0.68    0.23 
  -2  -2  13    0.51    0.21 
  -2   2  13    0.63    0.19 
  -2   2  13    0.57    0.21 
   0  -2  13    1.65    0.31 
   0  -2  13    1.35    0.29 
   0   2  13    1.36    0.29 
   0   2  13    1.70    0.26 
   2  -2  13    1.36    0.32 
   2  -2  13    0.86    0.27 
   2   2  13    0.90    0.28 
   2   2  13    0.99    0.26 
   4  -2  13    1.34    0.30 
   4  -2  13    1.10    0.31 
   4   2  13    1.22    0.29 
   4   2  13    1.22    0.30 
   6  -2  13   -0.04    0.25 
   6   2  13    0.11    0.24 
   6   2  13   -0.19    0.25 
   8  -2  13    2.15    0.44 
   8   2  13    1.14    0.32 
   8   2  13    1.71    0.40 
 -25  -3  13   -0.08    0.31 
 -25  -3  13   -0.09    0.24 
  25   3 -13   -0.08    0.19 
  25   3 -13   -0.08    0.19 
 -23  -3  13    0.44    0.26 
 -23  -3  13    0.18    0.30 
  23  -3 -13    0.27    0.19 
  23   3 -13    0.47    0.23 
  23   3 -13    0.46    0.23 
 -23   3  13    0.29    0.23 
 -21  -3  13    0.30    0.28 
 -21  -3  13    0.25    0.24 
 -21   3  13    0.26    0.20 
  21   3 -13    0.46    0.21 
 -19  -3  13    4.35    0.51 
 -19  -3  13    3.36    0.41 
  19   3 -13    4.32    0.40 
 -19   3  13    4.25    0.41 
 -17  -3  13    0.62    0.24 
 -17  -3  13    1.44    0.32 
 -17   3  13    1.24    0.25 
  17   3 -13    1.32    0.26 
 -15  -3  13    0.35    0.22 
 -15  -3  13   -0.22    0.17 
 -15   3  13    0.10    0.17 
 -13  -3  13    5.93    0.45 
 -13  -3  13    5.82    0.47 
 -13   3  13    6.56    0.44 
 -11  -3  13   17.22    0.73 
 -11  -3  13   15.91    0.72 
 -11   3  13   16.64    0.71 
  -9  -3  13    0.29    0.17 
  -9  -3  13    0.55    0.21 
  -9   3  13    0.20    0.17 
  -9   3  13    0.28    0.18 
  -7  -3  13    2.28    0.31 
  -7  -3  13    1.53    0.27 
  -7   3  13    2.04    0.21 
  -7   3  13    1.84    0.28 
  -5  -3  13    0.09    0.18 
  -5  -3  13    0.08    0.18 
  -5   3  13    0.04    0.19 
  -5   3  13    0.16    0.12 
  -3  -3  13    0.89    0.24 
  -3  -3  13    1.27    0.26 
  -3   3  13    1.34    0.21 
  -3   3  13    0.27    0.19 
  -1  -3  13   19.77    0.84 
  -1  -3  13   18.19    0.77 
  -1   3  13   19.46    0.81 
  -1   3  13   18.74    0.70 
   1  -3  13    2.83    0.36 
   1  -3  13    3.68    0.44 
   1   3  13    3.39    0.36 
   1   3  13    3.10    0.38 
   3  -3  13    6.43    0.48 
   3  -3  13    6.54    0.56 
   3   3  13    6.28    0.51 
   3   3  13    4.96    0.49 
   5  -3  13    0.10    0.26 
   5   3  13   -0.08    0.23 
   5   3  13    0.23    0.25 
   7  -3  13    1.42    0.37 
   7   3  13    1.20    0.33 
   7   3  13    1.15    0.33 
 -26  -4  13    2.06    0.50 
  26   4 -13    1.13    0.31 
  26   4 -13    1.05    0.31 
 -24  -4  13   -0.20    0.22 
 -24  -4  13   -0.33    0.29 
  24   4 -13    0.01    0.20 
  24   4 -13    0.06    0.22 
 -22  -4  13    2.99    0.48 
 -22  -4  13    3.00    0.42 
 -22   4  13    2.60    0.35 
  22   4 -13    2.18    0.34 
 -20  -4  13    0.22    0.22 
 -20  -4  13   -0.18    0.23 
 -20   4  13    0.05    0.19 
  20   4 -13   -0.02    0.19 
 -18  -4  13    0.55    0.25 
 -18  -4  13    0.35    0.27 
 -18   4  13    0.47    0.20 
  18   4 -13    0.07    0.18 
 -16  -4  13    6.26    0.48 
 -16  -4  13    5.36    0.50 
 -16   4  13    5.19    0.41 
  16   4 -13    6.29    0.45 
 -14  -4  13   35.70    1.22 
 -14  -4  13   36.99    1.30 
 -14   4  13   38.13    1.20 
 -12  -4  13    6.99    0.51 
 -12  -4  13    6.37    0.47 
 -12   4  13    5.79    0.43 
 -10  -4  13    5.91    0.46 
 -10  -4  13    7.04    0.47 
 -10   4  13    6.29    0.44 
  -8  -4  13    6.71    0.48 
  -8  -4  13    5.60    0.43 
  -8   4  13    6.14    0.43 
  -6  -4  13    6.68    0.47 
  -6  -4  13    5.55    0.44 
  -6   4  13    6.38    0.45 
  -4  -4  13    0.33    0.21 
  -4  -4  13    0.44    0.21 
  -4   4  13    0.39    0.20 
  -4   4  13    0.37    0.18 
  -2  -4  13    0.10    0.19 
  -2  -4  13   -0.02    0.19 
  -2   4  13    0.43    0.23 
  -2   4  13    0.04    0.13 
   0  -4  13    0.23    0.19 
   0  -4  13    0.32    0.24 
   0   4  13    0.37    0.17 
   0   4  13    0.38    0.23 
   2  -4  13    0.27    0.21 
   2  -4  13    0.29    0.26 
   2   4  13    0.46    0.21 
   2   4  13    0.35    0.24 
   4  -4  13    3.70    0.51 
   4   4  13    3.25    0.39 
   4   4  13    2.97    0.41 
   6  -4  13    1.14    0.34 
   6   4  13    0.34    0.26 
   6   4  13    1.03    0.30 
   8  -4  13    0.69    0.35 
   8   4  13    0.55    0.30 
   8   4  13    0.77    0.32 
 -25  -5  13    0.61    0.39 
  25   5 -13    0.50    0.29 
  25   5 -13    1.09    0.31 
 -23  -5  13    0.77    0.29 
 -23  -5  13    0.30    0.33 
  23   5 -13    0.66    0.27 
 -21  -5  13    0.31    0.25 
 -21  -5  13    0.67    0.35 
 -21   5  13    0.52    0.23 
  21   5 -13    0.94    0.27 
 -19  -5  13    0.22    0.26 
 -19  -5  13   -0.07    0.21 
  19   5 -13    0.28    0.20 
 -19   5  13    0.17    0.18 
 -17  -5  13    0.11    0.24 
 -17  -5  13    0.59    0.26 
  17   5 -13    0.52    0.22 
 -17   5  13    0.64    0.22 
 -15  -5  13    0.87    0.25 
 -15  -5  13    1.26    0.32 
 -15   5  13    1.37    0.26 
  15   5 -13    0.56    0.20 
 -13  -5  13    6.58    0.48 
 -13  -5  13    5.15    0.50 
 -13   5  13    5.62    0.44 
 -11  -5  13    0.05    0.19 
 -11  -5  13   -0.03    0.19 
 -11   5  13    0.16    0.17 
  -9  -5  13    6.09    0.45 
  -9  -5  13    5.34    0.46 
  -9   5  13    5.86    0.44 
  -7  -5  13    9.22    0.57 
  -7  -5  13    8.20    0.51 
  -7   5  13    8.23    0.51 
  -5  -5  13    0.26    0.19 
  -5  -5  13    0.22    0.20 
  -5   5  13   -0.03    0.18 
  -3  -5  13   -0.23    0.15 
  -3  -5  13   -0.11    0.19 
  -3   5  13   -0.18    0.18 
  -1  -5  13   -0.01    0.21 
  -1  -5  13   -0.14    0.17 
  -1   5  13   -0.14    0.19 
   1  -5  13    0.73    0.23 
   1  -5  13    0.70    0.28 
   1   5  13    0.78    0.26 
   3  -5  13    1.41    0.37 
   3   5  13    0.93    0.30 
   5  -5  13    0.54    0.31 
   5   5  13    0.43    0.32 
   5   5  13    0.35    0.27 
   7  -5  13    1.53    0.40 
   7   5  13    1.82    0.50 
   7   5  13    2.10    0.39 
 -24  -6  13    2.45    0.51 
  24   6 -13    3.20    0.44 
  24   6 -13    4.23    0.48 
 -22  -6  13    0.24    0.25 
 -22  -6  13   -0.07    0.29 
  22   6 -13    0.19    0.23 
 -20  -6  13   -0.19    0.26 
 -20  -6  13   -0.03    0.22 
 -20   6  13   -0.18    0.16 
  20   6 -13   -0.19    0.18 
 -18  -6  13   -0.12    0.23 
 -18  -6  13    0.03    0.21 
 -18   6  13   -0.04    0.17 
  18   6 -13   -0.25    0.17 
 -16  -6  13    0.91    0.32 
 -16  -6  13    0.75    0.27 
 -16   6  13    0.84    0.23 
  16   6 -13    0.66    0.22 
 -14  -6  13    0.85    0.30 
 -14  -6  13    0.86    0.26 
  14   6 -13    1.08    0.26 
 -14   6  13    0.70    0.22 
 -12  -6  13    1.12    0.31 
 -12  -6  13    1.24    0.29 
 -12   6  13    1.23    0.25 
  12   6 -13    1.59    0.26 
 -10  -6  13    0.17    0.22 
 -10  -6  13   -0.02    0.19 
 -10   6  13   -0.04    0.16 
  -8  -6  13    1.65    0.31 
  -8  -6  13    1.96    0.31 
  -8   6  13    1.17    0.25 
  -6  -6  13   12.45    0.64 
  -6  -6  13   12.95    0.70 
  -6   6  13   13.16    0.65 
  -4  -6  13   30.46    1.14 
  -4  -6  13   30.56    1.04 
  -4   6  13   27.27    1.04 
  -2  -6  13    2.69    0.39 
  -2  -6  13    3.53    0.37 
  -2   6  13    3.58    0.41 
   0  -6  13    4.60    0.51 
   0  -6  13    3.48    0.37 
   0   6  13    2.71    0.37 
   2  -6  13    0.50    0.28 
   2   6  13    0.40    0.25 
   4  -6  13    5.55    0.61 
   4   6  13    4.15    0.50 
   6  -6  13    7.01    0.68 
   6   6  13    5.42    0.56 
 -23  -7  13    2.70    0.56 
  23   7 -13    3.22    0.44 
 -21  -7  13    5.54    0.58 
 -21  -7  13    5.82    0.70 
  21   7 -13    5.36    0.54 
 -19  -7  13   -0.14    0.25 
 -19  -7  13    0.03    0.23 
 -19   7  13    0.04    0.18 
  19   7 -13   -0.03    0.20 
 -17  -7  13    5.61    0.53 
 -17  -7  13    6.07    0.62 
  17   7 -13    5.95    0.49 
 -17   7  13    5.48    0.43 
 -15  -7  13    2.14    0.36 
 -15  -7  13    2.91    0.46 
 -15   7  13    2.17    0.31 
  15   7 -13    2.28    0.33 
 -13  -7  13   -0.08    0.24 
 -13  -7  13   -0.10    0.19 
  13   7 -13    0.09    0.17 
 -13   7  13    0.00    0.16 
 -11  -7  13    1.17    0.33 
 -11  -7  13    1.38    0.30 
  11   7 -13    1.28    0.26 
 -11   7  13    0.95    0.25 
  -9  -7  13    1.89    0.32 
  -9  -7  13    1.64    0.33 
   9   7 -13    1.67    0.28 
  -9   7  13    1.40    0.28 
  -7  -7  13    6.97    0.56 
  -7  -7  13    7.62    0.51 
  -7   7  13    7.09    0.50 
  -5  -7  13    0.35    0.24 
  -5  -7  13   -0.02    0.19 
  -5   7  13   -0.06    0.19 
  -3  -7  13    1.58    0.29 
  -3  -7  13    2.82    0.42 
  -3   7  13    1.52    0.30 
  -1  -7  13    3.27    0.37 
  -1  -7  13    4.47    0.53 
  -1   7  13    2.93    0.39 
   1  -7  13    2.77    0.43 
   1   7  13    2.78    0.39 
   3  -7  13    3.28    0.49 
   3   7  13    2.89    0.41 
   5  -7  13    0.05    0.30 
   5   7  13    0.08    0.25 
 -22  -8  13    0.95    0.43 
  22   8 -13    1.25    0.34 
 -20  -8  13    0.69    0.38 
 -20  -8  13    0.74    0.31 
  20   8 -13    1.24    0.31 
 -18  -8  13    1.30    0.38 
 -18  -8  13    0.81    0.31 
  18   8 -13    1.42    0.31 
 -18   8  13    0.75    0.23 
 -16  -8  13    1.17    0.37 
 -16  -8  13    0.88    0.29 
  16   8 -13    1.06    0.29 
 -16   8  13    0.91    0.25 
 -14  -8  13    7.74    0.66 
 -14  -8  13    9.25    0.62 
 -14   8  13   10.05    0.56 
  14   8 -13    8.65    0.55 
 -12  -8  13   -0.09    0.23 
 -12  -8  13    0.17    0.24 
 -12   8  13   -0.06    0.17 
  12   8 -13    0.04    0.19 
 -10  -8  13    7.25    0.53 
 -10  -8  13    8.89    0.65 
  10   8 -13    8.28    0.50 
 -10   8  13    8.33    0.52 
  -8  -8  13    0.28    0.22 
  -8  -8  13    0.46    0.28 
   8   8 -13    0.30    0.20 
  -8   8  13    0.23    0.22 
  -6  -8  13    6.07    0.49 
  -6  -8  13    6.94    0.59 
  -6   8  13    5.24    0.47 
   6   8 -13    6.37    0.45 
  -4  -8  13    1.45    0.34 
  -4  -8  13    1.48    0.28 
  -4   8  13    1.79    0.34 
  -2  -8  13    0.22    0.25 
  -2  -8  13   -0.03    0.18 
  -2   8  13    0.15    0.23 
   0  -8  13   -0.08    0.24 
   0   8  13    0.36    0.25 
   2  -8  13    1.71    0.41 
   2   8  13    0.82    0.28 
   4  -8  13    3.62    0.54 
   4   8  13    4.12    0.50 
 -21  -9  13   -0.08    0.31 
  21   9 -13   -0.02    0.24 
 -19  -9  13   -0.09    0.28 
  19   9 -13    0.18    0.24 
 -17  -9  13    0.08    0.30 
 -17  -9  13   -0.14    0.22 
 -17   9  13    0.06    0.19 
  17   9 -13    0.20    0.21 
 -15  -9  13    2.78    0.42 
 -15  -9  13    1.70    0.40 
 -15   9  13    1.43    0.28 
  15   9 -13    1.34    0.29 
 -13  -9  13    2.00    0.43 
 -13  -9  13    2.05    0.36 
 -13   9  13    2.64    0.35 
  13   9 -13    2.22    0.32 
 -11  -9  13    0.09    0.26 
 -11  -9  13    0.57    0.27 
  11   9 -13    0.34    0.21 
 -11   9  13    0.40    0.22 
  -9  -9  13    6.00    0.60 
  -9  -9  13    6.47    0.52 
   9   9 -13    6.08    0.46 
  -9   9  13    4.51    0.44 
  -7  -9  13    0.19    0.26 
  -7  -9  13    0.07    0.21 
  -7   9  13    0.10    0.21 
   7   9 -13    0.06    0.18 
  -5  -9  13    0.21    0.21 
  -5  -9  13   -0.09    0.25 
   5   9 -13    0.04    0.17 
  -5   9  13   -0.13    0.19 
  -3  -9  13    0.91    0.27 
  -3  -9  13    0.84    0.34 
  -3   9  13    0.84    0.28 
   3   9 -13    0.66    0.23 
  -1  -9  13    0.54    0.32 
  -1   9  13    0.79    0.29 
   1  -9  13    0.30    0.30 
   1   9  13    0.24    0.26 
   3  -9  13   -0.08    0.26 
   3   9  13    0.10    0.25 
 -20 -10  13    0.10    0.34 
  20  10 -13   -0.13    0.23 
 -18 -10  13    0.00    0.30 
  18  10 -13   -0.11    0.22 
 -16 -10  13    0.09    0.25 
 -16 -10  13    0.15    0.31 
 -16  10  13   -0.14    0.18 
  16  10 -13    0.07    0.23 
 -14 -10  13    0.02    0.25 
 -14 -10  13    0.26    0.31 
  14  10 -13    0.31    0.22 
 -14  10  13    0.39    0.21 
 -12 -10  13    0.08    0.28 
 -12 -10  13   -0.14    0.22 
 -12  10  13    0.02    0.19 
  12  10 -13   -0.02    0.20 
 -10 -10  13   -0.23    0.20 
 -10 -10  13   -0.13    0.27 
  10  10 -13    0.17    0.20 
 -10  10  13   -0.24    0.18 
  -8 -10  13   11.18    0.78 
  -8 -10  13   10.54    0.63 
  -8  10  13    9.34    0.60 
   8  10 -13   10.38    0.58 
  -6 -10  13    0.26    0.29 
  -6 -10  13    0.37    0.25 
   6  10 -13    0.28    0.20 
  -6  10  13    0.08    0.22 
  -4 -10  13    0.19    0.23 
  -4 -10  13   -0.02    0.26 
  -4  10  13   -0.07    0.21 
   4  10 -13    0.11    0.19 
  -2 -10  13    1.07    0.37 
  -2  10  13    0.73    0.27 
   0 -10  13    2.07    0.42 
   0  10  13    2.05    0.37 
   2 -10  13    0.68    0.35 
   2  10  13    0.13    0.26 
 -19 -11  13    0.36    0.38 
  19  11 -13    0.71    0.31 
 -17 -11  13    7.64    0.77 
  17  11 -13    7.59    0.60 
 -15 -11  13    0.01    0.30 
  15  11 -13    0.05    0.22 
 -15  11  13    0.17    0.19 
 -13 -11  13    4.31    0.62 
 -13 -11  13    3.95    0.49 
  13  11 -13    4.91    0.47 
 -13  11  13    3.95    0.42 
 -11 -11  13    0.27    0.26 
 -11 -11  13    0.05    0.30 
 -11  11  13    0.05    0.21 
  11  11 -13    0.08    0.20 
  -9 -11  13    0.19    0.23 
  -9 -11  13    0.07    0.30 
   9  11 -13   -0.09    0.17 
  -9  11  13    0.07    0.21 
  -7 -11  13    8.66    0.58 
  -7 -11  13    8.13    0.72 
   7  11 -13    8.61    0.53 
  -7  11  13    9.16    0.60 
  -5 -11  13    0.40    0.32 
  -5 -11  13    0.01    0.22 
  -5  11  13    0.02    0.23 
   5  11 -13    0.30    0.20 
  -3 -11  13    1.70    0.40 
  -3  11  13    1.77    0.35 
  -1 -11  13    0.27    0.31 
  -1  11  13    0.74    0.31 
   1 -11  13   -0.16    0.29 
   1  11  13   -0.02    0.25 
 -16 -12  13    0.11    0.34 
  16  12 -13   -0.16    0.22 
 -14 -12  13    1.21    0.45 
  14  12 -13    0.91    0.31 
 -14  12  13    1.03    0.30 
 -12 -12  13    0.45    0.37 
  12  12 -13    0.93    0.29 
 -12  12  13    0.71    0.26 
 -10 -12  13    0.92    0.40 
 -10 -12  13    0.68    0.31 
 -10  12  13    0.89    0.28 
  10  12 -13    0.67    0.26 
  -8 -12  13    1.41    0.41 
  -8 -12  13    1.59    0.34 
  -8  12  13    1.64    0.35 
   8  12 -13    1.41    0.30 
  -6 -12  13    5.13    0.63 
  -6 -12  13    5.04    0.50 
  -6  12  13    4.38    0.49 
   6  12 -13    4.75    0.43 
  -4 -12  13    0.01    0.30 
  -4  12  13   -0.06    0.24 
  -2 -12  13    0.52    0.33 
  -2  12  13    0.10    0.25 
 -13 -13  13   -0.14    0.31 
  13  13 -13   -0.06    0.22 
 -11 -13  13    0.02    0.35 
  11  13 -13   -0.02    0.24 
 -11  13  13    0.18    0.22 
  -9 -13  13    0.33    0.35 
  -9  13  13    0.63    0.29 
   9  13 -13    1.34    0.31 
  -7 -13  13    1.25    0.42 
   7  13 -13    1.31    0.31 
  -7  13  13    1.27    0.33 
  -5 -13  13    0.04    0.33 
  -5  13  13    0.12    0.26 
  26   0 -14    1.23    0.28 
 -26   0  14    1.73    0.35 
 -24   0  14   13.09    0.72 
  24   0 -14   11.99    0.65 
  22   0 -14    8.13    0.53 
 -22   0  14    8.57    0.59 
  20   0 -14    5.26    0.46 
 -20   0  14    5.67    0.52 
 -20   0  14    5.26    0.47 
 -18   0  14    2.35    0.36 
 -18   0  14    1.98    0.32 
 -16   0  14    0.65    0.22 
 -16   0  14    1.27    0.28 
 -14   0  14    0.36    0.19 
 -14   0  14    0.55    0.20 
 -12   0  14    0.00    0.16 
 -12   0  14    0.02    0.17 
 -10   0  14   11.29    0.60 
 -10   0  14   10.75    0.52 
  -8   0  14   18.02    0.69 
  -8   0  14   18.09    0.77 
  -6   0  14   15.63    0.64 
  -6   0  14   15.34    0.72 
  -4   0  14    1.09    0.29 
  -4   0  14    0.71    0.20 
  -2   0  14    2.62    0.34 
  -2   0  14    2.81    0.38 
   2   0  14    1.87    0.34 
   2   0  14    0.66    0.28 
   4   0  14    1.56    0.35 
   4   0  14    2.29    0.39 
   6   0  14    0.05    0.28 
   6   0  14    0.25    0.37 
 -25  -1  14    3.33    0.44 
  25  -1 -14    2.74    0.36 
  25   1 -14    3.02    0.38 
 -25   1  14    2.86    0.40 
  23  -1 -14    1.53    0.28 
 -23  -1  14    1.61    0.34 
 -23  -1  14    2.08    0.42 
  23   1 -14    1.04    0.25 
  23   1 -14    1.72    0.30 
 -23   1  14    1.12    0.29 
 -21  -1  14    5.20    0.54 
 -21  -1  14    5.45    0.49 
  21   1 -14    5.03    0.40 
 -21   1  14    5.40    0.48 
  21   1 -14    5.03    0.43 
 -19  -1  14   11.93    0.65 
 -19  -1  14   11.45    0.68 
 -19   1  14   12.48    0.66 
 -17  -1  14    0.88    0.27 
 -17  -1  14    0.85    0.26 
 -17   1  14    0.71    0.24 
 -15  -1  14   13.25    0.66 
 -15  -1  14   12.88    0.64 
 -15   1  14   12.63    0.59 
 -15   1  14   12.06    0.63 
 -13  -1  14    9.34    0.53 
 -13  -1  14   10.15    0.57 
 -13   1  14    9.34    0.55 
 -13   1  14   10.09    0.50 
 -11  -1  14   34.65    1.14 
 -11  -1  14   37.10    1.21 
 -11   1  14   37.52    1.21 
 -11   1  14   36.47    1.09 
  -9  -1  14    0.88    0.21 
  -9  -1  14    0.71    0.23 
  -9   1  14    0.76    0.19 
  -9   1  14    0.88    0.25 
  -7  -1  14    0.67    0.20 
  -7  -1  14    0.26    0.21 
  -7   1  14    0.24    0.16 
  -7   1  14    0.34    0.21 
  -5  -1  14    5.00    0.45 
  -5  -1  14    5.04    0.40 
  -5   1  14    5.38    0.46 
  -5   1  14    4.67    0.36 
  -3  -1  14    0.50    0.24 
  -3  -1  14    0.26    0.20 
  -3   1  14    0.54    0.19 
  -3   1  14    0.71    0.26 
  -1  -1  14    3.32    0.40 
  -1  -1  14    2.92    0.40 
  -1   1  14    2.57    0.34 
  -1   1  14    2.71    0.39 
   1  -1  14   -0.04    0.22 
   1  -1  14   -0.22    0.21 
   1   1  14   -0.05    0.22 
   1   1  14    0.12    0.21 
   3  -1  14    0.59    0.28 
   3  -1  14    0.71    0.29 
   3   1  14    1.08    0.30 
   3   1  14    0.68    0.27 
   5  -1  14    0.05    0.29 
   5  -1  14    0.14    0.28 
   5   1  14    0.53    0.28 
   5   1  14    0.32    0.27 
   7  -1  14    1.01    0.36 
   7   1  14    0.64    0.32 
 -26  -2  14    3.16    0.45 
 -26  -2  14    1.62    0.44 
  26   2 -14    2.26    0.38 
  26   2 -14    2.22    0.36 
 -24  -2  14    0.72    0.35 
  24  -2 -14    1.56    0.28 
 -24  -2  14    1.31    0.33 
  24   2 -14    0.75    0.24 
  24   2 -14    0.94    0.26 
 -24   2  14    0.94    0.28 
 -22  -2  14    0.00    0.21 
 -22  -2  14   -0.23    0.24 
  22   2 -14   -0.03    0.18 
  22   2 -14    0.09    0.17 
 -22   2  14    0.18    0.22 
 -20  -2  14    0.00    0.22 
 -20  -2  14    0.38    0.27 
 -20   2  14    0.59    0.24 
  20   2 -14    0.14    0.20 
 -18  -2  14    1.05    0.28 
 -18  -2  14    1.49    0.32 
 -18   2  14    1.35    0.29 
 -16  -2  14    0.64    0.25 
 -16  -2  14    0.39    0.21 
 -16   2  14    0.80    0.25 
 -14  -2  14    0.15    0.20 
 -14  -2  14    0.23    0.20 
 -14   2  14    0.12    0.18 
 -12  -2  14    0.76    0.24 
 -12  -2  14    0.30    0.21 
 -12   2  14    1.09    0.26 
 -10  -2  14    0.70    0.24 
 -10  -2  14    0.69    0.22 
 -10   2  14    0.73    0.23 
 -10   2  14    0.49    0.21 
  -8  -2  14   -0.01    0.18 
  -8  -2  14   -0.01    0.16 
  -8   2  14   -0.05    0.18 
  -8   2  14   -0.11    0.12 
  -6  -2  14    4.30    0.39 
  -6  -2  14    4.58    0.45 
  -6   2  14    4.62    0.33 
  -6   2  14    4.48    0.42 
  -4  -2  14   -0.19    0.17 
  -4  -2  14    0.13    0.18 
  -4   2  14    0.16    0.15 
  -4   2  14    0.05    0.20 
  -2  -2  14    1.99    0.33 
  -2  -2  14    2.17    0.34 
  -2   2  14    2.87    0.39 
  -2   2  14    1.84    0.28 
   0  -2  14    0.48    0.26 
   0  -2  14    0.18    0.23 
   0   2  14    0.33    0.20 
   0   2  14    0.23    0.24 
   2  -2  14   -0.25    0.22 
   2  -2  14   -0.01    0.25 
   2   2  14    0.32    0.25 
   2   2  14    0.34    0.22 
   4  -2  14   -0.10    0.24 
   4  -2  14    0.21    0.26 
   4   2  14    0.05    0.25 
   4   2  14   -0.17    0.22 
   6  -2  14    0.36    0.30 
   6   2  14    0.31    0.29 
   6   2  14    0.19    0.28 
 -25  -3  14   10.27    0.83 
 -25  -3  14   10.05    0.68 
  25   3 -14    8.91    0.60 
  25   3 -14    8.61    0.60 
 -23  -3  14    0.51    0.28 
 -23  -3  14    0.40    0.32 
  23   3 -14    0.25    0.23 
  23   3 -14    0.42    0.23 
 -23   3  14    0.63    0.25 
 -21  -3  14    0.32    0.30 
 -21  -3  14    0.22    0.24 
  21   3 -14    0.27    0.20 
 -21   3  14    0.41    0.23 
 -19  -3  14    0.51    0.29 
 -19  -3  14    0.84    0.28 
 -19   3  14    0.90    0.25 
  19   3 -14    0.68    0.24 
 -17  -3  14    5.89    0.53 
 -17  -3  14    5.88    0.49 
 -17   3  14    5.75    0.46 
 -15  -3  14    4.12    0.45 
 -15  -3  14    3.59    0.42 
 -15   3  14    3.06    0.37 
 -13  -3  14   -0.22    0.17 
 -13  -3  14   -0.14    0.18 
 -13   3  14   -0.13    0.16 
 -11  -3  14    1.00    0.24 
 -11  -3  14    1.72    0.31 
 -11   3  14    1.46    0.28 
  -9  -3  14    3.39    0.39 
  -9  -3  14    3.63    0.37 
  -9   3  14    3.45    0.38 
  -7  -3  14   25.67    0.97 
  -7  -3  14   26.30    0.97 
  -7   3  14   26.80    0.98 
  -5  -3  14   -0.01    0.19 
  -5  -3  14   -0.02    0.18 
  -5   3  14   -0.01    0.20 
  -3  -3  14    0.93    0.26 
  -3  -3  14    1.09    0.27 
  -3   3  14    1.09    0.29 
  -3   3  14    1.24    0.22 
  -1  -3  14    0.28    0.21 
  -1  -3  14    0.28    0.23 
  -1   3  14    0.33    0.24 
  -1   3  14    0.32    0.19 
   1  -3  14    1.38    0.30 
   1  -3  14    1.95    0.39 
   1   3  14    1.58    0.32 
   1   3  14    1.48    0.28 
   3  -3  14    0.10    0.27 
   3  -3  14   -0.01    0.22 
   3   3  14   -0.14    0.23 
   3   3  14   -0.19    0.21 
   5  -3  14    1.58    0.40 
   5   3  14    1.51    0.36 
   5   3  14    1.36    0.34 
  26   4 -14    0.51    0.27 
 -24  -4  14    2.63    0.50 
 -24  -4  14    2.19    0.41 
  24   4 -14    3.32    0.43 
  24   4 -14    2.93    0.40 
 -22  -4  14    2.17    0.45 
 -22  -4  14    1.57    0.34 
 -22   4  14    2.12    0.34 
  22   4 -14    2.31    0.35 
 -20  -4  14    2.42    0.43 
 -20  -4  14    2.34    0.37 
  20   4 -14    2.09    0.33 
 -20   4  14    2.98    0.36 
 -18  -4  14    3.73    0.48 
 -18  -4  14    4.90    0.50 
  18   4 -14    4.69    0.43 
 -18   4  14    4.85    0.43 
 -16  -4  14    4.75    0.52 
 -16  -4  14    3.92    0.43 
 -16   4  14    3.24    0.39 
 -14  -4  14    2.82    0.40 
 -14  -4  14    2.45    0.35 
 -14   4  14    2.72    0.34 
 -12  -4  14    1.00    0.28 
 -12  -4  14    0.85    0.24 
 -12   4  14    0.79    0.23 
 -10  -4  14    0.20    0.21 
 -10  -4  14    0.11    0.20 
 -10   4  14    0.14    0.19 
  -8  -4  14   27.14    1.03 
  -8  -4  14   28.79    1.03 
  -8   4  14   28.50    1.03 
  -6  -4  14    0.77    0.26 
  -6  -4  14    0.52    0.22 
  -6   4  14    0.44    0.23 
  -4  -4  14    3.20    0.38 
  -4  -4  14    3.84    0.43 
  -4   4  14    3.55    0.42 
  -2  -4  14    0.11    0.20 
  -2  -4  14    0.02    0.21 
  -2   4  14    0.45    0.25 
   0  -4  14    2.69    0.36 
   0  -4  14    2.46    0.39 
   0   4  14    2.83    0.39 
   2  -4  14    2.21    0.34 
   2  -4  14    2.64    0.44 
   2   4  14    2.20    0.38 
   4  -4  14    0.43    0.31 
   4   4  14    0.21    0.28 
   6  -4  14    0.80    0.36 
   6   4  14    0.78    0.34 
 -25  -5  14    2.69    0.45 
 -25  -5  14    2.70    0.54 
  25   5 -14    2.43    0.39 
  25   5 -14    2.00    0.37 
 -23  -5  14    0.35    0.28 
 -23  -5  14   -0.11    0.30 
  23   5 -14    0.23    0.24 
 -21  -5  14    0.84    0.29 
 -21  -5  14    0.32    0.31 
  21   5 -14    0.44    0.23 
 -21   5  14    0.42    0.23 
 -19  -5  14    1.85    0.35 
 -19  -5  14    2.38    0.43 
 -19   5  14    2.26    0.33 
  19   5 -14    2.49    0.36 
 -17  -5  14    1.40    0.35 
 -17  -5  14    1.10    0.29 
  17   5 -14    1.78    0.30 
 -17   5  14    1.28    0.28 
 -15  -5  14    2.01    0.37 
 -15  -5  14    2.59    0.39 
 -15   5  14    2.13    0.32 
  15   5 -14    2.15    0.32 
 -13  -5  14    5.60    0.52 
 -13  -5  14    6.98    0.52 
 -13   5  14    6.46    0.48 
 -11  -5  14   12.85    0.67 
 -11  -5  14   12.69    0.70 
 -11   5  14   11.82    0.63 
  -9  -5  14   15.47    0.72 
  -9  -5  14   15.03    0.76 
  -9   5  14   12.77    0.67 
  -7  -5  14    4.46    0.45 
  -7  -5  14    4.95    0.46 
  -7   5  14    4.97    0.45 
  -5  -5  14    6.52    0.52 
  -5  -5  14    5.12    0.45 
  -5   5  14    4.98    0.47 
  -3  -5  14    0.11    0.22 
  -3  -5  14    0.12    0.20 
  -3   5  14   -0.02    0.20 
  -1  -5  14   12.06    0.65 
  -1  -5  14   13.12    0.74 
  -1   5  14   12.81    0.70 
   1  -5  14    1.09    0.27 
   1  -5  14    1.16    0.33 
   1   5  14    1.00    0.30 
   3  -5  14    1.21    0.37 
   3   5  14    1.47    0.34 
   5  -5  14    1.73    0.42 
   5   5  14    1.68    0.37 
 -24  -6  14    1.29    0.38 
 -24  -6  14    1.98    0.50 
  24   6 -14    0.79    0.29 
 -22  -6  14    1.15    0.41 
 -22  -6  14    1.44    0.36 
  22   6 -14    2.79    0.42 
 -20  -6  14    0.98    0.37 
 -20  -6  14    2.30    0.40 
 -20   6  14    1.99    0.32 
  20   6 -14    1.88    0.34 
 -18  -6  14    2.53    0.39 
 -18  -6  14    2.56    0.47 
 -18   6  14    2.77    0.35 
  18   6 -14    2.53    0.36 
 -16  -6  14    0.08    0.23 
 -16  -6  14    0.44    0.28 
  16   6 -14    0.13    0.20 
 -16   6  14    0.37    0.21 
 -14  -6  14    4.63    0.53 
 -14  -6  14    4.67    0.46 
 -14   6  14    3.55    0.39 
  14   6 -14    4.55    0.41 
 -12  -6  14   17.30    0.85 
 -12  -6  14   17.45    0.79 
 -12   6  14   15.91    0.74 
 -10  -6  14    7.52    0.60 
 -10  -6  14    8.85    0.56 
 -10   6  14    8.28    0.53 
  -8  -6  14    0.74    0.28 
  -8  -6  14    0.98    0.26 
  -8   6  14    0.61    0.24 
  -6  -6  14    3.25    0.45 
  -6  -6  14    3.50    0.40 
  -6   6  14    3.01    0.39 
  -4  -6  14    0.54    0.24 
  -4  -6  14    0.88    0.29 
  -4   6  14    0.61    0.24 
  -2  -6  14   -0.17    0.23 
  -2  -6  14   -0.05    0.20 
  -2   6  14    0.05    0.22 
   0  -6  14   -0.13    0.24 
   0  -6  14    0.05    0.21 
   0   6  14    0.35    0.23 
   2  -6  14    0.51    0.31 
   2   6  14    0.56    0.27 
   4  -6  14    0.71    0.35 
   4   6  14    0.72    0.31 
 -23  -7  14    0.67    0.40 
  23   7 -14    0.38    0.28 
 -21  -7  14    0.12    0.32 
 -21  -7  14    0.26    0.28 
  21   7 -14   -0.01    0.23 
 -19  -7  14    1.66    0.36 
 -19  -7  14    1.47    0.40 
  19   7 -14    0.72    0.27 
 -19   7  14    1.62    0.29 
 -17  -7  14    0.43    0.27 
 -17  -7  14    0.26    0.30 
  17   7 -14    0.23    0.21 
 -17   7  14    0.45    0.22 
 -15  -7  14    0.27    0.27 
 -15  -7  14   -0.18    0.20 
  15   7 -14    0.02    0.18 
 -15   7  14    0.27    0.20 
 -13  -7  14    1.93    0.35 
 -13  -7  14    3.07    0.46 
 -13   7  14    2.13    0.33 
  13   7 -14    2.74    0.35 
 -11  -7  14    2.63    0.43 
 -11  -7  14    2.96    0.40 
  11   7 -14    3.09    0.36 
 -11   7  14    2.10    0.32 
  -9  -7  14    0.30    0.26 
  -9  -7  14    0.47    0.25 
  -9   7  14    0.25    0.20 
  -7   7  14    1.19    0.28 
  -5  -7  14    0.82    0.27 
  -5  -7  14    0.53    0.28 
  -5   7  14    0.47    0.25 
  -3  -7  14    1.81    0.32 
  -3  -7  14    1.86    0.39 
  -3   7  14    2.12    0.36 
  -1  -7  14    0.46    0.30 
  -1  -7  14    0.98    0.27 
  -1   7  14    0.60    0.28 
   1  -7  14    0.07    0.26 
   1   7  14   -0.06    0.23 
   3  -7  14    1.63    0.41 
   3   7  14    1.84    0.39 
 -22  -8  14    0.21    0.36 
  22   8 -14    0.45    0.29 
 -20  -8  14   -0.21    0.25 
 -20  -8  14   -0.17    0.28 
  20   8 -14    0.45    0.26 
 -18  -8  14    0.52    0.30 
 -18  -8  14    0.07    0.30 
 -18   8  14    0.08    0.19 
  18   8 -14    0.02    0.22 
 -16  -8  14    0.54    0.28 
 -16  -8  14    0.48    0.32 
  16   8 -14    0.42    0.23 
 -16   8  14    0.40    0.22 
 -14  -8  14    2.88    0.43 
 -14  -8  14    3.09    0.51 
  14   8 -14    3.42    0.41 
 -14   8  14    2.67    0.35 
 -12  -8  14    2.44    0.39 
 -12  -8  14    2.21    0.42 
 -12   8  14    1.97    0.33 
  12   8 -14    2.03    0.33 
 -10  -8  14    0.26    0.27 
 -10  -8  14    0.10    0.22 
 -10   8  14    0.24    0.21 
  10   8 -14    0.56    0.22 
  -8  -8  14    9.81    0.61 
  -8  -8  14    9.64    0.70 
  -8   8  14    9.37    0.59 
   8   8 -14    9.90    0.56 
  -6  -8  14    0.02    0.24 
  -6  -8  14    0.15    0.24 
  -6   8  14    0.03    0.21 
  -4  -8  14    6.34    0.51 
  -4  -8  14    6.69    0.60 
  -4   8  14    6.44    0.54 
  -2  -8  14    0.22    0.23 
  -2  -8  14   -0.17    0.25 
  -2   8  14    0.03    0.24 
   0  -8  14    1.66    0.40 
   0   8  14    2.29    0.42 
   2  -8  14    1.28    0.37 
   2   8  14    2.05    0.40 
 -21  -9  14    5.04    0.69 
  21   9 -14    6.94    0.59 
 -19  -9  14    1.45    0.38 
 -19  -9  14    1.36    0.42 
  19   9 -14    1.75    0.35 
 -17  -9  14    1.11    0.38 
 -17  -9  14    3.21    0.48 
  17   9 -14    2.09    0.36 
 -17   9  14    1.79    0.32 
 -15  -9  14    0.17    0.25 
 -15  -9  14   -0.22    0.27 
  15   9 -14    0.15    0.24 
 -15   9  14    0.55    0.23 
 -13  -9  14    2.59    0.47 
 -13  -9  14    2.09    0.37 
  13   9 -14    1.88    0.33 
 -13   9  14    2.00    0.32 
 -11  -9  14    3.19    0.48 
 -11  -9  14    2.69    0.40 
 -11   9  14    2.53    0.37 
  11   9 -14    1.84    0.31 
  -9  -9  14    7.58    0.67 
  -9  -9  14    7.50    0.56 
  -9   9  14    7.30    0.55 
   9   9 -14    8.41    0.53 
  -7  -9  14    0.62    0.32 
  -7  -9  14    0.29    0.24 
  -7   9  14    0.39    0.24 
   7   9 -14    0.91    0.26 
  -5  -9  14    0.23    0.23 
  -5  -9  14    0.05    0.25 
  -5   9  14    0.27    0.24 
   5   9 -14    0.08    0.18 
  -3  -9  14    0.93    0.27 
  -3  -9  14    0.56    0.34 
  -3   9  14    0.63    0.28 
   3   9 -14    0.70    0.22 
  -1  -9  14    0.59    0.31 
  -1   9  14    1.29    0.34 
   1  -9  14   -0.01    0.30 
   1   9  14    0.06    0.25 
 -20 -10  14    0.08    0.34 
  20  10 -14    0.43    0.28 
 -18 -10  14    0.69    0.38 
 -18 -10  14    0.60    0.32 
  18  10 -14    1.11    0.32 
 -16 -10  14    0.10    0.29 
 -16 -10  14   -0.36    0.21 
  16  10 -14   -0.06    0.21 
 -16  10  14    0.03    0.20 
 -14 -10  14    0.52    0.28 
 -14 -10  14    0.37    0.33 
 -14  10  14    0.68    0.25 
  14  10 -14    0.55    0.24 
 -12 -10  14    1.29    0.34 
 -12 -10  14    1.15    0.39 
 -12  10  14    1.76    0.32 
  12  10 -14    1.03    0.29 
 -10 -10  14    3.75    0.46 
 -10 -10  14    3.15    0.52 
 -10  10  14    3.77    0.44 
  10  10 -14    3.31    0.40 
  -8 -10  14    5.91    0.53 
  -8 -10  14    4.38    0.56 
  -8  10  14    5.53    0.50 
   8  10 -14    5.25    0.47 
  -6 -10  14    4.87    0.61 
  -6 -10  14    5.44    0.52 
  -6  10  14    5.79    0.53 
   6  10 -14    5.60    0.47 
  -4 -10  14    1.66    0.33 
  -4 -10  14    1.47    0.39 
   4  10 -14    2.44    0.34 
  -4  10  14    2.32    0.39 
  -2 -10  14    0.22    0.31 
  -2  10  14    0.32    0.25 
   0 -10  14    0.34    0.33 
   0  10  14    0.13    0.27 
 -17 -11  14   -0.05    0.34 
  17  11 -14   -0.10    0.22 
 -15 -11  14    0.10    0.33 
 -15 -11  14    0.28    0.28 
 -15  11  14   -0.02    0.20 
  15  11 -14   -0.11    0.22 
 -13 -11  14    0.14    0.34 
 -13 -11  14    0.05    0.25 
  13  11 -14    0.04    0.22 
 -13  11  14    0.32    0.22 
 -11 -11  14    0.68    0.35 
 -11 -11  14    0.36    0.28 
 -11  11  14    0.96    0.27 
  11  11 -14    0.94    0.28 
  -9 -11  14    0.37    0.32 
  -9 -11  14    0.49    0.28 
   9  11 -14    0.61    0.25 
  -9  11  14    0.57    0.26 
  -7 -11  14    2.71    0.40 
  -7 -11  14    4.19    0.58 
   7  11 -14    3.35    0.40 
  -7  11  14    3.83    0.47 
  -5 -11  14    0.70    0.31 
  -5 -11  14    0.75    0.36 
  -5  11  14    0.24    0.25 
   5  11 -14    0.59    0.25 
  -3 -11  14    0.50    0.36 
  -3  11  14    0.29    0.27 
  -1 -11  14   -0.06    0.31 
  -1  11  14    0.14    0.28 
 -16 -12  14    0.19    0.37 
  16  12 -14    0.36    0.29 
 -14 -12  14    4.49    0.67 
  14  12 -14    4.82    0.51 
 -14  12  14    4.05    0.45 
 -12 -12  14    1.56    0.38 
 -12 -12  14    1.55    0.47 
  12  12 -14    2.00    0.36 
 -12  12  14    1.28    0.31 
 -10 -12  14    0.41    0.28 
 -10 -12  14    0.71    0.37 
  10  12 -14    0.16    0.23 
 -10  12  14    0.28    0.25 
  -8 -12  14   -0.22    0.25 
  -8 -12  14    0.14    0.31 
  -8  12  14    0.35    0.26 
   8  12 -14    0.06    0.22 
  -6 -12  14    0.17    0.35 
   6  12 -14    0.11    0.23 
  -6  12  14   -0.13    0.24 
  -4 -12  14    0.14    0.32 
  -4  12  14   -0.11    0.27 
  11  13 -14    3.47    0.45 
   9  13 -14   -0.12    0.24 
  -9  13  14    0.26    0.26 
  26   0 -15    0.18    0.22 
 -26   0  15    0.16    0.26 
 -24   0  15    0.07    0.23 
  24   0 -15    0.06    0.20 
  22   0 -15   -0.38    0.15 
 -22   0  15    0.13    0.24 
 -20   0  15    0.28    0.23 
 -18   0  15   -0.24    0.20 
 -16   0  15    0.12    0.20 
 -16   0  15    0.01    0.20 
 -14   0  15    0.11    0.17 
 -14   0  15    0.07    0.19 
 -12   0  15   -0.27    0.19 
 -12   0  15    0.07    0.17 
 -10   0  15    0.00    0.21 
 -10   0  15    0.04    0.17 
  -8   0  15   -0.14    0.14 
  -8   0  15    0.14    0.21 
  -6   0  15   -0.15    0.15 
  -6   0  15   -0.06    0.21 
  -4   0  15    0.12    0.17 
  -4   0  15    0.05    0.24 
  -2   0  15   -0.12    0.20 
  -2   0  15   -0.15    0.23 
   2   0  15    0.05    0.24 
   2   0  15   -0.32    0.25 
   4   0  15   -0.02    0.26 
   4   0  15   -0.43    0.25 
 -25  -1  15    2.73    0.41 
  25  -1 -15    2.52    0.35 
 -25   1  15    2.69    0.42 
  25   1 -15    3.36    0.41 
 -23  -1  15    1.51    0.33 
  23  -1 -15    1.31    0.27 
  23   1 -15    1.76    0.31 
 -23   1  15    1.91    0.35 
 -21  -1  15    1.69    0.35 
 -21   1  15    1.67    0.33 
  21   1 -15    1.71    0.32 
 -19  -1  15    0.42    0.25 
 -19  -1  15    0.64    0.25 
 -19   1  15    0.80    0.26 
 -17  -1  15    2.83    0.38 
 -17  -1  15    3.29    0.40 
 -17   1  15    3.02    0.39 
 -15  -1  15    6.34    0.49 
 -15  -1  15    6.58    0.48 
 -15   1  15    5.73    0.48 
 -13  -1  15   -0.14    0.18 
 -13  -1  15    0.02    0.19 
 -13   1  15    0.16    0.21 
 -11  -1  15    9.80    0.58 
 -11  -1  15    8.12    0.50 
 -11   1  15    9.23    0.57 
  -9  -1  15    1.52    0.27 
  -9  -1  15    1.21    0.28 
  -9   1  15    1.99    0.25 
  -9   1  15    1.03    0.28 
  -7  -1  15    1.06    0.27 
  -7  -1  15    0.94    0.24 
  -7   1  15    0.79    0.20 
  -7   1  15    0.89    0.27 
  -5  -1  15    1.68    0.33 
  -5  -1  15    1.15    0.26 
  -5   1  15    1.19    0.24 
  -5   1  15    1.30    0.32 
  -3  -1  15    1.04    0.26 
  -3  -1  15    0.54    0.27 
  -3   1  15    0.78    0.28 
  -1  -1  15    1.72    0.34 
  -1  -1  15    1.11    0.31 
  -1   1  15    1.53    0.34 
  -1   1  15    1.60    0.31 
   1  -1  15    0.23    0.27 
   1  -1  15    0.16    0.25 
   1   1  15   -0.10    0.25 
   1   1  15    0.31    0.24 
   3  -1  15    0.97    0.35 
   3  -1  15    0.34    0.30 
   3   1  15    0.62    0.29 
   3   1  15    0.44    0.30 
   5  -1  15    0.51    0.32 
   5   1  15    0.37    0.29 
   5   1  15    0.93    0.35 
 -26  -2  15    4.33    0.51 
  26   2 -15    3.02    0.40 
 -24  -2  15    0.09    0.24 
 -24  -2  15    0.52    0.56 
  24  -2 -15    0.24    0.19 
 -24   2  15    0.06    0.23 
  24   2 -15    0.21    0.22 
 -22  -2  15    3.61    0.51 
 -22  -2  15    3.51    0.44 
  22   2 -15    2.92    0.38 
 -22   2  15    3.84    0.43 
 -20  -2  15    2.98    0.41 
 -20  -2  15    2.94    0.44 
  20   2 -15    2.54    0.36 
 -20   2  15    2.34    0.36 
 -18  -2  15    1.80    0.35 
 -18  -2  15    2.03    0.34 
 -18   2  15    2.74    0.37 
 -16  -2  15   11.06    0.65 
 -16  -2  15   10.88    0.63 
 -16   2  15   10.00    0.61 
 -14  -2  15    9.32    0.58 
 -14  -2  15    8.97    0.56 
 -14   2  15    8.07    0.54 
 -12  -2  15    9.60    0.57 
 -12  -2  15   10.36    0.60 
 -12   2  15   10.89    0.61 
 -10  -2  15   10.40    0.61 
 -10  -2  15    9.36    0.55 
 -10   2  15    8.88    0.58 
  -8  -2  15    0.57    0.22 
  -8  -2  15    1.45    0.30 
  -8   2  15    1.05    0.27 
  -6  -2  15    8.39    0.57 
  -6  -2  15    8.35    0.54 
  -6   2  15   10.62    0.62 
  -4  -2  15   -0.12    0.20 
  -4  -2  15   -0.12    0.18 
  -4   2  15   -0.04    0.22 
  -4   2  15    0.06    0.16 
  -2  -2  15    3.57    0.43 
  -2  -2  15    3.79    0.43 
  -2   2  15    3.70    0.38 
  -2   2  15    3.31    0.43 
   0  -2  15   -0.10    0.24 
   0  -2  15   -0.04    0.22 
   0   2  15   -0.06    0.23 
   0   2  15   -0.08    0.19 
   2  -2  15    1.53    0.35 
   2  -2  15    1.29    0.35 
   2   2  15    1.32    0.34 
   2   2  15    1.50    0.32 
   4  -2  15   -0.02    0.29 
   4   2  15   -0.05    0.27 
   4   2  15   -0.09    0.27 
 -25  -3  15    4.67    0.62 
 -25  -3  15    4.52    0.53 
  25   3 -15    4.95    0.47 
  25   3 -15    3.69    0.44 
 -23  -3  15    0.99    0.31 
 -23  -3  15    1.16    0.38 
 -23   3  15    1.76    0.34 
  23   3 -15    1.36    0.31 
 -21  -3  15    2.35    0.43 
 -21  -3  15    1.97    0.37 
 -21   3  15    1.72    0.33 
  21   3 -15    2.68    0.37 
 -19  -3  15    0.65    0.31 
 -19  -3  15    0.23    0.24 
 -19   3  15    0.76    0.25 
  19   3 -15    1.35    0.28 
 -17  -3  15    1.84    0.35 
 -17  -3  15    2.42    0.40 
 -17   3  15    1.90    0.33 
 -15  -3  15    7.35    0.54 
 -15  -3  15    8.10    0.56 
 -15   3  15    7.13    0.53 
 -13  -3  15    1.36    0.30 
 -13  -3  15    1.85    0.33 
 -13   3  15    1.60    0.30 
 -11  -3  15    0.58    0.23 
 -11  -3  15    0.30    0.21 
 -11   3  15    0.85    0.27 
  -9  -3  15    0.84    0.25 
  -9  -3  15    1.09    0.26 
  -9   3  15    1.34    0.30 
  -7  -3  15    0.34    0.23 
  -7  -3  15    0.26    0.21 
  -7   3  15    0.01    0.21 
  -5  -3  15    4.88    0.48 
  -5  -3  15    3.66    0.42 
  -5   3  15    3.71    0.43 
  -3  -3  15    0.43    0.24 
  -3  -3  15    0.76    0.26 
  -3   3  15    0.47    0.25 
  -1  -3  15    1.19    0.31 
  -1  -3  15    0.76    0.28 
  -1   3  15    1.71    0.34 
   1  -3  15    9.87    0.63 
   1  -3  15    9.27    0.68 
   1   3  15    9.22    0.65 
   3  -3  15   -0.01    0.27 
   3   3  15   -0.05    0.27 
   5  -3  15    0.12    0.31 
   5   3  15    0.34    0.32 
 -24  -4  15    0.21    0.33 
 -24  -4  15    0.24    0.27 
  24   4 -15    0.09    0.23 
 -22  -4  15    0.49    0.27 
 -22  -4  15    0.54    0.35 
 -22   4  15    0.67    0.27 
  22   4 -15    0.00    0.21 
 -20  -4  15    1.07    0.31 
 -20  -4  15    0.78    0.32 
  20   4 -15    0.64    0.25 
 -20   4  15    0.84    0.27 
 -18  -4  15    0.69    0.29 
 -18  -4  15    0.78    0.29 
  18   4 -15    0.76    0.25 
 -18   4  15    0.67    0.25 
 -16  -4  15   10.08    0.67 
 -16  -4  15    9.20    0.61 
 -16   4  15    9.94    0.60 
 -14  -4  15    3.90    0.46 
 -14  -4  15    3.68    0.42 
 -14   4  15    2.47    0.34 
 -12  -4  15    0.83    0.27 
 -12  -4  15    1.05    0.30 
 -12   4  15    1.44    0.30 
 -10  -4  15   -0.14    0.18 
 -10  -4  15   -0.11    0.19 
 -10   4  15    0.16    0.21 
  -8  -4  15    1.65    0.32 
  -8  -4  15    1.56    0.31 
  -8   4  15    1.68    0.31 
  -6  -4  15   10.26    0.61 
  -6  -4  15    9.06    0.60 
  -6   4  15    9.33    0.60 
  -4  -4  15    0.64    0.26 
  -4  -4  15    0.40    0.25 
  -4   4  15   -0.03    0.21 
  -2  -4  15    2.11    0.37 
  -2  -4  15    2.24    0.36 
  -2   4  15    1.94    0.37 
   0  -4  15    0.64    0.30 
   0  -4  15    0.98    0.30 
   0   4  15    1.12    0.33 
   2  -4  15    0.32    0.31 
   2   4  15   -0.01    0.26 
   4  -4  15    0.66    0.36 
   4   4  15    0.46    0.33 
  25   5 -15    2.48    0.42 
 -23  -5  15    3.57    0.49 
 -23  -5  15    3.85    0.59 
  23   5 -15    4.56    0.50 
 -21  -5  15    0.50    0.34 
 -21  -5  15    0.57    0.28 
 -21   5  15    0.69    0.26 
  21   5 -15    1.02    0.28 
 -19  -5  15    0.28    0.24 
 -19  -5  15    0.02    0.26 
 -19   5  15   -0.07    0.20 
  19   5 -15    0.08    0.20 
 -17  -5  15    2.17    0.37 
 -17  -5  15    2.02    0.41 
  17   5 -15    1.93    0.32 
 -17   5  15    2.06    0.34 
 -15  -5  15   -0.20    0.23 
 -15  -5  15    0.08    0.21 
 -15   5  15   -0.04    0.18 
 -13  -5  15    1.72    0.34 
 -13  -5  15    1.77    0.36 
 -13   5  15    1.26    0.28 
 -11  -5  15   -0.08    0.21 
 -11  -5  15    0.09    0.22 
 -11   5  15   -0.15    0.18 
  -9  -5  15    0.05    0.22 
  -9  -5  15   -0.22    0.20 
  -9   5  15   -0.12    0.19 
  -7  -5  15    0.42    0.24 
  -7  -5  15    0.66    0.27 
  -7   5  15    0.39    0.25 
  -5  -5  15    0.38    0.22 
  -5  -5  15    0.21    0.23 
  -5   5  15    0.13    0.23 
  -3  -5  15   -0.08    0.24 
  -3  -5  15    0.19    0.22 
  -3   5  15    0.26    0.24 
  -1  -5  15    0.04    0.22 
  -1  -5  15    0.26    0.26 
  -1   5  15   -0.07    0.25 
   1  -5  15    0.30    0.29 
   1   5  15    0.41    0.27 
   3  -5  15    0.57    0.34 
   3   5  15   -0.19    0.26 
 -24  -6  15    0.35    0.36 
 -24  -6  15    0.35    0.30 
  24   6 -15    0.34    0.26 
 -22  -6  15   -0.10    0.26 
 -22  -6  15   -0.33    0.29 
  22   6 -15    0.28    0.24 
 -20  -6  15    0.62    0.32 
 -20  -6  15    0.49    0.28 
  20   6 -15    0.16    0.21 
 -20   6  15    0.11    0.22 
 -18  -6  15    0.62    0.29 
 -18  -6  15    0.88    0.34 
 -18   6  15    0.58    0.25 
  18   6 -15    1.00    0.27 
 -16  -6  15    1.09    0.35 
 -16  -6  15    0.88    0.30 
 -16   6  15    1.03    0.27 
  16   6 -15    0.98    0.27 
 -14  -6  15    0.15    0.23 
 -14  -6  15    0.66    0.30 
  14   6 -15    0.31    0.22 
 -14   6  15    0.08    0.20 
 -12  -6  15    0.48    0.28 
 -12  -6  15    0.95    0.27 
 -12   6  15    0.48    0.23 
 -10  -6  15    1.44    0.36 
 -10  -6  15    1.99    0.35 
 -10   6  15    1.73    0.32 
  -8  -6  15    4.33    0.45 
  -8  -6  15    3.39    0.46 
  -8   6  15    4.02    0.46 
  -6  -6  15    3.68    0.42 
  -6  -6  15    2.91    0.42 
  -6   6  15    4.03    0.44 
  -4  -6  15    0.12    0.24 
  -4  -6  15    0.10    0.24 
  -4   6  15    0.20    0.24 
  -2  -6  15    0.94    0.28 
  -2  -6  15    0.92    0.33 
  -2   6  15    1.19    0.32 
   0  -6  15    0.40    0.29 
   0   6  15    0.06    0.25 
   2  -6  15    4.62    0.56 
   2   6  15    4.85    0.53 
 -23  -7  15    1.52    0.48 
 -23  -7  15    2.45    0.46 
  23   7 -15    2.44    0.41 
 -21  -7  15    0.36    0.27 
 -21  -7  15    0.02    0.32 
  21   7 -15    0.21    0.24 
 -19  -7  15    2.07    0.41 
 -19  -7  15    2.10    0.46 
 -19   7  15    1.93    0.33 
  19   7 -15    3.04    0.41 
 -17  -7  15    0.69    0.34 
 -17  -7  15    0.83    0.31 
  17   7 -15    0.34    0.23 
 -17   7  15    0.72    0.25 
 -15  -7  15    1.47    0.38 
 -15  -7  15    1.51    0.33 
 -15   7  15    0.77    0.26 
  15   7 -15    1.74    0.31 
 -13  -7  15    0.74    0.32 
 -13  -7  15    0.95    0.31 
  13   7 -15    0.53    0.23 
 -13   7  15    0.26    0.23 
 -11  -7  15    8.88    0.61 
 -11  -7  15    8.19    0.65 
 -11   7  15    7.97    0.56 
  -9  -7  15   16.60    0.88 
  -9  -7  15   16.16    0.79 
  -9   7  15   16.71    0.80 
  -7  -7  15    4.11    0.52 
  -7  -7  15    4.52    0.48 
  -7   7  15    4.01    0.46 
  -5  -7  15    0.18    0.23 
  -5  -7  15   -0.20    0.23 
  -5   7  15    0.07    0.25 
  -3  -7  15    1.68    0.38 
  -3  -7  15    1.85    0.34 
  -3   7  15    1.42    0.34 
  -1  -7  15    6.76    0.65 
  -1   7  15    4.85    0.53 
   1  -7  15    5.07    0.60 
   1   7  15    4.51    0.54 
 -22  -8  15    1.31    0.45 
 -22  -8  15    1.07    0.36 
  22   8 -15    1.38    0.36 
 -20  -8  15    0.43    0.34 
 -20  -8  15   -0.28    0.24 
  20   8 -15   -0.04    0.21 
 -18  -8  15    0.38    0.29 
 -18  -8  15   -0.06    0.29 
 -18   8  15    0.03    0.21 
  18   8 -15    0.08    0.23 
 -16  -8  15    2.21    0.38 
 -16  -8  15    2.10    0.44 
  16   8 -15    2.06    0.34 
 -16   8  15    2.01    0.34 
 -14  -8  15    0.21    0.25 
 -14  -8  15    0.47    0.31 
 -14   8  15    0.05    0.20 
  14   8 -15    0.00    0.20 
 -12  -8  15    0.17    0.26 
 -12  -8  15    0.31    0.30 
 -12   8  15    0.35    0.22 
  12   8 -15    0.27    0.21 
 -10  -8  15    3.97    0.53 
 -10  -8  15    3.69    0.45 
 -10   8  15    2.89    0.39 
  10   8 -15    3.97    0.42 
  -8  -8  15    8.34    0.68 
  -8  -8  15    8.77    0.60 
  -8   8  15    8.67    0.60 
   8   8 -15    8.10    0.53 
  -6  -8  15    9.15    0.71 
  -6  -8  15   10.42    0.64 
  -6   8  15    9.53    0.64 
  -4  -8  15    1.34    0.37 
  -4  -8  15    0.97    0.29 
  -4   8  15    1.50    0.34 
  -2  -8  15    1.20    0.38 
  -2   8  15   -0.07    0.24 
   0  -8  15    0.09    0.31 
   0   8  15    0.45    0.30 
 -21  -9  15   -0.19    0.30 
 -21  -9  15    0.45    0.38 
  21   9 -15   -0.15    0.25 
 -19  -9  15    0.29    0.31 
 -19  -9  15    0.79    0.39 
  19   9 -15    0.56    0.29 
 -17  -9  15    0.41    0.34 
 -17  -9  15    0.70    0.32 
 -17   9  15    0.05    0.22 
  17   9 -15    0.25    0.24 
 -15  -9  15    0.26    0.27 
 -15  -9  15   -0.13    0.29 
  15   9 -15    0.08    0.22 
 -15   9  15    0.06    0.20 
 -13  -9  15    0.76    0.30 
 -13  -9  15    0.63    0.34 
  13   9 -15    0.71    0.26 
 -13   9  15    0.34    0.24 
 -11  -9  15    0.26    0.27 
 -11  -9  15    0.54    0.30 
 -11   9  15    0.03    0.22 
  11   9 -15   -0.08    0.18 
  -9  -9  15    0.65    0.33 
  -9  -9  15    1.22    0.31 
  -9   9  15    0.76    0.26 
   9   9 -15    0.74    0.25 
  -7  -9  15    0.00    0.24 
  -7  -9  15    0.17    0.29 
  -7   9  15    0.41    0.25 
   7   9 -15    0.26    0.21 
  -5  -9  15   -0.17    0.22 
  -5  -9  15    0.04    0.28 
  -5   9  15    0.31    0.26 
   5   9 -15    0.17    0.21 
  -3  -9  15    2.26    0.47 
  -3   9  15    2.46    0.41 
  -1  -9  15    0.53    0.35 
  -1   9  15    0.59    0.31 
 -18 -10  15    0.06    0.34 
 -18 -10  15   -0.23    0.27 
  18  10 -15    0.04    0.24 
 -16 -10  15    0.10    0.32 
 -16 -10  15    0.16    0.28 
 -16  10  15    0.26    0.23 
  16  10 -15    0.14    0.23 
 -14 -10  15   -0.03    0.26 
 -14 -10  15   -0.03    0.32 
  14  10 -15   -0.27    0.19 
 -14  10  15   -0.24    0.19 
 -12 -10  15    0.27    0.29 
 -12 -10  15    0.30    0.32 
  12  10 -15    0.27    0.25 
 -12  10  15    0.09    0.22 
 -10 -10  15    0.08    0.26 
 -10 -10  15    0.02    0.29 
 -10  10  15    0.00    0.22 
  10  10 -15   -0.19    0.20 
  -8 -10  15    5.37    0.55 
  -8 -10  15    5.01    0.62 
   8  10 -15    5.32    0.49 
  -8  10  15    5.53    0.53 
  -6 -10  15    0.12    0.25 
  -6 -10  15    0.23    0.31 
  -6  10  15   -0.17    0.24 
   6  10 -15    0.06    0.21 
  -4 -10  15    0.26    0.32 
  -4  10  15   -0.15    0.23 
  -2 -10  15    0.26    0.35 
  -2  10  15    0.72    0.32 
 -17 -11  15   -0.48    0.27 
 -17 -11  15   -0.05    0.34 
  17  11 -15    0.02    0.26 
 -15 -11  15    4.05    0.52 
 -15 -11  15    2.63    0.54 
  15  11 -15    3.48    0.46 
 -15  11  15    3.51    0.42 
 -13 -11  15   -0.54    0.28 
 -13 -11  15    0.10    0.28 
  13  11 -15   -0.02    0.22 
 -13  11  15    0.04    0.22 
 -11 -11  15    0.08    0.28 
 -11 -11  15    0.13    0.33 
 -11  11  15    0.38    0.25 
  11  11 -15    0.35    0.25 
  -9 -11  15    2.98    0.55 
  -9 -11  15    4.21    0.50 
   9  11 -15    3.52    0.43 
  -9  11  15    4.54    0.50 
  -7 -11  15    0.10    0.29 
  -7 -11  15    0.04    0.32 
   7  11 -15    0.14    0.22 
  -7  11  15    0.47    0.28 
  -5 -11  15    1.55    0.44 
  -5  11  15    1.14    0.34 
 -12 -12  15    0.38    0.30 
 -12 -12  15   -0.16    0.33 
  12  12 -15    0.22    0.25 
 -12  12  15    0.27    0.26 
 -10 -12  15    0.26    0.34 
 -10 -12  15   -0.13    0.26 
  10  12 -15   -0.03    0.22 
 -10  12  15    0.01    0.24 
  -8 -12  15    1.92    0.54 
  -8 -12  15    1.97    0.38 
  -8  12  15    1.49    0.37 
   8  12 -15    1.23    0.32 
  24   0 -16    2.60    0.37 
 -24   0  16    2.74    0.42 
 -22   0  16    1.92    0.36 
 -20   0  16    0.39    0.25 
 -18   0  16   16.13    0.79 
 -16   0  16   59.82    1.82 
 -14   0  16    0.37    0.24 
 -12   0  16    7.80    0.54 
 -10   0  16    9.18    0.53 
 -10   0  16    9.56    0.61 
  -8   0  16    1.62    0.34 
  -8   0  16    1.21    0.24 
  -6   0  16    1.25    0.32 
  -4   0  16    0.23    0.26 
  -4   0  16    0.64    0.23 
  -2   0  16    0.08    0.26 
  -2   0  16   -0.03    0.21 
   0   0  16    6.75    0.59 
   0   0  16    6.91    0.60 
   2   0  16    5.83    0.60 
   2   0  16    5.12    0.57 
  25  -1 -16   -0.12    0.18 
 -25  -1  16    0.16    0.26 
 -25   1  16   -0.06    0.24 
  25   1 -16   -0.04    0.21 
 -23  -1  16    1.04    0.31 
  23   1 -16    1.02    0.28 
 -23   1  16    1.01    0.30 
 -21  -1  16   -0.18    0.21 
 -21   1  16   -0.28    0.21 
 -19  -1  16    5.88    0.53 
 -19   1  16    5.88    0.51 
 -17  -1  16    4.27    0.46 
 -17   1  16    3.33    0.41 
 -15  -1  16   23.32    0.97 
 -15  -1  16   24.63    0.95 
 -15   1  16   23.51    0.98 
 -13  -1  16   15.58    0.76 
 -13  -1  16   15.12    0.71 
 -13   1  16   15.11    0.76 
 -11  -1  16    0.55    0.23 
 -11  -1  16    0.50    0.21 
 -11   1  16    0.63    0.27 
  -9  -1  16    1.34    0.30 
  -9   1  16    0.67    0.26 
  -7  -1  16    0.26    0.20 
  -7  -1  16    0.21    0.23 
  -7   1  16    0.28    0.27 
  -5  -1  16   -0.14    0.23 
  -5  -1  16   -0.09    0.18 
  -5   1  16    0.31    0.27 
  -3  -1  16    0.76    0.31 
  -3  -1  16    0.93    0.27 
  -3   1  16    0.57    0.23 
  -3   1  16    1.33    0.34 
  -1  -1  16    2.04    0.40 
  -1  -1  16    1.45    0.34 
  -1   1  16    2.37    0.42 
  -1   1  16    1.60    0.32 
   1  -1  16   10.57    0.74 
   1  -1  16   13.17    0.77 
   1   1  16   12.15    0.73 
   1   1  16   12.80    0.78 
   3  -1  16    0.32    0.32 
   3  -1  16   -0.33    0.27 
   3   1  16    0.40    0.30 
   3   1  16    0.60    0.34 
 -24  -2  16   -0.06    0.25 
 -24   2  16    0.25    0.26 
  24   2 -16    0.38    0.24 
 -22  -2  16    1.10    0.34 
 -22   2  16    1.26    0.33 
  22   2 -16    1.20    0.31 
 -20  -2  16    0.93    0.30 
 -20  -2  16    0.58    0.30 
 -20   2  16    0.57    0.27 
 -18  -2  16    0.04    0.24 
 -18  -2  16    0.18    0.25 
 -18   2  16    0.00    0.22 
 -16  -2  16    8.38    0.59 
 -16  -2  16    8.02    0.59 
 -16   2  16    9.16    0.60 
 -14  -2  16    0.75    0.26 
 -14  -2  16    0.58    0.27 
 -14   2  16    0.44    0.24 
 -12  -2  16   -0.22    0.20 
 -12  -2  16    0.57    0.24 
 -12   2  16    0.27    0.23 
 -10  -2  16    0.77    0.25 
 -10  -2  16    0.80    0.29 
 -10   2  16    1.10    0.30 
  -8  -2  16    0.04    0.18 
  -8  -2  16    0.08    0.22 
  -8   2  16    0.02    0.23 
  -6  -2  16    0.14    0.24 
  -6  -2  16    0.25    0.21 
  -6   2  16    0.15    0.24 
  -4  -2  16    0.93    0.28 
  -4  -2  16    1.84    0.35 
  -4   2  16    1.83    0.38 
  -2  -2  16    2.17    0.39 
  -2  -2  16    1.79    0.34 
  -2   2  16    1.85    0.39 
   0  -2  16    0.29    0.29 
   0  -2  16    0.52    0.31 
   0   2  16    0.42    0.31 
   2  -2  16    3.90    0.52 
   2  -2  16    3.51    0.48 
   2   2  16    2.87    0.47 
 -25  -3  16    0.53    0.30 
  25   3 -16    0.56    0.28 
 -25   3  16    0.36    0.38 
 -23  -3  16    0.53    0.30 
 -23  -3  16    0.58    0.34 
 -23   3  16    0.42    0.26 
  23   3 -16    0.51    0.26 
 -21  -3  16    0.23    0.29 
 -21  -3  16    0.37    0.26 
  21   3 -16    0.33    0.23 
 -21   3  16    0.21    0.25 
 -19  -3  16    0.17    0.24 
 -19  -3  16    0.16    0.26 
 -19   3  16   -0.11    0.21 
 -17  -3  16    0.39    0.28 
 -17  -3  16    0.16    0.25 
 -17   3  16    0.42    0.24 
 -15  -3  16    2.66    0.40 
 -15  -3  16    3.06    0.43 
 -15   3  16    2.41    0.36 
 -13  -3  16    2.87    0.40 
 -13  -3  16    3.50    0.43 
 -13   3  16    2.65    0.38 
 -11  -3  16    0.32    0.24 
 -11  -3  16   -0.07    0.22 
 -11   3  16    0.25    0.24 
  -9  -3  16    5.11    0.49 
  -9  -3  16    3.77    0.42 
  -9   3  16    3.61    0.43 
  -7  -3  16    0.35    0.23 
  -7  -3  16    0.95    0.29 
  -7   3  16    1.16    0.31 
  -5  -3  16    0.39    0.26 
  -5  -3  16    1.07    0.30 
  -5   3  16    0.98    0.32 
  -3  -3  16    2.43    0.38 
  -3  -3  16    2.50    0.40 
  -3   3  16    2.06    0.39 
  -1  -3  16    0.02    0.25 
  -1  -3  16    0.14    0.26 
  -1   3  16    0.44    0.29 
   1  -3  16   -0.06    0.23 
   1  -3  16    0.20    0.30 
   1   3  16    0.33    0.28 
   3  -3  16    0.84    0.38 
   3   3  16    0.56    0.31 
 -24  -4  16    0.16    0.32 
 -24  -4  16   -0.27    0.24 
 -24   4  16    0.34    0.29 
  24   4 -16    0.19    0.25 
 -22  -4  16    4.87    0.61 
 -22  -4  16    5.37    0.57 
 -22   4  16    5.52    0.52 
  22   4 -16    5.39    0.51 
 -20  -4  16   12.01    0.80 
 -20  -4  16   14.60    0.79 
 -20   4  16   12.77    0.72 
  20   4 -16   12.46    0.70 
 -18  -4  16    0.15    0.26 
 -18  -4  16   -0.18    0.21 
 -18   4  16   -0.07    0.22 
 -16  -4  16    2.46    0.40 
 -16  -4  16    2.20    0.37 
 -16   4  16    2.60    0.37 
 -14  -4  16    1.12    0.32 
 -14  -4  16    1.46    0.34 
 -14   4  16    1.36    0.30 
 -12  -4  16    0.11    0.23 
 -12  -4  16    0.24    0.24 
 -12   4  16    0.02    0.21 
 -10  -4  16    4.99    0.48 
 -10  -4  16    4.40    0.46 
 -10   4  16    3.57    0.43 
  -8  -4  16   -0.18    0.21 
  -8  -4  16   -0.08    0.21 
  -8   4  16    0.05    0.23 
  -6  -4  16    3.26    0.42 
  -6  -4  16    2.64    0.41 
  -6   4  16    4.04    0.48 
  -4  -4  16   -0.05    0.24 
  -4  -4  16    0.18    0.24 
  -4   4  16   -0.14    0.23 
  -2  -4  16    2.03    0.36 
  -2  -4  16    1.41    0.35 
  -2   4  16    1.62    0.36 
   0  -4  16    0.46    0.29 
   0  -4  16   -0.02    0.25 
   0   4  16   -0.25    0.24 
   2  -4  16    2.89    0.47 
   2   4  16    4.60    0.55 
 -23  -5  16    1.96    0.41 
 -23  -5  16    1.59    0.45 
 -23   5  16    1.43    0.35 
  23   5 -16    1.59    0.36 
 -21  -5  16    0.40    0.30 
 -21  -5  16    0.84    0.36 
 -21   5  16    0.71    0.26 
  21   5 -16    0.23    0.23 
 -19  -5  16    0.49    0.30 
 -19  -5  16    0.16    0.25 
 -19   5  16   -0.03    0.22 
  19   5 -16    0.20    0.21 
 -17  -5  16    4.14    0.52 
 -17  -5  16    3.30    0.45 
  17   5 -16    3.42    0.42 
 -17   5  16    2.91    0.39 
 -15  -5  16    0.16    0.24 
 -15  -5  16    0.30    0.28 
 -15   5  16    0.27    0.23 
 -13  -5  16    0.44    0.29 
 -13  -5  16    0.52    0.27 
 -13   5  16    0.65    0.27 
 -11  -5  16    0.21    0.24 
 -11  -5  16    0.08    0.25 
 -11   5  16    0.20    0.22 
  -9  -5  16    7.49    0.59 
  -9  -5  16    9.09    0.62 
  -9   5  16    8.11    0.58 
  -7  -5  16    5.26    0.51 
  -7  -5  16    5.29    0.53 
  -7   5  16    5.40    0.52 
  -5  -5  16    1.48    0.35 
  -5  -5  16    1.10    0.30 
  -5   5  16    0.57    0.29 
  -3  -5  16    5.88    0.58 
  -3  -5  16    5.20    0.52 
  -3   5  16    6.42    0.58 
  -1  -5  16    0.80    0.29 
  -1  -5  16    0.90    0.32 
  -1   5  16    0.78    0.32 
   1  -5  16    3.67    0.52 
   1   5  16    3.47    0.50 
 -22  -6  16    4.43    0.55 
 -22  -6  16    5.28    0.66 
  22   6 -16    4.18    0.51 
 -22   6  16    3.72    0.45 
 -20  -6  16    0.33    0.27 
 -20  -6  16    0.72    0.35 
  20   6 -16    0.22    0.24 
 -20   6  16    0.21    0.24 
 -18  -6  16    1.09    0.38 
 -18  -6  16    1.64    0.37 
  18   6 -16    1.22    0.31 
 -18   6  16    1.23    0.29 
 -16  -6  16    3.70    0.52 
 -16  -6  16    4.59    0.52 
 -16   6  16    3.56    0.43 
  16   6 -16    3.95    0.45 
 -14  -6  16    0.04    0.27 
 -14  -6  16    0.33    0.27 
 -14   6  16    0.49    0.25 
 -12  -6  16    1.08    0.33 
 -12  -6  16    1.47    0.34 
 -12   6  16    1.26    0.31 
 -10  -6  16    0.09    0.27 
 -10  -6  16    0.29    0.25 
 -10   6  16    0.36    0.25 
  -8  -6  16    2.80    0.44 
  -8  -6  16    2.16    0.37 
  -8   6  16    1.97    0.37 
  -6  -6  16    2.36    0.42 
  -6  -6  16    1.67    0.34 
  -6   6  16    2.88    0.43 
  -4  -6  16    0.38    0.26 
  -4  -6  16    0.34    0.30 
  -4   6  16    0.76    0.30 
  -2  -6  16    0.58    0.34 
  -2  -6  16    0.45    0.27 
  -2   6  16    0.18    0.28 
   0  -6  16    0.71    0.34 
   0   6  16    0.25    0.30 
 -21  -7  16    0.09    0.28 
 -21  -7  16   -0.13    0.30 
  21   7 -16   -0.22    0.21 
 -21   7  16   -0.07    0.23 
 -19  -7  16    0.43    0.35 
 -19  -7  16    0.49    0.29 
  19   7 -16    0.23    0.23 
 -19   7  16    0.57    0.26 
 -17  -7  16    0.09    0.30 
 -17  -7  16    0.38    0.29 
 -17   7  16    0.47    0.25 
  17   7 -16    0.27    0.24 
 -15  -7  16    1.95    0.43 
 -15  -7  16    1.65    0.36 
  15   7 -16    2.25    0.35 
 -15   7  16    2.36    0.36 
 -13  -7  16   -0.11    0.26 
 -13  -7  16   -0.35    0.20 
  13   7 -16    0.14    0.20 
 -13   7  16    0.12    0.21 
 -11  -7  16    1.12    0.35 
 -11  -7  16    0.58    0.29 
 -11   7  16    1.52    0.33 
  -9  -7  16    0.05    0.23 
  -9  -7  16    0.94    0.35 
  -9   7  16    0.41    0.26 
  -7  -7  16    0.07    0.24 
  -7  -7  16   -0.07    0.25 
  -7   7  16   -0.08    0.24 
  -5  -7  16    0.53    0.26 
  -5  -7  16    0.68    0.32 
  -5   7  16    0.41    0.30 
  -3  -7  16    2.45    0.40 
  -3  -7  16    2.55    0.46 
  -3   7  16    3.30    0.48 
  -1  -7  16    1.83    0.44 
  -1   7  16    1.57    0.40 
 -20  -8  16    0.06    0.28 
 -20  -8  16   -0.01    0.31 
 -20   8  16   -0.06    0.24 
  20   8 -16   -0.23    0.21 
 -18  -8  16    0.32    0.30 
 -18  -8  16    0.12    0.32 
 -18   8  16   -0.17    0.20 
  18   8 -16   -0.09    0.23 
 -16  -8  16    0.10    0.28 
 -16  -8  16    0.29    0.32 
  16   8 -16    0.11    0.21 
 -16   8  16   -0.07    0.21 
 -14  -8  16   -0.29    0.23 
 -14  -8  16   -0.30    0.28 
  14   8 -16    0.08    0.20 
 -14   8  16    0.13    0.24 
 -12  -8  16   -0.18    0.24 
 -12  -8  16    0.55    0.31 
  12   8 -16    0.31    0.23 
 -12   8  16    0.10    0.23 
 -10  -8  16    3.57    0.54 
 -10  -8  16    4.40    0.50 
  10   8 -16    4.61    0.45 
 -10   8  16    4.17    0.50 
  -8  -8  16    0.81    0.34 
  -8  -8  16    0.76    0.29 
  -8   8  16    0.66    0.29 
  -6  -8  16    8.35    0.73 
  -6  -8  16    9.26    0.64 
  -6   8  16    9.79    0.68 
  -4  -8  16    0.13    0.31 
  -4  -8  16    0.69    0.29 
  -4   8  16    0.36    0.29 
  -2  -8  16    2.15    0.47 
  -2   8  16    2.38    0.41 
 -19  -9  16    3.34    0.59 
 -19  -9  16    3.08    0.49 
  19   9 -16    2.98    0.43 
 -19   9  16    3.23    0.57 
 -17  -9  16    0.78    0.37 
 -17  -9  16    1.16    0.36 
 -17   9  16    0.85    0.28 
  17   9 -16    0.77    0.29 
 -15  -9  16    0.06    0.28 
 -15  -9  16   -0.20    0.30 
 -15   9  16    0.03    0.23 
  15   9 -16    0.19    0.23 
 -13  -9  16   -0.11    0.27 
 -13  -9  16   -0.16    0.29 
 -13   9  16    0.23    0.24 
  13   9 -16   -0.20    0.21 
 -11  -9  16    0.61    0.34 
 -11  -9  16    0.47    0.30 
  11   9 -16    0.20    0.24 
 -11   9  16    0.44    0.26 
  -9  -9  16    0.90    0.32 
  -9  -9  16    0.48    0.34 
  -9   9  16    1.03    0.31 
   9   9 -16    0.71    0.26 
  -7  -9  16    0.14    0.29 
  -7  -9  16   -0.11    0.25 
  -7   9  16    0.12    0.27 
   7   9 -16    0.05    0.21 
  -5  -9  16    2.88    0.43 
  -5  -9  16    2.76    0.50 
   5   9 -16    2.59    0.36 
  -5   9  16    2.99    0.46 
  -3  -9  16    0.82    0.36 
  -3   9  16    0.60    0.33 
 -16 -10  16    0.23    0.29 
 -16 -10  16    0.49    0.38 
 -16  10  16    0.53    0.26 
  16  10 -16   -0.05    0.24 
 -14 -10  16    0.18    0.28 
 -14 -10  16   -0.08    0.34 
  14  10 -16   -0.13    0.23 
 -14  10  16   -0.05    0.22 
 -12 -10  16    1.80    0.39 
 -12 -10  16    1.62    0.45 
 -12  10  16    1.21    0.31 
  12  10 -16    1.74    0.35 
 -10 -10  16    5.45    0.56 
 -10 -10  16    3.88    0.58 
  10  10 -16    3.13    0.42 
 -10  10  16    4.51    0.50 
  -8 -10  16    0.36    0.29 
  -8 -10  16    0.53    0.35 
   8  10 -16    0.48    0.26 
  -8  10  16    0.29    0.28 
  -6 -10  16    0.56    0.35 
  -6 -10  16    0.33    0.29 
  -6  10  16    0.72    0.33 
   6  10 -16    0.54    0.25 
 -13 -11  16    0.53    0.38 
 -13 -11  16    0.37    0.30 
 -13  11  16    0.34    0.26 
  13  11 -16    0.54    0.28 
 -11 -11  16    0.26    0.29 
 -11 -11  16    0.20    0.32 
 -11  11  16   -0.15    0.22 
  11  11 -16    0.01    0.23 
  -9 -11  16    0.01    0.28 
  -9 -11  16    0.64    0.38 
  -9  11  16   -0.04    0.27 
   9  11 -16   -0.10    0.22 
  24   0 -17    0.07    0.22 
 -24   0  17   -0.14    0.25 
 -22   0  17    0.14    0.25 
 -20   0  17   -0.03    0.24 
 -18   0  17   -0.09    0.21 
 -16   0  17   -0.26    0.21 
 -14   0  17    0.05    0.23 
 -12   0  17   -0.02    0.22 
 -10   0  17    0.07    0.23 
  -8   0  17    0.03    0.24 
  -6   0  17   -0.23    0.24 
  -4   0  17    0.24    0.28 
  -2   0  17    0.07    0.26 
  -2   0  17   -0.09    0.28 
   0   0  17    0.97    0.36 
   0   0  17    0.86    0.33 
  25  -1 -17    0.20    0.22 
  25   1 -17    0.19    0.24 
 -23  -1  17    0.40    0.30 
 -23   1  17    0.83    0.30 
  23   1 -17    0.61    0.26 
 -21  -1  17    1.25    0.34 
 -21   1  17    0.96    0.33 
 -19  -1  17    0.09    0.26 
 -19   1  17    0.26    0.25 
 -17  -1  17    3.74    0.45 
 -17   1  17    3.97    0.47 
 -15  -1  17    2.58    0.40 
 -15   1  17    1.34    0.34 
 -13  -1  17   10.16    0.66 
 -13   1  17   12.07    0.70 
 -11  -1  17    1.97    0.36 
 -11   1  17    1.54    0.30 
  -9  -1  17    0.80    0.25 
  -9  -1  17    0.51    0.27 
  -9   1  17    0.56    0.28 
  -7  -1  17   -0.12    0.19 
  -7  -1  17    0.04    0.23 
  -7   1  17    0.18    0.27 
  -5  -1  17   -0.01    0.26 
  -5  -1  17    0.32    0.24 
  -5   1  17    0.24    0.29 
  -3  -1  17   -0.16    0.27 
  -3  -1  17    0.19    0.24 
  -3   1  17    0.06    0.30 
  -1  -1  17    0.36    0.28 
  -1  -1  17    0.35    0.31 
  -1   1  17    0.97    0.37 
   1  -1  17    0.38    0.32 
   1  -1  17    0.68    0.34 
   1   1  17    0.23    0.34 
 -24  -2  17    1.83    0.39 
  24   2 -17    2.39    0.38 
 -24   2  17    2.15    0.39 
 -22  -2  17    1.72    0.39 
 -22   2  17    3.40    0.46 
  22   2 -17    2.36    0.37 
 -20  -2  17    0.50    0.28 
 -20   2  17    0.46    0.26 
 -18  -2  17    0.79    0.30 
 -18   2  17    1.96    0.37 
 -16  -2  17    0.61    0.28 
 -16  -2  17    0.72    0.42 
 -16   2  17    0.59    0.27 
 -14  -2  17    0.71    0.28 
 -14  -2  17    0.40    0.26 
 -14   2  17    0.55    0.27 
 -12  -2  17    0.22    0.24 
 -12  -2  17    0.21    0.22 
 -12   2  17    0.34    0.25 
 -10  -2  17    6.47    0.57 
 -10  -2  17    6.49    0.53 
 -10   2  17    6.31    0.56 
  -8  -2  17    4.71    0.47 
  -8  -2  17    5.39    0.52 
  -8   2  17    4.98    0.55 
  -6  -2  17    0.16    0.26 
  -6  -2  17    0.35    0.24 
  -6   2  17   -0.07    0.25 
  -4  -2  17    0.46    0.27 
  -4  -2  17    0.37    0.28 
  -4   2  17    0.39    0.30 
  -2  -2  17    0.30    0.26 
  -2  -2  17    0.60    0.31 
  -2   2  17    0.95    0.35 
   0  -2  17    1.41    0.37 
   0  -2  17    1.61    0.40 
   0   2  17    1.69    0.41 
 -23  -3  17    0.20    0.29 
 -23   3  17    0.37    0.26 
  23   3 -17    0.47    0.26 
 -21  -3  17    0.08    0.27 
  21   3 -17    0.16    0.24 
 -21   3  17   -0.18    0.21 
 -19  -3  17    2.22    0.41 
 -19  -3  17    1.56    0.36 
 -19   3  17    1.30    0.32 
 -17  -3  17    8.77    0.66 
 -17  -3  17    8.80    0.64 
 -17   3  17    9.63    0.63 
 -15  -3  17    0.31    0.26 
 -15  -3  17    0.22    0.26 
 -15   3  17    0.03    0.24 
 -13  -3  17   22.31    0.96 
 -13  -3  17   21.44    0.94 
 -13   3  17   20.26    0.92 
 -11  -3  17   14.62    0.78 
 -11  -3  17   13.81    0.77 
 -11   3  17   15.94    0.81 
  -9  -3  17    0.57    0.26 
  -9  -3  17    0.29    0.25 
  -9   3  17    0.66    0.29 
  -7  -3  17    3.37    0.46 
  -7  -3  17    2.03    0.37 
  -7   3  17    3.01    0.43 
  -5  -3  17    0.14    0.26 
  -5  -3  17    0.23    0.25 
  -5   3  17    0.21    0.29 
  -3  -3  17    1.49    0.37 
  -3  -3  17    0.82    0.31 
  -3   3  17    1.15    0.34 
  -1  -3  17    3.31    0.49 
  -1  -3  17    2.77    0.44 
  -1   3  17    3.24    0.50 
 -22  -4  17   -0.06    0.24 
 -22  -4  17    0.19    0.32 
  22   4 -17    0.15    0.23 
 -22   4  17    0.21    0.24 
 -20  -4  17    0.57    0.30 
 -20  -4  17    0.57    0.32 
 -20   4  17    0.42    0.26 
  20   4 -17    1.09    0.29 
 -18  -4  17    1.59    0.35 
 -18  -4  17    1.67    0.39 
 -18   4  17    1.55    0.33 
 -16  -4  17   -0.03    0.24 
 -16  -4  17    0.10    0.26 
 -16   4  17   -0.01    0.22 
 -14  -4  17    3.37    0.46 
 -14  -4  17    2.24    0.40 
 -14   4  17    2.10    0.36 
 -12  -4  17    1.27    0.33 
 -12  -4  17    0.52    0.28 
 -12   4  17    1.68    0.34 
 -10  -4  17   -0.08    0.24 
 -10  -4  17   -0.02    0.23 
 -10   4  17   -0.21    0.22 
  -8  -4  17    0.49    0.28 
  -8  -4  17    0.50    0.28 
  -8   4  17    0.76    0.30 
  -6  -4  17    0.61    0.28 
  -6  -4  17    0.56    0.28 
  -6   4  17    0.54    0.30 
  -4  -4  17    2.47    0.43 
  -4  -4  17    3.04    0.43 
  -4   4  17    4.15    0.53 
  -2  -4  17    0.73    0.32 
  -2  -4  17    0.42    0.30 
  -2   4  17    0.36    0.31 
   0  -4  17   -0.08    0.28 
   0   4  17    0.38    0.31 
 -23  -5  17    0.39    0.37 
 -23  -5  17    0.33    0.31 
  23   5 -17    0.32    0.27 
 -23   5  17    0.17    0.26 
 -21  -5  17    0.33    0.30 
 -21  -5  17    0.77    0.36 
  21   5 -17    0.41    0.27 
 -21   5  17    0.72    0.29 
 -19  -5  17   -0.19    0.24 
 -19  -5  17   -0.18    0.28 
  19   5 -17   -0.04    0.21 
 -19   5  17    0.15    0.24 
 -17  -5  17    0.59    0.30 
 -17  -5  17    0.58    0.31 
 -17   5  17    0.49    0.26 
 -15  -5  17    0.20    0.27 
 -15  -5  17    0.10    0.27 
 -15   5  17    0.14    0.24 
 -13  -5  17    0.39    0.28 
 -13  -5  17    0.37    0.26 
 -13   5  17    0.38    0.26 
 -11  -5  17    2.06    0.38 
 -11  -5  17    1.78    0.38 
 -11   5  17    2.08    0.37 
  -9  -5  17    7.20    0.62 
  -9  -5  17    7.66    0.63 
  -9   5  17    8.21    0.62 
  -7  -5  17    3.79    0.46 
  -7  -5  17    2.59    0.43 
  -7   5  17    3.73    0.49 
  -5  -5  17    2.62    0.44 
  -5  -5  17    2.65    0.42 
  -5   5  17    1.68    0.38 
  -3  -5  17    0.78    0.33 
  -3  -5  17    0.34    0.28 
  -3   5  17   -0.13    0.27 
  -1  -5  17   -0.10    0.31 
  -1   5  17    0.11    0.31 
 -22  -6  17   -0.05    0.27 
 -22  -6  17    0.12    0.34 
 -22   6  17    0.17    0.26 
  22   6 -17    0.06    0.24 
 -20  -6  17    0.49    0.33 
 -20  -6  17    0.39    0.31 
 -20   6  17    0.48    0.27 
  20   6 -17    0.36    0.25 
 -18  -6  17    0.04    0.28 
 -18  -6  17   -0.01    0.25 
  18   6 -17   -0.04    0.22 
 -18   6  17    0.25    0.24 
 -16  -6  17    0.54    0.30 
 -16  -6  17    1.21    0.37 
  16   6 -17    0.73    0.27 
 -16   6  17    0.75    0.28 
 -14  -6  17    1.17    0.38 
 -14  -6  17    2.18    0.40 
 -14   6  17    2.14    0.37 
 -12  -6  17    1.27    0.36 
 -12  -6  17    1.36    0.37 
 -12   6  17    0.84    0.30 
 -10  -6  17    1.07    0.35 
 -10  -6  17    0.87    0.30 
 -10   6  17    0.31    0.27 
  -8  -6  17    1.26    0.36 
  -8  -6  17    1.55    0.35 
  -8   6  17    1.36    0.34 
  -6  -6  17    2.72    0.45 
  -6  -6  17    3.60    0.46 
  -6   6  17    3.02    0.44 
  -4  -6  17    0.45    0.29 
  -4  -6  17    0.47    0.33 
  -4   6  17    0.48    0.30 
  -2  -6  17    0.43    0.33 
  -2   6  17    0.87    0.35 
 -21  -7  17    3.72    0.58 
 -21  -7  17    5.57    0.65 
  21   7 -17    5.90    0.58 
 -21   7  17    4.57    0.50 
 -19  -7  17    0.54    0.31 
 -19  -7  17    0.41    0.35 
 -19   7  17    0.76    0.29 
  19   7 -17    0.82    0.30 
 -17  -7  17    1.03    0.39 
 -17  -7  17    0.75    0.32 
 -17   7  17    0.75    0.27 
  17   7 -17    0.72    0.28 
 -15  -7  17    0.22    0.27 
 -15  -7  17    0.33    0.32 
  15   7 -17    0.12    0.23 
 -15   7  17    0.05    0.24 
 -13  -7  17    0.93    0.33 
 -13  -7  17    0.99    0.36 
 -13   7  17    1.26    0.32 
  13   7 -17    1.25    0.30 
 -11  -7  17    2.41    0.42 
 -11  -7  17    1.92    0.42 
 -11   7  17    2.19    0.39 
  -9  -7  17    0.38    0.32 
  -9  -7  17    0.60    0.30 
  -9   7  17    0.46    0.28 
  -7  -7  17    3.14    0.44 
  -7  -7  17    2.47    0.45 
  -7   7  17    2.99    0.45 
  -5  -7  17    0.21    0.31 
  -5  -7  17    0.26    0.29 
  -5   7  17    0.33    0.29 
  -3  -7  17    4.50    0.59 
  -3   7  17    5.77    0.61 
 -18  -8  17    1.33    0.42 
 -18  -8  17    1.36    0.40 
  18   8 -17    1.65    0.36 
 -18   8  17    1.86    0.37 
 -16  -8  17    0.28    0.31 
 -16  -8  17    0.91    0.37 
  16   8 -17    0.69    0.27 
 -16   8  17    0.73    0.29 
 -14  -8  17    0.38    0.28 
 -14  -8  17    0.75    0.36 
  14   8 -17    0.47    0.26 
 -14   8  17    0.53    0.28 
 -12  -8  17   -0.22    0.24 
 -12  -8  17    0.22    0.31 
 -12   8  17    0.01    0.25 
  12   8 -17    0.01    0.22 
 -10  -8  17    0.04    0.28 
 -10  -8  17   -0.24    0.29 
 -10   8  17    0.11    0.25 
  10   8 -17    0.13    0.23 
  -8  -8  17    1.32    0.34 
  -8  -8  17    1.57    0.43 
  -8   8  17    1.44    0.36 
  -6  -8  17    0.19    0.28 
  -6  -8  17    0.17    0.31 
  -6   8  17    0.24    0.30 
  -4  -8  17   -0.09    0.31 
  -4   8  17   -0.03    0.31 
 -17  -9  17    0.29    0.30 
 -17  -9  17    0.42    0.35 
  17   9 -17    0.52    0.28 
 -17   9  17    0.46    0.28 
 -15  -9  17    0.37    0.30 
 -15  -9  17    0.05    0.34 
 -15   9  17   -0.21    0.22 
  15   9 -17   -0.37    0.19 
 -13  -9  17    0.02    0.28 
 -13  -9  17    0.16    0.34 
 -13   9  17    0.11    0.25 
  13   9 -17   -0.50    0.19 
 -11  -9  17    2.16    0.40 
 -11  -9  17    1.86    0.46 
  11   9 -17    1.62    0.33 
 -11   9  17    1.34    0.34 
  -9  -9  17   -0.38    0.27 
  -9  -9  17    0.00    0.28 
   9   9 -17    0.15    0.23 
  -9   9  17   -0.05    0.26 
  -7  -9  17    1.08    0.41 
  -7  -9  17    0.71    0.33 
  -7   9  17    0.65    0.32 
   7   9 -17    0.69    0.26 
 -12 -10  17    0.09    0.27 
 -12 -10  17   -0.06    0.31 
  12  10 -17    0.15    0.24 
 -12  10  17    0.35    0.27 
  10  10 -17    0.42    0.25 
 -22   0  18    0.86    0.34 
 -20   0  18    8.92    0.67 
 -18   0  18   16.23    0.84 
 -16   0  18    4.15    0.51 
 -14   0  18    2.50    0.41 
 -12   0  18    1.12    0.31 
 -10   0  18    5.07    0.54 
  -8   0  18    2.53    0.42 
  -6   0  18    0.79    0.33 
  -4   0  18    0.90    0.36 
  -2   0  18    0.33    0.35 
 -23  -1  18    0.26    0.29 
 -23   1  18    0.34    0.27 
 -21  -1  18    0.38    0.30 
 -21   1  18    0.68    0.29 
 -19  -1  18    0.67    0.32 
 -19   1  18    0.46    0.27 
 -17  -1  18    3.23    0.45 
 -17   1  18    2.97    0.42 
 -15  -1  18    4.81    0.53 
 -15   1  18    3.28    0.43 
 -13  -1  18    0.11    0.26 
 -13   1  18    0.33    0.28 
 -11  -1  18    0.14    0.25 
 -11   1  18    0.20    0.26 
  -9  -1  18    1.85    0.39 
  -9   1  18    3.64    0.47 
  -7  -1  18    2.92    0.44 
  -7   1  18    2.65    0.44 
  -5  -1  18    4.22    0.51 
  -5   1  18    4.20    0.55 
  -3  -1  18    0.32    0.32 
  -3   1  18    0.17    0.34 
 -22  -2  18    0.57    0.31 
 -22   2  18    0.66    0.31 
 -20  -2  18    1.42    0.35 
 -20   2  18    1.14    0.32 
 -18  -2  18    0.59    0.30 
 -18   2  18    0.73    0.28 
 -16  -2  18    0.11    0.25 
 -16   2  18    0.53    0.28 
 -14  -2  18    0.80    0.29 
 -14   2  18    0.28    0.27 
 -12  -2  18   -0.09    0.25 
 -12   2  18    0.37    0.28 
 -10  -2  18    2.92    0.62 
 -10  -2  18    4.32    0.52 
 -10   2  18    3.77    0.48 
  -8  -2  18    1.14    0.31 
  -8  -2  18    1.99    0.39 
  -8   2  18    2.34    0.44 
  -6  -2  18    2.86    0.44 
  -6  -2  18    2.10    0.37 
  -6   2  18    2.77    0.47 
  -4  -2  18    0.35    0.30 
  -4  -2  18    0.02    0.26 
  -4   2  18   -0.13    0.30 
  -2  -2  18    0.03    0.27 
  -2  -2  18    0.46    0.32 
  -2   2  18    0.08    0.33 
 -23  -3  18   -0.08    0.28 
  23   3 -18    0.00    0.23 
 -23   3  18   -0.14    0.26 
 -21  -3  18    2.40    0.44 
 -21   3  18    2.57    0.41 
  21   3 -18    2.82    0.43 
 -19  -3  18    0.24    0.27 
 -19   3  18   -0.11    0.23 
 -17  -3  18    2.98    0.45 
 -17   3  18    4.13    0.48 
 -15  -3  18    1.21    0.42 
 -15  -3  18    0.86    0.30 
 -15   3  18    0.99    0.32 
 -13  -3  18   -0.14    0.24 
 -13  -3  18    0.12    0.24 
 -13   3  18   -0.03    0.24 
 -11  -3  18    0.53    0.28 
 -11  -3  18    0.75    0.30 
 -11   3  18    0.78    0.32 
  -9  -3  18    0.36    0.28 
  -9  -3  18    0.31    0.26 
  -9   3  18    0.45    0.29 
  -7  -3  18    1.33    0.35 
  -7  -3  18    1.24    0.32 
  -7   3  18    1.44    0.38 
  -5  -3  18   -0.26    0.25 
  -5  -3  18    0.08    0.25 
  -5   3  18    0.29    0.30 
  -3  -3  18    0.61    0.31 
  -3  -3  18    0.85    0.33 
  -3   3  18    1.05    0.37 
 -22  -4  18    0.13    0.26 
 -22   4  18    0.30    0.26 
  22   4 -18    0.47    0.27 
 -20  -4  18    0.29    0.29 
 -20   4  18    0.43    0.27 
  20   4 -18    0.28    0.25 
 -18  -4  18    0.85    0.34 
 -18  -4  18    1.20    0.35 
 -18   4  18    1.24    0.33 
 -16  -4  18    0.24    0.28 
 -16  -4  18    0.14    0.28 
 -16   4  18    0.00    0.23 
 -14  -4  18    1.35    0.34 
 -14  -4  18    1.68    0.37 
 -14   4  18    1.63    0.35 
 -12  -4  18    1.46    0.34 
 -12  -4  18    1.05    0.33 
 -12   4  18    1.21    0.35 
 -10  -4  18    0.43    0.30 
 -10  -4  18    0.08    0.25 
 -10   4  18   -0.16    0.25 
  -8  -4  18    9.45    0.69 
  -8  -4  18    9.37    0.69 
  -8   4  18    9.77    0.70 
  -6  -4  18    0.21    0.27 
  -6  -4  18   -0.07    0.27 
  -6   4  18   -0.32    0.26 
  -4  -4  18    0.20    0.28 
  -4  -4  18    0.26    0.29 
  -4   4  18    0.46    0.32 
 -21  -5  18    0.04    0.29 
 -21  -5  18    0.29    0.33 
 -21   5  18    0.11    0.26 
  21   5 -18    0.03    0.25 
 -19  -5  18    0.11    0.31 
 -19  -5  18    0.29    0.28 
 -19   5  18    0.19    0.25 
  19   5 -18    0.02    0.22 
 -17  -5  18    3.86    0.53 
 -17  -5  18    4.39    0.53 
 -17   5  18    4.59    0.50 
 -15  -5  18    1.70    0.40 
 -15  -5  18    1.75    0.38 
 -15   5  18    1.45    0.35 
 -13  -5  18    3.06    0.46 
 -13  -5  18    2.12    0.39 
 -13   5  18    3.00    0.46 
 -11  -5  18    8.67    0.69 
 -11  -5  18    7.40    0.63 
 -11   5  18    7.33    0.63 
  -9  -5  18    8.20    0.65 
  -9  -5  18    8.36    0.68 
  -9   5  18    9.02    0.67 
  -7  -5  18    0.51    0.30 
  -7  -5  18    0.43    0.30 
  -7   5  18    0.33    0.30 
  -5  -5  18   -0.14    0.27 
  -5  -5  18   -0.01    0.29 
  -5   5  18   -0.02    0.30 
 -20  -6  18   -0.21    0.29 
 -20  -6  18   -0.33    0.26 
 -20   6  18   -0.16    0.25 
  20   6 -18   -0.03    0.25 
 -18  -6  18    0.35    0.32 
 -18  -6  18    0.40    0.30 
  18   6 -18    0.37    0.26 
 -18   6  18    0.23    0.25 
 -16  -6  18   -0.16    0.27 
 -16  -6  18    0.17    0.28 
  16   6 -18    0.20    0.24 
 -16   6  18    0.41    0.27 
 -14  -6  18    0.75    0.32 
 -14  -6  18    0.09    0.27 
 -14   6  18    0.99    0.32 
 -12  -6  18    0.72    0.31 
 -12  -6  18    0.84    0.36 
 -12   6  18    0.97    0.32 
 -10  -6  18    0.06    0.28 
 -10  -6  18   -0.27    0.27 
 -10   6  18    0.33    0.29 
  -8  -6  18    0.25    0.31 
  -8  -6  18    0.13    0.26 
  -8   6  18    0.29    0.29 
  -6  -6  18    0.96    0.34 
  -6  -6  18    0.74    0.34 
  -6   6  18    0.48    0.33 
 -19  -7  18    1.09    0.40 
 -19  -7  18    1.27    0.41 
 -19   7  18    0.65    0.30 
  19   7 -18    1.50    0.38 
 -17  -7  18    0.15    0.32 
 -17  -7  18    0.16    0.31 
 -17   7  18    0.05    0.24 
  17   7 -18   -0.11    0.21 
 -15  -7  18   -0.12    0.27 
 -15  -7  18    0.30    0.34 
  15   7 -18   -0.14    0.21 
 -15   7  18    0.56    0.29 
 -13  -7  18    0.46    0.34 
 -13  -7  18    0.97    0.34 
 -13   7  18    0.96    0.32 
 -11  -7  18    0.58    0.31 
 -11  -7  18    0.30    0.32 
 -11   7  18    0.51    0.30 
  -9  -7  18    0.00    0.28 
  -9  -7  18    0.14    0.32 
  -9   7  18    0.06    0.26 
  -7  -7  18    0.21    0.33 
  -7  -7  18    1.20    0.36 
  -7   7  18    1.10    0.35 
 -16  -8  18    0.08    0.29 
 -16  -8  18   -0.29    0.31 
 -16   8  18    0.52    0.29 
  16   8 -18   -0.37    0.21 
 -14  -8  18    1.85    0.40 
 -14  -8  18    1.52    0.43 
 -14   8  18    2.32    0.41 
  14   8 -18    1.63    0.35 
 -12  -8  18    2.41    0.48 
 -12  -8  18    3.40    0.49 
  12   8 -18    2.68    0.40 
 -12   8  18    2.16    0.39 
 -10  -8  18    0.87    0.35 
 -10  -8  18    1.07    0.39 
 -10   8  18    1.38    0.37 
  -8  -8  18    0.31    0.33 
  -8  -8  18    0.27    0.31 
  -8   8  18    0.67    0.36 
 -22   0  19   -0.21    0.26 
 -20   0  19   -0.15    0.25 
 -18   0  19    0.07    0.26 
 -16   0  19    0.20    0.26 
 -14   0  19   -0.01    0.26 
 -12   0  19    0.18    0.27 
 -10   0  19   -0.04    0.25 
  -8   0  19   -0.19    0.27 
  -6   0  19   -0.19    0.29 
  -4   0  19    0.23    0.33 
 -21  -1  19    1.81    0.39 
 -21   1  19    1.59    0.39 
 -19  -1  19    1.91    0.40 
 -19   1  19    1.16    0.34 
 -17  -1  19    0.06    0.25 
 -17   1  19    0.04    0.24 
 -15  -1  19    0.98    0.32 
 -15   1  19    0.84    0.32 
 -13  -1  19   -0.14    0.25 
 -13   1  19    0.06    0.25 
 -11  -1  19    0.10    0.28 
 -11   1  19   -0.12    0.25 
  -9  -1  19    0.03    0.29 
  -9   1  19    0.63    0.32 
  -7  -1  19    0.21    0.30 
  -7   1  19    0.74    0.35 
  -5  -1  19    0.37    0.31 
  -5   1  19    1.15    0.38 
 -20  -2  19    0.30    0.31 
 -20   2  19   -0.38    0.21 
 -18  -2  19    3.66    0.50 
 -18   2  19    4.35    0.52 
 -16  -2  19    6.14    0.59 
 -16   2  19    5.89    0.58 
 -14  -2  19    0.07    0.27 
 -14   2  19    0.62    0.30 
 -12  -2  19    0.11    0.26 
 -12   2  19    0.45    0.29 
 -10  -2  19    0.05    0.27 
 -10   2  19   -0.11    0.26 
  -8  -2  19    0.15    0.29 
  -8   2  19    0.58    0.32 
  -6  -2  19    0.24    0.31 
  -6   2  19   -0.04    0.31 
 -21  -3  19   -0.15    0.27 
 -21   3  19   -0.24    0.23 
 -19  -3  19    0.16    0.29 
 -19   3  19   -0.26    0.24 
 -17  -3  19    1.16    0.37 
 -17   3  19    1.17    0.35 
 -15  -3  19    5.31    0.56 
 -15   3  19    7.39    0.61 
 -13  -3  19   -0.24    0.24 
 -13   3  19    0.56    0.30 
 -11  -3  19    1.99    0.40 
 -11   3  19    1.86    0.41 
  -9  -3  19    2.42    0.43 
  -9   3  19    2.56    0.45 
  -7  -3  19    0.44    0.32 
  -7  -3  19    0.45    0.34 
  -7   3  19   -0.07    0.30 
  -5  -3  19    3.47    0.50 
  -5  -3  19    4.56    0.55 
  -5   3  19    3.51    0.54 
 -20  -4  19    0.08    0.29 
 -20   4  19    0.44    0.29 
 -18  -4  19    0.77    0.34 
 -18   4  19    0.58    0.32 
 -16  -4  19    0.76    0.33 
 -16   4  19    0.38    0.29 
 -14  -4  19    0.90    0.42 
 -14  -4  19    0.91    0.32 
 -14   4  19    0.55    0.30 
 -12  -4  19    0.87    0.33 
 -12  -4  19    0.56    0.30 
 -12   4  19    0.80    0.32 
 -10  -4  19    0.32    0.28 
 -10  -4  19   -0.21    0.26 
 -10   4  19   -0.16    0.27 
  -8  -4  19    0.58    0.31 
  -8  -4  19    0.13    0.30 
  -8   4  19    0.17    0.32 
  -6  -4  19    1.49    0.39 
  -6  -4  19    1.83    0.40 
  -6   4  19    1.33    0.40 
 -19  -5  19   -0.14    0.26 
 -19   5  19   -0.12    0.24 
  19   5 -19    0.09    0.23 
 -17  -5  19    0.37    0.32 
 -17  -5  19   -0.12    0.29 
 -17   5  19    0.32    0.28 
 -15  -5  19    0.03    0.30 
 -15  -5  19   -0.23    0.28 
 -15   5  19    0.18    0.27 
 -13  -5  19    0.22    0.29 
 -13  -5  19    0.34    0.29 
 -13   5  19    0.30    0.29 
 -11  -5  19    0.77    0.35 
 -11  -5  19    0.51    0.32 
 -11   5  19    0.75    0.35 
  -9  -5  19    0.32    0.32 
  -9  -5  19    0.22    0.29 
  -9   5  19    0.18    0.30 
  -7  -5  19    0.54    0.33 
  -7  -5  19    1.26    0.38 
  -7   5  19    0.84    0.36 
  18   6 -19    1.49    0.57 
 -16  -6  19    4.35    0.60 
 -16  -6  19    6.16    0.63 
 -16   6  19    3.88    0.50 
 -14  -6  19    0.18    0.32 
 -14  -6  19    0.20    0.28 
 -14   6  19   -0.15    0.25 
 -12  -6  19    1.59    0.42 
 -12  -6  19    2.01    0.42 
 -12   6  19    1.18    0.36 
 -10  -6  19    0.17    0.30 
 -10  -6  19    0.56    0.36 
 -10   6  19    0.44    0.31 
 -13   7  19    1.45    0.39 
 -18   0  20    1.66    0.40 
 -16   0  20    5.14    0.60 
 -14   0  20    0.42    0.30 
 -12   0  20    0.93    0.35 
 -10   0  20    0.67    0.35 
  -8   0  20    0.64    0.34 
 -19  -1  20   -0.17    0.27 
 -19   1  20   -0.13    0.25 
 -17  -1  20    0.96    0.35 
 -17   1  20    0.67    0.30 
 -15  -1  20    9.00    0.69 
 -15   1  20    8.01    0.68 
 -13  -1  20    0.78    0.33 
 -13   1  20    0.91    0.33 
 -11  -1  20    0.61    0.34 
 -11   1  20    0.17    0.30 
  -9  -1  20    0.87    0.34 
  -9   1  20    1.25    0.39 
 -18  -2  20    3.47    0.50 
 -18   2  20    2.78    0.45 
 -16  -2  20   -0.16    0.27 
 -16   2  20    0.36    0.30 
 -14  -2  20    0.85    0.35 
 -14   2  20    0.47    0.31 
 -12  -2  20    0.34    0.30 
 -12   2  20    0.62    0.33 
 -10  -2  20    0.32    0.31 
 -10   2  20    0.86    0.36 
 -17  -3  20    0.29    0.31 
 -17   3  20    0.39    0.30 
 -15  -3  20   -0.16    0.27 
 -15   3  20    0.15    0.29 
 -13  -3  20    1.45    0.39 
 -13   3  20    1.09    0.35 
 -11  -3  20    1.32    0.37 
 -11   3  20    2.85    0.48 
 -16  -4  20    0.21    0.31 
 -16   4  20    0.51    0.31 
 -14  -4  20    0.43    0.34 
 -14   4  20    0.53    0.31 
 -12  -4  20    0.30    0.32 
 -12   4  20   -0.02    0.28 
   0   0   0    0.00    0.00 
;
_shelx_hkl_checksum              74923
loop_
_space_group_symop_operation_xyz
'x, y, z'
'-x, y, -z+1/2'
'x+1/2, y+1/2, z'
'-x+1/2, y+1/2, -z+1/2'
'-x, -y, -z'
'x, -y, z-1/2'
'-x+1/2, -y+1/2, -z'
'x+1/2, -y+1/2, z-1/2'
loop_
_atom_site_label
_atom_site_type_symbol
_atom_site_fract_x
_atom_site_fract_y
_atom_site_fract_z
_atom_site_U_iso_or_equiv
_atom_site_adp_type
_atom_site_occupancy
_atom_site_site_symmetry_order
_atom_site_calc_flag
_atom_site_refinement_flags_posn
_atom_site_refinement_flags_adp
S1 S 0.64863(3) 0.60960(4) 0.36869(4) 0.03412(17) Uani 1 1 d . .
C1 C 0.70213(12) 0.68331(16) 0.53637(16) 0.0398(5) Uani 1 1 d . .
H1A H 0.7476 0.7013 0.5902 0.060 Uiso 1 1 calc R U
H1B H 0.6738 0.6528 0.5573 0.060 Uiso 1 1 calc R U
H1C H 0.6775 0.7384 0.5003 0.060 Uiso 1 1 calc R U
N2 N 0.71361(9) 0.61904(12) 0.47793(12) 0.0327(4) Uani 1 1 d . .
C3 C 0.74803(10) 0.53534(15) 0.52279(14) 0.0326(5) Uani 1 1 d . .
C4 C 0.81408(11) 0.50957(16) 0.54659(15) 0.0372(5) Uani 1 1 d . .
N5 N 0.71783(9) 0.47282(12) 0.55235(12) 0.0342(4) Uani 1 1 d . .
C6 C 0.76454(11) 0.40734(16) 0.59493(15) 0.0358(5) Uani 1 1 d . .
N7 N 0.82522(9) 0.42612(13) 0.59421(13) 0.0386(4) Uani 1 1 d . .
O8 O 0.91013(10) 0.34386(16) 0.71655(16) 0.0748(6) Uani 1 1 d . .
C8 C 0.88907(12) 0.3719(2) 0.6400(2) 0.0532(7) Uani 1 1 d . .
C9 C 0.92064(15) 0.3491(2) 0.5834(2) 0.0667(8) Uani 1 1 d . .
H9A H 0.9708 0.3361 0.6247 0.100 Uiso 1 1 calc R U
H9B H 0.9146 0.4016 0.5434 0.100 Uiso 1 1 calc R U
H9C H 0.8972 0.2946 0.5451 0.100 Uiso 1 1 calc R U
O11 O 0.62756(8) 0.70202(11) 0.33602(11) 0.0417(4) Uani 1 1 d . .
C11 C 0.86804(12) 0.55984(16) 0.53847(18) 0.0429(6) Uani 1 1 d . .
O12 O 0.67445(8) 0.55041(11) 0.32543(11) 0.0423(4) Uani 1 1 d . .
C12 C 0.93319(13) 0.5800(2) 0.6169(2) 0.0614(8) Uani 1 1 d . .
H12 H 0.9432 0.5603 0.6761 0.074 Uiso 1 1 calc R U
C13 C 0.98322(15) 0.6281(2) 0.6097(3) 0.0765(10) Uani 1 1 d . .
H13 H 1.0275 0.6412 0.6636 0.092 Uiso 1 1 calc R U
C14 C 0.96890(18) 0.6570(2) 0.5244(3) 0.0760(10) Uani 1 1 d . .
H14 H 1.0036 0.6895 0.5193 0.091 Uiso 1 1 calc R U
C15 C 0.90475(17) 0.6391(2) 0.4465(2) 0.0646(8) Uani 1 1 d . .
H15 H 0.8950 0.6596 0.3877 0.078 Uiso 1 1 calc R U
C16 C 0.85401(14) 0.59111(17) 0.4536(2) 0.0498(6) Uani 1 1 d . .
H16 H 0.8093 0.5797 0.3997 0.060 Uiso 1 1 calc R U
C21 C 0.57809(11) 0.55457(16) 0.36779(15) 0.0351(5) Uani 1 1 d . .
C22 C 0.52952(11) 0.60766(18) 0.37495(16) 0.0416(5) Uani 1 1 d . .
H22 H 0.5332 0.6731 0.3771 0.050 Uiso 1 1 calc R U
C23 C 0.47604(12) 0.5653(2) 0.37888(17) 0.0501(6) Uani 1 1 d . .
H23 H 0.4430 0.6020 0.3840 0.060 Uiso 1 1 calc R U
C24 C 0.46974(12) 0.4705(2) 0.37549(17) 0.0523(7) Uani 1 1 d . .
C25 C 0.51861(14) 0.41880(19) 0.3684(2) 0.0591(7) Uani 1 1 d . .
H25 H 0.5148 0.3534 0.3661 0.071 Uiso 1 1 calc R U
C26 C 0.57319(13) 0.45962(17) 0.36465(18) 0.0485(6) Uani 1 1 d . .
H26 H 0.6064 0.4229 0.3600 0.058 Uiso 1 1 calc R U
C28 C 0.40934(14) 0.4246(2) 0.3772(2) 0.0731(10) Uani 1 1 d . .
H28A H 0.4222 0.3609 0.3993 0.110 Uiso 1 1 calc R U
H28B H 0.3675 0.4244 0.3146 0.110 Uiso 1 1 calc R U
H28C H 0.3993 0.4588 0.4188 0.110 Uiso 1 1 calc R U
C31 C 0.75005(11) 0.32327(15) 0.63015(15) 0.0358(5) Uani 1 1 d . .
C32 C 0.77003(12) 0.23518(16) 0.61977(16) 0.0405(5) Uani 1 1 d . .
H32 H 0.7974 0.2280 0.5923 0.049 Uiso 1 1 calc R U
C33 C 0.75039(13) 0.15804(16) 0.64897(16) 0.0431(6) Uani 1 1 d . .
H33 H 0.7648 0.0986 0.6415 0.052 Uiso 1 1 calc R U
C34 C 0.70992(12) 0.16594(16) 0.68911(16) 0.0407(5) Uani 1 1 d . .
C35 C 0.68990(13) 0.25353(17) 0.69834(17) 0.0451(6) Uani 1 1 d . .
H35 H 0.6621 0.2607 0.7253 0.054 Uiso 1 1 calc R U
C36 C 0.70915(13) 0.33091(16) 0.66954(17) 0.0433(6) Uani 1 1 d . .
H36 H 0.6943 0.3902 0.6767 0.052 Uiso 1 1 calc R U
C38 C 0.68826(15) 0.08197(18) 0.72065(19) 0.0545(7) Uani 1 1 d . .
H38A H 0.6775 0.1001 0.7676 0.082 Uiso 1 1 calc R U
H38B H 0.7267 0.0369 0.7472 0.082 Uiso 1 1 calc R U
H38C H 0.6465 0.0543 0.6677 0.082 Uiso 1 1 calc R U
loop_
_atom_site_aniso_label
_atom_site_aniso_U_11
_atom_site_aniso_U_22
_atom_site_aniso_U_33
_atom_site_aniso_U_23
_atom_site_aniso_U_13
_atom_site_aniso_U_12
S1 0.0328(3) 0.0372(3) 0.0366(3) 0.0034(2) 0.0212(2) 0.0010(2)
C1 0.0431(13) 0.0366(13) 0.0464(14) -0.0052(10) 0.0283(11) -0.0033(10)
N2 0.0302(9) 0.0331(10) 0.0386(10) -0.0012(8) 0.0208(8) -0.0012(8)
C3 0.0292(11) 0.0350(12) 0.0348(12) 0.0002(9) 0.0176(10) -0.0014(9)
C4 0.0330(11) 0.0423(13) 0.0383(12) -0.0014(10) 0.0200(10) -0.0001(10)
N5 0.0325(9) 0.0349(10) 0.0368(10) 0.0012(8) 0.0193(8) 0.0007(8)
C6 0.0312(11) 0.0409(13) 0.0366(12) -0.0002(10) 0.0187(10) 0.0021(9)
N7 0.0322(10) 0.0406(11) 0.0429(11) 0.0049(9) 0.0196(9) 0.0058(8)
O8 0.0422(11) 0.0992(17) 0.0693(14) 0.0308(12) 0.0198(10) 0.0165(11)
C8 0.0319(13) 0.0570(17) 0.0618(18) 0.0111(14) 0.0184(13) 0.0066(12)
C9 0.0504(16) 0.065(2) 0.093(2) 0.0088(16) 0.0436(17) 0.0181(14)
O11 0.0432(9) 0.0391(9) 0.0492(10) 0.0115(7) 0.0285(8) 0.0055(7)
C11 0.0353(12) 0.0422(14) 0.0601(16) -0.0008(11) 0.0311(12) 0.0027(10)
O12 0.0425(9) 0.0492(10) 0.0426(9) -0.0020(7) 0.0274(8) 0.0050(7)
C12 0.0338(13) 0.074(2) 0.0701(19) 0.0071(15) 0.0227(14) -0.0022(13)
C13 0.0410(16) 0.084(2) 0.104(3) -0.002(2) 0.0377(18) -0.0109(15)
C14 0.069(2) 0.063(2) 0.131(3) -0.011(2) 0.077(2) -0.0112(16)
C15 0.077(2) 0.0575(18) 0.093(2) -0.0070(16) 0.068(2) -0.0079(15)
C16 0.0553(15) 0.0467(15) 0.0660(17) -0.0068(12) 0.0446(14) -0.0026(12)
C21 0.0312(11) 0.0402(13) 0.0316(11) 0.0043(9) 0.0149(9) -0.0031(9)
C22 0.0354(12) 0.0492(14) 0.0418(13) -0.0016(11) 0.0214(11) -0.0040(10)
C23 0.0365(13) 0.0731(19) 0.0422(14) 0.0020(13) 0.0217(11) -0.0028(12)
C24 0.0343(13) 0.077(2) 0.0368(13) 0.0149(13) 0.0123(11) -0.0087(13)
C25 0.0480(15) 0.0467(15) 0.0652(18) 0.0150(13) 0.0177(14) -0.0109(13)
C26 0.0386(13) 0.0407(14) 0.0570(16) 0.0049(11) 0.0188(12) -0.0010(11)
C28 0.0456(16) 0.106(3) 0.0562(17) 0.0205(17) 0.0184(14) -0.0235(16)
C31 0.0353(11) 0.0393(13) 0.0320(11) 0.0040(9) 0.0170(10) 0.0052(10)
C32 0.0410(13) 0.0457(14) 0.0383(13) 0.0039(10) 0.0233(11) 0.0082(11)
C33 0.0481(14) 0.0358(13) 0.0432(14) 0.0013(10) 0.0225(12) 0.0091(10)
C34 0.0454(13) 0.0391(13) 0.0346(12) 0.0024(10) 0.0189(11) 0.0006(10)
C35 0.0574(15) 0.0435(14) 0.0483(14) -0.0003(11) 0.0373(13) 0.0017(12)
C36 0.0525(14) 0.0354(13) 0.0515(15) -0.0007(11) 0.0338(12) 0.0048(11)
C38 0.0684(18) 0.0448(15) 0.0531(16) 0.0052(12) 0.0339(14) -0.0005(13)
loop_
_atom_type_symbol
_atom_type_description
_atom_type_scat_dispersion_real
_atom_type_scat_dispersion_imag
_atom_type_scat_source
C C 0.0033 0.0016 'International Tables Vol C Tables 4.2.6.8 and 6.1.1.4'
H H 0.0000 0.0000 'International Tables Vol C Tables 4.2.6.8 and 6.1.1.4'
N N 0.0061 0.0033 'International Tables Vol C Tables 4.2.6.8 and 6.1.1.4'
O O 0.0106 0.0060 'International Tables Vol C Tables 4.2.6.8 and 6.1.1.4'
S S 0.1246 0.1234 'International Tables Vol C Tables 4.2.6.8 and 6.1.1.4'
loop_
_geom_angle_atom_site_label_1
_geom_angle_atom_site_label_2
_geom_angle_atom_site_label_3
_geom_angle
O11 S1 O12 120.04(10)
O11 S1 N2 105.90(10)
O12 S1 N2 105.69(9)
O11 S1 C21 107.98(10)
O12 S1 C21 108.97(10)
N2 S1 C21 107.65(9)
N2 C1 H1A 109.5
N2 C1 H1B 109.5
H1A C1 H1B 109.5
N2 C1 H1C 109.5
H1A C1 H1C 109.5
H1B C1 H1C 109.5
C3 N2 C1 114.39(17)
C3 N2 S1 116.06(14)
C1 N2 S1 116.37(14)
C4 C3 N5 112.07(19)
C4 C3 N2 126.11(19)
N5 C3 N2 121.71(17)
C3 C4 N7 104.12(18)
C3 C4 C11 130.5(2)
N7 C4 C11 124.91(19)
C6 N5 C3 106.01(17)
N5 C6 N7 110.65(19)
N5 C6 C31 122.86(19)
N7 C6 C31 126.29(19)
C6 N7 C4 107.15(17)
C6 N7 C8 125.6(2)
C4 N7 C8 127.18(19)
O8 C8 N7 118.8(2)
O8 C8 C9 124.9(2)
N7 C8 C9 116.1(2)
C8 C9 H9A 109.5
C8 C9 H9B 109.5
H9A C9 H9B 109.5
C8 C9 H9C 109.5
H9A C9 H9C 109.5
H9B C9 H9C 109.5
C16 C11 C12 118.7(2)
C16 C11 C4 120.7(2)
C12 C11 C4 120.6(2)
C13 C12 C11 120.8(3)
C13 C12 H12 119.6
C11 C12 H12 119.6
C14 C13 C12 119.8(3)
C14 C13 H13 120.1
C12 C13 H13 120.1
C15 C14 C13 120.4(3)
C15 C14 H14 119.8
C13 C14 H14 119.8
C14 C15 C16 120.0(3)
C14 C15 H15 120.0
C16 C15 H15 120.0
C11 C16 C15 120.4(3)
C11 C16 H16 119.8
C15 C16 H16 119.8
C26 C21 C22 120.4(2)
C26 C21 S1 120.31(18)
C22 C21 S1 119.19(18)
C23 C22 C21 119.9(2)
C23 C22 H22 120.1
C21 C22 H22 120.1
C22 C23 C24 120.9(2)
C22 C23 H23 119.5
C24 C23 H23 119.5
C23 C24 C25 118.4(2)
C23 C24 C28 120.5(3)
C25 C24 C28 121.1(3)
C24 C25 C26 121.9(3)
C24 C25 H25 119.0
C26 C25 H25 119.0
C21 C26 C25 118.5(2)
C21 C26 H26 120.7
C25 C26 H26 120.7
C24 C28 H28A 109.5
C24 C28 H28B 109.5
H28A C28 H28B 109.5
C24 C28 H28C 109.5
H28A C28 H28C 109.5
H28B C28 H28C 109.5
C36 C31 C32 117.9(2)
C36 C31 C6 118.1(2)
C32 C31 C6 123.7(2)
C33 C32 C31 120.7(2)
C33 C32 H32 119.6
C31 C32 H32 119.6
C32 C33 C34 121.2(2)
C32 C33 H33 119.4
C34 C33 H33 119.4
C35 C34 C33 117.6(2)
C35 C34 C38 121.1(2)
C33 C34 C38 121.3(2)
C36 C35 C34 121.8(2)
C36 C35 H35 119.1
C34 C35 H35 119.1
C35 C36 C31 120.8(2)
C35 C36 H36 119.6
C31 C36 H36 119.6
C34 C38 H38A 109.5
C34 C38 H38B 109.5
H38A C38 H38B 109.5
C34 C38 H38C 109.5
H38A C38 H38C 109.5
H38B C38 H38C 109.5
loop_
_geom_bond_atom_site_label_1
_geom_bond_atom_site_label_2
_geom_bond_distance
S1 O11 1.4300(16)
S1 O12 1.4320(16)
S1 N2 1.6546(18)
S1 C21 1.760(2)
C1 N2 1.477(3)
C1 H1A 0.9800
C1 H1B 0.9800
C1 H1C 0.9800
N2 C3 1.423(3)
C3 C4 1.363(3)
C3 N5 1.372(3)
C4 N7 1.401(3)
C4 C11 1.476(3)
N5 C6 1.311(3)
C6 N7 1.390(3)
C6 C31 1.465(3)
N7 C8 1.447(3)
O8 C8 1.196(3)
C8 C9 1.496(4)
C9 H9A 0.9800
C9 H9B 0.9800
C9 H9C 0.9800
C11 C16 1.379(4)
C11 C12 1.394(4)
C12 C13 1.376(4)
C12 H12 0.9500
C13 C14 1.374(5)
C13 H13 0.9500
C14 C15 1.372(5)
C14 H14 0.9500
C15 C16 1.389(4)
C15 H15 0.9500
C16 H16 0.9500
C21 C26 1.378(3)
C21 C22 1.386(3)
C22 C23 1.376(3)
C22 H22 0.9500
C23 C24 1.379(4)
C23 H23 0.9500
C24 C25 1.380(4)
C24 C28 1.519(3)
C25 C26 1.387(4)
C25 H25 0.9500
C26 H26 0.9500
C28 H28A 0.9800
C28 H28B 0.9800
C28 H28C 0.9800
C31 C36 1.391(3)
C31 C32 1.393(3)
C32 C33 1.383(3)
C32 H32 0.9500
C33 C34 1.394(3)
C33 H33 0.9500
C34 C35 1.381(3)
C34 C38 1.507(3)
C35 C36 1.378(3)
C35 H35 0.9500
C36 H36 0.9500
C38 H38A 0.9800
C38 H38B 0.9800
C38 H38C 0.9800
loop_
_geom_torsion_atom_site_label_1
_geom_torsion_atom_site_label_2
_geom_torsion_atom_site_label_3
_geom_torsion_atom_site_label_4
_geom_torsion
O11 S1 N2 C3 -174.03(14)
O12 S1 N2 C3 -45.67(16)
C21 S1 N2 C3 70.67(16)
O11 S1 N2 C1 46.89(17)
O12 S1 N2 C1 175.25(15)
C21 S1 N2 C1 -68.41(17)
C1 N2 C3 C4 -111.8(2)
S1 N2 C3 C4 108.3(2)
C1 N2 C3 N5 64.1(3)
S1 N2 C3 N5 -75.8(2)
N5 C3 C4 N7 -0.3(2)
N2 C3 C4 N7 175.9(2)
N5 C3 C4 C11 -172.4(2)
N2 C3 C4 C11 3.8(4)
C4 C3 N5 C6 0.0(3)
N2 C3 N5 C6 -176.36(19)
C3 N5 C6 N7 0.3(2)
C3 N5 C6 C31 -174.8(2)
N5 C6 N7 C4 -0.5(2)
C31 C6 N7 C4 174.4(2)
N5 C6 N7 C8 175.7(2)
C31 C6 N7 C8 -9.4(4)
C3 C4 N7 C6 0.5(2)
C11 C4 N7 C6 173.1(2)
C3 C4 N7 C8 -175.7(2)
C11 C4 N7 C8 -3.0(4)
C6 N7 C8 O8 -42.4(4)
C4 N7 C8 O8 133.0(3)
C6 N7 C8 C9 133.0(3)
C4 N7 C8 C9 -51.6(4)
C3 C4 C11 C16 -57.9(4)
N7 C4 C11 C16 131.5(2)
C3 C4 C11 C12 119.4(3)
N7 C4 C11 C12 -51.2(3)
C16 C11 C12 C13 -1.6(4)
C4 C11 C12 C13 -179.0(3)
C11 C12 C13 C14 0.2(5)
C12 C13 C14 C15 0.8(5)
C13 C14 C15 C16 -0.4(5)
C12 C11 C16 C15 2.0(4)
C4 C11 C16 C15 179.4(2)
C14 C15 C16 C11 -1.1(4)
O11 S1 C21 C26 157.62(19)
O12 S1 C21 C26 25.7(2)
N2 S1 C21 C26 -88.5(2)
O11 S1 C21 C22 -25.6(2)
O12 S1 C21 C22 -157.50(17)
N2 S1 C21 C22 88.33(19)
C26 C21 C22 C23 -0.1(3)
S1 C21 C22 C23 -176.85(18)
C21 C22 C23 C24 -0.2(4)
C22 C23 C24 C25 0.3(4)
C22 C23 C24 C28 -178.3(2)
C23 C24 C25 C26 -0.1(4)
C28 C24 C25 C26 178.5(3)
C22 C21 C26 C25 0.3(4)
S1 C21 C26 C25 177.0(2)
C24 C25 C26 C21 -0.2(4)
N5 C6 C31 C36 -38.1(3)
N7 C6 C31 C36 147.6(2)
N5 C6 C31 C32 136.5(2)
N7 C6 C31 C32 -37.8(3)
C36 C31 C32 C33 -0.8(3)
C6 C31 C32 C33 -175.4(2)
C31 C32 C33 C34 0.3(4)
C32 C33 C34 C35 0.2(4)
C32 C33 C34 C38 179.8(2)
C33 C34 C35 C36 -0.3(4)
C38 C34 C35 C36 -179.8(2)
C34 C35 C36 C31 -0.3(4)
C32 C31 C36 C35 0.8(4)
C6 C31 C36 C35 175.7(2)
