#------------------------------------------------------------------------------
#$Date: 2017-03-22 09:22:07 +0200 (Wed, 22 Mar 2017) $
#$Revision: 194415 $
#$URL: file:///home/coder/svn-repositories/cod/cif/1/54/56/1545621.cif $
#------------------------------------------------------------------------------
#
# This file is available in the Crystallography Open Database (COD),
# http://www.crystallography.net/. The original data for this entry
# were provided by IUCr Journals, http://journals.iucr.org/.
#
# The file may be used within the scientific community so long as
# proper attribution is given to the journal article from which the
# data were obtained.
#
data_1545621
loop_
_publ_author_name
'Rayni, Ibtissam'
'El Bakri, Youness'
'Sebhaoui, Jihad'
'El Bourakadi, Khadija'
'Essassi, El Mokhtar'
'Mague, Joel T.'
_publ_section_title
;
 1-{[3-(Thiophen-2-yl)-4,5-dihydro-1,2-oxazol-5-yl]methyl}-2,3-dihydro-1<i>H</i>-indole-2,3-dione
;
_journal_coeditor_code           SU4133
_journal_issue                   3
_journal_name_full               IUCrData
_journal_page_first              x170315
_journal_paper_doi               10.1107/S2414314617003157
_journal_volume                  2
_journal_year                    2017
_chemical_formula_iupac          'C16 H12 N2 O3 S'
_chemical_formula_moiety         'C16 H12 N2 O3 S'
_chemical_formula_sum            'C16 H12 N2 O3 S'
_chemical_formula_weight         312.34
_chemical_name_systematic
1-{[3-(Thiophen-2-yl)-4,5-dihydro-1,2-oxazol-5-yl]methyl}-2,3-dihydro-1<i>H</i>-indole-2,3-dione
_space_group_crystal_system      monoclinic
_space_group_IT_number           14
_space_group_name_Hall           '-P 2yn'
_space_group_name_H-M_alt        'P 1 21/n 1'
_symmetry_space_group_name_Hall  '-P 2yn'
_symmetry_space_group_name_H-M   'P 1 21/n 1'
_atom_sites_solution_hydrogens   mixed
_atom_sites_solution_primary     direct
_atom_sites_solution_secondary   difmap
_audit_creation_method           SHELXL-2014/7
_cell_angle_alpha                90
_cell_angle_beta                 101.7310(10)
_cell_angle_gamma                90
_cell_formula_units_Z            4
_cell_length_a                   7.3834(2)
_cell_length_b                   11.7331(3)
_cell_length_c                   16.9144(4)
_cell_measurement_reflns_used    8282
_cell_measurement_temperature    298(2)
_cell_measurement_theta_max      74.2622
_cell_measurement_theta_min      3.7673
_cell_volume                     1434.69(6)
_computing_cell_refinement
;
<i>SAINT</i> (Bruker, 2016)
;
_computing_data_collection
;
<i>APEX3</i> (Bruker, 2016)
;
_computing_data_reduction
;
<i>SAINT</i> (Bruker, 2016)
;
_computing_molecular_graphics
;
<i>DIAMOND</i> (Brandenburg & Putz, 2012)
;
_computing_publication_material
;
<i>SHELXTL</i> (Sheldrick, 2008)
;
_computing_structure_refinement
;
<i>SHELXL2014</i> (Sheldrick, 2015<i>b</i>)
;
_computing_structure_solution
;
<i>SHELXT</i> (Sheldrick, 2015<i>a</i>)
;
_diffrn_ambient_temperature      298(2)
_diffrn_detector_area_resol_mean 10.4167
_diffrn_measured_fraction_theta_full 0.994
_diffrn_measured_fraction_theta_max 0.985
_diffrn_measurement_device_type  'Bruker D8 VENTURE PHOTON 100 CMOS'
_diffrn_measurement_method       '\w scans'
_diffrn_radiation_monochromator  mirror
_diffrn_radiation_type           CuK\a
_diffrn_radiation_wavelength     1.54178
_diffrn_reflns_av_R_equivalents  0.0312
_diffrn_reflns_limit_h_max       9
_diffrn_reflns_limit_h_min       -9
_diffrn_reflns_limit_k_max       14
_diffrn_reflns_limit_k_min       -14
_diffrn_reflns_limit_l_max       20
_diffrn_reflns_limit_l_min       -18
_diffrn_reflns_number            10930
_diffrn_reflns_theta_full        70.000
_diffrn_reflns_theta_max         74.658
_diffrn_reflns_theta_min         4.618
_exptl_absorpt_coefficient_mu    2.140
_exptl_absorpt_correction_T_max  0.76
_exptl_absorpt_correction_T_min  0.64
_exptl_absorpt_correction_type   multi-scan
_exptl_absorpt_process_details
;
(<i>SADABS</i>; Bruker, 2016)
;
_exptl_crystal_colour            colourless
_exptl_crystal_density_diffrn    1.446
_exptl_crystal_density_method    'not measured'
_exptl_crystal_description       rod
_exptl_crystal_F_000             648
_exptl_crystal_size_max          0.242
_exptl_crystal_size_mid          0.188
_exptl_crystal_size_min          0.139
_refine_diff_density_max         0.800
_refine_diff_density_min         -0.383
_refine_ls_extinction_method     none
_refine_ls_goodness_of_fit_ref   1.055
_refine_ls_hydrogen_treatment    mixed
_refine_ls_matrix_type           full
_refine_ls_number_parameters     235
_refine_ls_number_reflns         2899
_refine_ls_number_restraints     0
_refine_ls_restrained_S_all      1.055
_refine_ls_R_factor_all          0.0634
_refine_ls_R_factor_gt           0.0567
_refine_ls_shift/su_max          0.000
_refine_ls_shift/su_mean         0.000
_refine_ls_structure_factor_coef Fsqd
_refine_ls_weighting_details
'w=1/[\s^2^(Fo^2^)+(0.0890P)^2^+0.7078P] where P=(Fo^2^+2Fc^2^)/3'
_refine_ls_weighting_scheme      calc
_refine_ls_wR_factor_gt          0.1596
_refine_ls_wR_factor_ref         0.1662
_reflns_number_gt                2500
_reflns_number_total             2899
_reflns_threshold_expression     'I > 2\s(I)'
_cod_data_source_file            su4133sup1.cif
_cod_data_source_block           I
_cod_database_code               1545621
_shelx_space_group_comment
;
The symmetry employed for this shelxl refinement is uniquely defined
by the following loop, which should always be used as a source of
symmetry information in preference to the above space-group names.
They are only intended as comments.
;
_shelx_estimated_absorpt_t_min   0.626
_shelx_estimated_absorpt_t_max   0.755
_shelx_hkl_file
;
   1   0   0    0.21    0.03
  -1   0   0    0.24    0.03
   2   0   0    5.49    0.22
  -2   0   0    5.37    0.22
  -3   0   0    0.28    0.08
   3   0   0    0.41    0.09
  -4   0   0   30.87    1.13
   5   0   0   -0.31    0.19
   5   0   0    0.20    0.11
   5   0   0   -0.07    0.12
   6   0   0    0.28    0.11
   6   0   0    0.17    0.19
   7   0   0    0.05    0.12
   7   0   0   -0.05    0.10
   8   0   0    0.10    0.09
  -8   0   0    0.03    0.09
   8   0   0    0.10    0.11
  -9   0   0    0.00    0.09
   0  -1   0    0.09    0.01
  -1  -1   0  502.77   18.29
   1   1   0  603.97   18.31
  -1   1   0  576.97   18.27
   2  -1   0   44.21    1.45
  -2  -1   0   44.38    1.46
   2   1   0   45.70    1.46
  -2   1   0   39.99    1.45
  -3  -1   0   15.73    0.61
   3  -1   0   16.40    0.60
  -3   1   0   15.84    0.59
   3   1   0   16.59    0.61
  -4  -1   0    1.99    0.22
  -4   1   0    2.08    0.20
   5  -1   0    1.01    0.23
   5  -1   0    1.19    0.17
   5  -1   0    0.82    0.20
   5   1   0    1.14    0.23
   5   1   0    0.96    0.36
   5   1   0    1.12    0.19
   5   1   0    1.08    0.19
   6  -1   0    8.34    0.46
   6  -1   0    8.98    0.43
   6  -1   0    8.90    0.41
   6   1   0    8.78    0.40
   6   1   0    8.94    0.42
   7  -1   0    0.54    0.17
   7  -1   0    0.36    0.14
   7   1   0    0.27    0.12
   7   1   0    0.48    0.13
  -7   1   0    0.18    0.12
   8  -1   0   -0.01    0.08
  -8  -1   0    0.04    0.10
   8  -1   0    0.13    0.12
  -8   1   0    0.09    0.10
   8   1   0    0.05    0.09
   8   1   0    0.18    0.10
   9  -1   0    0.12    0.07
  -9   1   0    0.03    0.08
   1  -2   0   70.21    2.11
  -1  -2   0   61.58    2.11
   1   2   0   63.23    2.11
  -1   2   0   62.01    2.10
  -2  -2   0    1.29    0.10
   2  -2   0    1.37    0.09
   2   2   0    1.36    0.10
  -3  -2   0    1.24    0.13
   3  -2   0    1.06    0.12
  -3   2   0    0.97    0.11
   3   2   0    0.83    0.14
  -4  -2   0   52.48    1.87
  -4   2   0   53.84    1.85
   5  -2   0    8.10    0.36
   5  -2   0    7.70    0.44
   5  -2   0    6.96    0.42
   5   2   0    8.22    0.37
   5   2   0    7.75    0.38
   5   2   0    8.14    0.40
   5   2   0    7.64    0.49
   6  -2   0   -0.04    0.16
   6  -2   0    0.19    0.15
   6  -2   0    0.19    0.11
   6   2   0    0.60    0.18
   6   2   0    0.20    0.11
   7  -2   0    1.86    0.26
   7  -2   0    2.12    0.21
   7   2   0    1.66    0.21
   7   2   0    2.02    0.20
  -7   2   0    1.92    0.23
  -8  -2   0    0.25    0.11
   8  -2   0    0.31    0.09
   8   2   0    0.54    0.14
   8   2   0    0.44    0.11
   0  -3   0    0.06    0.03
   1  -3   0  301.33    9.28
  -1  -3   0  262.15    9.28
   1   3   0  283.71    9.32
   2   3   0    0.30    0.08
  -2   3   0    0.26    0.06
  -3  -3   0   49.38    1.62
   3  -3   0   46.95    1.58
  -3   3   0   46.83    1.59
   3   3   0   42.78    1.61
   4  -3   0    7.51    0.36
   4   3   0    7.29    0.35
  -4   3   0    7.99    0.40
   5  -3   0   -0.25    0.20
   5  -3   0    0.33    0.12
   5  -3   0   -0.02    0.14
  -5   3   0    0.03    0.12
   5   3   0    0.05    0.20
   5   3   0    0.32    0.15
   5   3   0    0.23    0.14
   5   3   0    0.11    0.10
   6  -3   0    6.88    0.36
   6  -3   0    7.69    0.44
  -6   3   0    7.14    0.41
   6   3   0    6.84    0.38
   6   3   0    6.88    0.36
   6   3   0    6.48    0.36
   7  -3   0    0.08    0.10
   7   3   0    0.30    0.11
   7   3   0    0.03    0.14
  -7   3   0    0.25    0.12
  -8  -3   0    0.12    0.11
   8  -3   0    0.15    0.08
   8   3   0    0.27    0.09
  -8   3   0    0.23    0.10
   0  -4   0   16.34    0.58
   1  -4   0   29.06    0.95
  -1  -4   0   26.73    0.96
   1   4   0   28.19    0.97
  -2  -4   0  174.87    5.71
   2  -4   0  187.76    5.69
   2   4   0  164.53    5.71
  -2   4   0  169.57    5.69
   3  -4   0   39.02    1.37
  -3  -4   0   40.93    1.42
  -3   4   0   39.33    1.38
   4  -4   0   18.35    0.69
  -4   4   0   19.04    0.72
   4   4   0   18.33    0.69
   4   4   0   19.06    0.73
  -4   4   0   16.47    0.83
   5  -4   0   36.72    1.28
   5   4   0   37.25    1.31
  -5   4   0   37.14    1.32
   5   4   0   37.13    1.29
   5   4   0   34.17    1.34
   6  -4   0   10.87    0.48
   6   4   0   11.07    0.51
   6   4   0   11.15    0.49
  -6   4   0   10.77    0.52
   7  -4   0    0.49    0.16
  -7   4   0    0.59    0.19
   7   4   0    0.32    0.10
  -7   4   0    0.37    0.14
   8  -4   0    1.42    0.14
  -8  -4   0    1.70    0.21
   8   4   0    1.36    0.14
  -8   4   0    1.03    0.16
   0  -5   0    0.19    0.06
   0  -5   0    0.20    0.06
   0  -5   0    0.24    0.09
   1  -5   0   56.93    1.85
   1  -5   0   53.73    1.84
  -1  -5   0   53.17    1.83
  -1  -5   0   56.76    1.86
   2  -5   0   46.55    1.58
  -2  -5   0   49.22    1.62
  -2  -5   0   45.59    1.56
   2   5   0   44.69    1.62
   3  -5   0   48.43    1.59
  -3  -5   0   46.42    1.68
  -3  -5   0   46.44    1.59
   4  -5   0   28.51    1.02
   4   5   0   29.77    1.02
   4   5   0   26.75    1.05
  -4   5   0   29.04    1.05
   4   5   0   28.27    1.06
   5  -5   0    2.12    0.23
  -5   5   0    2.46    0.26
   5   5   0    2.20    0.27
   5   5   0    2.22    0.21
   5   5   0    1.89    0.34
   6  -5   0    0.11    0.12
  -6   5   0    0.07    0.13
   6   5   0    0.08    0.11
   6   5   0   -0.03    0.15
  -7   5   0    0.70    0.18
   7   5   0    0.55    0.15
  -7   5   0    0.26    0.14
   8  -5   0    0.08    0.08
   8   5   0    0.09    0.07
  -8   5   0   -0.05    0.08
   0  -6   0   17.00    0.59
   0  -6   0   14.31    0.60
   0  -6   0   17.05    0.64
   1  -6   0    0.11    0.09
   1  -6   0    0.24    0.07
  -1  -6   0    0.04    0.09
  -1  -6   0    0.10    0.06
   1  -6   0    0.04    0.08
   2  -6   0   31.43    1.07
  -2  -6   0   31.43    1.07
  -2  -6   0   31.02    1.15
   2  -6   0   30.58    1.09
  -3  -6   0   43.83    1.48
   3  -6   0   41.66    1.48
   3   6   0   41.48    1.52
   3   6   0   45.51    1.51
  -3   6   0   45.99    1.54
   4  -6   0   11.72    0.52
   4   6   0   12.12    0.56
  -4   6   0   11.98    0.54
   4   6   0   12.41    0.50
   4   6   0   11.70    0.55
   5  -6   0   26.69    0.94
   5   6   0   24.63    0.95
   5   6   0   24.92    0.93
   5   6   0   24.07    0.97
  -5   6   0   26.10    0.97
   6  -6   0    4.79    0.29
  -6   6   0    4.46    0.30
   6   6   0    4.58    0.27
   6   6   0    4.29    0.32
  -6   6   0    4.45    0.30
   7  -6   0    1.74    0.17
  -7   6   0    1.74    0.23
   7   6   0    1.73    0.17
  -7   6   0    1.66    0.19
   8  -6   0    0.34    0.11
   8   6   0    0.10    0.07
  -8   6   0    0.02    0.08
   0  -7   0    0.07    0.06
   0  -7   0   -0.03    0.17
   0  -7   0    0.05    0.13
  -1  -7   0   88.45    2.85
   1  -7   0   86.23    2.85
  -1  -7   0   84.83    2.91
  -1   7   0   84.82    2.87
  -2  -7   0    3.78    0.22
   2  -7   0    4.01    0.22
  -2   7   0    4.16    0.28
  -2   7   0    3.62    0.33
   2   7   0    3.85    0.29
  -3  -7   0   60.20    2.00
   3  -7   0   59.46    2.00
   3   7   0   60.58    2.04
   3   7   0   55.83    2.04
  -3   7   0   59.08    2.03
  -3   7   0   61.80    2.05
   3   7   0   58.08    2.00
   4  -7   0    4.17    0.32
  -4   7   0    3.33    0.29
   4   7   0    3.49    0.34
   4   7   0    3.66    0.36
  -4   7   0    3.73    0.26
   4   7   0    3.51    0.25
   5  -7   0   16.15    0.65
   5   7   0   15.76    0.67
   5   7   0   16.62    0.83
   5   7   0   15.58    0.63
  -5   7   0   16.25    0.67
  -5   7   0   15.16    0.65
   6  -7   0   13.54    0.54
   6   7   0   13.17    0.57
   6   7   0   13.43    0.54
  -6   7   0   13.05    0.56
  -6   7   0   14.19    0.58
   7  -7   0    2.20    0.18
  -7   7   0    2.23    0.20
   7   7   0    1.99    0.16
  -7   7   0    1.89    0.22
   0  -8   0   59.21    1.98
   0   8   0   59.27    2.00
   0   8   0   57.45    2.07
   1  -8   0    1.69    0.15
  -1  -8   0    1.77    0.16
  -1   8   0    1.75    0.33
  -1   8   0    1.47    0.20
   1   8   0    1.65    0.22
  -2  -8   0    0.28    0.09
   2  -8   0    0.15    0.08
  -2   8   0    0.02    0.10
   2   8   0    0.07    0.13
  -2   8   0    0.13    0.15
  -3  -8   0    1.30    0.19
   3  -8   0    0.97    0.16
  -3   8   0    1.32    0.20
   3   8   0    1.17    0.23
  -3   8   0    1.23    0.23
   3   8   0    1.07    0.23
   4   8   0    5.24    0.30
   4   8   0    4.46    0.36
  -4   8   0    4.22    0.31
  -4   8   0    4.50    0.33
   5  -8   0    0.05    0.17
   5   8   0    0.17    0.10
  -5   8   0    0.32    0.11
   6  -8   0    2.66    0.24
  -6   8   0    2.29    0.21
  -6   8   0    2.08    0.22
   6   8   0    2.12    0.19
   7   8   0    0.03    0.07
  -7   8   0   -0.11    0.09
   0  -9   0    0.03    0.08
   0   9   0    0.13    0.11
   1  -9   0   10.59    0.43
  -1  -9   0   10.67    0.43
  -1   9   0    8.47    0.43
   1   9   0   10.38    0.45
  -1   9   0    8.99    0.51
  -2  -9   0    0.95    0.16
   2   9   0    0.66    0.15
  -2   9   0    0.74    0.19
  -2   9   0    0.90    0.28
   3  -9   0    0.14    0.11
  -3  -9   0    0.20    0.12
  -3   9   0    0.38    0.17
  -3   9   0    0.27    0.12
   3   9   0    0.33    0.13
   4  -9   0    0.09    0.17
   4   9   0    0.16    0.13
   4   9   0   -0.27    0.14
  -4   9   0    0.25    0.14
  -4   9   0    0.06    0.11
  -5   9   0    3.83    0.27
   5   9   0    3.65    0.24
  -5   9   0    3.22    0.24
   6   9   0   -0.09    0.09
  -6   9   0    0.11    0.10
  -6   9   0   -0.01    0.11
  -7   9   0    0.11    0.13
   0 -10   0   52.46    1.79
   0  10   0   52.05    1.81
  -1 -10   0    0.66    0.14
   1  10   0    0.48    0.13
  -1  10   0    0.36    0.19
  -1  10   0    0.46    0.12
   2 -10   0   10.21    0.45
  -2 -10   0   10.73    0.46
  -2  10   0   11.00    0.54
   2  10   0   11.27    0.50
  -2  10   0   11.14    0.49
   3 -10   0    0.10    0.10
  -3 -10   0    0.14    0.12
  -3  10   0    0.24    0.11
  -3  10   0    0.07    0.16
   3  10   0    0.35    0.13
  -4  10   0   -0.24    0.13
   4  10   0   -0.09    0.14
  -4  10   0   -0.03    0.09
   5  10   0    1.58    0.20
  -5  10   0    1.59    0.17
  -5  10   0    1.67    0.22
  -6  10   0   -0.02    0.08
   0 -11   0   -0.01    0.08
   0  11   0    0.00    0.10
   1 -11   0   41.58    1.53
  -1 -11   0   40.95    1.53
   1  11   0   47.61    1.56
  -1  11   0   47.04    1.56
  -2 -11   0   -0.01    0.09
   2 -11   0    0.09    0.08
  -2  11   0    0.42    0.15
   2  11   0   -0.06    0.10
  -3 -11   0    2.43    0.25
   3 -11   0    2.87    0.22
  -3  11   0    2.81    0.29
  -3  11   0    2.48    0.21
   3  11   0    3.08    0.25
  -4  11   0    0.08    0.08
  -4  11   0   -0.14    0.15
   4  11   0    0.11    0.15
  -5  11   0    0.37    0.13
  -5  11   0    0.35    0.16
   0 -12   0   -0.06    0.08
   0  12   0    0.01    0.09
   1 -12   0    9.22    0.39
  -1 -12   0    8.83    0.39
   1  12   0    9.25    0.41
  -1  12   0    8.23    0.40
   2 -12   0   -0.03    0.08
  -2 -12   0    0.11    0.11
   2  12   0   -0.01    0.09
  -2  12   0    0.07    0.08
  -3 -12   0    1.34    0.26
   3 -12   0    1.48    0.18
  -3  12   0    0.98    0.14
   3  12   0    1.12    0.20
  -4  12   0   -0.01    0.06
  -5  12   0    3.09    0.18
   0 -13   0    0.08    0.08
   0  13   0    0.01    0.08
  -1 -13   0    2.08    0.17
   1 -13   0    1.58    0.16
  -1  13   0    1.69    0.16
   1  13   0    1.67    0.17
  -2 -13   0    3.21    0.23
   2 -13   0    2.99    0.20
  -2  13   0    3.23    0.19
   2  13   0    3.14    0.21
  -3  13   0    2.18    0.15
  -4  13   0    2.52    0.15
   0 -14   0    2.83    0.20
   0  14   0    2.64    0.17
  -1  14   0    0.40    0.11
  -2  14   0    2.52    0.15
  -9   0   1    2.23    0.18
   9   0  -1    2.51    0.15
   8   0  -1    0.08    0.11
   8   0  -1    0.02    0.09
  -8   0   1   -0.04    0.10
   7   0  -1   98.04    3.28
  -7   0   1   99.13    3.31
   7   0  -1   97.24    3.27
   6   0  -1    0.18    0.13
   6   0  -1   -0.01    0.10
   5   0  -1   49.39    1.73
   5   0  -1   51.54    1.72
  -4   0   1    0.12    0.09
  -3   0   1   57.69    1.98
   3   0  -1   60.27    1.98
  -2   0   1    0.37    0.06
   2   0  -1    0.33    0.06
  -1   0   1    5.77    0.21
   1   0  -1    6.09    0.22
   0   0  -1    0.00    0.00
  -1   0  -1    4.69    0.17
   1   0   1    4.26    0.17
   2   0   1    0.42    0.06
  -2   0  -1    0.41    0.05
   3   0   1  171.09    5.50
  -3   0  -1  164.43    5.50
  -4   0  -1    0.06    0.11
   5   0   1   15.87    0.63
   5   0   1   16.86    0.65
   5   0   1   15.37    0.67
   5   0   1   16.02    0.62
   6   0   1    0.10    0.12
   6   0   1    0.12    0.12
   6   0   1    0.04    0.16
   7   0   1    6.63    0.33
   7   0   1    6.53    0.35
   7   0   1    6.38    0.39
   8   0   1   -0.08    0.10
   8   0   1    0.01    0.09
  -8   0  -1   -0.12    0.09
   9  -1  -1    0.52    0.11
  -9   1   1    0.56    0.14
  -8  -1   1   17.72    0.69
   8  -1  -1   18.51    0.67
   8  -1  -1   17.29    1.07
  -8   1   1   17.03    0.69
   8   1  -1   18.07    0.67
   8   1  -1   18.42    0.66
   7  -1  -1    5.70    0.31
   7  -1  -1    6.32    0.35
   7   1  -1    5.90    0.33
  -7   1   1    5.94    0.36
   7   1  -1    6.01    0.32
   6  -1  -1    0.18    0.11
   6  -1  -1    0.11    0.14
   6   1  -1    0.35    0.13
   6   1  -1    0.04    0.11
   5  -1  -1    4.14    0.25
   5  -1  -1    3.68    0.30
   5   1  -1    4.57    0.25
   5   1  -1    3.82    0.27
   5   1  -1    4.13    0.29
  -4  -1   1    1.81    0.21
  -4   1   1    2.28    0.21
   3  -1  -1    5.02    0.23
  -3  -1   1    4.86    0.24
  -3   1   1    4.53    0.23
   3   1  -1    4.81    0.24
  -2  -1   1   80.11    2.73
   2  -1  -1   88.78    2.73
  -2   1   1   80.53    2.73
   2   1  -1   82.97    2.73
  -1  -1   1   57.02    1.83
   1  -1  -1   58.17    1.84
   1   1  -1   56.02    1.84
  -1   1   1   48.76    1.80
   0  -1   1   77.66    2.52
   0   1  -1   76.74    2.52
   1  -1   1  104.78    3.33
  -1  -1  -1   97.29    3.35
   1   1   1  104.67    3.37
  -1   1  -1   97.40    3.32
   2  -1   1  127.60    4.07
  -2  -1  -1  120.19    4.08
  -2   1  -1  126.21    4.10
   3  -1   1  229.71    7.37
  -3  -1  -1  224.37    7.39
   3   1   1  229.51    7.39
  -3   1  -1  220.52    7.37
  -4  -1  -1    5.10    0.33
  -4   1  -1    5.25    0.31
   5  -1   1   19.01    0.79
   5  -1   1   20.58    0.75
   5  -1   1   19.76    0.76
   5   1   1   20.61    0.78
   5   1   1   18.95    0.79
   5   1   1   20.50    0.76
   5   1   1   20.46    0.75
   6  -1   1    6.80    0.37
   6  -1   1    6.74    0.34
   6  -1   1    6.78    0.40
   6   1   1    6.39    0.41
   6   1   1    6.84    0.35
   6   1   1    6.77    0.35
   7  -1   1    7.36    0.35
   7  -1   1    7.03    0.38
  -7   1  -1    7.93    0.41
   7   1   1    7.00    0.36
   7   1   1    7.24    0.35
   8  -1   1   -0.11    0.08
  -8  -1  -1    0.01    0.10
   8  -1   1   -0.03    0.11
   8   1   1    0.02    0.09
  -8   1  -1    0.00    0.09
   8   1   1   -0.03    0.10
   9  -2  -1    0.11    0.07
  -9   2   1    0.45    0.13
   8  -2  -1    3.54    0.22
  -8  -2   1    3.78    0.25
  -8   2   1    3.67    0.24
   8   2  -1    3.80    0.23
   8   2  -1    3.66    0.23
   7  -2  -1   13.68    0.55
   7  -2  -1   12.83    0.57
  -7   2   1   14.03    0.60
   7   2  -1   13.55    0.54
   7   2  -1   13.17    0.55
   6  -2  -1    0.07    0.10
   6  -2  -1    0.35    0.18
   6   2  -1    0.15    0.09
   6   2  -1    0.06    0.11
  -6   2   1    0.14    0.13
   5  -2  -1   31.28    1.19
   5  -2  -1   34.77    1.17
   5  -2  -1   32.44    1.21
   5   2  -1   33.44    1.17
   5   2  -1   34.08    1.17
   5   2  -1   33.29    1.19
  -4  -2   1   21.52    0.84
  -4   2   1   20.82    0.81
  -3  -2   1   35.65    1.24
   3  -2  -1   35.45    1.22
  -3   2   1   34.79    1.22
   3   2  -1   35.38    1.24
  -2  -2   1    2.20    0.13
   2  -2  -1    2.99    0.14
   2   2  -1    2.59    0.14
  -2   2   1    2.42    0.13
  -1  -2   1  186.89    6.57
   1  -2  -1  207.75    6.61
  -1   2   1  188.87    6.56
   1   2  -1  212.49    6.60
   0  -2  -1  272.22    8.99
   0  -2   1  275.44    8.94
  -1  -2  -1   64.91    2.22
   1  -2   1   67.83    2.19
   1   2   1   69.17    2.22
  -1   2  -1   67.44    2.21
   2  -2   1   10.32    0.36
  -2   2  -1    9.71    0.37
   2   2   1   10.12    0.39
   3  -2   1   21.86    0.77
  -3  -2  -1   21.80    0.80
   3   2   1   21.16    0.79
  -3   2  -1   21.12    0.77
  -4  -2  -1   22.59    0.91
  -4   2  -1   23.17    0.88
   5  -2   1    2.75    0.29
   5  -2   1    2.66    0.22
   5  -2   1    2.71    0.29
   5   2   1    2.53    0.25
   5   2   1    2.04    0.33
   5   2   1    2.96    0.26
   5   2   1    2.44    0.21
   6  -2   1   47.97    1.67
   6  -2   1   47.14    1.65
   6  -2   1   49.06    1.67
   6   2   1   46.05    1.67
   6   2   1   46.21    1.67
   6   2   1   48.89    1.66
   6   2   1   48.85    1.65
   7  -2   1    3.59    0.29
   7  -2   1    3.41    0.23
  -7   2  -1    3.42    0.28
   7   2   1    3.44    0.24
   7   2   1    3.43    0.25
  -8  -2  -1    5.26    0.28
   8  -2   1    4.90    0.34
   8  -2   1    5.05    0.25
   8   2   1    5.19    0.26
   8   2   1    4.51    0.26
  -8   2  -1    4.82    0.27
  -8  -3   1    0.83    0.20
   8  -3  -1    0.59    0.13
   8   3  -1    0.54    0.14
  -8   3   1    0.66    0.15
   8   3  -1    0.32    0.13
   7  -3  -1    3.77    0.25
  -7   3   1    4.02    0.29
   7   3  -1    4.09    0.26
   7   3  -1    3.82    0.26
   6  -3  -1   12.08    0.52
  -6   3   1   12.30    0.57
   6   3  -1   12.45    0.53
   6   3  -1   13.31    0.52
   5  -3  -1    3.13    0.23
  -5   3   1    2.87    0.26
   5   3  -1    2.95    0.30
   5   3  -1    3.21    0.23
   5   3  -1    2.97    0.25
  -4   3   1    1.48    0.23
   4   3  -1    1.58    0.18
  -4   3   1    1.35    0.23
   3  -3  -1   18.58    0.67
  -3  -3   1   17.54    0.68
   3   3  -1   17.09    0.69
  -3   3   1   18.46    0.67
   2  -3  -1   14.99    0.53
  -2  -3   1   14.33    0.54
   2   3  -1   14.42    0.55
  -2   3   1   15.29    0.54
   1  -3  -1    1.27    0.08
  -1  -3   1    1.38    0.08
   1   3  -1    1.14    0.08
   0  -3  -1   17.87    0.62
   0  -3   1   17.59    0.60
   1  -3   1    0.06    0.02
  -1  -3  -1    0.09    0.04
   1   3   1    0.04    0.03
   2  -3   1  248.62    7.98
  -2  -3  -1  244.01    8.04
  -2   3  -1  243.11    8.01
   2   3   1  240.78    7.96
  -3  -3  -1   77.48    2.59
   3  -3   1   77.96    2.54
  -3   3  -1   74.03    2.55
   4  -3   1   25.14    0.91
   4  -3   1   24.46    0.99
   4   3   1   26.09    0.92
   4   3   1   26.88    0.95
  -4   3  -1   24.34    0.96
   5  -3   1   60.16    2.04
   5  -3   1   61.63    2.02
   5  -3   1   59.76    2.04
   5   3   1   61.03    2.05
   5   3   1   56.58    2.03
   5   3   1   59.30    2.02
   5   3   1   57.22    2.01
   6  -3   1   16.80    0.66
   6  -3   1   16.62    0.70
  -6   3  -1   16.60    0.71
   6   3   1   16.62    0.71
   6   3   1   16.93    0.67
   6   3   1   16.99    0.69
   6   3   1   16.73    0.67
   7  -3   1    0.42    0.18
   7  -3   1    0.15    0.10
   7   3   1    0.13    0.11
  -7   3  -1    0.18    0.12
   7   3   1    0.25    0.15
  -8  -3  -1    0.63    0.16
  -8   3  -1    0.25    0.10
   8   3   1    0.22    0.09
  -8  -4   1    3.29    0.27
   8  -4  -1    3.04    0.19
   8   4  -1    3.59    0.20
  -8   4   1    3.18    0.22
   7  -4  -1    4.85    0.27
   7   4  -1    4.65    0.28
  -7   4   1    4.74    0.32
   6  -4  -1   18.02    0.70
   6   4  -1   17.63    0.69
   6   4  -1   17.72    0.70
  -6   4   1   17.65    0.73
   5  -4  -1   12.66    0.51
   5   4  -1   12.02    0.55
  -5   4   1   13.02    0.54
   5   4  -1   10.97    0.52
   5   4  -1   12.47    0.51
   4  -4  -1    8.12    0.39
  -4   4   1    7.82    0.41
  -4   4   1    8.06    0.48
   4   4  -1    8.97    0.38
   3  -4  -1   73.69    2.43
  -3  -4   1   66.79    2.38
  -3  -4   1   74.48    2.46
  -3   4   1   73.47    2.44
   2  -4  -1   85.21    2.79
  -2   4   1   81.93    2.80
   2   4  -1   85.58    2.81
  -1  -4   1  256.14    8.11
   1  -4  -1  221.41    8.09
   1   4  -1  258.30    8.02
   0  -4   1    1.04    0.08
   0  -4  -1    1.08    0.09
   0  -4  -1    1.04    0.10
   1  -4   1    9.13    0.33
   1  -4   1    8.56    0.32
  -1  -4  -1    8.72    0.36
   1   4   1    9.23    0.37
   2  -4   1    1.74    0.11
  -2  -4  -1    1.91    0.15
  -2   4  -1    1.46    0.12
   2   4   1    1.61    0.16
   3  -4   1   24.51    0.88
  -3  -4  -1   24.60    0.93
  -3   4  -1   24.72    0.88
   4  -4   1    0.89    0.20
   4  -4   1    0.72    0.23
   4   4   1    0.40    0.18
   4   4   1    0.46    0.16
  -4   4  -1    0.76    0.22
   4   4   1    0.66    0.14
   5  -4   1    9.03    0.43
   5   4   1   10.38    0.44
   5   4   1   10.12    0.46
  -5   4  -1    9.20    0.47
   5   4   1    9.95    0.49
   6  -4   1    0.53    0.18
   6   4   1    0.98    0.23
   6   4   1    0.84    0.20
   6   4   1    1.26    0.33
   7  -4   1    2.82    0.21
  -7   4  -1    3.10    0.25
   7   4   1    2.90    0.21
  -8  -4  -1    1.16    0.18
   8  -4   1    0.90    0.12
  -8   4  -1    0.89    0.15
   8   4   1    0.86    0.13
   8  -5  -1    0.60    0.12
   8   5  -1    0.68    0.12
  -8   5   1    0.74    0.14
   7  -5  -1    0.84    0.17
   7   5  -1    1.14    0.16
  -7   5   1    0.94    0.18
   6  -5  -1    3.73    0.26
   6   5  -1    3.84    0.25
  -6   5   1    3.50    0.31
  -6   5   1    3.78    0.30
   5  -5  -1    1.38    0.21
   5   5  -1    1.36    0.19
   5   5  -1    1.91    0.29
  -5   5   1    1.40    0.24
   4  -5  -1    4.61    0.30
  -4   5   1    4.86    0.31
   4   5  -1    4.58    0.37
   4   5  -1    4.36    0.26
  -3  -5   1  135.93    4.49
  -3  -5   1  141.27    4.59
   3  -5  -1  131.35    4.55
  -3   5   1  140.42    4.56
  -2  -5   1  103.90    3.53
  -2  -5   1  110.99    3.58
   2  -5  -1  111.73    3.57
   2   5  -1  104.26    3.59
   1  -5  -1    2.46    0.15
   1  -5  -1    2.40    0.16
  -1  -5   1    2.00    0.14
  -1  -5   1    2.13    0.14
   0  -5   1  154.93    5.17
   0  -5  -1  165.17    5.21
   0  -5   1  159.13    5.18
   0  -5  -1  157.83    5.20
   0  -5   1  155.60    5.18
   1  -5   1    2.37    0.13
  -1  -5  -1    2.07    0.15
   1  -5   1    2.46    0.15
  -1  -5  -1    2.21    0.17
   1  -5   1    2.67    0.14
  -2  -5  -1   95.83    3.24
   2  -5   1  100.10    3.24
  -2  -5  -1   98.49    3.30
   2  -5   1   99.91    3.24
   3  -5   1   40.43    1.37
   4  -5   1    1.21    0.21
   4   5   1    1.01    0.26
  -4   5  -1    1.38    0.24
   4   5   1    1.54    0.28
   4   5   1    1.02    0.18
   5  -5   1   24.76    0.89
   5   5   1   23.63    0.88
   5   5   1   24.05    0.91
  -5   5  -1   23.81    0.92
   5   5   1   22.82    0.91
   6  -5   1   13.08    0.53
  -6   5  -1   12.86    0.57
   6   5   1   12.29    0.53
   6   5   1   12.38    0.62
   6   5   1   12.71    0.55
   7  -5   1   13.99    0.54
  -7   5  -1   13.77    0.58
   7   5   1   14.23    0.55
  -7   5  -1   13.02    0.56
  -8  -5  -1    0.16    0.17
   8  -5   1    0.42    0.11
  -8   5  -1    0.22    0.09
   8   5   1    0.22    0.08
   8  -6  -1    0.13    0.08
  -8   6   1    0.04    0.08
   8   6  -1    0.13    0.07
   7  -6  -1    1.53    0.16
  -7   6   1    1.32    0.19
   7   6  -1    1.57    0.17
   6  -6  -1    1.34    0.22
   6   6  -1    1.48    0.18
  -6   6   1    2.03    0.25
  -6   6   1    1.22    0.22
   5  -6  -1    0.13    0.14
   5   6  -1   -0.03    0.18
  -5   6   1    0.11    0.11
  -5   6   1    0.28    0.13
   5   6  -1    0.16    0.11
   4  -6  -1   25.91    0.96
   4   6  -1   25.55    0.94
  -4   6   1   27.15    0.98
   4   6  -1   25.76    1.01
  -4   6   1   26.14    0.96
  -3  -6   1   49.82    1.70
  -3   6   1   51.00    1.75
   3   6  -1   50.99    1.72
  -3   6   1   50.02    1.73
  -2  -6   1  140.01    4.55
   2  -6  -1  134.20    4.60
  -2  -6   1  139.75    4.62
   2  -6  -1  141.97    4.59
  -1  -6   1   14.56    0.52
   1  -6  -1   13.97    0.57
   1  -6  -1   14.24    0.55
  -1  -6   1   14.13    0.55
   0  -6   1    9.13    0.37
   0  -6  -1    8.33    0.35
   0  -6   1    9.14    0.39
   0  -6  -1    8.89    0.39
   0  -6  -1    9.04    0.42
   0  -6   1    8.75    0.35
  -1  -6  -1    0.36    0.08
   1  -6   1    0.20    0.07
   1  -6   1    0.24    0.09
   1  -6   1    0.30    0.10
  -1  -6  -1    0.38    0.15
  -2  -6  -1    8.44    0.35
  -2  -6  -1    8.03    0.43
   2  -6   1    8.79    0.35
  -3  -6  -1   11.00    0.44
   3  -6   1   10.00    0.49
   3  -6   1    9.32    0.41
  -3   6  -1   10.52    0.50
   3   6   1   10.47    0.47
   3   6   1   10.19    0.51
   3   6   1   10.85    0.46
   4  -6   1    0.36    0.15
   4   6   1    0.66    0.18
   4   6   1    0.35    0.14
   4   6   1    0.21    0.16
  -4   6  -1    0.09    0.15
   5  -6   1    0.60    0.16
  -5   6  -1    0.56    0.17
   5   6   1    0.30    0.16
   5   6   1    0.25    0.14
   5   6   1    0.17    0.12
   6  -6   1    7.09    0.35
  -6   6  -1    6.90    0.36
   6   6   1    6.93    0.35
   6   6   1    7.03    0.37
  -6   6  -1    6.95    0.38
   7  -6   1    2.46    0.18
  -7   6  -1    2.09    0.20
   7   6   1    1.97    0.17
  -7   6  -1    1.66    0.22
   8   6   1    0.85    0.11
  -8   6  -1    0.72    0.13
   8   7  -1    1.12    0.12
  -8   7   1    1.14    0.14
   7  -7  -1    0.31    0.12
  -7   7   1    0.18    0.10
   7   7  -1    0.18    0.08
   6  -7  -1    0.26    0.13
   6   7  -1    0.14    0.09
  -6   7   1    0.25    0.11
  -6   7   1    0.68    0.21
   5  -7  -1    0.85    0.27
   5   7  -1    0.94    0.18
  -5   7   1    1.13    0.22
  -5   7   1    0.66    0.23
   4  -7  -1   28.61    1.09
   4  -7  -1   30.90    1.13
   4   7  -1   31.89    1.11
  -4   7   1   32.09    1.13
  -4   7   1   31.86    1.15
   4   7  -1   31.60    1.16
   3  -7  -1    0.05    0.09
  -3  -7   1    0.08    0.09
   3   7  -1    0.26    0.17
  -3   7   1    0.31    0.13
  -3   7   1    0.06    0.11
   3   7  -1    0.10    0.11
   2  -7  -1   32.35    1.11
  -2  -7   1   31.82    1.10
   2   7  -1   30.35    1.14
  -2   7   1   31.90    1.13
  -2   7   1   32.43    1.15
   1  -7  -1    1.94    0.15
   1  -7  -1    1.89    0.23
  -1  -7   1    2.05    0.22
  -1  -7   1    1.99    0.15
  -1   7   1    1.79    0.21
   0  -7  -1    0.24    0.13
   0  -7   1    0.08    0.12
   0  -7   1    0.31    0.10
   0  -7  -1    0.16    0.07
  -1  -7  -1   31.21    1.19
  -1  -7  -1   32.47    1.11
   1  -7   1   33.20    1.11
   1   7   1   31.84    1.13
  -1   7  -1   30.94    1.13
   2  -7   1    0.22    0.08
   2   7   1    0.33    0.14
  -2   7  -1    0.17    0.18
  -2   7  -1    0.20    0.10
  -3  -7  -1    0.23    0.12
   3  -7   1    0.21    0.11
   3   7   1    0.26    0.12
   3   7   1    0.37    0.13
   3   7   1    0.56    0.19
  -3   7  -1    0.42    0.16
  -3   7  -1    0.40    0.11
   4  -7   1    2.02    0.26
   4   7   1    2.03    0.22
   4   7   1    1.52    0.27
  -4   7  -1    1.46    0.24
   4   7   1    1.48    0.30
  -4   7  -1    1.69    0.20
   5  -7   1    1.20    0.23
   5   7   1    1.73    0.30
  -5   7  -1    1.76    0.24
   5   7   1    1.65    0.20
   5   7   1    1.57    0.26
   6  -7   1   -0.01    0.11
   6   7   1    0.09    0.14
  -6   7  -1    0.18    0.11
   6   7   1    0.15    0.10
  -6   7  -1    0.51    0.18
   7  -7   1    1.58    0.16
   7   7   1    1.42    0.14
  -7   7  -1    1.12    0.20
  -7   7  -1    1.57    0.18
   7   8  -1    3.70    0.20
  -7   8   1    3.57    0.22
   6  -8  -1    0.08    0.16
   6   8  -1    0.10    0.09
  -6   8   1    0.03    0.10
  -6   8   1    0.10    0.11
  -5   8   1    1.03    0.22
  -5   8   1    1.08    0.20
   5   8  -1    0.97    0.18
   4  -8  -1    0.12    0.13
   4   8  -1    0.38    0.12
   4   8  -1    0.34    0.20
  -4   8   1    0.32    0.12
  -4   8   1    0.10    0.13
  -3  -8   1    1.52    0.18
   3  -8  -1    1.62    0.17
  -3   8   1    1.02    0.20
  -3   8   1    1.07    0.22
   3   8  -1    1.66    0.27
   3   8  -1    1.16    0.20
   2  -8  -1    4.93    0.26
  -2  -8   1    5.15    0.27
  -2   8   1    5.29    0.36
   2   8  -1    4.91    0.33
  -2   8   1    5.46    0.30
   1  -8  -1    0.22    0.09
  -1  -8   1    0.43    0.12
   1   8  -1    0.26    0.13
  -1   8   1    0.50    0.17
  -1   8   1    0.04    0.17
   0  -8   1    8.53    0.36
   0  -8  -1    8.70    0.36
   0   8   1    7.79    0.46
   0   8  -1    8.22    0.40
   0   8   1    8.55    0.39
  -1  -8  -1    2.48    0.18
   1  -8   1    1.90    0.17
   1   8   1    2.06    0.34
  -1   8  -1    1.97    0.22
   1   8   1    2.56    0.22
  -2  -8  -1    1.52    0.17
   2  -8   1    1.52    0.16
   2   8   1    1.17    0.21
  -2   8  -1    1.50    0.20
  -2   8  -1    0.98    0.31
   3  -8   1   17.75    0.65
  -3  -8  -1   17.63    0.66
  -3   8  -1   17.59    0.69
  -3   8  -1   17.77    0.71
   3   8   1   16.66    0.71
   3   8   1   16.66    0.67
   3   8   1   15.89    0.68
   4  -8   1   65.95    2.30
   4   8   1   62.78    2.17
   4   8   1   63.56    2.17
  -4   8  -1   62.36    2.17
   4   8   1   59.82    2.13
  -4   8  -1   64.38    2.18
   5  -8   1    1.44    0.23
  -5   8  -1    0.93    0.23
  -5   8  -1    1.49    0.21
   5   8   1    0.80    0.26
   5   8   1    1.62    0.27
   5   8   1    1.44    0.19
   6  -8   1    8.64    0.39
   6   8   1    8.57    0.38
  -6   8  -1    8.56    0.39
  -6   8  -1    8.94    0.41
   7   8   1    0.47    0.13
  -7   8  -1    0.74    0.19
  -7   8  -1    0.60    0.15
   7   9  -1   -0.07    0.09
  -7   9   1    0.07    0.09
  -6   9   1    1.29    0.18
  -6   9   1    1.32    0.18
   6   9  -1    1.47    0.16
  -5   9   1    0.59    0.19
  -5   9   1    0.93    0.18
   5   9  -1    0.63    0.16
   4  -9  -1    0.16    0.12
   4   9  -1    0.33    0.17
  -4   9   1    0.40    0.12
  -4   9   1    0.53    0.15
   3  -9  -1   28.22    0.97
  -3  -9   1   27.90    0.98
   3   9  -1   26.41    1.00
  -3   9   1   26.48    1.01
  -3   9   1   26.60    0.99
   3   9  -1   25.72    0.97
   2  -9  -1   24.22    0.86
  -2  -9   1   23.30    0.85
  -2   9   1   22.19    0.89
   2   9  -1   23.53    0.88
  -2   9   1   22.78    0.87
  -1  -9   1   56.77    1.86
   1  -9  -1   56.46    1.87
  -1   9   1   51.71    1.89
   1   9  -1   53.38    1.87
   0  -9  -1    0.71    0.14
   0  -9   1    1.01    0.14
   0   9  -1    0.94    0.19
   0   9   1    0.76    0.18
   0   9   1    0.75    0.29
   1  -9   1   55.49    1.80
  -1  -9  -1   56.52    1.81
   1   9   1   54.48    1.82
  -1   9  -1   45.98    1.81
   1   9   1   51.13    1.84
  -2  -9  -1    0.06    0.10
   2  -9   1    0.14    0.10
  -2   9  -1    0.18    0.19
  -2   9  -1    0.01    0.10
   2   9   1    0.10    0.12
   2   9   1    0.04    0.17
   3  -9   1   32.65    1.13
  -3  -9  -1   32.56    1.14
  -3   9  -1   32.68    1.17
   3   9   1   31.83    1.18
   3   9   1   31.54    1.17
  -3   9  -1   31.40    1.18
   4   9   1    0.25    0.18
   4   9   1   -0.02    0.14
   4   9   1    0.19    0.13
  -4   9  -1    0.19    0.15
  -4   9  -1    0.00    0.10
   5   9   1    2.82    0.29
  -5   9  -1    2.84    0.23
  -5   9  -1    2.50    0.25
   5   9   1    2.75    0.23
  -6   9  -1    0.15    0.12
  -6   9  -1    0.19    0.09
   6   9   1    0.07    0.10
  -6  10   1    0.03    0.09
  -6  10   1    0.01    0.10
   6  10  -1   -0.14    0.11
  -5  10   1    0.29    0.12
   5  10  -1    0.19    0.11
  -5  10   1    0.47    0.14
   4 -10  -1    0.42    0.14
  -4  10   1    0.22    0.14
  -4  10   1    0.51    0.16
   4  10  -1   -0.04    0.12
  -3 -10   1    2.08    0.21
   3 -10  -1    2.23    0.20
  -3  10   1    2.66    0.28
  -3  10   1    2.33    0.22
   3  10  -1    1.74    0.26
   2 -10  -1    0.55    0.15
  -2 -10   1    0.35    0.10
  -2  10   1    0.33    0.17
   2  10  -1    0.33    0.14
  -2  10   1    0.60    0.19
  -1 -10   1   22.37    0.81
   1 -10  -1   22.69    0.82
  -1  10   1   21.25    0.86
  -1  10   1   21.06    0.83
   1  10  -1   21.20    0.83
   0 -10   1   31.98    1.13
   0 -10  -1   33.14    1.14
   0  10  -1   32.31    1.15
   0  10   1   29.72    1.17
   0  10   1   31.30    1.14
  -1 -10  -1    8.42    0.37
   1 -10   1    8.26    0.37
   1  10   1    7.84    0.39
   1  10   1    7.42    0.47
  -1  10  -1    8.20    0.40
   2 -10   1   20.70    0.79
  -2 -10  -1   21.23    0.80
   2  10   1   22.35    0.83
  -2  10  -1   21.78    0.83
   3 -10   1    5.36    0.30
  -3 -10  -1    5.72    0.43
  -3  10  -1    6.09    0.33
  -3  10  -1    5.39    0.38
   3  10   1    5.97    0.35
  -4  10  -1    5.97    0.38
   4  10   1    6.63    0.34
  -4  10  -1    7.31    0.35
  -5  10  -1    2.29    0.25
  -5  10  -1    2.46    0.20
  -6  10  -1    0.66    0.14
  -5  11   1    0.03    0.08
  -5  11   1    0.10    0.12
  -4  11   1    1.20    0.22
  -4  11   1    0.99    0.15
   3 -11  -1    2.62    0.20
  -3 -11   1    2.51    0.23
  -3  11   1    2.92    0.22
   3  11  -1    2.73    0.26
  -3  11   1    2.76    0.27
  -2 -11   1    2.24    0.19
   2 -11  -1    1.88    0.18
  -2  11   1    2.11    0.28
  -2  11   1    2.02    0.21
   2  11  -1    2.33    0.24
  -1 -11   1    2.06    0.19
   1 -11  -1    1.81    0.17
   1  11  -1    2.25    0.22
  -1  11   1    1.98    0.31
  -1  11   1    2.10    0.22
   0 -11   1    0.24    0.10
   0 -11  -1    0.18    0.09
   0  11   1    0.10    0.10
   0  11  -1    0.14    0.10
   1 -11   1    0.13    0.08
  -1 -11  -1    0.22    0.10
  -1  11  -1    0.14    0.11
   1  11   1    0.08    0.10
   2 -11   1   10.76    0.47
  -2 -11  -1   10.88    0.48
  -2  11  -1   12.18    0.50
   2  11   1   12.14    0.50
  -3 -11  -1    5.08    0.33
   3 -11   1    4.75    0.28
  -3  11  -1    4.53    0.27
   3  11   1    5.03    0.29
   4  11   1   -0.18    0.11
  -4  11  -1    0.02    0.07
  -5  11  -1    0.81    0.13
  -5  12   1   -0.05    0.07
  -4  12   1    0.35    0.12
   3 -12  -1    2.10    0.19
  -3 -12   1    2.32    0.23
   3  12  -1    1.84    0.25
  -3  12   1    2.12    0.17
  -2 -12   1    8.32    0.37
   2 -12  -1    7.96    0.37
  -2  12   1    7.90    0.37
   2  12  -1    8.59    0.39
  -1 -12   1    0.03    0.08
   1 -12  -1    0.14    0.09
  -1  12   1    0.12    0.08
   1  12  -1    0.08    0.09
   0 -12  -1    1.93    0.17
   0 -12   1    1.78    0.17
   0  12  -1    2.25    0.19
   0  12   1    1.98    0.19
  -1 -12  -1    0.21    0.10
   1 -12   1    0.12    0.08
  -1  12  -1    0.15    0.08
   1  12   1    0.03    0.09
   2 -12   1    0.27    0.10
  -2 -12  -1    0.34    0.12
  -2  12  -1    0.51    0.13
   2  12   1    0.56    0.14
   3 -12   1    1.89    0.21
  -3  12  -1    1.73    0.16
   3  12   1    1.46    0.19
  -4  12  -1    1.80    0.15
  -5  12  -1    0.05    0.07
  -4  13   1    0.76    0.11
  -3  13   1    0.69    0.11
   2 -13  -1    0.02    0.09
  -2 -13   1    0.20    0.11
  -2  13   1    0.13    0.07
   2  13  -1   -0.11    0.10
  -1 -13   1    0.39    0.13
   1 -13  -1    0.17    0.09
  -1  13   1    0.41    0.11
   1  13  -1    0.52    0.14
   0 -13  -1   -0.02    0.08
   0 -13   1   -0.01    0.08
   0  13  -1    0.03    0.08
   0  13   1    0.06    0.07
  -1 -13  -1    0.14    0.09
   1 -13   1    0.01    0.08
   1  13   1    0.04    0.08
  -1  13  -1    0.10    0.08
   2 -13   1    1.66    0.18
  -2 -13  -1    1.79    0.22
  -2  13  -1    1.98    0.15
   2  13   1    2.07    0.17
  -3  13  -1    0.04    0.06
   3  13   1    0.03    0.11
  -4  13  -1    1.67    0.13
  -2  14   1    0.76    0.11
   1  14  -1    0.78    0.16
  -1  14   1    0.78    0.11
   0 -14   1    1.17    0.16
   0 -14  -1    1.22    0.16
   0  14  -1    1.02    0.14
   0  14   1    0.83    0.12
  -1  14  -1    3.05    0.18
   1  14   1    2.98    0.18
  -2  14  -1    1.00    0.12
  -9   0   2   -0.11    0.11
   9   0  -2    0.00    0.08
   8   0  -2    1.93    0.17
  -8   0   2    1.80    0.20
   8   0  -2    1.75    0.20
   7   0  -2    0.21    0.13
   7   0  -2    0.12    0.10
  -7   0   2   -0.13    0.12
   6   0  -2   13.62    0.57
   6   0  -2   14.10    0.56
   5   0  -2    0.11    0.10
   5   0  -2    0.23    0.13
  -4   0   2   22.42    0.85
  -3   0   2    0.10    0.05
   3   0  -2    0.12    0.06
  -2   0   2  147.76    4.77
   2   0  -2  139.10    4.68
   1   0  -2    0.25    0.03
  -1   0   2    0.21    0.03
   0   0  -2  268.45    8.77
  -1   0  -2    0.24    0.03
   1   0   2    0.21    0.03
  -2   0  -2   16.57    0.60
   2   0   2   17.43    0.60
   3   0   2    0.34    0.11
  -3   0  -2    0.29    0.10
  -4   0  -2    5.28    0.34
   5   0   2    0.13    0.13
   5   0   2    0.06    0.11
   5   0   2    0.24    0.11
   5   0   2    0.05    0.13
   6   0   2    7.54    0.42
   6   0   2    8.01    0.38
   6   0   2    7.87    0.40
   7   0   2   -0.03    0.11
   7   0   2    0.68    0.25
   7   0   2    0.08    0.11
   8   0   2    1.17    0.15
   8   0   2    1.12    0.16
  -8   0  -2    1.11    0.16
   9  -1  -2    0.14    0.08
  -9   1   2    0.66    0.15
   9   1  -2    0.35    0.10
   8  -1  -2    0.12    0.16
   8  -1  -2    0.17    0.09
  -8  -1   2    0.19    0.12
   8   1  -2    0.19    0.09
  -8   1   2    0.08    0.10
   8   1  -2    0.11    0.10
   7  -1  -2    0.17    0.16
  -7  -1   2    0.25    0.14
   7  -1  -2    0.17    0.10
  -7   1   2    0.12    0.13
   7   1  -2    0.22    0.10
   7   1  -2    0.08    0.11
   6  -1  -2    5.95    0.34
   6  -1  -2    6.06    0.30
   6   1  -2    5.56    0.32
   6   1  -2    5.45    0.30
   5  -1  -2    1.31    0.25
   5  -1  -2    1.43    0.17
   5   1  -2    1.82    0.21
   5   1  -2    1.26    0.18
  -4  -1   2   76.73    2.59
  -4   1   2   75.36    2.58
  -3  -1   2   22.06    0.79
   3  -1  -2   21.51    0.78
  -3   1   2   21.41    0.78
   3   1  -2   21.71    0.79
   2  -1  -2    0.78    0.07
  -2  -1   2    0.74    0.07
   1  -1  -2   40.24    1.26
  -1  -1   2   35.36    1.25
  -1   1   2   37.26    1.26
   1   1  -2   38.67    1.25
   0  -1   2    5.63    0.18
   0   1  -2    5.23    0.18
  -1  -1  -2  408.93   13.51
   1  -1   2  446.67   13.43
   1   1   2  407.38   13.52
  -1   1  -2  386.60   13.41
  -2  -1  -2  217.23    7.38
   2  -1   2  229.35    7.36
  -2   1  -2  218.23    7.33
   2   1   2  229.65    7.28
   3  -1   2    5.22    0.25
  -3  -1  -2    5.07    0.26
  -3   1  -2    5.08    0.24
   3   1   2    5.05    0.26
  -4  -1  -2    7.28    0.40
  -4   1  -2    6.57    0.37
   5  -1   2   44.82    1.58
   5  -1   2   46.77    1.56
   5  -1   2   46.20    1.57
   5   1   2   43.70    1.55
   5   1   2   45.00    1.58
   5   1   2   44.74    1.55
   5   1   2   43.52    1.58
   6  -1   2    0.61    0.15
   6  -1   2    0.61    0.23
   6  -1   2    1.04    0.26
   6   1   2    0.81    0.21
   6   1   2    0.78    0.18
   6   1   2    0.76    0.20
   7  -1   2    0.61    0.20
   7  -1   2    0.60    0.18
   7  -1   2    1.15    0.23
   7   1   2    0.71    0.19
   7   1   2    0.90    0.18
   7   1   2    0.62    0.17
   8  -1   2    0.00    0.08
  -8  -1  -2    0.24    0.10
   8  -1   2   -0.01    0.10
   8   1   2    0.03    0.08
  -8   1  -2    0.17    0.09
   8   1   2    0.14    0.10
   9  -2  -2    0.67    0.11
  -9   2   2    0.58    0.14
  -8  -2   2    2.56    0.23
   8  -2  -2    2.42    0.18
   8   2  -2    2.59    0.19
   8   2  -2    2.54    0.19
  -8   2   2    2.39    0.21
   7  -2  -2    4.37    0.26
   7  -2  -2    3.90    0.35
  -7   2   2    4.02    0.30
   7   2  -2    4.64    0.28
   7   2  -2    4.53    0.27
   6  -2  -2    1.42    0.18
   6  -2  -2    1.00    0.30
   6   2  -2    1.14    0.18
  -6   2   2    1.15    0.23
   6   2  -2    1.18    0.19
   5  -2  -2   78.49    2.81
   5  -2  -2   84.50    2.79
   5   2  -2   84.39    2.81
   5   2  -2   87.01    2.79
   5   2  -2   83.62    2.79
  -4  -2   2   31.53    1.17
  -4   2   2   31.50    1.16
   3  -2  -2    5.03    0.25
  -3  -2   2    5.26    0.25
   3   2  -2    4.97    0.26
   2  -2  -2    1.57    0.10
  -2  -2   2    1.38    0.10
  -2   2   2    1.38    0.10
   2   2  -2    1.32    0.10
  -1  -2   2  275.23    9.25
   1  -2  -2  281.46    9.24
   1   2  -2  287.30    9.24
  -1   2   2  279.54    9.30
   0  -2   2  227.89    7.07
   0  -2  -2  201.83    7.14
   0   2  -2  221.94    7.08
   1  -2   2   14.91    0.47
  -1  -2  -2   13.82    0.51
  -1   2  -2   13.95    0.47
   1   2   2   14.25    0.51
   2  -2   2  100.35    3.19
  -2  -2  -2   92.78    3.23
   2   2   2  102.64    3.23
  -2   2  -2   95.08    3.19
  -3  -2  -2  212.73    6.87
   3  -2   2  213.60    6.82
  -3   2  -2  206.26    6.83
   3   2   2  204.26    6.86
  -4  -2  -2    8.40    0.47
   4  -2   2    8.71    0.39
  -4   2  -2    8.69    0.44
   4   2   2    8.41    0.39
   4   2   2    8.42    0.42
   5  -2   2   24.41    0.95
   5  -2   2   25.44    0.92
   5  -2   2   25.31    0.94
   5   2   2   25.93    0.95
   5   2   2   25.00    0.95
   5   2   2   25.57    0.93
   5   2   2   25.01    0.92
   6  -2   2    4.85    0.35
   6  -2   2    4.86    0.29
   6  -2   2    4.62    0.33
   6   2   2    5.11    0.31
   6   2   2    4.60    0.35
   6   2   2    5.25    0.32
   6   2   2    5.39    0.33
   7  -2   2    1.07    0.17
   7  -2   2    0.80    0.21
   7   2   2    1.29    0.18
   7   2   2    1.27    0.29
  -7   2  -2    1.25    0.21
   8  -2   2    0.52    0.15
  -8  -2  -2    0.62    0.15
   8  -2   2    0.58    0.13
  -8   2  -2    0.61    0.14
   8   2   2    0.44    0.13
   8   2   2    0.75    0.19
   8  -3  -2    0.01    0.09
  -8  -3   2    0.14    0.13
   8   3  -2    0.03    0.08
  -8   3   2    0.01    0.09
   8   3  -2   -0.05    0.12
   7  -3  -2   18.49    0.70
   7   3  -2   18.34    0.69
  -7   3   2   17.56    0.73
   7   3  -2   18.50    0.71
   6  -3  -2    1.85    0.20
   6   3  -2    1.96    0.21
   6   3  -2    1.68    0.19
  -6   3   2    2.00    0.24
   5  -3  -2   54.47    1.88
   5   3  -2   56.51    1.88
   5   3  -2   53.93    1.87
  -5   3   2   56.59    1.91
   5   3  -2   54.86    1.90
  -4  -3   2    0.30    0.14
   4   3  -2   -0.03    0.15
  -4   3   2    0.02    0.13
  -4   3   2    0.32    0.14
   3  -3  -2   54.19    1.88
  -3  -3   2   55.70    1.89
   3   3  -2   54.92    1.90
  -3   3   2   55.97    1.88
  -2  -3   2    0.83    0.09
   2  -3  -2    0.80    0.09
  -2   3   2    0.82    0.09
   2   3  -2    0.76    0.10
  -1  -3   2   65.25    2.21
   1  -3  -2   68.58    2.23
   1   3  -2   67.50    2.21
   0  -3   2    4.91    0.17
   0  -3  -2    4.63    0.20
   1  -3   2   15.27    0.51
  -1  -3  -2   13.95    0.55
   1  -3   2   16.54    0.51
   1   3   2   15.52    0.56
   2  -3   2   13.21    0.43
  -2  -3  -2   10.50    0.47
   2   3   2   12.39    0.48
  -2   3  -2   12.19    0.43
   3  -3   2   49.02    1.64
  -3  -3  -2   49.03    1.70
  -3   3  -2   47.64    1.64
   4  -3   2   43.18    1.47
   4  -3   2   41.65    1.49
   4   3   2   41.44    1.50
   4   3   2   43.91    1.50
   4   3   2   43.24    1.47
   5  -3   2   11.97    0.54
   5  -3   2   11.82    0.55
   5  -3   2   11.79    0.50
   5   3   2   12.21    0.53
   5   3   2   12.39    0.51
   5   3   2   12.68    0.55
   5   3   2   11.86    0.54
   6  -3   2    1.52    0.25
   6  -3   2    1.43    0.20
   6  -3   2    1.34    0.29
   6   3   2    0.75    0.19
   6   3   2    1.09    0.22
   6   3   2    1.32    0.26
  -6   3  -2    1.02    0.23
   6   3   2    1.05    0.28
   7  -3   2    5.15    0.28
   7  -3   2    5.59    0.33
  -7   3  -2    4.91    0.31
   7   3   2    5.02    0.29
  -8  -3  -2    1.16    0.16
   8  -3   2    0.86    0.12
   8   3   2    0.87    0.13
  -8   3  -2    0.58    0.15
   8  -4  -2    5.65    0.27
   8   4  -2    5.45    0.27
  -8   4   2    5.37    0.29
   7  -4  -2    4.05    0.25
   7   4  -2    3.80    0.27
   7   4  -2    4.64    0.27
  -7   4   2    3.78    0.29
   6  -4  -2   11.50    0.50
   6   4  -2   11.93    0.51
   6   4  -2   11.20    0.50
  -6   4   2   11.98    0.53
   5  -4  -2   26.57    0.95
   5   4  -2   25.20    0.98
  -5   4   2   25.97    0.97
   5   4  -2   25.58    0.94
   5   4  -2   27.09    0.95
   4  -4  -2    2.12    0.22
  -4   4   2    2.29    0.24
   4   4  -2    2.13    0.19
  -4   4   2    1.90    0.32
  -3  -4   2   13.40    0.55
  -3  -4   2   12.73    0.50
   3  -4  -2   13.05    0.54
  -3   4   2   13.19    0.54
  -3   4   2   13.67    0.50
  -2  -4   2   15.90    0.60
  -2  -4   2   14.76    0.57
   2  -4  -2   16.62    0.60
  -2   4   2   17.23    0.61
  -2   4   2   15.35    0.57
   2   4  -2   16.00    0.60
  -1  -4   2    3.69    0.17
   1  -4  -2    3.73    0.19
   1   4  -2    3.68    0.18
   0  -4  -2    7.98    0.33
   0  -4   2    7.66    0.28
   0  -4  -2    7.56    0.31
   1  -4   2   39.73    1.26
   1  -4   2   37.61    1.26
  -1  -4  -2   37.98    1.32
   2  -4   2    1.19    0.09
  -2  -4  -2    1.25    0.15
   2   4   2    1.12    0.15
  -3  -4  -2   10.23    0.50
  -3   4  -2   10.80    0.43
   4  -4   2   61.11    2.14
   4  -4   2   64.12    2.10
   4  -4   2   62.76    2.13
   4   4   2   60.82    2.12
  -4   4  -2   61.83    2.12
   4   4   2   63.02    2.10
   4   4   2   61.11    2.12
   5  -4   2   32.57    1.17
   5  -4   2   31.84    1.20
   5  -4   2   31.53    1.19
   5   4   2   33.34    1.19
   5   4   2   33.88    1.20
  -5   4  -2   32.65    1.20
   5   4   2   33.79    1.18
   6  -4   2   28.03    1.07
   6  -4   2   27.98    1.04
   6   4   2   28.88    1.06
  -6   4  -2   29.51    1.09
   6   4   2   28.39    1.06
   6   4   2   28.18    1.04
   7  -4   2    4.06    0.24
   7   4   2    4.15    0.25
  -7   4  -2    3.84    0.28
   8  -4   2    0.00    0.07
  -8  -4  -2    0.12    0.10
   8   4   2   -0.05    0.06
  -8   4  -2    0.00    0.08
   8  -5  -2    0.42    0.12
   8   5  -2    0.34    0.12
   7  -5  -2   14.06    0.55
  -7   5   2   14.15    0.59
   7   5  -2   13.53    0.56
   6  -5  -2    7.10    0.37
   6   5  -2    7.10    0.36
  -6   5   2    7.13    0.40
   5  -5  -2   27.56    1.03
  -5   5   2   29.00    1.07
   5   5  -2   27.72    1.07
   5   5  -2   29.55    1.04
  -5   5   2   29.46    1.05
   4  -5  -2    1.06    0.24
   4   5  -2    1.53    0.18
  -4   5   2    1.70    0.24
  -3  -5   2   22.76    0.79
  -3  -5   2   21.56    0.86
  -3   5   2   22.46    0.87
   2  -5  -2   45.73    1.57
  -2  -5   2   45.64    1.52
  -2  -5   2   45.08    1.56
   2   5  -2   44.77    1.57
   1  -5  -2    1.28    0.14
  -1  -5   2    1.60    0.12
   1  -5  -2    1.46    0.14
   1   5  -2    1.50    0.14
   0  -5   2  210.48    6.65
   0  -5   2  205.16    6.66
   0  -5  -2  204.46    6.69
   0  -5   2  196.53    6.64
  -1  -5  -2   53.13    1.82
   1  -5   2   51.71    1.74
   1  -5   2   52.06    1.76
   1  -5   2   54.93    1.74
   2  -5   2    1.52    0.11
   2  -5   2    1.48    0.14
  -2  -5  -2    1.57    0.16
  -2  -5  -2    1.56    0.19
   3   5   2    2.19    0.42
   4  -5   2    0.76    0.21
  -4   5  -2    0.99    0.19
   5  -5   2   19.25    0.72
  -5   5  -2   19.35    0.76
   5   5   2   18.48    0.74
   5   5   2   17.74    0.74
   5   5   2   18.20    0.72
   6  -5   2    4.90    0.30
   6   5   2    5.65    0.37
   6   5   2    5.70    0.33
  -6   5  -2    5.54    0.35
   6   5   2    5.83    0.32
   7  -5   2    1.43    0.16
  -7   5  -2    1.51    0.20
  -7   5  -2    1.31    0.19
   7   5   2    1.30    0.15
  -8  -5  -2    2.06    0.24
   8  -5   2    2.60    0.15
   8   5   2    2.32    0.15
  -8   5  -2    2.42    0.17
   8  -6  -2    0.03    0.09
   8   6  -2   -0.09    0.06
  -8   6   2    0.05    0.07
   7  -6  -2    1.65    0.18
   7   6  -2    1.73    0.17
  -7   6   2    1.76    0.20
   6  -6  -2    7.01    0.35
   6   6  -2    6.74    0.34
  -6   6   2    6.24    0.37
  -6   6   2    6.45    0.38
   5  -6  -2    1.22    0.23
  -5   6   2    1.07    0.23
   5   6  -2    0.76    0.16
  -5   6   2    0.75    0.20
   4  -6  -2    1.76    0.28
  -4  -6   2    2.84    0.23
  -4   6   2    2.31    0.23
  -4   6   2    2.17    0.25
   4   6  -2    2.38    0.20
  -3  -6   2    0.84    0.14
  -3   6   2    0.89    0.22
  -3   6   2    1.24    0.23
   3   6  -2    0.84    0.18
   2  -6  -2    1.39    0.24
  -2  -6   2    2.08    0.21
  -2  -6   2    1.77    0.15
   1  -6  -2  122.39    3.98
  -1  -6   2  118.22    3.92
   1  -6  -2  122.81    3.97
  -1  -6   2  114.49    3.94
   0  -6   2    4.95    0.23
   0  -6   2    5.19    0.25
   0  -6  -2    4.85    0.28
   0  -6  -2    4.70    0.32
   0  -6   2    5.01    0.23
  -1  -6  -2    3.85    0.20
   1  -6   2    3.96    0.20
  -1  -6  -2    3.92    0.28
  -2  -6  -2    1.46    0.26
  -2  -6  -2    1.54    0.17
   2  -6   2    1.95    0.15
   3  -6   2    0.59    0.17
   3  -6   2    0.36    0.12
   3   6   2    0.39    0.15
  -3   6  -2    0.42    0.19
   3   6   2    0.45    0.15
   3   6   2    0.17    0.15
   4  -6   2    0.50    0.14
   4   6   2    0.82    0.20
   4   6   2    0.78    0.22
   4   6   2    0.69    0.24
  -4   6  -2    0.55    0.17
   5  -6   2   15.08    0.61
   5   6   2   14.12    0.63
  -5   6  -2   14.49    0.64
   5   6   2   15.47    0.63
   5   6   2   14.88    0.60
   6  -6   2    0.24    0.11
  -6   6  -2    0.25    0.13
   6   6   2    0.12    0.17
   6   6   2    0.18    0.10
   6   6   2    0.71    0.20
   7  -6   2    0.30    0.09
  -7   6  -2    0.69    0.16
   7   6   2    0.41    0.13
  -7   6  -2    0.49    0.18
   8  -6   2    0.51    0.12
  -8   6  -2    0.49    0.13
   8   6   2    0.73    0.12
   8   7  -2    0.41    0.10
  -8   7   2    0.22    0.08
   7  -7  -2    0.50    0.17
  -7   7   2    0.24    0.10
   7   7  -2    0.33    0.12
   6  -7  -2    5.37    0.32
  -6   7   2    5.39    0.33
   6   7  -2    5.92    0.30
  -6   7   2    6.00    0.34
   5  -7  -2    0.35    0.18
  -5   7   2   -0.10    0.12
  -5   7   2    0.26    0.14
   5   7  -2    0.14    0.10
  -4  -7   2    2.13    0.24
   4  -7  -2    1.85    0.21
  -4   7   2    1.77    0.23
  -4   7   2    1.64    0.22
   4   7  -2    2.03    0.19
  -3  -7   2    0.30    0.10
  -3   7   2    0.19    0.12
  -3   7   2    0.32    0.12
   3   7  -2    0.31    0.12
   3   7  -2    0.39    0.23
  -2  -7   2    6.18    0.28
  -2  -7   2    5.61    0.42
  -2   7   2    6.42    0.36
  -2   7   2    6.06    0.33
   1  -7  -2    0.54    0.24
  -1  -7   2    0.59    0.11
  -1  -7   2    0.72    0.20
  -1   7   2    0.95    0.19
   0  -7   2   29.26    0.99
   0  -7  -2   27.91    1.07
   0  -7  -2   29.16    0.99
   0   7   2   27.26    1.02
   1  -7   2    8.18    0.34
  -1  -7  -2    7.91    0.35
  -1   7  -2    8.60    0.40
   1   7   2    7.90    0.38
  -2  -7  -2    0.48    0.14
   2  -7   2    0.21    0.09
   2   7   2    0.06    0.12
  -2   7  -2    0.19    0.10
  -2   7  -2    0.24    0.21
   3  -7   2    1.67    0.29
   3  -7   2    1.71    0.19
  -3  -7  -2    1.89    0.22
   3   7   2    1.51    0.22
   3   7   2    1.10    0.26
  -3   7  -2    1.12    0.28
   3   7   2    2.01    0.27
   4  -7   2   23.67    0.88
   4   7   2   23.36    0.87
   4   7   2   23.68    0.90
   4   7   2   23.22    0.89
  -4   7  -2   23.35    0.91
   5  -7   2    7.39    0.37
   5   7   2    7.54    0.37
  -5   7  -2    7.00    0.38
  -5   7  -2    7.17    0.40
   5   7   2    7.76    0.40
   5   7   2    7.44    0.41
   6  -7   2    1.43    0.17
   6   7   2    1.45    0.21
   6   7   2    1.02    0.28
  -6   7  -2    1.42    0.19
   6   7   2    1.43    0.17
  -6   7  -2    1.44    0.21
   7  -7   2   -0.08    0.09
   7   7   2    0.01    0.08
  -7   7  -2    0.13    0.11
   7   8  -2    0.05    0.07
  -7   8   2    0.10    0.08
  -6   8   2    0.55    0.20
  -6   8   2    0.56    0.16
   6   8  -2    0.31    0.10
  -5   8   2   26.12    0.96
  -5   8   2   24.26    0.93
   5   8  -2   24.70    0.91
   4  -8  -2   21.83    0.79
  -4  -8   2   21.01    0.79
  -4   8   2   21.36    0.83
   4   8  -2   20.48    0.79
  -4   8   2   20.76    0.81
   3  -8  -2    3.86    0.24
  -3  -8   2    3.59    0.23
   3   8  -2    3.45    0.24
  -3   8   2    3.64    0.29
   3   8  -2    3.52    0.34
  -3   8   2    3.33    0.26
   2  -8  -2    1.80    0.17
  -2  -8   2    1.99    0.17
   2   8  -2    2.01    0.25
   2   8  -2    1.99    0.26
  -2   8   2    2.04    0.21
  -2   8   2    1.90    0.25
   1  -8  -2   14.55    0.54
  -1  -8   2   14.09    0.54
   1   8  -2   13.76    0.58
  -1   8   2   12.70    0.59
  -1   8   2   13.88    0.56
   0  -8   2    8.40    0.36
   0  -8  -2    8.35    0.36
   0   8   2    8.29    0.39
   0   8   2    7.74    0.44
   0   8  -2    8.30    0.40
  -1  -8  -2    0.36    0.13
   1  -8   2    0.58    0.13
   1   8   2    0.22    0.12
  -1   8  -2    0.30    0.12
   1   8   2    0.33    0.18
   2  -8   2   17.57    0.66
  -2  -8  -2   17.89    0.67
   2   8   2   16.76    0.71
   2   8   2   18.20    0.70
  -2   8  -2   18.16    0.70
   3  -8   2   48.35    1.65
  -3  -8  -2   48.75    1.66
   3   8   2   48.15    1.69
  -3   8  -2   48.56    1.69
   3   8   2   49.22    1.70
  -3   8  -2   46.85    1.70
   4  -8   2    0.89    0.28
   4   8   2    1.27    0.23
   4   8   2    1.42    0.24
  -4   8  -2    1.14    0.21
  -4   8  -2    1.31    0.27
   4   8   2    1.65    0.29
   5  -8   2    4.23    0.29
   5   8   2    4.27    0.30
   5   8   2    4.26    0.27
   5   8   2    3.91    0.31
  -5   8  -2    4.35    0.29
  -5   8  -2    4.38    0.31
   6  -8   2    0.15    0.12
  -6   8  -2    0.07    0.09
   6   8   2    0.18    0.10
   6   8   2   -0.22    0.14
  -6   8  -2    0.12    0.11
   7   8   2    0.05    0.09
  -7   8  -2    0.06    0.11
  -7   8  -2   -0.20    0.10
  -7   9   2    0.62    0.14
   7   9  -2    0.40    0.13
  -6   9   2    1.97    0.20
   6   9  -2    1.98    0.17
  -6   9   2    2.21    0.20
  -5   9   2    2.91    0.24
  -5   9   2    2.55    0.23
   5   9  -2    2.94    0.21
   4  -9  -2   55.83    1.98
  -4  -9   2   56.09    1.99
  -4   9   2   59.28    2.01
  -4   9   2   61.35    2.03
   4   9  -2   59.55    1.99
   3  -9  -2    4.65    0.27
  -3  -9   2    4.47    0.27
  -3   9   2    4.62    0.33
   3   9  -2    4.66    0.29
  -3   9   2    4.13    0.29
   3   9  -2    4.38    0.32
  -2  -9   2   14.16    0.54
   2  -9  -2   13.76    0.54
  -2   9   2   13.35    0.56
  -2   9   2   13.00    0.58
   2   9  -2   13.13    0.57
  -1  -9   2    2.57    0.20
   1  -9  -2    2.46    0.19
   1   9  -2    2.09    0.24
   0  -9  -2   24.71    0.88
   0  -9   2   24.23    0.87
   0   9   2   24.29    0.89
   0   9   2   22.32    0.92
   0   9  -2   24.52    0.90
  -1  -9  -2    2.31    0.19
   1  -9   2    1.95    0.17
   1   9   2    1.78    0.29
   1   9   2    2.12    0.21
  -1   9  -2    1.86    0.22
   2  -9   2  107.51    3.55
  -2  -9  -2  109.39    3.56
  -2   9  -2  102.74    3.58
   2   9   2  110.89    3.59
   2   9   2  105.03    3.58
  -3  -9  -2    0.15    0.14
   3  -9   2    0.19    0.11
   3   9   2   -0.07    0.16
  -3   9  -2    0.04    0.11
   3   9   2   -0.07    0.12
  -3   9  -2    0.33    0.21
  -4   9  -2   25.60    0.99
   4   9   2   26.74    0.98
  -4   9  -2   26.30    0.98
   4   9   2   26.44    0.98
  -5   9  -2    1.38    0.18
   5   9   2    1.45    0.23
  -5   9  -2    1.19    0.23
   5   9   2    1.48    0.25
   5   9   2    1.50    0.20
  -6   9  -2    2.70    0.19
   6   9   2    2.96    0.21
  -6   9  -2    2.75    0.23
   6  10  -2    4.41    0.24
  -6  10   2    4.76    0.25
  -6  10   2    4.58    0.25
  -5  10   2    2.78    0.24
  -5  10   2    2.97    0.21
   5  10  -2    3.22    0.21
   4 -10  -2    1.11    0.19
   4  10  -2    0.79    0.19
  -4  10   2    1.30    0.23
  -4  10   2    1.63    0.19
  -3 -10   2    9.92    0.45
   3 -10  -2    9.93    0.45
   3  10  -2   10.13    0.49
  -3  10   2   11.03    0.48
  -3  10   2   11.32    0.50
   2 -10  -2    1.28    0.16
  -2 -10   2    1.49    0.16
  -2  10   2    1.19    0.27
   2  10  -2    1.35    0.25
  -2  10   2    1.13    0.19
  -1 -10   2   11.28    0.45
   1 -10  -2   10.65    0.45
  -1  10   2   10.22    0.50
  -1  10   2    9.88    0.47
   1  10  -2    9.99    0.47
   0 -10   2    3.94    0.24
   0 -10  -2    4.05    0.24
   0  10   2    3.36    0.26
   0  10  -2    3.93    0.28
   0  10   2    3.00    0.33
   1 -10   2    4.71    0.27
  -1 -10  -2    4.90    0.27
  -1  10  -2    4.69    0.31
   1  10   2    4.94    0.36
   1  10   2    4.55    0.30
  -2 -10  -2    0.53    0.17
   2 -10   2    0.45    0.15
   2  10   2    0.73    0.20
  -2  10  -2    0.45    0.13
   2  10   2    0.76    0.27
  -3 -10  -2   14.96    0.62
   3 -10   2   14.09    0.60
   3  10   2   16.39    0.66
   3  10   2   16.14    0.64
  -3  10  -2   16.37    0.64
  -4  10  -2   11.41    0.48
  -4  10  -2   10.22    0.61
   4  10   2   11.90    0.49
   5  10   2    2.45    0.25
  -5  10  -2    2.44    0.19
  -6  10  -2    0.27    0.08
  -5  11   2    4.60    0.26
  -5  11   2    4.20    0.23
   4 -11  -2    0.13    0.14
  -4  11   2    0.20    0.12
  -4  11   2    0.00    0.08
   3 -11  -2    0.09    0.10
  -3 -11   2    0.39    0.12
   3  11  -2    0.21    0.16
  -3  11   2    0.46    0.15
  -3  11   2    0.23    0.13
   2 -11  -2    3.36    0.23
  -2 -11   2    3.08    0.22
  -2  11   2    3.87    0.26
  -2  11   2    3.97    0.30
   2  11  -2    4.02    0.28
   1 -11  -2    1.56    0.18
  -1 -11   2    1.85    0.17
   1  11  -2    1.66    0.21
  -1  11   2    1.71    0.27
  -1  11   2    1.85    0.19
   0 -11   2   13.91    0.59
   0 -11  -2   13.92    0.60
   0  11   2   16.19    0.62
   0  11   2   15.70    0.65
   0  11  -2   16.02    0.62
  -1 -11  -2    0.68    0.15
   1 -11   2    0.91    0.14
   1  11   2    0.73    0.18
  -1  11  -2    1.26    0.20
   1  11   2    0.33    0.18
   2 -11   2    0.42    0.14
  -2  11  -2    0.63    0.17
   2  11   2    0.56    0.18
   3 -11   2    8.83    0.41
   3  11   2    9.82    0.43
  -3  11  -2    9.96    0.43
  -4  11  -2    0.79    0.14
   4  11   2    1.17    0.18
  -5  11  -2    0.37    0.12
  -5  12   2   -0.13    0.08
  -4  12   2    2.33    0.24
  -4  12   2    2.11    0.16
  -3 -12   2    4.95    0.29
   3 -12  -2    5.09    0.27
  -3  12   2    5.10    0.26
  -3  12   2    4.35    0.30
  -2 -12   2    1.07    0.16
   2 -12  -2    1.22    0.15
  -2  12   2    1.20    0.16
   2  12  -2    0.95    0.21
   1 -12  -2    4.56    0.26
  -1 -12   2    4.57    0.25
   1  12  -2    4.65    0.28
  -1  12   2    4.45    0.33
  -1  12   2    4.41    0.25
   0 -12  -2    3.73    0.24
   0 -12   2    3.41    0.22
   0  12  -2    3.83    0.25
   0  12   2    4.09    0.25
   1 -12   2    7.43    0.35
  -1 -12  -2    7.96    0.36
   1  12   2    7.83    0.37
  -1  12  -2    8.13    0.37
  -2 -12  -2    0.37    0.13
   2 -12   2    0.29    0.10
  -2  12  -2    0.44    0.14
   2  12   2    0.41    0.14
   3 -12   2    3.68    0.30
   3  12   2    3.38    0.22
  -3  12  -2    3.26    0.21
   4  12   2    0.62    0.20
  -4  13   2    0.06    0.07
  -3  13   2    1.46    0.13
   2 -13  -2    1.16    0.15
  -2 -13   2    1.30    0.17
  -2  13   2    1.07    0.13
   2  13  -2    1.15    0.22
  -1 -13   2    0.13    0.09
   1 -13  -2    0.03    0.08
   1  13  -2    0.24    0.10
  -1  13   2    0.11    0.07
   0 -13  -2    2.52    0.19
   0 -13   2    2.68    0.18
   0  13   2    2.53    0.19
   0  13  -2    2.27    0.18
  -1 -13  -2    0.23    0.10
   1 -13   2    0.15    0.09
  -1  13  -2    0.09    0.08
   1  13   2    0.04    0.07
  -2 -13  -2    0.52    0.18
   2 -13   2    0.31    0.12
   2  13   2    0.36    0.13
  -2  13  -2    0.43    0.11
   3  13   2    0.07    0.09
  -3  13  -2    0.02    0.06
  -2  14   2    1.93    0.14
   1  14  -2    0.93    0.21
  -1  14   2    1.39    0.13
   0 -14   2    0.31    0.11
   0  14  -2    0.06    0.08
   0  14   2    0.10    0.06
  -1  14  -2   -0.01    0.07
   1  14   2    0.09    0.07
  -2  14  -2    0.99    0.12
   9   0  -3    0.01    0.07
   8   0  -3    0.18    0.13
   8   0  -3    0.00    0.08
  -8   0   3   -0.04    0.11
  -7   0   3    0.12    0.13
   7   0  -3    0.26    0.14
   7   0  -3    0.09    0.10
   6   0  -3   -0.05    0.09
   6   0  -3    0.01    0.12
   5   0  -3   54.39    1.91
   5   0  -3   58.28    1.91
  -3   0   3  137.49    4.54
   3   0  -3  138.59    4.55
  -2   0   3    0.41    0.06
   2   0  -3    0.56    0.07
  -1   0   3   40.86    1.35
   0   0  -3    0.03    0.02
  -1   0  -3   97.77    3.28
   1   0   3  103.18    3.31
  -2   0  -3    0.36    0.06
   2   0   3    0.32    0.06
  -3   0  -3  263.63    8.46
   3   0   3  254.66    8.45
   4   0   3    0.13    0.13
   4   0   3    0.20    0.19
   4   0   3   -0.08    0.14
  -4   0  -3    0.06    0.15
   5   0   3   57.23    1.91
   5   0   3   54.63    1.92
   5   0   3   55.73    1.93
   5   0   3   55.23    1.90
   6   0   3    0.04    0.14
   6   0   3    0.06    0.12
   6   0   3    0.03    0.12
   7   0   3   22.85    0.88
   7   0   3   24.39    0.91
   7   0   3   25.55    0.90
   8   0   3    0.16    0.09
  -8   0  -3    0.01    0.09
   8   0   3    0.00    0.09
   9  -1  -3    2.58    0.15
  -9   1   3    2.18    0.20
   9   1  -3    2.28    0.16
   8  -1  -3    3.85    0.22
  -8  -1   3    3.76    0.26
   8   1  -3    3.76    0.24
  -8   1   3    4.05    0.26
   8   1  -3    3.37    0.22
   7  -1  -3   18.04    0.72
   7  -1  -3   17.79    0.70
  -7  -1   3   18.34    0.73
   7   1  -3   18.09    0.70
  -7   1   3   18.20    0.74
   7   1  -3   19.06    0.71
   6  -1  -3    3.02    0.30
   6  -1  -3    3.68    0.24
   6   1  -3    3.92    0.24
  -6   1   3    3.73    0.29
   6   1  -3    3.56    0.26
   5  -1  -3   69.21    2.26
   5  -1  -3   63.41    2.26
   5   1  -3   69.45    2.25
   5   1  -3   66.09    2.26
  -4  -1   3    8.58    0.42
  -4   1   3    8.45    0.41
   3  -1  -3    1.82    0.14
  -3  -1   3    1.72    0.13
   3   1  -3    1.72    0.15
  -3   1   3    1.71    0.13
   2  -1  -3   67.33    2.18
  -2  -1   3   63.03    2.17
  -2   1   3   64.48    2.18
   2   1  -3   68.11    2.18
  -1  -1   3   51.75    1.73
   1  -1  -3   53.67    1.75
  -1   1   3   51.76    1.75
   1   1  -3   54.05    1.74
   0  -1  -3   70.15    2.36
   0   1  -3   73.52    2.35
  -1  -1  -3   12.36    0.45
   1  -1   3   12.45    0.42
   1   1   3   13.46    0.45
  -1   1  -3   11.54    0.42
  -2  -1  -3   21.95    0.78
   2  -1   3   22.09    0.75
  -2   1  -3   21.68    0.76
   2   1   3   22.47    0.78
  -3  -1  -3   28.29    0.99
   3  -1   3   27.33    0.96
  -3   1  -3   26.57    0.96
   3   1   3   26.74    0.98
   4  -1   3   10.00    0.46
  -4  -1  -3    9.95    0.51
   4  -1   3    9.71    0.43
   4  -1   3    9.12    0.44
   4  -1   3    9.41    0.48
   4   1   3    9.66    0.42
   4   1   3    8.97    0.46
   4   1   3   10.12    0.45
  -4   1  -3    9.47    0.48
   5  -1   3   26.70    0.98
   5  -1   3   27.20    0.99
   5  -1   3   26.87    1.02
   5   1   3   27.44    1.01
   5   1   3   27.63    1.01
   5   1   3   26.73    0.98
   5   1   3   27.07    0.99
   6  -1   3   93.97    3.12
   6  -1   3   93.96    3.13
   6  -1   3   90.00    3.10
   6   1   3   92.69    3.12
   6   1   3   92.00    3.10
   6   1   3   94.39    3.13
   7  -1   3    1.72    0.18
   7  -1   3    1.81    0.22
   7  -1   3    1.66    0.21
   7   1   3    1.77    0.24
   7   1   3    1.58    0.19
   7   1   3    1.84    0.19
   8  -1   3    0.76    0.16
   8  -1   3    0.51    0.12
  -8   1  -3    0.43    0.14
   8   1   3    0.38    0.09
   8   1   3    0.26    0.10
   9  -2  -3    0.82    0.10
  -9   2   3    1.06    0.16
  -8  -2   3    5.95    0.33
   8  -2  -3    6.08    0.29
   8   2  -3    6.79    0.31
   8   2  -3    6.25    0.29
  -8   2   3    5.99    0.32
   7  -2  -3    4.64    0.27
  -7  -2   3    3.96    0.32
  -7   2   3    4.46    0.31
   7   2  -3    4.65    0.28
   7   2  -3    4.45    0.27
   6  -2  -3    9.59    0.41
   6   2  -3    9.14    0.42
   6   2  -3    8.64    0.40
  -6   2   3    9.10    0.45
   5  -2  -3    0.94    0.17
   5   2  -3    1.19    0.18
  -5   2   3    0.83    0.21
   5   2  -3    0.84    0.20
  -4  -2   3   68.35    2.32
  -4   2   3   66.29    2.31
  -3  -2   3    4.83    0.25
   3  -2  -3    5.06    0.26
   3   2  -3    4.85    0.26
  -3   2   3    5.04    0.25
   2  -2  -3  301.80    9.48
  -2  -2   3  280.49    9.43
  -2   2   3  274.23    9.43
   2   2  -3  284.49    9.44
  -1  -2   3  469.13   15.49
   1  -2  -3  501.83   15.62
   1   2  -3  460.69   15.51
  -1   2   3  464.61   15.57
   0  -2  -3    1.80    0.10
   0  -2  -3    1.75    0.11
   1   2   3   11.48    0.43
  -2  -2  -3    7.59    0.32
   2  -2   3    7.79    0.27
  -2   2  -3    7.07    0.27
   2   2   3    6.68    0.31
   3  -2   3   25.17    0.83
  -3  -2  -3   22.93    0.87
   3   2   3   21.38    0.87
  -3   2  -3   24.05    0.83
   4  -2   3    3.38    0.24
   4  -2   3    2.73    0.28
   4  -2   3    3.09    0.28
   4   2   3    2.67    0.24
   4   2   3    2.97    0.26
   4   2   3    2.36    0.29
   5  -2   3    0.41    0.14
   5  -2   3    0.68    0.17
   5  -2   3    0.46    0.15
   5   2   3    0.67    0.25
   5   2   3    0.87    0.24
   5   2   3    0.48    0.12
   5   2   3    0.88    0.20
   6  -2   3    0.31    0.16
   6  -2   3   -0.15    0.11
   6  -2   3   -0.12    0.13
   6   2   3    0.24    0.16
   6   2   3    0.03    0.15
   6   2   3    0.14    0.13
   6   2   3   -0.12    0.12
   7  -2   3    2.03    0.22
   7  -2   3    2.04    0.18
   7   2   3    1.86    0.19
   7   2   3    1.84    0.20
  -7   2  -3    1.85    0.22
   7   2   3    2.23    0.25
  -8  -2  -3    0.37    0.13
   8  -2   3    0.09    0.07
   8  -2   3    0.06    0.13
  -8   2  -3    0.13    0.09
   8   2   3    0.17    0.09
  -9   3   3    0.45    0.14
   8   3  -3    0.06    0.11
   8   3  -3   -0.02    0.08
  -8   3   3    0.08    0.09
   7  -3  -3   32.20    1.14
  -7  -3   3   31.07    1.16
   7   3  -3   32.33    1.15
  -7   3   3   32.66    1.18
   7   3  -3   31.90    1.13
   6  -3  -3    3.57    0.25
   6   3  -3    3.41    0.24
   6   3  -3    3.80    0.24
  -6   3   3    3.58    0.28
   5  -3  -3   32.96    1.15
   5   3  -3   31.91    1.15
  -5   3   3   32.67    1.18
   5   3  -3   32.56    1.15
  -4   3   3   80.70    2.62
  -4   3   3   73.81    2.67
  -4   3   3   82.18    2.73
   4   3  -3   80.81    2.66
  -3  -3   3    5.43    0.26
  -3  -3   3    5.88    0.29
   3  -3  -3    5.79    0.30
  -3   3   3    5.96    0.29
  -3   3   3    5.49    0.25
   3   3  -3    5.29    0.30
   2  -3  -3    0.85    0.10
  -2  -3   3    0.68    0.09
  -2   3   3    0.73    0.10
   2   3  -3    0.82    0.10
   1  -3  -3   61.92    2.01
  -1  -3   3   57.29    1.98
   1   3  -3   61.07    1.98
   0  -3  -3    8.83    0.35
   0  -3  -3    8.80    0.35
   0  -3   3    8.88    0.30
  -1  -3  -3   43.77    1.49
   2  -3   3   59.67    1.86
  -2  -3  -3   57.05    1.93
   2   3   3   54.75    1.93
  -2   3  -3   55.50    1.86
   3  -3   3    3.50    0.20
  -3  -3  -3    3.07    0.26
  -3   3  -3    3.79    0.20
   4  -3   3   26.37    0.96
   4  -3   3   26.94    0.99
   4  -3   3   26.90    0.99
   4   3   3   26.82    0.99
   4   3   3   27.01    0.96
   4   3   3   26.13    0.98
   5  -3   3    9.17    0.44
   5  -3   3    9.05    0.41
   5  -3   3    8.53    0.44
   5   3   3    8.57    0.43
   5   3   3    8.18    0.44
   5   3   3    8.60    0.41
   5   3   3    9.40    0.45
   6  -3   3   14.70    0.63
   6  -3   3   14.94    0.61
   6  -3   3   15.00    0.63
   6   3   3   14.46    0.62
  -6   3  -3   14.57    0.65
   6   3   3   14.71    0.61
   6   3   3   16.09    0.64
   7  -3   3    3.65    0.28
   7  -3   3    3.62    0.23
   7   3   3    3.21    0.23
   7   3   3    3.86    0.30
  -7   3  -3    3.39    0.26
  -8  -3  -3    0.66    0.14
   8  -3   3    0.67    0.11
  -8   3  -3    0.50    0.14
   8   3   3    0.47    0.12
   8  -4  -3    5.74    0.28
   8   4  -3    5.82    0.28
  -8   4   3    6.05    0.30
   7  -4  -3    4.80    0.27
   7   4  -3    3.94    0.26
  -7   4   3    4.26    0.30
   7   4  -3    4.24    0.26
   6  -4  -3    5.35    0.31
   6   4  -3    5.26    0.32
  -6   4   3    5.44    0.35
   6   4  -3    5.17    0.31
   5  -4  -3    5.29    0.30
   5   4  -3    5.67    0.29
   5   4  -3    5.30    0.31
  -5   4   3    5.79    0.33
  -4  -4   3    1.90    0.22
  -4   4   3    1.54    0.16
  -4   4   3    1.99    0.23
  -3  -4   3   38.86    1.34
  -3  -4   3   36.66    1.28
  -3   4   3   37.68    1.28
  -3   4   3   37.81    1.35
  -2  -4   3   17.81    0.66
  -2  -4   3   18.34    0.65
   2  -4  -3   18.85    0.69
   2   4  -3   18.16    0.68
  -2   4   3   18.47    0.65
  -2   4   3   18.04    0.69
  -1  -4   3  334.64   11.03
  -1  -4   3  301.05   10.90
   1  -4  -3  364.63   11.17
   1   4  -3  351.62   11.10
  -1   4   3  330.25   10.90
   0  -4  -3   13.71    0.52
   0  -4  -3   13.71    0.53
   0  -4   3   13.52    0.47
   0  -4   3   14.23    0.47
  -1  -4  -3  155.99    5.13
  -2  -4  -3   64.92    2.21
  -3  -4  -3   40.77    1.49
   4  -4   3   50.41    1.83
   4  -4   3   52.85    1.81
   4  -4   3   53.81    1.84
   4   4   3   53.77    1.84
   4   4   3   53.98    1.82
   4   4   3   53.40    1.83
   5  -4   3    3.18    0.25
   5  -4   3    3.38    0.33
   5  -4   3    3.11    0.27
   5   4   3    2.66    0.24
   5   4   3    2.99    0.26
  -5   4  -3    3.04    0.28
   5   4   3    2.90    0.28
   6  -4   3    7.55    0.44
   6  -4   3    7.52    0.37
   6   4   3    7.95    0.40
   6   4   3    8.03    0.39
   6   4   3    7.66    0.42
  -6   4  -3    8.11    0.43
   7  -4   3    4.45    0.25
   7   4   3    4.62    0.32
  -7   4  -3    4.45    0.28
   7   4   3    4.52    0.26
   8  -4   3    0.01    0.06
  -8  -4  -3    0.10    0.09
  -8   4  -3   -0.06    0.07
   8  -5  -3    0.54    0.12
  -8   5   3    0.50    0.14
   8   5  -3    0.49    0.12
   7  -5  -3    7.12    0.34
  -7   5   3    7.53    0.38
   7   5  -3    7.10    0.34
   6  -5  -3    1.90    0.22
   6   5  -3    1.72    0.20
  -6   5   3    1.99    0.25
   5  -5  -3    1.76    0.23
  -5   5   3    2.55    0.25
   5   5  -3    2.48    0.20
  -5   5   3    2.28    0.30
  -4  -5   3    8.19    0.36
   4  -5  -3    7.44    0.39
  -4   5   3    8.24    0.40
   4   5  -3    7.88    0.36
  -4   5   3    8.04    0.41
  -3  -5   3   10.81    0.50
  -3  -5   3   10.82    0.42
  -3   5   3   10.88    0.42
  -3   5   3   10.31    0.52
  -2  -5   3   22.98    0.81
  -2  -5   3   22.66    0.84
   2  -5  -3   22.51    0.87
  -2   5   3   23.15    0.82
   2   5  -3   25.18    0.87
   1  -5  -3    0.60    0.13
   1  -5  -3    0.47    0.14
  -1  -5   3    0.59    0.09
  -1  -5   3    0.63    0.10
  -1   5   3    0.64    0.10
   1   5  -3    0.62    0.11
   0  -5   3    0.29    0.08
   0  -5   3    0.20    0.06
   0  -5   3    0.19    0.06
   0  -5  -3    0.28    0.10
   0  -5  -3    0.20    0.08
   1  -5   3  285.45    9.60
  -1  -5  -3  306.52    9.68
  -2  -5  -3    0.89    0.16
   2  -5   3    1.15    0.13
  -2  -5  -3    1.03    0.21
   3  -5   3    9.36    0.42
   3   5   3    9.55    0.43
   3   5   3    9.24    0.45
   3   5   3    8.72    0.44
   4  -5   3    8.59    0.39
   4  -5   3    7.92    0.50
   4   5   3    8.14    0.41
   4   5   3    8.40    0.39
   4   5   3    8.02    0.42
  -4   5  -3    7.85    0.43
   5  -5   3    9.30    0.44
   5  -5   3    9.65    0.53
   5   5   3   10.20    0.48
   5   5   3    9.96    0.45
   5   5   3   10.54    0.48
  -5   5  -3    9.82    0.49
   6  -5   3   11.37    0.47
   6   5   3   10.57    0.49
  -6   5  -3   11.01    0.51
   6   5   3   11.03    0.47
   6   5   3   10.29    0.49
   7  -5   3    0.17    0.09
  -7   5  -3   -0.02    0.10
  -7   5  -3   -0.08    0.10
   7   5   3    0.03    0.09
   8  -5   3    0.08    0.07
  -8   5  -3   -0.03    0.08
   8   5   3    0.09    0.07
   8  -6  -3    3.33    0.20
   8   6  -3    3.67    0.19
  -8   6   3    3.38    0.20
   7  -6  -3    0.31    0.12
  -7   6   3    0.21    0.10
   7   6  -3    0.24    0.09
   6  -6  -3    4.84    0.30
  -6   6   3    5.06    0.32
   6   6  -3    4.99    0.28
   5  -6  -3    3.67    0.29
  -5   6   3    3.28    0.27
   5   6  -3    3.67    0.24
  -5   6   3    4.33    0.31
  -4  -6   3    0.08    0.12
   4  -6  -3    0.23    0.19
  -4   6   3    0.37    0.14
  -4   6   3    0.24    0.12
   4   6  -3    0.27    0.10
  -3  -6   3    7.09    0.31
  -3   6   3    7.08    0.37
  -2  -6   3    4.22    0.27
  -2  -6   3    4.15    0.21
  -1  -6   3   37.65    1.31
   1  -6  -3   38.51    1.36
  -1  -6   3   38.77    1.30
   0  -6   3   32.53    1.13
   0  -6   3   32.53    1.13
   0  -6  -3   34.66    1.21
   1  -6   3    3.05    0.18
  -1  -6  -3    3.33    0.27
  -2  -6  -3   72.98    2.41
   2  -6   3   74.42    2.41
   2   6   3   72.15    2.45
   2   6   3   70.72    2.46
   3  -6   3    6.69    0.37
  -3   6  -3    6.87    0.46
   3   6   3    7.67    0.38
   3   6   3    7.30    0.40
   3   6   3    7.52    0.39
   4  -6   3    0.78    0.20
   4   6   3    0.75    0.20
   4   6   3    0.75    0.23
   4   6   3    0.98    0.22
   5  -6   3    0.59    0.19
   5   6   3    0.44    0.13
  -5   6  -3    0.64    0.18
   5   6   3    0.64    0.22
   5   6   3    0.72    0.23
   6   6   3    1.18    0.20
   6   6   3    0.92    0.18
   6   6   3    0.72    0.23
   7  -6   3    0.19    0.09
  -7   6  -3    0.51    0.16
  -7   6  -3    0.15    0.10
   7   6   3    0.08    0.08
  -8   7   3   -0.01    0.07
   8   7  -3    0.06    0.06
   7  -7  -3    1.02    0.19
  -7   7   3    0.54    0.15
   7   7  -3    0.85    0.13
   6  -7  -3    0.99    0.23
   6   7  -3    1.18    0.17
  -6   7   3    1.14    0.20
   5  -7  -3    6.81    0.43
  -5   7   3    7.34    0.39
   5   7  -3    6.46    0.35
  -5   7   3    7.42    0.39
  -4  -7   3    6.00    0.32
  -4   7   3    5.74    0.33
   4   7  -3    5.22    0.29
  -4   7   3    5.08    0.32
  -3  -7   3    3.31    0.22
  -3   7   3    2.96    0.27
  -3   7   3    3.42    0.27
   3   7  -3    3.03    0.23
  -2  -7   3   15.47    0.57
  -2   7   3   15.10    0.60
  -2   7   3   14.07    0.61
   1  -7  -3    4.83    0.38
  -1  -7   3    5.00    0.24
  -1   7   3    5.26    0.30
  -1   7   3    4.88    0.33
   0  -7   3   29.31    0.97
   0  -7  -3   28.43    1.07
   0   7   3   29.17    1.00
   0   7   3   23.30    1.01
   1  -7   3   24.81    0.88
  -1  -7  -3   24.54    0.89
  -1   7  -3   24.54    0.92
   1   7   3   27.35    0.92
   1   7   3   23.50    0.94
   2  -7   3   49.29    1.66
  -2  -7  -3   48.88    1.67
   2   7   3   47.83    1.71
   2   7   3   49.82    1.70
  -2   7  -3   50.27    1.71
   3  -7   3    0.68    0.19
   3  -7   3    1.09    0.26
  -3   7  -3    0.53    0.18
   3   7   3    0.63    0.21
   3   7   3    1.28    0.28
   3   7   3    0.54    0.16
   4  -7   3    1.84    0.23
   4   7   3    1.33    0.22
   4   7   3    0.97    0.24
   4   7   3    1.52    0.23
  -4   7  -3    1.48    0.27
   5  -7   3    1.14    0.20
   5   7   3    0.88    0.19
   5   7   3    0.81    0.16
   5   7   3    1.18    0.21
  -5   7  -3    0.97    0.23
   6  -7   3    6.66    0.31
   6   7   3    5.83    0.35
  -6   7  -3    6.68    0.35
   6   7   3    6.65    0.33
  -6   7  -3    6.56    0.34
   6   7   3    6.44    0.32
   7  -7   3    0.88    0.13
  -7   7  -3    0.77    0.17
  -7   7  -3    0.84    0.16
   7   7   3    0.80    0.13
  -7   8   3    0.46    0.14
   7   8  -3    0.36    0.12
   6   8  -3   18.13    0.68
  -6   8   3   17.97    0.71
  -6   8   3   17.63    0.68
   5   8  -3    6.79    0.34
  -5   8   3    6.85    0.36
  -5   8   3    7.11    0.38
   4  -8  -3    5.38    0.29
  -4  -8   3    5.08    0.30
  -4   8   3    5.02    0.34
  -4   8   3    4.98    0.32
   4   8  -3    4.85    0.29
   3  -8  -3    1.81    0.18
  -3  -8   3    1.62    0.17
   3   8  -3    1.56    0.20
  -3   8   3    1.47    0.22
  -3   8   3    1.39    0.21
  -2  -8   3   15.45    0.58
  -2   8   3   15.24    0.60
  -2   8   3   15.21    0.62
   2   8  -3   13.61    0.62
  -1  -8   3    0.38    0.10
  -1   8   3    0.39    0.14
  -1   8   3    0.38    0.11
   1   8  -3    0.16    0.15
   0  -8  -3    7.88    0.36
   0  -8   3    8.35    0.35
   0   8  -3    7.96    0.39
   0   8   3    7.64    0.42
   0   8   3    8.00    0.38
   1  -8   3   14.68    0.57
  -1  -8  -3   14.80    0.58
  -1   8  -3   14.49    0.61
   1   8   3   15.51    0.64
   1   8   3   15.18    0.60
   2  -8   3   26.10    0.93
  -2  -8  -3   26.25    0.94
   2   8   3   25.55    0.98
   2   8   3   25.58    0.96
  -2   8  -3   26.00    0.96
   3  -8   3    3.69    0.36
   3  -8   3    3.79    0.24
  -3   8  -3    3.86    0.37
   3   8   3    4.12    0.32
   3   8   3    4.09    0.30
  -3   8  -3    3.99    0.28
   4  -8   3    2.76    0.29
  -4   8  -3    2.73    0.24
   4   8   3    2.29    0.26
   4   8   3    3.18    0.29
   4   8   3    3.03    0.29
  -4   8  -3    2.31    0.32
   5  -8   3    7.16    0.37
   5   8   3    7.50    0.39
   5   8   3    7.56    0.36
  -5   8  -3    7.66    0.40
  -5   8  -3    8.16    0.39
   5   8   3    7.77    0.38
   6  -8   3    1.26    0.17
  -6   8  -3    1.10    0.16
   6   8   3    1.16    0.17
  -6   8  -3    0.73    0.19
   6   8   3    1.26    0.25
   6   8   3    1.35    0.19
  -7   8  -3    0.03    0.10
  -7   9   3    1.56    0.15
   7   9  -3    1.53    0.13
  -6   9   3    0.64    0.20
   6   9  -3    0.84    0.14
  -6   9   3    0.50    0.15
  -5   9   3   37.92    1.34
  -5   9   3   40.27    1.37
   5   9  -3   36.36    1.32
  -4  -9   3    0.13    0.13
   4  -9  -3    0.47    0.17
  -4   9   3    0.09    0.13
  -4   9   3   -0.10    0.10
   4   9  -3   -0.01    0.10
  -3  -9   3    0.49    0.12
  -3   9   3    0.31    0.12
   3   9  -3    0.35    0.12
  -3   9   3    0.22    0.14
   2  -9  -3    0.04    0.08
  -2  -9   3   -0.03    0.08
   2   9  -3   -0.01    0.14
  -2   9   3   -0.11    0.10
   2   9  -3    0.14    0.15
  -2   9   3    0.08    0.13
  -1  -9   3   49.83    1.71
   1  -9  -3   50.13    1.71
  -1   9   3   49.91    1.74
  -1   9   3   49.73    1.72
   1   9  -3   48.82    1.72
   0  -9   3    6.31    0.30
   0  -9  -3    6.24    0.31
   0   9   3    5.56    0.36
   0   9  -3    6.30    0.34
   0   9   3    6.10    0.33
  -1  -9  -3    8.59    0.38
   1  -9   3    8.62    0.37
  -1   9  -3    8.63    0.40
   1   9   3    8.16    0.40
   1   9   3    7.85    0.43
  -2  -9  -3    2.21    0.21
   2  -9   3    2.11    0.19
  -2   9  -3    2.81    0.24
   2   9   3    2.03    0.23
   2   9   3    2.05    0.27
   3  -9   3    0.17    0.12
   3   9   3    0.16    0.12
  -3   9  -3   -0.02    0.11
   3   9   3    0.12    0.15
  -4   9  -3    4.39    0.28
   4   9   3    4.30    0.28
   4   9   3    4.55    0.31
  -4   9  -3    4.31    0.35
   5   9   3    0.18    0.14
  -5   9  -3    0.16    0.15
   5   9   3   -0.01    0.13
   5   9   3   -0.05    0.11
  -5   9  -3    0.18    0.09
  -6   9  -3    0.06    0.07
   6  10  -3    0.30    0.09
  -6  10   3    0.12    0.10
  -5  10   3    0.00    0.10
   5  10  -3    0.16    0.09
  -5  10   3    0.16    0.09
   4 -10  -3    8.68    0.42
  -4 -10   3    9.27    0.44
   4  10  -3    9.13    0.41
  -4  10   3   10.29    0.45
  -4  10   3    9.65    0.42
  -3 -10   3    7.96    0.38
   3 -10  -3    8.07    0.38
  -3  10   3    8.19    0.42
  -3  10   3    8.89    0.40
  -2 -10   3   21.26    0.83
   2 -10  -3   21.97    0.84
   2  10  -3   22.88    0.87
  -2  10   3   23.00    0.85
  -2  10   3   22.66    0.87
  -1 -10   3    7.39    0.35
   1 -10  -3    7.81    0.36
  -1  10   3    7.04    0.41
   1  10  -3    7.35    0.39
  -1  10   3    7.50    0.38
   0 -10   3    0.37    0.13
   0 -10  -3    0.15    0.10
   0  10   3   -0.02    0.14
   0  10  -3    0.12    0.12
   0  10   3    0.08    0.10
   1 -10   3    4.85    0.26
  -1 -10  -3    3.91    0.27
   1  10   3    4.86    0.31
   1  10   3    5.37    0.36
  -1  10  -3    4.99    0.31
   2 -10   3   10.22    0.44
  -2 -10  -3   10.33    0.45
   2  10   3   10.49    0.50
  -2  10  -3   10.70    0.48
   2  10   3   10.67    0.48
   3 -10   3    1.44    0.20
  -3  10  -3    1.94    0.21
   3  10   3    1.95    0.22
   3  10   3    1.78    0.26
   4  10   3    0.96    0.18
  -4  10  -3    1.18    0.17
   4  10   3    0.88    0.21
  -5  10  -3    1.13    0.15
   5  10   3    1.19    0.19
  -6  10  -3    0.08    0.07
  -5  11   3    0.79    0.16
  -5  11   3    0.84    0.14
   4 -11  -3    8.48    0.38
  -4  11   3    8.18    0.37
  -4  11   3    8.45    0.39
  -3 -11   3    0.53    0.17
   3 -11  -3    0.71    0.16
  -3  11   3    0.58    0.14
  -3  11   3    0.83    0.20
  -2 -11   3    1.40    0.17
   2 -11  -3    1.54    0.17
   2  11  -3    1.85    0.25
  -2  11   3    1.50    0.18
  -2  11   3    1.18    0.22
  -1 -11   3    0.72    0.14
   1 -11  -3    0.71    0.15
   1  11  -3    0.93    0.20
  -1  11   3    0.89    0.17
  -1  11   3    1.18    0.24
   0 -11   3    1.42    0.16
   0 -11  -3    1.31    0.17
   0  11  -3    1.90    0.21
   0  11   3    1.29    0.26
   0  11   3    1.40    0.19
   1 -11   3    0.07    0.09
  -1 -11  -3   -0.01    0.09
   1  11   3    0.07    0.09
  -1  11  -3    0.10    0.10
   1  11   3   -0.04    0.14
  -2 -11  -3    0.41    0.13
   2 -11   3    0.57    0.14
   2  11   3    0.58    0.16
   2  11   3    0.39    0.15
   3 -11   3    1.21    0.22
  -3  11  -3    1.36    0.17
   3  11   3    0.94    0.26
   3  11   3    1.47    0.19
  -4  11  -3    2.34    0.18
   4  11   3    2.15    0.20
  -5  11  -3    0.05    0.07
  -4  12   3    1.24    0.14
  -4  12   3    1.29    0.19
   3 -12  -3    0.29    0.10
  -3 -12   3   -0.02    0.12
  -3  12   3   -0.12    0.11
  -3  12   3    0.18    0.07
   2 -12  -3    0.13    0.09
  -2 -12   3    0.14    0.09
   2  12  -3    0.19    0.14
  -2  12   3    0.20    0.13
  -2  12   3    0.10    0.08
  -1 -12   3    0.23    0.09
   1 -12  -3    0.12    0.08
  -1  12   3    0.00    0.13
   1  12  -3    0.03    0.11
  -1  12   3    0.05    0.08
   0 -12  -3    7.60    0.35
   0 -12   3    7.21    0.34
   0  12   3    7.39    0.36
   0  12  -3    7.41    0.36
   0  12   3    7.67    0.39
   1 -12   3    1.34    0.16
  -1 -12  -3    1.39    0.17
   1  12   3    1.38    0.26
  -1  12  -3    1.04    0.16
   1  12   3    1.30    0.16
  -2 -12  -3   -0.03    0.12
   2 -12   3   -0.03    0.10
  -2  12  -3    0.00    0.08
   2  12   3    0.11    0.09
  -3  12  -3    0.04    0.07
   3  12   3   -0.02    0.08
   4  12   3    3.14    0.21
  -4  12  -3    3.06    0.18
  -4  13   3    0.34    0.12
  -3  13   3    0.11    0.06
   2 -13  -3    0.28    0.10
  -2 -13   3    0.28    0.11
  -2  13   3    0.36    0.11
   1 -13  -3    0.37    0.13
  -1  13   3    0.20    0.08
   0 -13  -3   -0.02    0.09
   0 -13   3    0.07    0.09
   0  13  -3    0.16    0.09
   0  13   3    0.02    0.07
  -1 -13  -3    2.05    0.19
   1 -13   3    1.70    0.18
   1  13   3    2.31    0.16
  -1  13  -3    1.85    0.16
   2 -13   3    0.03    0.15
  -2  13  -3    0.04    0.07
   2  13   3    0.10    0.08
   3  13   3    2.03    0.17
  -3  13  -3    1.92    0.14
  -2  14   3    1.68    0.13
  -1  14   3    1.53    0.13
   0  14   3    0.04    0.06
   0  14  -3    0.11    0.10
  -1  14  -3    0.77    0.13
   1  14   3    0.55    0.12
  -2  14  -3    0.70    0.12
   9   0  -4   -0.01    0.07
   8   0  -4    6.88    0.36
  -8   0   4    7.02    0.35
   8   0  -4    6.74    0.32
  -7   0   4    0.00    0.13
   7   0  -4    0.07    0.14
   7   0  -4   -0.02    0.09
  -6   0   4    2.32    0.27
   6   0  -4    2.71    0.25
   6   0  -4    2.55    0.21
   5   0  -4    0.13    0.13
  -4   0   4    5.20    0.31
  -4   0   4    4.88    0.26
  -3   0   4    0.22    0.09
   0   0  -4  163.61    5.39
  -1   0  -4    0.12    0.04
   2   0   4   55.18    1.79
  -2   0  -4   51.94    1.79
   4   0   4    3.02    0.26
   4   0   4    2.76    0.27
  -4   0  -4    2.74    0.34
   4   0   4    2.97    0.30
   4   0   4    2.92    0.25
   5   0   4   -0.14    0.12
   5   0   4    0.14    0.12
   5   0   4    0.14    0.12
   5   0   4    0.12    0.13
   6   0   4    0.77    0.21
   6   0   4    0.50    0.16
   6   0   4    0.64    0.20
   7   0   4    0.06    0.10
   7   0   4   -0.05    0.10
   7   0   4    0.13    0.12
   8   0   4    1.12    0.15
  -8   0  -4    1.10    0.15
   8   0   4    0.96    0.14
   9  -1  -4    0.33    0.11
   9   1  -4    0.26    0.09
   8  -1  -4    0.27    0.09
  -8  -1   4    0.23    0.14
   8   1  -4    0.49    0.13
   8   1  -4    0.31    0.12
  -8   1   4    0.09    0.11
   7  -1  -4    1.75    0.28
   7  -1  -4    1.22    0.17
  -7  -1   4    0.82    0.25
   7   1  -4    1.67    0.18
  -7   1   4    1.45    0.23
   7   1  -4    1.16    0.21
   6  -1  -4    0.16    0.10
   6  -1  -4   -0.08    0.16
  -6   1   4    0.07    0.14
   6   1  -4    0.16    0.09
   6   1  -4    0.09    0.11
   5  -1  -4    8.58    0.48
   5  -1  -4   10.57    0.42
   5   1  -4    9.94    0.44
  -5   1   4   10.16    0.47
  -4  -1   4    8.26    0.40
  -4  -1   4    7.72    0.34
  -4   1   4    7.71    0.39
  -4   1   4    7.92    0.34
  -3  -1   4    7.66    0.34
   3  -1  -4    7.86    0.35
   3   1  -4    7.50    0.34
  -3   1   4    7.76    0.34
   2  -1  -4   96.72    3.08
  -2  -1   4   91.04    3.07
   2   1  -4   94.30    3.07
  -2   1   4   90.78    3.07
   0  -1  -4  158.72    5.33
   0   1  -4  162.23    5.26
  -1  -1  -4   25.45    0.89
  -1   1  -4   26.77    0.87
  -2   1  -4    0.28    0.06
   2   1   4    0.27    0.08
   3  -1   4    1.63    0.17
  -3  -1  -4    1.29    0.17
   3   1   4    1.34    0.18
  -3   1  -4    1.35    0.15
   4  -1   4    9.89    0.46
   4  -1   4   10.13    0.45
   4  -1   4   10.27    0.50
   4  -1   4    9.84    0.48
  -4  -1  -4    9.41    0.57
   4   1   4   11.22    0.45
   4   1   4   11.07    0.49
   4   1   4   10.91    0.48
   4   1   4   10.65    0.47
   5  -1   4    5.41    0.32
   5  -1   4    5.47    0.34
   5  -1   4    4.54    0.29
   5   1   4    5.13    0.34
   5   1   4    5.45    0.33
   5   1   4    5.05    0.31
   5   1   4    4.66    0.30
   6  -1   4    2.41    0.24
   6  -1   4    2.26    0.26
   6  -1   4    2.29    0.25
   6   1   4    1.61    0.23
   6   1   4    1.66    0.25
   6   1   4    1.42    0.22
   7  -1   4    0.84    0.18
   7  -1   4    0.54    0.15
   7  -1   4    0.57    0.18
   7   1   4    0.45    0.16
   7   1   4    0.75    0.20
   7   1   4    0.72    0.17
  -8  -1  -4    0.12    0.08
   8  -1   4    0.00    0.09
   8  -1   4    0.04    0.08
   8   1   4    0.31    0.13
   8   1   4    0.01    0.07
  -8   1  -4    0.15    0.08
   9  -2  -4    0.84    0.10
  -9   2   4    0.71    0.19
   8  -2  -4    1.76    0.16
  -8  -2   4    1.44    0.26
   8   2  -4    1.82    0.18
  -8   2   4    1.46    0.19
   8   2  -4    1.81    0.17
  -7  -2   4    0.72    0.27
   7  -2  -4    0.79    0.17
   7   2  -4    0.96    0.17
  -7   2   4    0.80    0.22
   7   2  -4    0.69    0.18
   6  -2  -4    3.31    0.23
   6   2  -4    3.07    0.22
  -6   2   4    3.51    0.28
   6   2  -4    3.33    0.25
   5  -2  -4    6.70    0.32
  -5   2   4    6.82    0.37
   5   2  -4    6.17    0.33
  -4  -2   4    1.88    0.20
  -4  -2   4    1.89    0.23
  -4   2   4    1.67    0.22
  -4   2   4    2.01    0.18
   3  -2  -4   11.08    0.47
  -3  -2   4   11.74    0.46
  -3  -2   4   10.92    0.43
   3   2  -4   10.83    0.46
  -3   2   4   11.17    0.46
  -3   2   4   11.54    0.42
  -2  -2   4   99.16    3.41
   2  -2  -4  109.34    3.44
   2   2  -4  106.76    3.42
  -2   2   4  100.60    3.43
  -1  -2   4   10.60    0.39
   1  -2  -4   10.86    0.41
  -1   2   4    9.93    0.41
   1   2  -4   12.37    0.39
   0  -2  -4  104.19    3.40
   0  -2  -4  102.25    3.39
  -1  -2  -4   17.67    0.64
   2  -2   4   92.12    2.83
  -2  -2  -4   74.49    2.88
   2   2   4   92.60    2.89
  -2   2  -4   87.82    2.84
   3  -2   4    4.19    0.24
  -3  -2  -4    5.27    0.30
  -3   2  -4    4.53    0.23
   4  -2   4    0.72    0.18
   4  -2   4    1.10    0.23
   4  -2   4    0.89    0.25
   4   2   4    1.00    0.25
   4   2   4    1.28    0.28
   4   2   4    0.93    0.19
   4   2   4    1.05    0.21
   5  -2   4    1.68    0.22
   5  -2   4    2.18    0.26
   5  -2   4    2.35    0.25
   5   2   4    1.62    0.23
   5   2   4    1.58    0.25
   5   2   4    2.06    0.27
   5   2   4    1.72    0.22
   6  -2   4    0.41    0.15
   6  -2   4    0.59    0.18
   6  -2   4    0.36    0.13
   6   2   4    0.07    0.14
   6   2   4    0.32    0.15
   6   2   4    0.19    0.13
   6   2   4    0.13    0.12
   7  -2   4    3.36    0.22
   7  -2   4    3.09    0.23
  -7   2  -4    2.98    0.24
   7   2   4    3.27    0.23
   7   2   4    2.99    0.25
   7   2   4    3.06    0.22
   8  -2   4    0.10    0.12
   8  -2   4    0.01    0.07
  -8  -2  -4    0.08    0.08
   8   2   4   -0.07    0.07
  -8   2  -4    0.04    0.08
   9  -3  -4    0.28    0.10
   8  -3  -4    0.66    0.13
   8   3  -4    0.52    0.14
  -8   3   4    0.44    0.16
   8   3  -4    0.43    0.11
   7  -3  -4    6.19    0.31
   7   3  -4    5.89    0.31
  -7   3   4    5.97    0.35
   7   3  -4    5.92    0.31
   6  -3  -4    0.15    0.11
  -6   3   4    0.08    0.12
   6   3  -4    0.03    0.10
   6   3  -4    0.10    0.11
   5  -3  -4    1.89    0.19
  -5   3   4    1.69    0.23
   5   3  -4    1.58    0.19
  -4  -3   4    0.75    0.17
  -4   3   4    0.40    0.14
  -4   3   4    0.46    0.11
  -4   3   4    0.52    0.24
  -3  -3   4   65.83    2.14
  -3  -3   4   68.35    2.19
   3  -3  -4   59.07    2.19
   3   3  -4   60.65    2.18
  -3   3   4   65.00    2.13
  -3   3   4   67.27    2.20
   2  -3  -4   15.26    0.58
  -2  -3   4   16.00    0.56
  -2  -3   4   13.03    0.54
  -2   3   4   14.96    0.55
  -2   3   4   16.54    0.59
   2   3  -4   15.80    0.57
  -1  -3   4   11.93    0.43
   1  -3  -4   12.65    0.48
   1   3  -4   12.18    0.44
   0  -3  -4   38.53    1.36
   0  -3  -4   40.60    1.35
  -1  -3  -4  145.15    4.77
  -2  -3  -4    7.24    0.34
   2   3   4    6.84    0.34
  -3  -3  -4    3.27    0.29
   4  -3   4    0.20    0.13
   4  -3   4    0.24    0.13
   4  -3   4    0.16    0.16
   4   3   4    0.21    0.13
   4   3   4    0.29    0.12
   5  -3   4    0.08    0.15
   5  -3   4    0.04    0.11
   5  -3   4    0.14    0.12
   5   3   4    0.05    0.11
   5   3   4    0.34    0.14
   5   3   4    0.08    0.10
   6  -3   4    1.68    0.23
   6  -3   4    1.59    0.24
   6  -3   4    1.77    0.20
   6   3   4    1.78    0.22
   6   3   4    1.16    0.20
  -6   3  -4    1.87    0.24
   6   3   4    2.40    0.25
   7  -3   4    0.84    0.20
   7  -3   4    0.79    0.14
   7   3   4    0.54    0.14
  -7   3  -4    0.93    0.18
   7   3   4    1.26    0.21
   8  -3   4    0.04    0.07
  -8  -3  -4    0.38    0.12
   8   3   4    0.00    0.06
  -8   3  -4    0.09    0.08
   8  -4  -4    1.17    0.14
  -8   4   4    1.50    0.17
   8   4  -4    1.28    0.15
   7  -4  -4    4.00    0.25
   7   4  -4    4.10    0.25
  -7   4   4    3.92    0.28
   7   4  -4    3.35    0.24
   6  -4  -4    3.97    0.27
   6   4  -4    3.85    0.27
  -6   4   4    3.81    0.31
   6   4  -4    4.01    0.27
   5  -4  -4    8.81    0.40
  -5   4   4    9.09    0.44
   5   4  -4    8.93    0.40
  -4  -4   4   91.29    3.05
   4  -4  -4   90.86    3.07
  -4   4   4   93.00    3.06
   4   4  -4   94.05    3.07
  -4   4   4   92.62    3.09
  -3  -4   4   58.90    2.10
  -3  -4   4   61.88    2.05
  -3   4   4   65.65    2.06
  -3   4   4   60.01    2.13
   2  -4  -4    0.89    0.16
  -2  -4   4    0.61    0.11
  -2  -4   4    0.89    0.11
   2   4  -4    0.76    0.13
  -2   4   4    0.82    0.13
   1  -4  -4    4.11    0.23
  -1  -4   4    4.24    0.18
  -1  -4   4    3.99    0.19
   1   4  -4    4.40    0.19
  -1   4   4    3.99    0.20
   0  -4   4  115.38    3.74
   0  -4  -4  115.21    3.80
   0  -4  -4  113.39    3.78
   0   4   4  113.52    3.74
   1  -4   4   59.57    2.04
  -1  -4  -4   63.74    2.10
   2  -4   4  136.10    5.00
  -2  -4  -4  170.65    5.10
   3  -4   4   33.08    1.20
   3  -4   4   33.70    1.18
   3   4   4   34.16    1.20
   3   4   4   32.89    1.20
   4  -4   4    4.86    0.29
   4  -4   4    4.42    0.32
   4  -4   4    4.10    0.35
   4   4   4    4.99    0.32
   4   4   4    4.57    0.32
   4   4   4    4.97    0.30
   5  -4   4    1.36    0.28
   5  -4   4    1.15    0.19
   5  -4   4    1.29    0.22
   5   4   4    1.34    0.23
  -5   4  -4    1.26    0.24
   5   4   4    0.86    0.20
   6  -4   4    2.19    0.21
   6  -4   4    2.20    0.29
  -6   4  -4    2.24    0.25
   6   4   4    2.30    0.21
   6   4   4    2.43    0.23
   7  -4   4    0.29    0.16
   7  -4   4    0.16    0.09
  -7   4  -4    0.46    0.17
   7   4   4    0.16    0.12
   7   4   4    0.08    0.09
  -8  -4  -4    1.64    0.16
   8  -4   4    1.70    0.13
  -8   4  -4    1.52    0.15
   8   4   4    1.62    0.13
   8  -5  -4    0.02    0.08
   8   5  -4   -0.03    0.07
  -8   5   4    0.08    0.09
   7  -5  -4    1.06    0.17
   7   5  -4    0.89    0.15
  -7   5   4    0.91    0.18
   6  -5  -4   16.23    0.64
  -6   5   4   16.25    0.68
   6   5  -4   16.00    0.64
   5  -5  -4    0.20    0.13
  -5   5   4    0.18    0.12
   5   5  -4    0.22    0.17
   5   5  -4    0.03    0.10
  -4  -5   4   34.63    1.18
   4  -5  -4   32.25    1.19
  -4   5   4   34.15    1.17
  -4   5   4   35.04    1.22
   4   5  -4   34.02    1.19
  -4   5   4   32.63    1.22
  -3  -5   4    7.07    0.38
  -3  -5   4    7.15    0.31
  -3   5   4    6.60    0.30
  -3   5   4    6.70    0.37
  -2  -5   4    0.49    0.10
  -2  -5   4    0.29    0.12
  -2   5   4    0.39    0.09
   2   5  -4    0.37    0.17
  -1  -5   4  102.22    3.43
   1  -5  -4  100.91    3.50
  -1  -5   4  103.34    3.44
   1  -5  -4  110.93    3.50
  -1   5   4  105.84    3.44
   0  -5  -4    6.40    0.35
   0  -5   4    6.52    0.28
   0  -5  -4    6.90    0.34
   0   5   4    6.82    0.29
   1  -5   4   98.91    3.25
  -1  -5  -4   99.32    3.33
  -2  -5  -4   44.79    1.57
  -2  -5  -4   40.96    1.46
   2  -5   4   44.06    1.46
   3  -5   4    1.55    0.38
   3  -5   4    2.16    0.26
   3  -5   4    2.46    0.24
   3   5   4    2.73    0.27
   3   5   4    2.64    0.27
  -3   5  -4    3.00    0.36
   3   5   4    2.39    0.25
   4  -5   4    8.18    0.39
   4  -5   4    7.87    0.48
   4   5   4    8.35    0.42
   4   5   4    8.84    0.43
   4   5   4    8.70    0.40
  -4   5  -4    8.79    0.46
   5  -5   4    3.25    0.37
   5  -5   4    3.78    0.26
   5   5   4    3.40    0.29
   5   5   4    3.52    0.26
  -5   5  -4    3.65    0.32
   5   5   4    3.99    0.31
   6  -5   4    0.72    0.16
   6  -5   4    1.56    0.30
   6   5   4    0.88    0.18
   6   5   4    0.85    0.23
   6   5   4    0.51    0.19
  -6   5  -4    0.85    0.22
   7  -5   4    0.12    0.08
  -7   5  -4    0.00    0.10
   7   5   4    0.19    0.14
  -7   5  -4    0.17    0.10
   7   5   4    0.06    0.08
   8  -6  -4    1.39    0.16
   8   6  -4    1.34    0.13
   7  -6  -4    5.79    0.30
  -7   6   4    5.54    0.31
   7   6  -4    5.52    0.29
   6  -6  -4    6.03    0.34
  -6   6   4    5.86    0.34
   6   6  -4    5.34    0.30
   5  -6  -4   28.21    1.02
  -5   6   4   28.22    1.05
   5   6  -4   27.44    1.02
  -5   6   4   28.54    1.04
  -4  -6   4    2.79    0.23
  -4   6   4    2.63    0.24
   4   6  -4    2.51    0.21
  -4   6   4    2.54    0.29
  -3  -6   4   12.33    0.47
  -3   6   4   12.62    0.48
  -3   6   4   11.63    0.52
  -3   6   4   11.57    0.53
  -2  -6   4   13.77    0.56
  -2  -6   4   14.60    0.52
   2   6  -4   11.70    0.59
  -2   6   4   14.10    0.52
  -2   6   4   13.44    0.57
  -1  -6   4   15.69    0.59
   1  -6  -4   15.91    0.66
  -1  -6   4   16.76    0.59
  -1   6   4   16.21    0.60
   0  -6   4   31.11    1.09
   0  -6  -4   32.65    1.18
   1  -6   4   15.22    0.56
  -1  -6  -4   15.50    0.68
   2  -6   4   48.74    1.55
   2  -6   4   38.70    1.60
  -2  -6  -4   46.54    1.56
   2   6   4   48.21    1.60
   2   6   4   47.21    1.60
   3  -6   4   24.72    0.87
   3  -6   4   20.79    1.04
  -3   6  -4   22.52    0.93
   3   6   4   24.32    0.89
   3   6   4   24.90    0.90
   3   6   4   23.38    0.88
   4  -6   4   12.97    0.54
   4   6   4   13.57    0.58
  -4   6  -4   12.71    0.59
   4   6   4   12.71    0.56
   4   6   4   12.85    0.54
   5  -6   4    3.92    0.26
   5   6   4    3.53    0.27
   5   6   4    4.02    0.30
   5   6   4    2.92    0.28
  -5   6  -4    4.18    0.34
   6  -6   4    1.38    0.16
   6   6   4    0.89    0.21
  -6   6  -4    1.09    0.22
   6   6   4    1.33    0.18
   6   6   4    1.10    0.18
   7  -6   4    0.19    0.08
  -7   6  -4    0.40    0.15
  -7   6  -4    0.19    0.09
   7   6   4    0.40    0.12
  -8   7   4    3.07    0.18
   8   7  -4    2.77    0.16
   7  -7  -4    6.41    0.33
  -7   7   4    6.13    0.32
   7   7  -4    6.18    0.29
   6  -7  -4    2.50    0.27
   6   7  -4    2.17    0.18
  -6   7   4    1.85    0.22
  -5   7   4   27.76    1.02
   5   7  -4   27.59    1.00
  -5   7   4   27.55    1.04
  -4  -7   4    1.79    0.20
  -4   7   4    1.77    0.22
   4   7  -4    1.37    0.19
  -4   7   4    1.63    0.24
  -3  -7   4   48.74    1.67
  -3   7   4   48.46    1.69
  -3   7   4   50.07    1.72
  -2  -7   4    4.56    0.24
  -2   7   4    4.78    0.32
  -2   7   4    4.69    0.29
  -1  -7   4   74.93    2.39
  -1   7   4   69.97    2.41
  -1   7   4   69.73    2.42
   0  -7   4   21.75    0.78
   0   7  -4   21.25    0.82
   0   7   4   21.95    0.81
   0   7   4   21.92    0.84
   1  -7   4   76.09    2.44
  -1  -7  -4   75.57    2.44
   1   7   4   70.90    2.46
   1   7   4   70.09    2.48
  -1   7  -4   72.66    2.47
  -2  -7  -4   10.92    0.45
   2  -7   4   10.74    0.53
   2  -7   4   11.14    0.45
   2   7   4   11.32    0.51
   2   7   4   11.17    0.49
   3  -7   4    0.66    0.17
   3   7   4    0.58    0.21
   3   7   4    0.32    0.13
   4  -7   4   31.27    1.14
   4   7   4   31.25    1.15
  -4   7  -4   31.45    1.18
   4   7   4   32.50    1.17
   4   7   4   31.96    1.14
   5  -7   4    8.78    0.39
   5   7   4    8.14    0.41
   5   7   4    8.03    0.39
  -5   7  -4    7.98    0.42
   5   7   4    8.57    0.41
   6  -7   4    0.03    0.10
  -6   7  -4    0.12    0.11
   6   7   4   -0.07    0.09
  -6   7  -4    0.03    0.09
   6   7   4    0.20    0.10
   6   7   4    0.10    0.12
   7  -7   4    1.84    0.15
  -7   7  -4    1.78    0.16
  -7   7  -4    1.39    0.20
   7   7   4    1.60    0.15
  -7   8   4    0.44    0.14
   7   8  -4    0.42    0.11
  -6   8   4    1.04    0.18
   6   8  -4    1.01    0.15
  -5   8   4    1.33    0.22
  -5   8   4    0.85    0.23
   5   8  -4    1.45    0.17
   4  -8  -4    0.84    0.18
  -4  -8   4    0.79    0.19
   4   8  -4    0.67    0.16
  -4   8   4    0.65    0.20
  -4   8   4    0.62    0.21
  -3  -8   4    2.27    0.20
   3   8  -4    2.24    0.21
  -3   8   4    1.99    0.22
  -3   8   4    2.41    0.24
  -2  -8   4   35.16    1.22
  -2   8   4   34.94    1.24
  -2   8   4   34.87    1.26
  -1  -8   4    2.53    0.18
  -1   8   4    1.95    0.25
  -1   8   4    1.91    0.21
   1   8  -4    2.07    0.27
   0  -8  -4    0.32    0.10
   0  -8   4    0.43    0.12
   0   8   4    0.36    0.14
   0   8  -4    0.24    0.13
   1  -8   4    1.39    0.16
  -1  -8  -4    1.61    0.18
   1   8   4    1.13    0.24
  -1   8  -4    1.68    0.21
   1   8   4    1.63    0.20
  -2  -8  -4   16.13    0.62
   2  -8   4   16.36    0.61
   2   8   4   16.07    0.65
  -2   8  -4   16.24    0.65
   2   8   4   15.08    0.66
   3  -8   4    0.29    0.18
   3   8   4    0.52    0.15
   3   8   4    0.45    0.14
  -3   8  -4    0.54    0.13
   4  -8   4    6.99    0.37
  -4   8  -4    6.89    0.37
  -4   8  -4    6.27    0.42
   4   8   4    6.78    0.36
   4   8   4    7.06    0.38
   5  -8   4    0.25    0.12
  -5   8  -4    0.40    0.16
   5   8   4    0.10    0.12
   5   8   4    0.61    0.19
   5   8   4    0.17    0.11
  -5   8  -4    0.08    0.10
   6  -8   4    0.18    0.11
  -6   8  -4    0.19    0.08
   6   8   4    0.18    0.12
   6   8   4    0.23    0.11
   6   8   4    0.08    0.11
  -6   8  -4    0.08    0.15
   7   9  -4    0.58    0.10
  -7   9   4    0.51    0.13
  -6   9   4    0.67    0.15
   6   9  -4    0.62    0.13
  -5   9   4    0.61    0.18
  -5   9   4    0.38    0.12
   5   9  -4    0.23    0.10
   4  -9  -4    0.88    0.18
  -4  -9   4    0.66    0.20
  -4   9   4    0.80    0.19
  -4   9   4    0.94    0.20
   4   9  -4    0.50    0.12
   3  -9  -4    4.83    0.28
  -3  -9   4    5.62    0.29
   3   9  -4    5.26    0.30
  -3   9   4    5.14    0.31
  -3   9   4    4.99    0.34
   2  -9  -4    6.26    0.31
  -2  -9   4    6.14    0.30
  -2   9   4    5.76    0.35
  -2   9   4    5.74    0.32
   2   9  -4    5.54    0.38
  -1  -9   4    3.21    0.21
   1  -9  -4    3.12    0.22
  -1   9   4    3.06    0.28
  -1   9   4    2.78    0.24
   1   9  -4    3.22    0.28
   0  -9  -4    8.81    0.38
   0  -9   4    8.31    0.37
   0   9   4    7.82    0.39
   0   9   4    7.92    0.42
   0   9  -4    8.51    0.41
   1  -9   4    1.22    0.15
  -1  -9  -4    1.22    0.17
  -1   9  -4    1.60    0.22
   1   9   4    1.65    0.24
   1   9   4    1.00    0.20
  -2  -9  -4   12.28    0.50
   2  -9   4   12.15    0.48
   2   9   4   11.36    0.54
   2   9   4   11.54    0.52
  -2   9  -4   11.58    0.52
   3   9   4    2.64    0.24
  -3   9  -4    2.34    0.24
   3   9   4    2.03    0.26
   4   9   4    1.13    0.22
   4   9   4    0.95    0.19
  -4   9  -4    0.93    0.19
   5  -9   4    0.06    0.15
   5   9   4    0.08    0.10
   5   9   4   -0.01    0.11
  -5   9  -4    0.08    0.08
  -6   9  -4    2.60    0.17
  -6  10   4    0.01    0.08
   6  10  -4   -0.04    0.08
  -5  10   4    0.06    0.10
  -5  10   4    0.10    0.10
   5  10  -4   -0.09    0.09
  -4 -10   4    0.07    0.14
   4 -10  -4    0.05    0.12
  -4  10   4    0.09    0.10
  -4  10   4    0.28    0.12
   4  10  -4    0.09    0.10
   3 -10  -4    0.10    0.10
  -3 -10   4   -0.09    0.09
  -3  10   4    0.17    0.10
  -3  10   4   -0.09    0.12
   3  10  -4    0.13    0.12
   2 -10  -4   34.73    1.25
  -2 -10   4   34.24    1.24
  -2  10   4   36.51    1.28
   2  10  -4   35.37    1.26
  -2  10   4   34.19    1.25
   1 -10  -4    0.08    0.09
  -1 -10   4    0.14    0.08
  -1  10   4    0.02    0.10
   1  10  -4    0.06    0.13
  -1  10   4    0.17    0.14
   0 -10   4   45.50    1.58
   0  10   4   45.52    1.60
   0  10   4   45.29    1.62
   0  10  -4   46.40    1.60
  -1 -10  -4    5.68    0.31
   1 -10   4    5.68    0.29
   1  10   4    6.08    0.37
   1  10   4    5.33    0.32
  -1  10  -4    6.26    0.34
   2 -10   4    0.59    0.15
  -2 -10  -4    0.21    0.12
   2  10   4    0.30    0.11
   2  10   4    0.32    0.14
  -2  10  -4    0.17    0.11
  -3  10  -4    6.77    0.35
   3  10   4    6.69    0.36
   3  10   4    6.19    0.35
   4  10   4    3.87    0.24
   4  10   4    3.87    0.26
   5  10   4    1.08    0.21
   5  10   4    1.38    0.17
  -5  10  -4    1.24    0.15
  -6  10  -4    0.45    0.12
  -6  11   4    0.04    0.09
  -5  11   4    0.32    0.10
  -5  11   4    0.27    0.10
   5  11  -4    0.25    0.11
   4 -11  -4   -0.08    0.12
  -4 -11   4   -0.07    0.17
   4  11  -4    0.09    0.12
  -4  11   4    0.08    0.08
  -4  11   4    0.13    0.10
   3 -11  -4   12.33    0.51
  -3 -11   4   11.82    0.50
  -3  11   4   12.64    0.51
  -3  11   4   12.41    0.53
  -2 -11   4    0.86    0.15
   2 -11  -4    0.91    0.16
   2  11  -4    1.55    0.27
  -2  11   4    0.56    0.14
  -2  11   4    0.99    0.17
  -1 -11   4   37.14    1.40
   1 -11  -4   39.54    1.42
  -1  11   4   41.02    1.42
  -1  11   4   42.21    1.44
   1  11  -4   42.09    1.42
   0 -11   4    2.54    0.19
   0 -11  -4    2.56    0.21
   0  11  -4    2.97    0.24
   0  11   4    2.68    0.23
   0  11   4    3.23    0.27
   1 -11   4    0.46    0.13
   1  11   4    0.12    0.10
   1  11   4   -0.04    0.12
  -1  11  -4    0.24    0.10
  -2 -11  -4    0.22    0.14
   2 -11   4    0.34    0.11
  -2  11  -4    0.25    0.10
   2  11   4    0.55    0.21
   2  11   4    0.53    0.16
   3  11   4    2.82    0.25
   3  11   4    2.79    0.22
  -3  11  -4    3.03    0.21
   4  11   4    0.87    0.15
  -4  11  -4    0.75    0.13
  -5  11  -4    0.40    0.11
  -5  12   4    0.70    0.18
  -4  12   4    1.83    0.19
  -4  12   4    2.16    0.16
   3 -12  -4    8.87    0.38
  -3 -12   4    8.89    0.39
  -3  12   4    8.43    0.37
  -3  12   4    8.96    0.40
  -2 -12   4    0.45    0.14
   2 -12  -4    0.20    0.09
  -2  12   4    0.20    0.08
  -2  12   4    0.35    0.13
  -1 -12   4    1.05    0.16
   1 -12  -4    0.97    0.15
  -1  12   4    0.99    0.15
  -1  12   4    1.02    0.20
   1  12  -4    1.07    0.21
   0 -12   4    1.72    0.16
   0 -12  -4    1.78    0.18
   0  12  -4    1.84    0.19
   0  12   4    1.85    0.22
   0  12   4    1.82    0.18
  -1 -12  -4    0.16    0.11
   1 -12   4   -0.03    0.08
   1  12   4   -0.04    0.12
  -1  12  -4    0.09    0.09
   1  12   4   -0.05    0.08
   2 -12   4    0.50    0.13
  -2 -12  -4    0.36    0.16
   2  12   4    0.97    0.24
   2  12   4    0.49    0.14
  -3  12  -4    1.43    0.15
   3  12   4    1.46    0.15
  -4  12  -4    0.33    0.11
   4  12   4    0.18    0.10
  -3  13   4    0.03    0.13
  -3  13   4    0.04    0.07
  -2 -13   4    0.88    0.15
   2 -13  -4    0.70    0.14
  -2  13   4    0.46    0.14
  -2  13   4    0.58    0.12
   1 -13  -4    5.45    0.27
  -1 -13   4    5.45    0.26
   1  13  -4    5.54    0.30
  -1  13   4    5.19    0.27
  -1  13   4    5.22    0.31
   0 -13  -4    1.71    0.17
   0 -13   4    1.99    0.16
   0  13  -4    1.69    0.18
   0  13   4    1.85    0.16
   1 -13   4    1.47    0.17
  -1 -13  -4    1.69    0.19
  -1  13  -4    1.75    0.16
   1  13   4    1.37    0.15
  -2  13  -4    5.07    0.24
   2  13   4    5.18    0.25
   3  13   4    0.76    0.14
  -3  13  -4    0.65    0.11
  -2  14   4    0.98    0.11
  -1  14   4   -0.03    0.06
   0  14   4    2.18    0.15
   1  14   4    2.08    0.14
  -1  14  -4    1.63    0.21
   9   0  -5   22.97    0.79
   8   0  -5   -0.19    0.23
  -8   0   5   -0.13    0.12
   8   0  -5   -0.03    0.08
   7   0  -5    8.51    0.42
  -7   0   5    8.32    0.43
   7   0  -5    8.24    0.38
  -6   0   5    0.07    0.15
   6   0  -5    0.12    0.14
   6   0  -5   -0.02    0.08
  -5   0   5    0.84    0.28
   5   0  -5    0.67    0.16
  -4   0   5    0.12    0.09
  -4   0   5   -0.06    0.10
  -3   0   5   75.83    2.60
  -3   0   5   80.04    2.56
   3   0  -5   77.11    2.61
  -2   0   5    0.37    0.08
   1   0  -5  482.60   15.84
  -1   0   5  483.76   15.85
   0   0  -5    0.12    0.05
  -1   0  -5  139.81    4.58
  -2   0  -5    0.42    0.09
   3   0   5    0.32    0.13
  -3   0  -5    0.30    0.14
   4   0   5    0.08    0.12
   4   0   5    0.04    0.12
   4   0   5   -0.01    0.13
   4   0   5    0.22    0.14
   5   0   5   11.24    0.51
   5   0   5   11.09    0.50
   5   0   5   11.45    0.49
   5   0   5   11.41    0.52
   6   0   5    0.22    0.13
   6   0   5   -0.05    0.10
   6   0   5    0.14    0.11
   7   0   5    0.98    0.16
   7   0   5    0.89    0.18
   7   0   5    0.75    0.16
   8   0   5    0.06    0.10
  -8   0  -5   -0.10    0.07
   8   0   5   -0.04    0.09
   9  -1  -5    0.13    0.08
   9   1  -5    0.03    0.09
  -8  -1   5    9.37    0.45
   8  -1  -5   10.44    0.42
   8   1  -5   10.00    0.43
   8   1  -5   10.00    0.41
  -8   1   5   10.34    0.45
  -7  -1   5    0.05    0.15
   7  -1  -5    0.07    0.10
   7   1  -5   -0.18    0.11
  -7   1   5    0.11    0.13
   7   1  -5   -0.03    0.09
  -6  -1   5    0.30    0.17
   6  -1  -5    0.23    0.10
   6  -1  -5    0.40    0.17
   6   1  -5    0.17    0.12
   6   1  -5    0.09    0.08
  -6   1   5    0.26    0.15
  -5  -1   5    1.60    0.34
   5   1  -5    1.73    0.22
  -5   1   5    1.69    0.28
  -4  -1   5   -0.09    0.11
  -4  -1   5    0.10    0.09
  -4   1   5    0.08    0.12
  -4   1   5   -0.06    0.09
  -3  -1   5    1.97    0.16
  -3  -1   5    2.17    0.16
   3  -1  -5    1.95    0.18
  -3   1   5    2.08    0.15
   3   1  -5    2.27    0.18
  -3   1   5    2.30    0.17
   2  -1  -5   11.21    0.44
  -2  -1   5   11.65    0.44
   2   1  -5   11.85    0.44
  -2   1   5   11.02    0.44
  -1  -1   5   79.70    2.71
   1  -1  -5   87.42    2.74
   1   1  -5   84.05    2.72
  -1   1   5   79.81    2.73
   0  -1  -5  277.64    9.08
   0   1  -5  267.93    8.93
  -1  -1  -5  113.90    3.89
  -1   1  -5  115.50    3.86
  -1   1  -5  126.39    3.88
  -2  -1  -5   45.88    1.58
  -2   1  -5   46.41    1.54
  -3  -1  -5    5.96    0.32
   3  -1   5    5.14    0.29
  -3   1  -5    5.62    0.29
   4  -1   5   70.63    2.38
   4  -1   5   71.59    2.40
   4  -1   5   70.45    2.39
   4  -1   5   70.93    2.36
   4   1   5   71.91    2.38
   4   1   5   67.30    2.36
   4   1   5   70.60    2.39
   4   1   5   69.11    2.38
   5  -1   5   11.09    0.49
   5  -1   5   11.29    0.47
   5  -1   5   10.56    0.51
   5   1   5   10.84    0.48
   5   1   5   10.51    0.47
   5   1   5   10.68    0.49
   5   1   5   11.02    0.51
   6  -1   5    6.37    0.34
   6  -1   5    7.07    0.38
   6  -1   5    6.79    0.38
   6   1   5    7.20    0.38
   6   1   5    6.86    0.35
   6   1   5    6.97    0.36
   7  -1   5    2.63    0.20
   7  -1   5    2.63    0.21
   7  -1   5    2.70    0.22
   7   1   5    3.15    0.22
   7   1   5    3.02    0.21
   7   1   5    3.08    0.23
   8  -1   5    0.38    0.13
  -8  -1  -5    0.67    0.12
   8  -1   5    0.47    0.14
  -8   1  -5    0.57    0.12
   8   1   5    0.28    0.08
   9  -2  -5    5.55    0.24
   8  -2  -5    0.35    0.12
   8   2  -5    0.47    0.13
   8   2  -5    0.56    0.16
  -8   2   5    0.31    0.11
   7  -2  -5   14.73    0.58
   7   2  -5   14.44    0.58
  -7   2   5   14.76    0.62
   7   2  -5   14.41    0.59
   6  -2  -5    5.78    0.30
  -6  -2   5    4.55    0.40
   6   2  -5    5.92    0.30
  -6   2   5    5.74    0.35
   6   2  -5    5.80    0.31
   5  -2  -5   13.19    0.53
   5   2  -5   13.29    0.54
  -5   2   5   13.24    0.57
  -4  -2   5   10.67    0.52
  -4  -2   5   11.28    0.44
  -4   2   5   11.56    0.44
  -4   2   5   10.77    0.53
  -3  -2   5    0.18    0.08
   3  -2  -5    0.00    0.08
  -3  -2   5    0.02    0.06
  -3   2   5    0.09    0.07
   3   2  -5    0.10    0.08
  -3   2   5    0.03    0.07
  -2  -2   5  225.56    7.45
   2  -2  -5  238.35    7.48
  -2   2   5  240.24    7.55
  -2   2   5  208.74    7.43
   2   2  -5  230.16    7.45
   1  -2  -5    9.63    0.35
  -1  -2   5    7.81    0.31
  -1   2   5    8.07    0.34
   1   2  -5    8.06    0.31
   0  -2  -5   46.53    1.55
   0  -2  -5   45.55    1.55
   0   2  -5   45.19    1.49
  -1  -2  -5   97.18    3.22
  -2  -2  -5  130.24    4.20
  -2   2  -5  123.59    4.13
  -3  -2  -5   46.25    1.57
  -3   2  -5   41.48    1.49
   4  -2   5   86.81    3.00
   4  -2   5   91.92    3.00
   4  -2   5   90.83    3.03
   4   2   5   89.09    3.01
   4   2   5   93.23    3.00
   4   2   5   84.49    2.99
   4   2   5   91.99    3.02
   5  -2   5    0.93    0.23
   5  -2   5    1.25    0.18
   5  -2   5    1.29    0.23
   5   2   5    1.64    0.25
   5   2   5    1.22    0.21
   5   2   5    1.07    0.20
   5   2   5    1.44    0.24
   6  -2   5   17.81    0.72
   6  -2   5   18.20    0.71
   6  -2   5   17.98    0.69
   6   2   5   17.72    0.71
   6   2   5   17.84    0.70
   6   2   5   16.86    0.68
   6   2   5   17.85    0.71
   7  -2   5    0.07    0.12
   7  -2   5    0.00    0.09
   7   2   5   -0.01    0.09
   7   2   5   -0.07    0.11
  -7   2  -5    0.23    0.10
   7   2   5   -0.08    0.13
  -8  -2  -5    0.54    0.12
   8  -2   5    0.43    0.12
   8  -2   5    0.29    0.13
  -8   2  -5    0.56    0.13
   8   2   5    0.35    0.11
   9  -3  -5    0.04    0.07
   8  -3  -5    0.29    0.09
  -8   3   5    0.44    0.16
   8   3  -5    0.31    0.10
   8   3  -5    0.31    0.09
   7  -3  -5    6.30    0.33
   7   3  -5    6.45    0.32
   7   3  -5    6.28    0.33
  -7   3   5    6.85    0.36
   6  -3  -5   11.02    0.48
   6   3  -5   10.95    0.48
   6   3  -5   11.00    0.47
  -6   3   5   11.51    0.52
   5  -3  -5    1.49    0.20
  -5   3   5    1.54    0.24
   5   3  -5    1.85    0.19
  -5   3   5    1.76    0.24
  -4  -3   5   28.81    0.97
  -4  -3   5   26.31    0.98
   4   3  -5   27.87    0.99
  -4   3   5   28.05    0.97
  -4   3   5   27.21    1.01
  -3  -3   5   12.49    0.48
  -3  -3   5   13.17    0.52
   3   3  -5   11.85    0.53
  -3   3   5   13.07    0.48
  -3   3   5   12.59    0.54
  -2  -3   5   17.96    0.65
  -2  -3   5   17.48    0.63
   2  -3  -5   18.41    0.69
  -2   3   5   17.62    0.68
  -2   3   5   18.04    0.64
   2   3  -5   18.30    0.66
  -1  -3   5   23.66    0.80
   1  -3  -5   26.10    0.87
  -1  -3   5   22.05    0.81
   1   3  -5   24.08    0.81
  -1   3   5   22.61    0.81
   0  -3  -5   18.14    0.69
   0  -3  -5   18.55    0.68
  -1  -3  -5    3.35    0.20
  -2  -3  -5   18.60    0.72
   3  -3   5   26.49    0.99
  -3  -3  -5   25.56    1.04
   3  -3   5   27.46    0.96
   3   3   5   26.44    0.98
   3   3   5   26.86    0.98
   4  -3   5   27.79    1.03
   4  -3   5   27.98    1.00
   4  -3   5   26.67    1.03
   4   3   5   28.23    1.01
   4   3   5   28.23    1.03
   4   3   5   27.65    1.02
   5  -3   5    3.24    0.28
   5  -3   5    2.61    0.27
   5  -3   5    3.05    0.24
   5   3   5    2.82    0.24
   5   3   5    2.99    0.26
   5   3   5    2.36    0.24
   6  -3   5    4.27    0.30
   6  -3   5    4.56    0.31
   6  -3   5    4.69    0.28
   6   3   5    4.80    0.30
   6   3   5    4.72    0.29
  -6   3  -5    4.76    0.32
   6   3   5    5.03    0.32
   7  -3   5    0.27    0.12
   7  -3   5    0.29    0.09
  -7   3  -5    0.65    0.16
   7   3   5    0.51    0.18
   7   3   5    0.31    0.10
  -8  -3  -5   -0.05    0.07
   8  -3   5    0.01    0.07
  -8   3  -5   -0.02    0.07
   8   3   5   -0.02    0.07
  -8   4   5    0.48    0.15
   8   4  -5    0.32    0.12
   8   4  -5    0.46    0.13
   7  -4  -5    2.19    0.19
  -7   4   5    2.20    0.23
   7   4  -5    2.11    0.19
   6  -4  -5    0.13    0.11
   6   4  -5    0.05    0.10
   6   4  -5   -0.14    0.10
  -6   4   5    0.22    0.12
   5  -4  -5   21.66    0.81
  -5   4   5   22.02    0.81
  -5   4   5   21.88    0.84
   5   4  -5   21.39    0.81
   4  -4  -5   12.97    0.54
  -4  -4   5   13.91    0.52
  -4  -4   5   12.92    0.53
   4   4  -5   13.24    0.54
  -4   4   5   13.67    0.52
  -4   4   5   13.10    0.56
  -3  -4   5    5.90    0.32
  -3  -4   5    6.28    0.27
  -3   4   5    5.48    0.35
  -3   4   5    5.62    0.27
  -2  -4   5   16.64    0.59
  -2  -4   5   16.68    0.61
   2  -4  -5   14.67    0.65
  -2   4   5   17.33    0.60
   2   4  -5   17.06    0.63
  -1  -4   5   22.98    0.80
  -1  -4   5   23.23    0.81
   1  -4  -5   23.51    0.87
  -1   4   5   24.30    0.82
   1   4  -5   23.37    0.81
   0  -4  -5    0.29    0.10
   0  -4  -5    0.30    0.14
   0  -4   5    0.27    0.09
   0   4   5    0.45    0.12
   1  -4   5  140.48    4.68
  -1  -4  -5  145.72    4.76
   1   4   5  144.51    4.69
  -2  -4  -5   31.88    1.18
   3  -4   5   26.88    0.99
   3  -4   5   27.12    0.99
   3  -4   5   27.53    0.95
   3   4   5   25.64    0.97
   3   4   5   25.02    0.96
   3   4   5   25.85    0.97
   4  -4   5    4.41    0.28
   4  -4   5    4.62    0.34
   4  -4   5    4.87    0.33
   4   4   5    4.87    0.30
   4   4   5    4.96    0.32
   4   4   5    4.71    0.32
   5  -4   5    2.21    0.25
   5  -4   5    2.32    0.29
   5  -4   5    1.96    0.21
   5   4   5    1.45    0.23
   5   4   5    2.16    0.24
  -5   4  -5    1.91    0.28
   5   4   5    1.52    0.25
   6  -4   5    6.38    0.36
   6  -4   5    6.38    0.32
   6   4   5    6.25    0.35
   6   4   5    5.87    0.34
   6   4   5    6.28    0.33
  -6   4  -5    6.33    0.37
   7  -4   5    2.30    0.25
   7  -4   5    2.50    0.17
   7   4   5    2.62    0.18
  -7   4  -5    2.51    0.21
   7   4   5    2.61    0.22
   8  -5  -5    0.74    0.14
   8   5  -5    0.34    0.12
  -8   5   5    0.46    0.13
   7  -5  -5    1.71    0.19
   7   5  -5    1.69    0.17
  -7   5   5    1.58    0.20
   6  -5  -5    7.36    0.37
  -6   5   5    7.19    0.39
   6   5  -5    7.37    0.36
   6   5  -5    7.41    0.36
   5  -5  -5   28.41    1.03
  -5   5   5   28.47    1.06
  -4  -5   5   35.12    1.21
   4  -5  -5   31.64    1.22
   4   5  -5   34.99    1.22
  -4   5   5   35.56    1.21
  -4   5   5   36.29    1.25
  -3  -5   5   67.52    2.19
  -3  -5   5   63.84    2.25
  -3   5   5   65.21    2.19
  -3   5   5   65.02    2.22
  -2  -5   5   75.94    2.60
  -2  -5   5   79.12    2.58
  -2   5   5   82.24    2.58
   2   5  -5   73.64    2.61
   1  -5  -5   17.56    0.68
  -1  -5   5   16.10    0.58
  -1  -5   5   16.43    0.60
  -1   5   5   17.13    0.61
   1   5  -5   15.84    0.59
   0  -5  -5   53.72    1.83
   0  -5   5   51.33    1.75
   0   5   5   52.18    1.76
  -1  -5  -5  108.28    3.57
   1  -5   5  103.35    3.47
   2  -5   5    1.07    0.15
   2   5   5    1.08    0.23
   2   5   5    1.13    0.19
   3  -5   5   23.79    0.92
   3  -5   5   24.23    0.91
   3  -5   5   24.40    0.88
   3   5   5   23.87    0.89
  -3   5  -5   21.22    0.94
   3   5   5   24.97    0.91
   3   5   5   25.52    0.90
   4  -5   5   34.68    1.27
   4  -5   5   34.64    1.24
   4  -5   5   36.98    1.28
   4   5   5   34.30    1.26
   4   5   5   34.64    1.24
  -4   5  -5   35.45    1.28
   4   5   5   34.09    1.27
   5  -5   5   26.88    0.99
   5  -5   5   25.97    0.96
   5   5   5   25.52    0.98
   5   5   5   26.81    1.00
  -5   5  -5   26.38    1.00
   5   5   5   25.26    0.96
   6  -5   5    1.26    0.16
   6  -5   5    1.25    0.27
  -6   5  -5    1.13    0.22
   6   5   5    1.19    0.18
   6   5   5    1.51    0.21
   6   5   5    1.31    0.18
   7  -5   5    2.10    0.15
   7   5   5    2.07    0.21
  -7   5  -5    1.98    0.18
   7   5   5    1.77    0.16
  -7   5  -5    1.93    0.18
   8  -6  -5    0.03    0.11
  -8   6   5    0.08    0.08
   8   6  -5    0.05    0.07
   7  -6  -5   -0.09    0.12
   7   6  -5   -0.06    0.08
  -7   6   5    0.00    0.09
   6  -6  -5    0.48    0.15
   6   6  -5    0.60    0.15
  -6   6   5    0.41    0.13
   5  -6  -5   40.50    1.40
   5   6  -5   39.42    1.40
  -5   6   5   39.56    1.43
  -4  -6   5   38.30    1.27
   4   6  -5   36.02    1.28
  -4   6   5   34.90    1.30
  -3  -6   5    1.31    0.15
  -3   6   5    1.33    0.21
  -3   6   5    1.37    0.14
  -3   6   5    0.79    0.25
  -2  -6   5    6.93    0.37
  -2  -6   5    7.41    0.32
  -2   6   5    8.11    0.33
  -2   6   5    6.96    0.37
   1  -6  -5    9.25    0.48
  -1  -6   5    9.51    0.38
  -1   6   5    9.56    0.39
   0  -6  -5    2.35    0.27
   0  -6   5    2.36    0.16
   1  -6   5    1.85    0.15
   2  -6   5    2.10    0.34
   2  -6   5    2.81    0.27
   2  -6   5    2.62    0.19
  -2  -6  -5    2.19    0.23
   2   6   5    2.27    0.24
   2   6   5    2.29    0.22
   3  -6   5    1.22    0.21
   3  -6   5    0.88    0.22
   3   6   5    0.97    0.22
   3   6   5    1.20    0.27
   3   6   5    0.83    0.21
   4  -6   5    7.80    0.45
   4  -6   5    7.02    0.36
  -4   6  -5    7.00    0.44
   4   6   5    6.93    0.39
   4   6   5    7.39    0.38
   4   6   5    7.07    0.38
   5  -6   5    1.28    0.32
   5  -6   5    2.12    0.20
   5   6   5    1.38    0.21
  -5   6  -5    1.56    0.28
   5   6   5    2.01    0.22
   5   6   5    1.91    0.22
   6  -6   5    2.42    0.19
  -6   6  -5    2.32    0.23
   6   6   5    2.27    0.20
   6   6   5    2.68    0.21
   6   6   5    2.34    0.22
   7   6   5    0.66    0.13
  -7   6  -5    1.09    0.18
  -7   6  -5    0.56    0.14
  -8   7   5    0.00    0.08
   8   7  -5   -0.05    0.06
   7   7  -5    0.08    0.07
  -7   7   5    0.10    0.09
   6  -7  -5    1.44    0.29
   6   7  -5    2.01    0.18
  -6   7   5    1.90    0.20
   5   7  -5    0.69    0.16
  -5   7   5    0.33    0.12
  -4  -7   5    0.86    0.18
  -4   7   5    0.65    0.15
  -4   7   5    0.94    0.19
  -3  -7   5    5.42    0.28
  -3   7   5    5.36    0.33
  -3   7   5    5.14    0.32
  -2  -7   5    3.07    0.20
  -2   7   5    3.46    0.25
  -2   7   5    3.42    0.25
  -1  -7   5    9.96    0.47
  -1  -7   5    9.91    0.41
  -1   7   5   10.18    0.46
  -1   7   5   10.38    0.45
   0  -7   5    0.80    0.18
   0  -7   5    0.75    0.12
   0   7   5    0.51    0.12
   0   7  -5    0.74    0.16
   0   7   5    0.65    0.22
   1  -7   5    0.10    0.20
   1  -7   5    0.08    0.20
   1  -7   5    0.09    0.07
   1   7   5    0.05    0.13
  -1   7  -5    0.25    0.12
   1   7   5    0.56    0.19
   2  -7   5   13.65    0.65
  -2  -7  -5   14.37    0.56
   2  -7   5   13.41    0.60
   2  -7   5   14.94    0.55
   2   7   5   14.62    0.61
   2   7   5   14.98    0.59
   3  -7   5    6.05    0.35
   3   7   5    5.48    0.34
   3   7   5    5.92    0.35
   4  -7   5    1.23    0.21
   4   7   5    0.70    0.23
   4   7   5    0.95    0.26
   4   7   5    1.47    0.23
  -4   7  -5    1.67    0.32
   5  -7   5    4.62    0.27
  -5   7  -5    3.66    0.32
   5   7   5    4.39    0.29
   5   7   5    4.72    0.29
   5   7   5    4.45    0.28
   6  -7   5    0.07    0.09
   6   7   5   -0.01    0.10
  -6   7  -5    0.13    0.08
  -6   7  -5   -0.08    0.12
   6   7   5    0.19    0.10
   6   7   5    0.12    0.10
   7  -7   5    1.36    0.13
   7   7   5    1.44    0.19
  -7   7  -5    1.47    0.15
  -7   8   5    0.11    0.08
   7   8  -5    0.29    0.10
  -6   8   5   -0.10    0.09
   6   8  -5    0.16    0.08
   5  -8  -5   10.82    0.50
   5   8  -5   13.08    0.51
  -5   8   5   12.43    0.53
  -4  -8   5   12.13    0.52
   4   8  -5   12.81    0.53
  -4   8   5   12.87    0.56
  -4   8   5   13.34    0.55
  -3  -8   5    6.35    0.32
  -3   8   5    6.43    0.34
  -3   8   5    6.42    0.36
  -2  -8   5    6.18    0.30
  -2   8   5    5.94    0.33
  -2   8   5    5.62    0.34
  -1  -8   5    2.70    0.27
  -1  -8   5    2.59    0.18
  -1   8   5    2.55    0.23
   1   8  -5    2.24    0.29
  -1   8   5    2.22    0.25
   0  -8   5   12.88    0.51
   0  -8   5   12.49    0.57
   0   8   5   13.11    0.54
   0   8  -5   13.47    0.56
   0   8   5   13.41    0.57
   1  -8   5    7.92    0.35
  -1  -8  -5    8.00    0.37
   1   8   5    7.35    0.40
   1   8   5    7.57    0.38
  -1   8  -5    7.52    0.40
  -2  -8  -5   27.84    1.01
   2  -8   5   27.10    1.03
   2  -8   5   28.41    1.00
   2   8   5   27.54    1.05
  -2   8  -5   29.66    1.05
   2   8   5   27.92    1.04
   3  -8   5    0.01    0.16
   3   8   5    0.10    0.12
  -3   8  -5    0.28    0.13
   3   8   5    0.03    0.13
   4  -8   5   13.77    0.57
   4   8   5   13.73    0.58
  -4   8  -5   13.87    0.59
   4   8   5   13.62    0.59
   5  -8   5    1.41    0.19
   5   8   5    1.56    0.19
   5   8   5    1.55    0.18
  -5   8  -5    1.71    0.18
   5   8   5    1.35    0.23
   6  -8   5    0.76    0.15
   6   8   5    0.80    0.15
  -6   8  -5    1.09    0.14
   6   8   5    1.28    0.19
   6   8   5    0.48    0.14
  -7   9   5    0.03    0.08
   7   9  -5    0.02    0.07
   6   9  -5    0.01    0.07
  -6   9   5    0.07    0.09
   5  -9  -5    2.05    0.24
   5   9  -5    2.50    0.18
  -5   9   5    2.22    0.23
  -5   9   5    2.35    0.21
  -4  -9   5   10.51    0.47
   4  -9  -5   10.65    0.48
  -4   9   5   11.66    0.49
   4   9  -5   11.55    0.47
  -4   9   5   11.91    0.52
  -3  -9   5   14.28    0.58
   3  -9  -5   14.66    0.59
  -3   9   5   14.97    0.62
   3   9  -5   14.27    0.58
  -3   9   5   14.69    0.60
  -2  -9   5    0.17    0.09
  -2   9   5    0.17    0.11
  -1  -9   5  104.09    3.49
   1  -9  -5  108.51    3.50
  -1   9   5  102.73    3.50
  -1   9   5  105.17    3.53
   1   9  -5  104.06    3.50
   0  -9   5    1.32    0.15
   0  -9  -5    1.40    0.17
   0   9   5    1.39    0.19
   0   9   5    1.33    0.23
   0   9  -5    1.07    0.23
   1  -9   5   23.77    0.85
  -1  -9  -5   23.34    0.86
   1   9   5   23.07    0.90
  -1   9  -5   22.76    0.88
   2  -9   5    0.03    0.10
  -2  -9  -5    0.07    0.13
   2   9   5   -0.02    0.12
   2   9   5    0.13    0.10
  -2   9  -5   -0.02    0.11
  -3   9  -5   16.27    0.66
   3   9   5   15.93    0.66
   3   9   5   15.47    0.65
   4  -9   5    1.47    0.24
   4   9   5    1.60    0.21
   4   9   5    1.59    0.18
  -4   9  -5    1.53    0.19
   5  -9   5    4.76    0.28
   5   9   5    4.82    0.27
  -5   9  -5    4.73    0.26
   5   9   5    4.90    0.26
  -6   9  -5    0.43    0.11
   6  10  -5    0.33    0.12
  -6  10   5    0.45    0.13
   5  10  -5    0.03    0.08
  -5  10   5   -0.14    0.11
  -5  10   5    0.16    0.10
   4 -10  -5    1.98    0.19
  -4 -10   5    1.64    0.21
  -4  10   5    1.35    0.19
   4  10  -5    1.51    0.17
  -4  10   5    1.50    0.20
   3 -10  -5   21.01    0.79
  -3 -10   5   19.63    0.78
  -3  10   5   21.78    0.82
   3  10  -5   20.79    0.77
  -3  10   5   21.36    0.79
  -2 -10   5   16.54    0.67
   2 -10  -5   16.88    0.68
  -2  10   5   18.00    0.72
  -2  10   5   17.97    0.69
   2  10  -5   17.45    0.67
   1 -10  -5    1.20    0.18
  -1 -10   5    1.30    0.16
   1  10  -5    1.32    0.24
  -1  10   5    1.02    0.18
  -1  10   5    1.44    0.24
   0 -10  -5    2.61    0.21
   0 -10   5    2.42    0.19
   0  10  -5    2.16    0.24
   0  10   5    2.49    0.24
   0  10   5    3.00    0.28
   1 -10   5   14.77    0.60
  -1 -10  -5   15.25    0.62
   1  10   5   15.92    0.64
  -1  10  -5   15.97    0.64
   1  10   5   16.00    0.66
   2 -10   5    4.64    0.27
  -2 -10  -5    4.26    0.29
   2  10   5    4.98    0.30
   2  10   5    4.61    0.31
  -2  10  -5    5.22    0.30
   3  10   5    1.47    0.21
   3  10   5    1.57    0.20
  -3  10  -5    2.12    0.21
   4  10   5   -0.05    0.10
  -4  10  -5   -0.11    0.08
   4  10   5   -0.04    0.09
   5  10   5    1.55    0.19
   5  10   5    1.75    0.17
  -5  10  -5    1.76    0.15
  -6  11   5    0.17    0.09
  -5  11   5    0.23    0.11
  -5  11   5    0.15    0.09
   5  11  -5    0.22    0.10
  -4 -11   5    2.74    0.25
   4 -11  -5    2.54    0.22
   4  11  -5    2.71    0.21
  -4  11   5    2.44    0.21
  -4  11   5    2.64    0.20
   3 -11  -5    3.04    0.22
  -3 -11   5    2.89    0.22
  -3  11   5    3.01    0.21
  -3  11   5    2.98    0.25
   2 -11  -5    3.82    0.25
  -2 -11   5    3.71    0.24
  -2  11   5    4.13    0.28
  -2  11   5    4.13    0.25
  -1 -11   5    0.08    0.09
   1 -11  -5    0.02    0.09
  -1  11   5    0.26    0.10
  -1  11   5    0.09    0.12
   1  11  -5    0.17    0.14
   0 -11  -5    5.20    0.29
   0 -11   5    5.24    0.28
   0  11   5    5.25    0.30
   0  11   5    5.18    0.32
   0  11  -5    5.06    0.30
   1 -11   5    0.98    0.15
  -1 -11  -5    0.81    0.17
  -1  11  -5    1.03    0.18
   1  11   5    0.71    0.16
   1  11   5    0.59    0.20
  -2 -11  -5    1.76    0.25
   2 -11   5    1.49    0.19
   2  11   5    1.57    0.18
   2  11   5    1.88    0.21
  -2  11  -5    1.63    0.18
   3  11   5    0.17    0.08
  -3  11  -5    0.24    0.09
   3  11   5    0.38    0.12
   4  11   5    1.72    0.16
   4  11   5    1.63    0.21
  -4  11  -5    1.67    0.15
  -5  11  -5    0.03    0.06
  -5  12   5    0.11    0.10
  -4  12   5    0.37    0.14
  -3 -12   5    0.29    0.11
   3 -12  -5    0.02    0.10
  -3  12   5    0.10    0.10
  -3  12   5    0.16    0.07
   2 -12  -5    1.64    0.17
  -2 -12   5    1.62    0.16
  -2  12   5    1.36    0.19
  -2  12   5    1.81    0.16
   1 -12  -5   -0.04    0.09
  -1 -12   5    0.07    0.08
  -1  12   5    0.00    0.07
  -1  12   5    0.21    0.11
   1  12  -5    0.05    0.13
   0 -12  -5    2.35    0.19
   0 -12   5    2.45    0.18
   0  12   5    2.27    0.22
   0  12   5    2.85    0.20
   0  12  -5    2.37    0.21
   1 -12   5    1.53    0.16
  -1 -12  -5    1.58    0.19
   1  12   5    1.45    0.20
   1  12   5    1.59    0.16
  -1  12  -5    1.53    0.17
   2 -12   5    2.46    0.22
   2  12   5    1.89    0.22
   2  12   5    1.87    0.18
  -2  12  -5    2.06    0.18
  -3  12  -5    0.03    0.07
   3  12   5    0.06    0.07
  -4  12  -5    0.01    0.06
   4  12   5   -0.04    0.09
  -3  13   5    1.37    0.18
  -3  13   5    1.35    0.13
  -2 -13   5    0.25    0.10
   2 -13  -5    0.28    0.10
  -2  13   5    0.24    0.07
  -2  13   5    0.08    0.11
   1 -13  -5    0.21    0.09
  -1 -13   5    0.06    0.09
  -1  13   5   -0.10    0.11
  -1  13   5   -0.01    0.06
   0 -13  -5    0.93    0.16
   0 -13   5    1.06    0.14
   0  13   5    1.20    0.13
   0  13  -5    0.97    0.18
   0  13   5    0.82    0.21
  -1 -13  -5    1.10    0.23
   1 -13   5    1.29    0.18
   1  13   5    1.21    0.13
  -1  13  -5    1.10    0.15
  -2  13  -5    0.90    0.12
   2  13   5    0.82    0.12
   3  13   5    0.77    0.13
  -3  13  -5    0.77    0.11
  -2  14   5    1.36    0.12
  -1  14   5    2.46    0.15
   0  14   5    0.10    0.06
   1  14   5    0.57    0.10
   9   0  -6    0.01    0.07
   8   0  -6    0.41    0.13
  -7   0   6   -0.17    0.16
   7   0  -6    0.02    0.09
   7   0  -6    0.21    0.15
  -6   0   6   10.22    0.49
   6   0  -6   10.23    0.44
   6   0  -6   10.06    0.47
   5   0  -6   -0.17    0.14
  -5   0   6    0.00    0.12
  -5   0   6    0.01    0.18
  -4   0   6   42.97    1.42
  -4   0   6   40.30    1.50
   3   0  -6    0.21    0.11
  -3   0   6    0.11    0.07
  -3   0   6    0.19    0.07
  -2   0   6  213.78    6.81
   2   0  -6  207.81    6.77
  -2   0   6  199.90    6.73
   1   0  -6    0.00    0.04
  -1   0   6    0.00    0.04
   0   0  -6   61.42    2.04
  -1   0  -6    0.17    0.08
  -2   0  -6   28.85    1.01
  -3   0  -6    0.12    0.12
   3   0   6    0.04    0.14
   3   0   6    0.05    0.14
   4   0   6    0.14    0.13
   4   0   6    0.13    0.13
   4   0   6    0.25    0.14
   4   0   6    0.17    0.12
   5   0   6    0.21    0.12
   5   0   6   -0.01    0.11
   5   0   6    0.11    0.13
   5   0   6    0.12    0.11
   6   0   6    6.02    0.32
   6   0   6    6.35    0.34
   6   0   6    5.76    0.35
   7   0   6    0.03    0.09
   7   0   6   -0.05    0.09
   7   0   6    0.00    0.09
  -8   0  -6    0.36    0.12
   8   0   6    0.50    0.13
   9  -1  -6    0.10    0.07
   9   1  -6    0.15    0.08
   8  -1  -6    3.14    0.20
   8   1  -6    3.46    0.21
   8   1  -6    3.48    0.25
  -8   1   6    3.25    0.25
   7  -1  -6    9.12    0.40
   7   1  -6    8.96    0.40
  -7   1   6    8.87    0.44
   7   1  -6    8.56    0.41
  -6  -1   6    9.74    0.51
   6  -1  -6    9.70    0.43
  -6   1   6   10.21    0.49
   6   1  -6   10.55    0.44
   6   1  -6   10.06    0.45
  -5  -1   6    1.42    0.21
  -5   1   6    1.53    0.28
  -5   1   6    1.62    0.22
   5   1  -6    1.28    0.21
  -4  -1   6    0.75    0.16
  -4  -1   6    0.57    0.21
  -4   1   6    0.99    0.15
  -3  -1   6    1.26    0.14
  -3  -1   6    1.28    0.14
   3   1  -6    1.19    0.17
  -3   1   6    1.66    0.16
  -2  -1   6    4.93    0.22
   2  -1  -6    5.58    0.26
  -2  -1   6    5.40    0.24
  -2   1   6    4.57    0.22
   2   1  -6    4.77    0.24
  -2   1   6    4.75    0.24
  -1  -1   6   44.43    1.51
   1  -1  -6   45.11    1.53
  -1   1   6   44.09    1.53
   1   1  -6   46.49    1.51
   0  -1  -6  201.81    6.61
   0  -1  -6  203.97    6.57
   0   1  -6  195.54    6.55
  -1  -1  -6    4.44    0.22
  -1  -1  -6    4.14    0.21
  -1   1  -6    4.15    0.18
  -1   1  -6    4.49    0.19
  -2  -1  -6   87.13    2.86
  -2   1  -6   84.21    2.82
  -3  -1  -6   78.60    2.66
   3  -1   6   76.19    2.61
   3  -1   6   77.40    2.61
   3  -1   6   80.89    2.63
   3   1   6   69.91    2.65
   3   1   6   79.55    2.61
   3   1   6   82.31    2.63
   4  -1   6    0.73    0.16
   4  -1   6    0.56    0.20
   4  -1   6    0.95    0.23
   4  -1   6    0.60    0.14
   4   1   6    0.39    0.13
   4   1   6    0.39    0.13
   4   1   6    0.53    0.15
   4   1   6    0.65    0.16
   5  -1   6    4.64    0.32
   5  -1   6    4.58    0.28
   5  -1   6    4.58    0.30
   5   1   6    4.73    0.30
   5   1   6    4.64    0.30
   5   1   6    4.41    0.32
   5   1   6    4.78    0.31
   6  -1   6    0.07    0.11
   6  -1   6    0.03    0.11
   6  -1   6   -0.07    0.11
   6   1   6    0.30    0.14
   6   1   6    0.07    0.11
   7  -1   6   -0.01    0.09
   7  -1   6   -0.01    0.08
   7  -1   6    0.02    0.08
  -7   1  -6   -0.01    0.09
   7   1   6   -0.01    0.08
   7   1   6   -0.05    0.12
   7   1   6   -0.13    0.09
  -8  -1  -6    0.25    0.08
   8  -1   6    0.40    0.14
  -8   1  -6    0.17    0.07
   9  -2  -6    0.12    0.08
   9   2  -6    0.26    0.12
   8  -2  -6    1.33    0.14
   8   2  -6    1.50    0.15
   8   2  -6    1.02    0.18
  -8   2   6    1.31    0.19
   7  -2  -6    6.39    0.33
  -7   2   6    6.79    0.37
   7   2  -6    6.82    0.33
   7   2  -6    7.22    0.35
   6  -2  -6    9.55    0.43
  -6   2   6    9.70    0.47
   6   2  -6    9.54    0.42
   6   2  -6    9.08    0.42
  -5  -2   6    5.39    0.31
  -5   2   6    5.95    0.30
  -5   2   6    6.26    0.37
   5   2  -6    5.55    0.31
  -4  -2   6    3.12    0.21
  -4  -2   6    3.25    0.23
  -4   2   6    3.19    0.21
  -3  -2   6   83.73    2.70
  -3  -2   6   82.11    2.75
  -3   2   6   82.73    2.70
   3   2  -6   77.71    2.75
  -3   2   6   81.93    2.77
  -2  -2   6   21.57    0.78
  -2  -2   6   21.99    0.76
   2  -2  -6   21.62    0.81
  -2   2   6   21.74    0.80
  -2   2   6   22.07    0.76
   2   2  -6   22.11    0.78
  -1  -2   6    0.64    0.10
   1  -2  -6    0.66    0.11
  -1  -2   6    0.71    0.07
  -1   2   6    0.55    0.10
   1   2  -6    0.72    0.07
   0  -2  -6   11.59    0.47
   0  -2  -6   11.90    0.48
   0   2  -6   11.61    0.41
   0   2  -6   13.48    0.41
  -1  -2  -6  149.94    4.93
  -2  -2  -6  100.00    3.34
   3  -2   6    0.62    0.15
  -3  -2  -6    0.77    0.29
   3  -2   6    1.04    0.19
   3  -2   6    1.29    0.26
   3   2   6    0.61    0.21
   3   2   6    0.64    0.24
   3   2   6    0.57    0.14
   4  -2   6    0.38    0.12
   4  -2   6    0.47    0.15
   4  -2   6    0.34    0.11
   4   2   6    0.25    0.18
   4   2   6    0.77    0.20
   4   2   6    0.38    0.13
   4   2   6    0.56    0.20
   5  -2   6    0.01    0.12
   5  -2   6   -0.11    0.13
   5  -2   6    0.10    0.13
   5   2   6    0.09    0.13
   5   2   6    0.15    0.11
   5   2   6    0.28    0.17
   5   2   6    0.16    0.13
   6  -2   6    2.28    0.20
   6  -2   6    2.15    0.22
   6  -2   6    2.19    0.23
   6   2   6    1.49    0.24
   6   2   6    2.23    0.23
   6   2   6    2.35    0.24
   6   2   6    2.23    0.21
   7  -2   6    1.26    0.15
   7  -2   6    1.55    0.17
   7   2   6    1.86    0.18
   7   2   6    1.59    0.16
  -7   2  -6    1.23    0.17
   8  -2   6    0.33    0.11
  -8   2  -6    0.56    0.13
   8  -3  -6    3.76    0.22
   8   3  -6    4.08    0.23
  -8   3   6    3.78    0.24
   8   3  -6    3.55    0.21
   7  -3  -6    4.37    0.26
  -7   3   6    4.48    0.30
   7   3  -6    3.95    0.25
   7   3  -6    4.38    0.26
   6  -3  -6    4.12    0.26
   6   3  -6    3.67    0.26
   6   3  -6    3.84    0.26
  -6   3   6    3.71    0.30
   5  -3  -6   11.97    0.49
  -5  -3   6   12.13    0.49
  -5   3   6   11.81    0.50
  -5   3   6   11.69    0.52
  -4  -3   6   17.57    0.70
  -4  -3   6   18.95    0.71
  -4   3   6   20.39    0.70
  -4   3   6   19.47    0.74
  -3  -3   6   47.99    1.61
  -3  -3   6   48.00    1.66
  -3   3   6   49.04    1.61
  -3   3   6   46.04    1.69
  -2  -3   6    6.21    0.26
  -2  -3   6    6.23    0.27
   2  -3  -6    5.81    0.32
  -2   3   6    6.49    0.32
  -2   3   6    6.11    0.27
   2   3  -6    5.85    0.28
  -1  -3   6   16.85    0.62
  -1  -3   6   17.90    0.61
   1  -3  -6   17.97    0.68
  -1   3   6   17.32    0.62
   1   3  -6   17.81    0.61
   0  -3  -6    1.56    0.15
   0  -3   6    1.45    0.13
   0  -3  -6    1.45    0.16
  -1  -3  -6    3.64    0.23
  -1  -3  -6    3.77    0.26
  -2  -3  -6  112.88    3.78
   3  -3   6   16.35    0.68
   3  -3   6   16.22    0.64
   3  -3   6   16.47    0.67
   3   3   6   16.96    0.66
   3   3   6   17.02    0.67
   3   3   6   17.41    0.66
   4  -3   6    0.12    0.12
   4  -3   6    0.11    0.11
   4  -3   6    0.34    0.14
   4   3   6    0.21    0.12
   4   3   6    0.17    0.11
   4   3   6    0.35    0.13
   5  -3   6    7.97    0.39
   5  -3   6    7.71    0.42
   5  -3   6    7.87    0.42
   5   3   6    7.75    0.41
   5   3   6    7.87    0.42
   5   3   6    7.73    0.40
   6  -3   6    3.33    0.23
   6  -3   6    3.16    0.27
   6  -3   6    2.99    0.25
   6   3   6    3.09    0.26
   6   3   6    3.38    0.25
  -6   3  -6    3.50    0.27
   6   3   6    2.81    0.23
   7  -3   6    0.15    0.08
   7  -3   6    0.44    0.16
   7   3   6    0.16    0.11
   7   3   6    0.01    0.08
  -7   3  -6    0.16    0.10
   8  -4  -6    4.90    0.24
   8   4  -6    4.93    0.25
  -8   4   6    4.76    0.26
   8   4  -6    4.65    0.25
   7  -4  -6    5.02    0.27
   7   4  -6    4.51    0.26
  -7   4   6    4.39    0.29
   7   4  -6    5.07    0.27
   6  -4  -6   21.84    0.81
  -6   4   6   22.07    0.85
   6   4  -6   20.79    0.80
   6   4  -6   21.43    0.81
  -5  -4   6    0.39    0.15
   5  -4  -6    0.29    0.11
   5   4  -6    0.51    0.15
  -5   4   6    0.33    0.12
  -5   4   6    0.69    0.20
   4  -4  -6   17.74    0.72
  -4  -4   6   17.96    0.71
  -4  -4   6   19.55    0.70
  -4   4   6   20.12    0.75
  -4   4   6   19.44    0.71
  -3  -4   6    9.84    0.46
  -3  -4   6   10.02    0.40
  -3   4   6    9.76    0.51
  -3   4   6   10.86    0.41
  -2  -4   6   19.87    0.69
  -2  -4   6   18.79    0.71
   2   4  -6   19.18    0.73
  -2   4   6   19.80    0.70
  -1  -4   6   20.75    0.75
  -1  -4   6   21.48    0.73
  -1   4   6   21.91    0.75
   1   4  -6   21.36    0.74
   0  -4   6    0.06    0.06
   0  -4  -6    0.10    0.07
   0  -4  -6    0.00    0.09
   0   4   6    0.19    0.08
  -1  -4  -6    3.30    0.24
   1  -4   6    2.79    0.18
   1   4   6    2.97    0.21
  -2  -4  -6   41.95    1.49
   2   4   6   39.41    1.42
   2   4   6   39.77    1.41
   3  -4   6   10.57    0.46
   3  -4   6   10.98    0.49
   3  -4   6   10.64    0.50
   3   4   6   10.89    0.47
   3   4   6   10.75    0.48
   3   4   6   10.08    0.48
   4  -4   6   43.76    1.73
   4  -4   6   50.88    1.72
   4  -4   6   50.53    1.76
   4   4   6   51.26    1.74
   4   4   6   51.24    1.75
   4   4   6   51.36    1.73
   5  -4   6    8.64    0.45
   5  -4   6    8.97    0.46
   5  -4   6    8.80    0.42
   5   4   6    9.27    0.44
   5   4   6    8.39    0.44
   5   4   6    9.58    0.44
  -5   4  -6    9.02    0.46
   6  -4   6    6.26    0.30
   6  -4   6    5.73    0.33
   6   4   6    5.40    0.31
  -6   4  -6    5.93    0.34
   6   4   6    6.15    0.32
   6   4   6    5.93    0.32
   7  -4   6   -0.10    0.13
   7  -4   6   -0.01    0.07
   7   4   6    0.19    0.10
   7   4   6   -0.02    0.08
  -7   4  -6    0.11    0.10
   8  -5  -6    1.96    0.17
   8   5  -6    1.79    0.16
  -8   5   6    1.73    0.17
   7  -5  -6    2.94    0.22
   7   5  -6    3.13    0.21
  -7   5   6    3.35    0.24
   6  -5  -6    1.41    0.22
   6   5  -6    1.40    0.18
  -6   5   6    1.11    0.21
   6   5  -6    1.32    0.19
  -5  -5   6    0.25    0.14
   5  -5  -6    0.00    0.13
  -5   5   6    0.01    0.11
  -5   5   6    0.00    0.11
   5   5  -6    0.15    0.10
   4  -5  -6    5.63    0.35
  -4  -5   6    6.09    0.31
  -4  -5   6    5.68    0.32
  -4   5   6    5.86    0.34
  -4   5   6    6.18    0.30
  -3  -5   6    0.81    0.27
  -3  -5   6    0.92    0.13
  -3   5   6    0.97    0.22
  -3   5   6    0.91    0.14
  -2  -5   6  174.88    5.70
  -2  -5   6  183.53    5.68
   2   5  -6  163.03    5.74
  -1  -5   6   36.83    1.29
   1  -5  -6   39.28    1.38
  -1   5   6   38.06    1.30
   0  -5  -6    4.76    0.32
   0  -5   6    5.05    0.23
   0   5   6    4.70    0.24
  -1  -5  -6    0.06    0.14
   1  -5   6    0.03    0.07
   2  -5   6    0.74    0.18
   2  -5   6    0.50    0.18
   2  -5   6    0.64    0.22
   2  -5   6    0.65    0.17
   2   5   6    0.31    0.12
   3  -5   6   29.88    1.10
   3  -5   6   29.59    1.06
   3  -5   6   30.23    1.10
   3   5   6   29.56    1.08
   3   5   6   29.91    1.10
   3   5   6   29.86    1.09
   4  -5   6   44.59    1.57
   4  -5   6   44.16    1.58
   4  -5   6   43.09    1.54
   4   5   6   45.33    1.58
   4   5   6   45.15    1.55
   4   5   6   47.84    1.58
  -4   5  -6   41.47    1.57
   5  -5   6    1.41    0.24
   5  -5   6    1.30    0.18
   5   5   6    1.04    0.19
  -5   5  -6    1.63    0.27
   5   5   6    1.04    0.21
   5   5   6    1.01    0.20
   6  -5   6    0.58    0.16
   6  -5   6    0.95    0.14
   6   5   6    0.75    0.18
   6   5   6    0.73    0.16
  -6   5  -6    0.65    0.21
   6   5   6    0.82    0.16
   7  -5   6    1.20    0.13
  -7   5  -6    1.33    0.17
  -7   5  -6    1.14    0.14
   7   5   6    1.22    0.14
   8  -6  -6    0.90    0.21
   8   6  -6    0.72    0.11
  -8   6   6    0.91    0.13
   7  -6  -6    0.72    0.18
   7   6  -6    0.76    0.13
  -7   6   6    0.63    0.15
   6  -6  -6    0.94    0.22
  -6   6   6    0.86    0.20
   6   6  -6    1.32    0.17
   5  -6  -6    5.44    0.35
  -5  -6   6    4.68    0.32
  -5   6   6    5.09    0.33
  -4  -6   6    0.52    0.17
  -4  -6   6    0.80    0.18
   4   6  -6    0.19    0.10
  -4   6   6    0.41    0.11
  -4   6   6    0.71    0.19
  -3  -6   6    9.33    0.39
  -3  -6   6    8.44    0.43
  -3   6   6    9.68    0.40
  -3   6   6    8.52    0.46
  -3   6   6    9.05    0.43
  -2  -6   6    3.19    0.27
  -2  -6   6    3.35    0.20
  -2   6   6    3.08    0.20
  -2   6   6    3.25    0.27
  -2   6   6    3.11    0.30
  -1  -6   6    0.79    0.22
  -1  -6   6    0.73    0.11
  -1   6   6    0.64    0.21
  -1   6   6    0.48    0.14
  -1   6   6    0.56    0.12
   0  -6   6    7.44    0.31
   0   6   6    7.55    0.39
   0   6   6    7.30    0.32
   0   6   6    6.62    0.36
   1  -6   6    0.71    0.25
   1  -6   6    0.77    0.29
   1   6   6    0.54    0.20
   1   6   6    0.64    0.21
  -2  -6  -6    0.38    0.19
   2  -6   6    0.47    0.18
   2  -6   6    0.17    0.11
   2  -6   6    0.43    0.15
   2   6   6    0.33    0.14
   2   6   6    0.61    0.20
   3  -6   6    9.49    0.47
   3  -6   6    7.59    0.40
   3   6   6    8.22    0.45
   3   6   6    8.36    0.43
   3   6   6    8.66    0.42
   4  -6   6    2.83    0.24
   4  -6   6    2.64    0.33
  -4   6  -6    2.99    0.38
   4   6   6    2.99    0.27
   4   6   6    2.36    0.27
   4   6   6    2.84    0.27
   5  -6   6    0.54    0.16
   5  -6   6    0.21    0.17
   5   6   6    0.66    0.18
  -5   6  -6    0.84    0.18
   5   6   6    0.78    0.20
   5   6   6    0.37    0.12
   6  -6   6    0.74    0.14
   6   6   6    0.71    0.15
   6   6   6    0.43    0.12
   6   6   6    0.54    0.15
  -6   6  -6    0.67    0.19
   7  -6   6    2.08    0.13
   7   6   6    1.76    0.16
  -7   6  -6    1.88    0.15
  -8   7   6    0.07    0.08
   8   7  -6    0.30    0.10
  -7   7   6    0.23    0.09
   7   7  -6    0.23    0.08
  -6   7   6    2.60    0.23
   6   7  -6    2.47    0.19
  -5  -7   6    7.87    0.40
   5   7  -6    7.96    0.37
  -5   7   6    7.30    0.40
  -4  -7   6    0.04    0.10
  -4   7   6    0.11    0.11
   4   7  -6   -0.01    0.09
  -4   7   6    0.02    0.14
  -3  -7   6    3.56    0.22
  -3   7   6    3.70    0.27
  -3   7   6    3.68    0.29
  -2  -7   6    4.38    0.24
  -2   7   6    4.35    0.29
  -2   7   6    4.22    0.29
  -1  -7   6   16.84    0.66
  -1  -7   6   16.13    0.61
  -1   7   6   16.05    0.64
  -1   7   6   16.07    0.66
   0  -7   6   21.92    0.84
   0  -7   6   20.54    0.83
   0  -7   6   22.10    0.79
   0   7   6   22.22    0.84
   0   7  -6   21.84    0.84
   0   7   6   21.66    0.81
   1  -7   6    0.79    0.30
   1  -7   6    1.00    0.14
   1  -7   6    0.89    0.26
   1   7   6    1.27    0.23
   1   7   6    0.62    0.19
  -1   7  -6    1.28    0.22
   2  -7   6   12.68    0.49
   2  -7   6   12.25    0.53
  -2  -7  -6   11.87    0.51
   2  -7   6   11.64    0.56
   2   7   6   11.80    0.52
   2   7   6   12.46    0.54
   3  -7   6    9.32    0.43
   3  -7   6    9.24    0.49
   3   7   6    9.13    0.45
   3   7   6    9.29    0.45
   4  -7   6    4.28    0.28
   4  -7   6    4.08    0.37
   4   7   6    3.95    0.32
   4   7   6    3.82    0.29
   4   7   6    4.28    0.30
   5  -7   6    0.65    0.15
   5   7   6    0.45    0.14
   5   7   6    0.47    0.16
   5   7   6    0.59    0.17
   6  -7   6    2.81    0.18
  -6   7  -6    2.86    0.20
   6   7   6    2.41    0.21
   6   7   6    2.80    0.21
   6   7   6    2.79    0.19
  -7   8   6    5.79    0.28
   7   8  -6    5.33    0.25
   6   8  -6    1.92    0.16
  -6   8   6    2.05    0.19
  -5  -8   6    6.54    0.39
   5  -8  -6    6.27    0.34
  -5   8   6    7.06    0.36
   5   8  -6    6.84    0.33
  -4  -8   6   -0.01    0.10
   4   8  -6   -0.01    0.09
  -4   8   6    0.03    0.14
  -4   8   6    0.14    0.12
  -3  -8   6    4.53    0.26
  -3   8   6    4.55    0.30
  -3   8   6    4.34    0.30
  -2  -8   6    2.76    0.20
  -2   8   6    2.80    0.24
  -2   8   6    2.57    0.25
  -1  -8   6   15.97    0.60
  -1  -8   6   15.46    0.63
  -1   8   6   15.58    0.62
  -1   8   6   14.97    0.64
   0  -8   6    3.98    0.32
   0  -8   6    4.03    0.24
   0   8  -6    3.53    0.32
   0   8   6    4.10    0.27
   0   8   6    3.85    0.29
   1  -8   6   88.08    2.74
   1  -8   6   80.64    2.75
  -1  -8  -6   87.07    2.75
   1  -8   6   79.78    2.76
   1   8   6   82.57    2.78
  -1   8  -6   71.53    2.75
   1   8   6   82.84    2.76
   2  -8   6    3.99    0.35
   2  -8   6    3.51    0.30
   2  -8   6    3.90    0.25
  -2  -8  -6    3.89    0.28
   2   8   6    4.14    0.29
  -2   8  -6    3.89    0.28
   2   8   6    3.98    0.28
   3  -8   6   44.30    1.54
  -3   8  -6   44.74    1.58
   3   8   6   44.58    1.57
   3   8   6   43.89    1.57
   4  -8   6    0.36    0.13
   4   8   6    0.67    0.19
   5  -8   6    0.21    0.10
  -5   8  -6    0.15    0.09
   5   8   6   -0.02    0.09
   5   8   6    0.19    0.09
   6  -8   6    1.41    0.15
   6   8   6    1.21    0.15
   6   8   6    1.29    0.17
  -6   8  -6    1.60    0.14
  -7   9   6    1.70    0.14
   7   9  -6    1.88    0.14
   6   9  -6   10.55    0.42
  -6   9   6   10.39    0.44
   5  -9  -6    2.70    0.25
   5   9  -6    2.61    0.19
  -5   9   6    2.64    0.23
   4  -9  -6    4.36    0.27
  -4  -9   6    4.58    0.27
   4   9  -6    4.49    0.25
  -4   9   6    4.76    0.30
  -4   9   6    4.73    0.29
  -3  -9   6    1.70    0.18
  -3   9   6    1.84    0.24
   3   9  -6    1.69    0.19
  -3   9   6    1.95    0.23
  -2  -9   6    8.42    0.37
  -2   9   6    7.71    0.42
  -2   9   6    7.99    0.40
  -1  -9   6   -0.03    0.08
  -1   9   6    0.09    0.10
   1   9  -6    0.21    0.17
  -1   9   6    0.12    0.12
   0  -9  -6   21.57    0.79
   0  -9   6   19.82    0.80
   0  -9   6   21.24    0.77
   0   9  -6   20.41    0.80
   0   9   6   20.37    0.80
   0   9   6   20.88    0.82
  -1  -9  -6    2.07    0.21
   1  -9   6    2.62    0.19
   1   9   6    2.42    0.26
   1   9   6    1.64    0.23
  -1   9  -6    1.82    0.26
   2  -9   6   45.32    1.58
  -2  -9  -6   44.09    1.59
  -2   9  -6   47.55    1.62
   2   9   6   47.32    1.63
   2   9   6   46.08    1.62
   3  -9   6    1.53    0.27
  -3   9  -6    1.97    0.22
   3   9   6    1.55    0.22
   3   9   6    1.75    0.22
   4  -9   6    3.68    0.25
  -4   9  -6    3.24    0.24
   4   9   6    2.97    0.23
   4   9   6    3.02    0.23
   5  -9   6    0.60    0.14
   5   9   6    0.91    0.14
  -5   9  -6    0.64    0.13
   5   9   6    0.56    0.15
  -6   9  -6    0.15    0.07
   6  10  -6    1.58    0.14
  -6  10   6    1.82    0.16
  -5  10   6    5.04    0.27
   5  10  -6    5.17    0.25
  -4 -10   6   -0.08    0.12
   4 -10  -6   -0.01    0.10
  -4  10   6    0.07    0.10
   4  10  -6    0.09    0.09
  -4  10   6    0.06    0.10
  -3 -10   6    6.76    0.34
   3 -10  -6    6.97    0.35
  -3  10   6    7.57    0.38
  -3  10   6    7.59    0.36
   3  10  -6    7.40    0.35
   2 -10  -6    0.06    0.09
  -2 -10   6    0.09    0.09
  -2  10   6    0.15    0.12
  -2  10   6    0.22    0.11
   2  10  -6    0.59    0.20
  -1 -10   6    8.54    0.39
   1 -10  -6    8.62    0.40
  -1  10   6    8.49    0.43
   1  10  -6    7.79    0.43
  -1  10   6    8.62    0.41
   0 -10   6    3.82    0.24
   0 -10  -6    3.87    0.25
   0  10  -6    4.24    0.29
   0  10   6    3.59    0.30
   0  10   6    3.64    0.27
  -1 -10  -6   55.88    2.00
   1 -10   6   55.96    1.99
   1  10   6   59.04    2.03
  -1  10  -6   64.01    2.02
   1  10   6   58.25    2.02
   2 -10   6    8.73    0.41
  -2 -10  -6    9.37    0.45
  -2  10  -6    9.62    0.44
   2  10   6   10.11    0.45
   2  10   6    9.71    0.44
  -3  10  -6   -0.06    0.10
   3  10   6    0.03    0.08
   3  10   6    0.00    0.11
   4  10   6    0.88    0.15
  -4  10  -6    0.90    0.15
   4  10   6    0.82    0.16
  -5  10  -6    0.02    0.07
   5  10   6    0.09    0.08
   5  10   6   -0.12    0.10
  -5  11   6    0.80    0.14
   5  11  -6    0.59    0.14
  -4 -11   6    0.24    0.14
   4 -11  -6    0.20    0.12
   4  11  -6    0.49    0.15
  -4  11   6    0.21    0.10
  -4  11   6    0.17    0.09
  -3 -11   6    3.53    0.22
   3 -11  -6    3.46    0.23
  -3  11   6    3.37    0.24
   3  11  -6    3.08    0.23
  -3  11   6    3.40    0.22
   2 -11  -6   11.51    0.49
  -2 -11   6   10.92    0.48
  -2  11   6   11.61    0.49
  -2  11   6   12.96    0.52
  -1 -11   6    0.00    0.08
   1 -11  -6    0.01    0.09
   1  11  -6   -0.03    0.15
  -1  11   6    0.19    0.12
  -1  11   6   -0.12    0.08
   0 -11   6    0.25    0.10
   0 -11  -6    0.38    0.11
   0  11   6    0.67    0.17
   0  11  -6    0.22    0.12
   0  11   6    0.40    0.12
  -1 -11  -6    2.09    0.21
   1 -11   6    2.37    0.19
  -1  11  -6    1.98    0.20
   1  11   6    2.26    0.22
   1  11   6    2.43    0.20
   2 -11   6    4.79    0.27
  -2  11  -6    4.58    0.27
   2  11   6    4.68    0.27
   2  11   6    4.61    0.28
   3  11   6    0.79    0.14
  -3  11  -6    1.10    0.15
   3  11   6    0.88    0.17
  -4  11  -6    1.62    0.14
   4  11   6    1.66    0.18
   4  11   6    1.61    0.15
  -5  12   6    0.84    0.14
  -4  12   6    0.15    0.10
  -4  12   6    0.21    0.08
  -3 -12   6    3.32    0.22
   3 -12  -6    3.48    0.22
  -3  12   6    3.01    0.22
  -3  12   6    3.48    0.21
   2 -12  -6    0.29    0.11
  -2 -12   6    0.21    0.09
  -2  12   6    0.42    0.12
  -2  12   6    0.22    0.10
   1 -12  -6    0.92    0.15
  -1 -12   6    0.82    0.13
  -1  12   6    0.74    0.14
  -1  12   6    0.89    0.17
   0 -12  -6    0.23    0.10
   0 -12   6    0.08    0.08
   0  12   6    0.00    0.10
   0  12  -6    0.01    0.11
   0  12   6    0.13    0.08
  -1 -12  -6    3.75    0.25
   1 -12   6    3.48    0.21
   1  12   6    3.52    0.22
   1  12   6    3.22    0.23
  -1  12  -6    3.44    0.22
   2  12   6    2.68    0.21
  -2  12  -6    2.72    0.19
   2  12   6    2.62    0.18
   3  12   6    0.21    0.12
  -3  12  -6    0.30    0.11
   3  12   6    0.19    0.07
  -4  12  -6   -0.01    0.06
  -3  13   6    0.05    0.07
  -3  13   6    0.02    0.09
  -2 -13   6    2.64    0.18
   2 -13  -6    2.46    0.19
  -2  13   6    2.17    0.16
  -2  13   6    2.25    0.19
  -1 -13   6    1.61    0.16
   1 -13  -6    1.60    0.17
  -1  13   6    1.54    0.14
  -1  13   6    1.89    0.18
   0 -13  -6    1.54    0.18
   0 -13   6    1.80    0.17
   0  13   6    1.70    0.19
   0  13   6    1.69    0.15
   1  13   6    0.01    0.07
   1  13   6    0.03    0.12
  -1  13  -6    0.09    0.09
   2  13   6    0.01    0.06
  -2  13  -6   -0.01    0.08
  -1  14   6    0.01    0.06
   0  14   6    0.82    0.11
   9   0  -7    0.59    0.10
   8   0  -7   -0.13    0.07
   7   0  -7   10.68    0.49
   7   0  -7   11.34    0.47
  -6   0   7    0.03    0.19
   6   0  -7    0.17    0.15
   5   0  -7   15.31    0.65
  -5   0   7   17.11    0.62
  -4   0   7    0.04    0.08
  -4   0   7   -0.01    0.10
  -3   0   7    3.15    0.17
  -3   0   7    2.95    0.22
   2   0  -7    0.20    0.08
  -2   0   7    0.09    0.05
  -2   0   7   -0.01    0.06
  -1   0   7    1.59    0.12
  -1   0   7    1.77    0.13
   0   0  -7    0.22    0.06
   0   0  -7    0.05    0.05
  -1   0  -7  110.93    3.67
  -1   0  -7  111.80    3.67
  -2   0  -7    0.18    0.09
   3   0   7   15.33    0.61
   3   0   7   14.98    0.63
   3   0   7   15.51    0.61
   3   0   7   15.18    0.64
   4   0   7    0.02    0.12
   4   0   7    0.03    0.12
   4   0   7    0.11    0.13
   5   0   7  152.55    4.95
   5   0   7  144.96    4.91
   5   0   7  149.20    4.93
   5   0   7  148.65    4.94
   6   0   7   -0.10    0.10
   6   0   7    0.01    0.11
   6   0   7   -0.04    0.10
   7   0   7    1.71    0.17
   7   0   7    1.58    0.17
   7   0   7    1.82    0.17
   9  -1  -7    3.22    0.17
   9   1  -7    3.30    0.17
   8  -1  -7    0.12    0.08
   8   1  -7    0.19    0.15
  -8   1   7   -0.12    0.14
   8   1  -7    0.41    0.12
   7  -1  -7   10.84    0.46
  -7   1   7   10.98    0.50
   7   1  -7   10.42    0.45
   7   1  -7   10.51    0.47
   6  -1  -7    3.35    0.23
  -6   1   7    3.96    0.32
   6   1  -7    3.45    0.27
  -5  -1   7   16.09    0.60
  -5   1   7   14.58    0.65
   5   1  -7   14.60    0.60
  -5   1   7   15.83    0.60
  -4  -1   7    1.67    0.19
  -4  -1   7    2.09    0.16
  -4   1   7    1.58    0.20
  -4   1   7    1.74    0.17
  -3  -1   7   50.00    1.65
  -3  -1   7   47.54    1.70
  -3   1   7   50.63    1.66
  -3   1   7   48.77    1.72
  -2  -1   7   20.41    0.76
   2  -1  -7   21.40    0.79
  -2  -1   7   21.20    0.74
   2   1  -7   21.14    0.77
  -2   1   7   21.66    0.78
  -2   1   7   20.59    0.74
  -1  -1   7   16.09    0.59
  -1  -1   7   17.16    0.60
   1  -1  -7   17.64    0.63
  -1   1   7   15.73    0.59
   1   1  -7   17.09    0.60
   0  -1  -7    0.84    0.12
   0  -1  -7    1.00    0.11
   0   1  -7    1.23    0.09
   0   1  -7    1.21    0.09
  -1  -1  -7    4.71    0.26
  -1  -1  -7    4.68    0.24
  -1   1  -7    4.56    0.20
  -1   1  -7    4.52    0.20
  -2  -1  -7  106.22    3.43
  -2   1  -7  103.14    3.38
  -2   1  -7   98.41    3.38
  -3  -1  -7   24.79    1.00
   3  -1   7   26.06    0.95
   3  -1   7   25.32    0.92
   3  -1   7   24.98    0.93
   3  -1   7   24.05    0.96
   3   1   7   26.59    0.93
   3   1   7   23.79    0.93
   3   1   7   26.93    0.95
   3   1   7   25.85    0.95
   4  -1   7   36.44    1.30
   4  -1   7   37.35    1.33
   4  -1   7   36.05    1.31
   4  -1   7   38.11    1.34
   4   1   7   36.22    1.30
   4   1   7   37.15    1.33
   4   1   7   36.93    1.33
   4   1   7   37.70    1.32
   5  -1   7   -0.09    0.12
   5  -1   7    0.19    0.13
   5  -1   7    0.21    0.14
   5   1   7    0.18    0.14
   5   1   7    0.10    0.13
   5   1   7    0.20    0.16
   5   1   7    0.06    0.12
   6  -1   7    1.95    0.22
   6  -1   7    2.06    0.22
   6  -1   7    2.03    0.20
   6   1   7    2.09    0.22
   6   1   7    2.11    0.22
   6   1   7    2.10    0.22
   7  -1   7    0.00    0.09
   7  -1   7    0.09    0.08
   7  -1   7    0.03    0.08
   7   1   7    0.12    0.09
   7   1   7   -0.11    0.12
  -7   1  -7    0.01    0.09
   7   1   7    0.02    0.08
   9  -2  -7    0.86    0.11
   8  -2  -7    5.60    0.27
  -8   2   7    5.44    0.31
   8   2  -7    5.40    0.26
   8   2  -7    5.24    0.27
   7  -2  -7    0.02    0.08
   7   2  -7   -0.08    0.09
   7   2  -7    0.20    0.11
  -7   2   7    0.05    0.13
   6  -2  -7   38.65    1.38
   6   2  -7   39.19    1.38
  -6   2   7   40.35    1.41
  -5   2   7    7.28    0.40
   5   2  -7    7.08    0.35
  -5   2   7    7.03    0.36
  -4  -2   7   28.19    0.96
  -4  -2   7   26.76    0.96
  -4   2   7   26.10    1.00
  -3  -2   7   38.19    1.33
  -3  -2   7   37.51    1.27
  -3   2   7   36.70    1.35
  -3   2   7   36.71    1.27
  -2  -2   7   18.64    0.67
  -2  -2   7   18.71    0.69
   2  -2  -7   18.89    0.73
  -2   2   7   19.07    0.67
  -2   2   7   19.34    0.73
   2   2  -7   18.90    0.70
  -1  -2   7   11.15    0.43
  -1  -2   7   11.35    0.43
   1  -2  -7   12.19    0.48
  -1   2   7   11.27    0.43
   1   2  -7   11.60    0.43
   0  -2   7    2.37    0.15
   0  -2  -7    2.56    0.19
   0  -2  -7    2.61    0.18
   0   2  -7    2.41    0.11
   0   2  -7    2.37    0.11
   0   2   7    2.36    0.16
  -1  -2  -7   54.91    1.86
  -1  -2  -7   53.94    1.88
  -2  -2  -7    0.64    0.21
   3  -2   7    8.89    0.43
   3  -2   7    9.62    0.42
   3  -2   7    9.99    0.47
   3  -2   7    8.65    0.50
   3   2   7    9.55    0.45
   3   2   7    9.66    0.44
   3   2   7    9.55    0.44
   4  -2   7   14.49    0.61
   4  -2   7   16.95    0.64
   4   2   7   13.55    0.62
   4   2   7   15.95    0.64
   4   2   7   15.97    0.63
   4   2   7   15.26    0.64
   5  -2   7   32.87    1.21
   5  -2   7   32.67    1.17
   5  -2   7   33.54    1.20
   5   2   7   33.48    1.20
   5   2   7   30.98    1.16
   5   2   7   32.96    1.19
   5   2   7   32.30    1.20
   6  -2   7    0.64    0.18
   6  -2   7    0.77    0.16
   6   2   7    0.98    0.18
   6   2   7    0.55    0.18
   6   2   7    0.59    0.13
   7  -2   7    0.15    0.10
   7  -2   7    0.01    0.08
   7   2   7    0.11    0.09
  -7   2  -7    0.11    0.09
   7   2   7    0.00    0.08
   8  -3  -7    0.17    0.09
   8   3  -7    0.07    0.09
   8   3  -7    0.23    0.10
  -8   3   7    0.22    0.10
   7  -3  -7    3.91    0.25
   7   3  -7    4.24    0.26
   7   3  -7    4.43    0.25
  -7   3   7    4.31    0.29
   6  -3  -7    2.88    0.23
  -6   3   7    3.31    0.29
   6   3  -7    2.78    0.23
   5  -3  -7    7.18    0.36
  -5  -3   7    7.67    0.36
   5   3  -7    7.41    0.36
  -5   3   7    7.48    0.40
  -5   3   7    8.01    0.38
  -4  -3   7    0.09    0.08
  -4  -3   7    0.32    0.12
  -4   3   7    0.23    0.10
  -4   3   7    0.09    0.13
  -3  -3   7    0.12    0.11
  -3  -3   7    0.04    0.08
  -3   3   7   -0.04    0.13
  -3   3   7    0.08    0.08
  -2  -3   7    3.74    0.21
  -2  -3   7    3.84    0.20
  -2   3   7    3.60    0.19
   2   3  -7    3.68    0.22
  -1  -3   7   59.47    1.91
  -1  -3   7   57.92    1.92
   1  -3  -7   56.89    1.99
  -1   3   7   56.71    1.92
   1   3  -7   57.13    1.91
   0  -3  -7   17.25    0.69
   0  -3  -7   17.90    0.66
   0  -3   7   16.09    0.60
   0   3   7   16.64    0.61
   1  -3   7    1.02    0.15
  -1  -3  -7    0.97    0.17
   1   3   7    0.90    0.17
   2  -3   7   38.47    1.36
  -2  -3  -7   38.78    1.40
   2  -3   7   38.60    1.33
   2   3   7   36.95    1.36
   2   3   7   38.03    1.34
   3  -3   7    0.81    0.22
   3  -3   7    0.94    0.22
   3  -3   7    0.67    0.18
   3   3   7    0.68    0.23
   3   3   7    0.62    0.15
   3   3   7    0.96    0.20
   4  -3   7   18.14    0.71
   4  -3   7   18.81    0.74
   4  -3   7   18.42    0.73
   4   3   7   17.82    0.72
   4   3   7   18.56    0.74
   4   3   7   18.55    0.72
   5  -3   7    5.18    0.30
   5  -3   7    5.00    0.34
   5  -3   7    5.15    0.34
   5   3   7    5.00    0.34
   5   3   7    5.43    0.32
   5   3   7    5.47    0.33
   6  -3   7    3.19    0.22
   6  -3   7    3.07    0.24
   6  -3   7    3.17    0.25
   6   3   7    3.26    0.24
   6   3   7    3.27    0.24
   6   3   7    3.29    0.23
  -6   3  -7    3.40    0.26
   7  -3   7    0.05    0.07
   7  -3   7    0.05    0.10
  -7   3  -7    0.21    0.10
   7   3   7    0.06    0.08
   7   3   7    0.53    0.15
   8  -4  -7    0.55    0.13
  -8   4   7    0.27    0.10
   8   4  -7    0.44    0.15
   8   4  -7    0.72    0.14
   7  -4  -7    2.64    0.21
   7   4  -7    2.32    0.19
   7   4  -7    2.71    0.20
  -7   4   7    2.73    0.24
   6  -4  -7    1.11    0.19
  -6   4   7    0.90    0.22
   6   4  -7    0.96    0.17
   5  -4  -7   24.83    0.90
  -5  -4   7   23.77    0.88
  -5   4   7   24.55    0.89
  -5   4   7   24.20    0.92
   5   4  -7   24.50    0.90
  -4  -4   7    3.57    0.23
  -4  -4   7    3.64    0.25
  -4   4   7    3.84    0.28
  -4   4   7    3.68    0.24
  -3  -4   7  104.78    3.54
  -3  -4   7  108.32    3.47
  -3  -4   7  102.10    3.48
  -3   4   7  103.69    3.47
  -3   4   7  107.10    3.51
  -2  -4   7   15.12    0.59
  -2  -4   7   16.07    0.57
  -2   4   7   15.68    0.58
   2   4  -7   15.16    0.62
  -1  -4   7    0.37    0.10
  -1   4   7    0.46    0.12
   1   4  -7    0.50    0.09
   0  -4  -7   66.06    2.20
   0  -4   7   61.91    2.12
   0   4   7   63.45    2.12
  -1  -4  -7    1.14    0.22
   1  -4   7    1.44    0.15
   1   4   7    1.25    0.17
   2  -4   7   29.16    1.05
   2  -4   7   29.90    1.09
   2  -4   7   29.01    1.08
   2   4   7   29.53    1.08
   2   4   7   30.24    1.07
   3  -4   7    2.00    0.26
   3  -4   7    1.72    0.20
   3  -4   7    2.25    0.26
   3   4   7    2.24    0.23
   3   4   7    2.07    0.24
   3   4   7    1.79    0.27
   4  -4   7    7.42    0.39
   4  -4   7    7.04    0.39
   4  -4   7    6.66    0.35
   4   4   7    6.98    0.38
   4   4   7    7.19    0.38
   4   4   7    7.20    0.38
   5  -4   7   -0.09    0.10
   5  -4   7    0.11    0.11
   5  -4   7    0.14    0.14
   5   4   7    0.10    0.11
  -5   4  -7   -0.05    0.14
   5   4   7   -0.04    0.11
   5   4   7    0.29    0.12
   6  -4   7    0.40    0.13
   6  -4   7    0.33    0.12
   6   4   7    0.40    0.12
  -6   4  -7    0.21    0.13
   6   4   7    0.62    0.15
   6   4   7    0.77    0.16
   7  -4   7    1.54    0.20
   7  -4   7    1.17    0.12
  -7   4  -7    1.11    0.18
   7   4   7    1.15    0.16
   7   4   7    0.94    0.13
   8  -5  -7   -0.01    0.10
   8   5  -7    0.05    0.08
  -8   5   7    0.13    0.09
   7  -5  -7    0.95    0.17
   7   5  -7    1.46    0.17
  -7   5   7    1.31    0.18
   7   5  -7    1.40    0.16
   6  -5  -7    1.56    0.21
  -6   5   7    1.17    0.22
   6   5  -7    1.57    0.21
   6   5  -7    1.41    0.18
   5  -5  -7    2.13    0.24
  -5  -5   7    1.50    0.21
  -5   5   7    1.62    0.23
   5   5  -7    1.74    0.18
  -5   5   7    1.26    0.20
  -4  -5   7    1.30    0.18
   4  -5  -7    1.24    0.35
  -4  -5   7    1.44    0.22
  -4   5   7    1.03    0.18
  -4   5   7    1.48    0.22
  -3  -5   7    4.66    0.24
  -3  -5   7    4.58    0.29
  -3   5   7    5.15    0.26
  -3   5   7    4.83    0.31
  -2  -5   7   14.65    0.55
  -2  -5   7   14.61    0.60
  -2   5   7   15.65    0.57
  -2   5   7   14.05    0.60
   1  -5  -7   61.85    2.08
  -1  -5   7   60.86    1.97
  -1   5   7   53.94    1.97
   0  -5   7   10.31    0.39
   0   5   7    8.14    0.60
   0   5   7   10.71    0.41
   1  -5   7   38.18    1.27
   1  -5   7   37.27    1.32
   1  -5   7   36.26    1.30
   1   5   7   36.54    1.32
   1   5   7   37.25    1.31
   2  -5   7   13.64    0.55
   2  -5   7   13.28    0.58
   2  -5   7   13.43    0.59
   2   5   7   13.15    0.57
   3  -5   7   23.93    0.89
   3  -5   7   22.14    0.87
   3  -5   7   22.64    0.84
   3   5   7   22.08    0.86
   3   5   7   22.45    0.87
   3   5   7   22.87    0.86
   4  -5   7   23.88    0.91
   4  -5   7   23.42    0.90
   4  -5   7   23.42    0.87
   4   5   7   23.67    0.88
  -4   5  -7   22.46    0.90
   4   5   7   22.63    0.89
   4   5   7   22.73    0.90
   5  -5   7    5.19    0.29
   5  -5   7    5.34    0.33
  -5   5  -7    5.09    0.35
   5   5   7    4.62    0.30
   5   5   7    4.86    0.30
   5   5   7    4.80    0.30
   6  -5   7    0.46    0.13
   6  -5   7    0.29    0.13
  -6   5  -7    0.38    0.14
   6   5   7    0.56    0.15
   6   5   7    0.37    0.14
   6   5   7    0.34    0.10
   7  -5   7    0.09    0.06
   7   5   7   -0.02    0.08
  -7   5  -7   -0.05    0.07
   7   5   7    0.07    0.10
   8   6  -7    0.47    0.12
  -8   6   7    0.73    0.15
   7  -6  -7    0.58    0.19
  -7   6   7    0.66    0.16
   7   6  -7    0.94    0.13
   6  -6  -7    0.04    0.15
  -6   6   7    0.08    0.10
   6   6  -7   -0.01    0.12
   6   6  -7    0.08    0.08
   5  -6  -7    5.54    0.56
  -5  -6   7    5.55    0.32
   5   6  -7    5.72    0.31
  -4  -6   7    2.53    0.25
  -4  -6   7    2.24    0.21
  -4   6   7    1.85    0.23
  -4   6   7    2.23    0.20
  -3  -6   7    8.51    0.42
  -3  -6   7    9.20    0.39
  -3   6   7    8.90    0.43
  -3   6   7    8.99    0.40
  -2  -6   7    1.05    0.20
  -2  -6   7    0.83    0.13
  -2  -6   7    0.72    0.25
  -2   6   7    0.85    0.14
  -2   6   7    1.05    0.21
  -2   6   7    0.81    0.17
  -1  -6   7    3.72    0.21
  -1  -6   7    3.56    0.29
  -1  -6   7    3.49    0.28
  -1   6   7    3.71    0.29
  -1   6   7    3.51    0.21
  -1   6   7    4.27    0.29
   0  -6   7   98.76    3.30
   0  -6   7   98.81    3.32
   0  -6   7  100.06    3.34
   0   6   7  102.43    3.32
   0   6   7   98.01    3.35
   0   6   7  101.92    3.33
   1  -6   7   44.49    1.48
   1  -6   7   42.80    1.51
   1  -6   7   42.73    1.53
   1   6   7   43.79    1.53
   1   6   7   43.93    1.52
   2  -6   7    1.45    0.20
   2  -6   7    1.76    0.26
   2  -6   7    1.99    0.21
   2   6   7    1.55    0.22
   2   6   7    1.62    0.23
   3  -6   7   12.11    0.57
   3  -6   7   12.09    0.53
   3   6   7   13.17    0.55
   3   6   7   12.81    0.56
   4  -6   7    3.57    0.26
   4  -6   7    3.60    0.32
   4   6   7    3.56    0.30
   4   6   7    3.44    0.29
   4   6   7    3.68    0.29
   5  -6   7    0.32    0.15
   5  -6   7    0.29    0.11
   5   6   7    0.37    0.12
   5   6   7    0.27    0.10
  -5   6  -7   -0.01    0.20
   5   6   7    0.42    0.17
   6  -6   7    0.04    0.08
   6   6   7    0.12    0.09
   6   6   7    0.17    0.08
   6   6   7   -0.06    0.10
   7  -6   7    1.63    0.12
  -7   6  -7    1.71    0.14
  -7   7   7    1.89    0.17
   7   7  -7    1.77    0.15
  -6   7   7    6.16    0.33
   6   7  -7    6.19    0.31
  -5  -7   7    0.28    0.13
  -5   7   7    0.25    0.12
   5   7  -7    0.15    0.09
  -4  -7   7    9.22    0.40
   4   7  -7    8.36    0.41
  -4   7   7    8.51    0.44
  -3  -7   7    0.07    0.08
  -3   7   7   -0.03    0.15
  -3   7   7    0.07    0.11
  -3   7   7    0.05    0.09
  -2  -7   7    8.39    0.39
  -2  -7   7    6.48    0.50
  -2  -7   7    8.00    0.35
  -2   7   7    8.12    0.37
  -2   7   7    8.18    0.40
  -2   7   7    7.88    0.41
  -1  -7   7   34.84    1.22
  -1  -7   7   31.10    1.20
  -1  -7   7   34.59    1.18
  -1   7   7   33.75    1.22
  -1   7   7   34.56    1.20
   0  -7   7    0.07    0.16
   0  -7   7    0.24    0.09
   0  -7   7    0.28    0.16
   0   7   7    0.22    0.12
   0   7   7    0.23    0.11
   0   7  -7    0.42    0.18
   1  -7   7    1.24    0.28
   1  -7   7    0.98    0.16
   1  -7   7    0.86    0.17
   1   7   7    0.72    0.18
   1   7   7    0.85    0.21
  -1   7  -7    1.23    0.22
   2  -7   7    0.36    0.14
   2  -7   7    0.54    0.17
   2  -7   7    0.40    0.13
   2   7   7    0.43    0.13
   2   7   7    0.71    0.20
   3  -7   7    1.97    0.32
   3  -7   7    1.70    0.23
   3   7   7    1.54    0.24
   3   7   7    1.60    0.23
   4  -7   7    8.36    0.38
   4  -7   7    7.93    0.44
   4   7   7    8.32    0.41
   4   7   7    8.33    0.42
   5  -7   7    0.58    0.14
   5   7   7    0.75    0.15
   5   7   7    0.49    0.14
   5   7   7    0.64    0.16
   6  -7   7    3.02    0.18
   6   7   7    3.11    0.19
   6   7   7    3.59    0.23
   6   7   7    3.20    0.20
  -6   7  -7    2.94    0.19
   7   8  -7   -0.02    0.06
  -7   8   7    0.01    0.07
   6   8  -7   11.91    0.47
  -6   8   7   11.71    0.49
  -5  -8   7   -0.03    0.14
   5   8  -7   -0.09    0.07
  -5   8   7   -0.02    0.10
  -4  -8   7    0.83    0.17
   4   8  -7    0.76    0.16
  -4   8   7    0.62    0.15
  -3  -8   7    1.18    0.16
  -3   8   7    0.86    0.22
  -3   8   7    1.21    0.22
  -2  -8   7    7.09    0.33
  -2   8   7    7.11    0.37
  -2   8   7    6.77    0.37
  -1  -8   7    6.99    0.32
  -1  -8   7    5.61    0.35
  -1   8   7    7.02    0.38
  -1   8   7    7.13    0.36
   0  -8   7   25.97    1.05
   0  -8   7   26.48    0.95
   0  -8   7   26.61    0.91
   0   8  -7   24.06    0.94
   0   8   7   23.23    0.95
   0   8   7   24.36    0.93
   1  -8   7    4.37    0.31
   1  -8   7    4.62    0.26
  -1  -8  -7    4.57    0.28
   1  -8   7    4.39    0.34
   1   8   7    4.23    0.28
   1   8   7    4.59    0.31
  -1   8  -7    4.02    0.31
   2  -8   7    0.67    0.19
   2  -8   7    1.02    0.27
   2  -8   7    1.25    0.25
  -2   8  -7    0.97    0.22
   2   8   7    0.93    0.21
   2   8   7    0.82    0.21
   3  -8   7    5.87    0.33
   3  -8   7    4.99    0.40
   3   8   7    5.91    0.34
  -3   8  -7    5.57    0.34
   3   8   7    6.40    0.35
   4  -8   7    3.37    0.24
   4   8   7    3.39    0.24
  -4   8  -7    3.42    0.25
   4   8   7    3.32    0.25
   5  -8   7    0.27    0.10
   5   8   7    0.24    0.09
   5   8   7    0.21    0.09
  -5   8  -7    0.15    0.08
   6  -8   7    1.33    0.14
  -6   8  -7    0.78    0.12
   6   8   7    1.07    0.16
   6   8   7    1.05    0.13
   7   9  -7    6.14    0.26
  -7   9   7    6.66    0.28
   6   9  -7    0.49    0.11
  -5  -9   7    4.71    0.34
   5  -9  -7    4.91    0.30
   5   9  -7    5.19    0.26
  -5   9   7    5.19    0.29
  -4  -9   7    0.27    0.12
   4   9  -7    0.28    0.10
  -4   9   7    0.42    0.12
  -3  -9   7   17.27    0.69
  -3   9   7   18.38    0.73
  -3   9   7   18.16    0.70
  -2  -9   7    0.25    0.09
  -2   9   7    0.24    0.12
  -2   9   7    0.15    0.12
  -1   9   7    0.68    0.20
  -1   9   7    0.66    0.21
   0  -9   7   18.35    0.68
   0  -9   7   17.78    0.72
   0  -9  -7   18.87    0.70
   0   9   7   17.17    0.71
   0   9   7   16.97    0.73
   0   9  -7   18.18    0.72
  -1  -9  -7    0.92    0.19
   1  -9   7    0.93    0.21
   1  -9   7    0.70    0.16
   1   9   7    0.88    0.23
  -1   9  -7    0.67    0.16
   1   9   7    0.74    0.19
   2  -9   7    5.88    0.35
   2  -9   7    5.50    0.30
   2   9   7    5.46    0.34
   2   9   7    5.48    0.32
  -2   9  -7    5.54    0.33
   3  -9   7    0.06    0.15
   3   9   7    0.12    0.10
   3   9   7    0.06    0.11
  -3   9  -7    0.27    0.11
   4  -9   7    0.55    0.18
  -4   9  -7    0.69    0.16
   4   9   7    0.33    0.10
   4   9   7    0.54    0.15
   5  -9   7    0.92    0.16
   5   9   7    0.98    0.14
  -5   9  -7    1.06    0.13
   5   9   7    0.99    0.14
  -6  10   7    6.30    0.29
   6  10  -7    6.28    0.26
   5 -10  -7    3.79    0.29
  -5  10   7    4.11    0.25
   5  10  -7    4.07    0.21
  -4 -10   7    0.78    0.17
   4 -10  -7    0.88    0.17
  -4  10   7    0.47    0.12
  -4  10   7    0.85    0.17
   4  10  -7    0.62    0.14
   3 -10  -7    1.61    0.18
  -3 -10   7    1.52    0.17
  -3  10   7    1.39    0.21
  -3  10   7    1.76    0.19
   3  10  -7    1.64    0.18
   2 -10  -7    1.66    0.18
  -2 -10   7    1.23    0.16
  -2  10   7    1.53    0.22
  -2  10   7    1.35    0.19
   1 -10  -7    2.29    0.20
  -1 -10   7    2.04    0.18
  -1  10   7    1.87    0.21
  -1  10   7    2.39    0.23
   0 -10  -7   11.42    0.51
   0 -10   7   11.52    0.49
   0  10   7   12.29    0.52
   0  10  -7   12.17    0.52
   0  10   7   12.73    0.54
   1 -10   7    4.24    0.26
  -1 -10  -7    4.50    0.28
  -1  10  -7    4.82    0.31
   1  10   7    5.05    0.31
   1  10   7    5.19    0.30
   2 -10   7    0.47    0.15
   2  10   7    0.90    0.18
   2  10   7    0.67    0.18
  -2  10  -7    0.52    0.18
   3  10   7    0.09    0.08
  -3  10  -7    0.07    0.10
   3  10   7   -0.11    0.10
   4  10   7    1.34    0.16
  -4  10  -7    1.33    0.15
  -5  10  -7    1.43    0.13
   5  10   7    1.28    0.16
   5  10   7    1.60    0.15
   5  11  -7    0.21    0.09
  -5  11   7   -0.01    0.07
  -4 -11   7    0.79    0.21
   4 -11  -7    0.84    0.17
  -4  11   7    0.92    0.17
  -4  11   7    0.58    0.14
   4  11  -7    0.40    0.14
  -3 -11   7    0.17    0.10
   3 -11  -7    0.09    0.09
  -3  11   7    0.17    0.10
  -3  11   7    0.12    0.10
   3  11  -7    0.02    0.10
   2 -11  -7    0.20    0.10
  -2 -11   7    0.46    0.13
   2  11  -7    0.01    0.12
  -2  11   7    0.41    0.15
  -2  11   7    0.31    0.11
   1 -11  -7    2.39    0.20
  -1 -11   7    2.48    0.18
  -1  11   7    1.99    0.20
  -1  11   7    2.55    0.23
   0 -11   7   -0.03    0.08
   0 -11  -7    0.10    0.11
   0  11   7    0.00    0.10
   0  11   7   -0.05    0.08
   0  11  -7   -0.05    0.13
  -1 -11  -7    0.90    0.19
   1 -11   7    0.80    0.16
   1  11   7    0.91    0.16
   1  11   7    0.60    0.16
  -1  11  -7    0.79    0.17
   2  11   7    0.03    0.08
  -2  11  -7    0.02    0.09
   2  11   7    0.16    0.09
   3  11   7    0.26    0.11
  -3  11  -7    0.34    0.13
   3  11   7    0.33    0.11
  -4  11  -7    5.36    0.25
   4  11   7    5.42    0.26
   4  11   7    5.15    0.24
  -4  12   7    0.17    0.08
   3 -12  -7    0.21    0.10
  -3 -12   7    0.25    0.11
  -3  12   7   -0.04    0.08
  -3  12   7   -0.03    0.08
   2 -12  -7    3.14    0.21
  -2 -12   7    3.04    0.20
  -2  12   7    3.09    0.21
  -2  12   7    3.06    0.20
   1 -12  -7    0.62    0.15
  -1 -12   7    0.79    0.13
  -1  12   7    0.75    0.13
  -1  12   7    0.81    0.15
   0 -12   7    0.02    0.09
   0 -12  -7    0.05    0.10
   0  12   7    0.20    0.10
   0  12   7    0.14    0.07
  -1 -12  -7    0.08    0.15
   1 -12   7    0.02    0.11
  -1  12  -7   -0.06    0.10
   1  12   7    0.08    0.09
   1  12   7   -0.08    0.07
  -2  12  -7    2.63    0.18
   2  12   7    2.54    0.20
   2  12   7    2.54    0.17
   3  12   7    1.43    0.13
   3  12   7    1.74    0.18
  -3  12  -7    1.19    0.14
  -3  13   7    0.40    0.15
   2 -13  -7    0.07    0.10
  -2 -13   7   -0.07    0.11
  -2  13   7    0.01    0.06
  -2  13   7   -0.02    0.08
  -1 -13   7    0.50    0.14
   1 -13  -7    0.58    0.15
  -1  13   7    0.88    0.16
  -1  13   7    0.69    0.12
   0 -13   7    0.62    0.15
   0  13   7    0.30    0.11
   0  13   7    0.43    0.15
   1  13   7    1.47    0.13
   1  13   7    1.44    0.19
   2  13   7    0.08    0.06
   9   0  -8    0.01    0.06
   8   0  -8    0.46    0.11
   7   0  -8    0.01    0.09
   6   0  -8    0.79    0.27
  -5   0   8   -0.03    0.12
   5   0  -8    0.08    0.16
  -4   0   8  339.62   11.27
  -4   0   8  353.72   11.27
  -3   0   8    0.16    0.08
  -3   0   8    0.46    0.18
  -2   0   8  571.53   18.99
  -2   0   8  607.02   18.92
   2   0  -8  562.04   18.97
   1   0  -8    0.06    0.07
  -1   0   8    0.06    0.05
   0   0  -8    0.32    0.09
   0   0   8    0.17    0.06
   0   0  -8    0.39    0.09
  -1   0  -8    0.30    0.14
  -2   0  -8   11.13    0.49
   3   0   8    0.29    0.15
   3   0   8    0.55    0.20
   3   0   8    0.16    0.15
   3   0   8    0.09    0.14
   4   0   8    0.12    0.13
   4   0   8    0.03    0.12
   4   0   8   -0.06    0.11
   4   0   8    0.07    0.13
   5   0   8    0.21    0.14
   5   0   8   -0.02    0.13
   5   0   8    0.08    0.12
   5   0   8    0.26    0.13
   6   0   8    0.09    0.10
   6   0   8    0.12    0.11
   6   0   8    0.09    0.10
   7   0   8    0.12    0.07
   7   0   8    0.03    0.10
  -7   0  -8    0.04    0.08
   7   0   8   -0.04    0.07
   9  -1  -8    3.80    0.17
   9   1  -8    3.33    0.18
   8  -1  -8    0.13    0.08
   8   1  -8    0.34    0.11
   7  -1  -8    0.16    0.09
   7   1  -8    0.22    0.09
  -7   1   8    0.03    0.15
   7   1  -8    0.28    0.13
   6  -1  -8    0.74    0.18
   6   1  -8    0.59    0.22
  -6   1   8    0.53    0.19
  -5  -1   8    0.37    0.12
  -5   1   8    0.44    0.19
   5   1  -8    0.30    0.13
  -4  -1   8   19.86    0.74
  -4  -1   8   20.07    0.74
  -4   1   8   20.34    0.74
  -4   1   8   20.28    0.74
  -3  -1   8  955.44   32.00
  -3  -1   8 1000.00   32.04
  -3   1   8  982.10   32.07
  -3   1   8  994.23   32.04
  -2  -1   8   26.44    0.95
  -2  -1   8   26.55    0.91
   2  -1  -8   24.44    0.97
  -2   1   8   27.00    0.91
   2   1  -8   25.46    0.95
  -2   1   8   27.19    0.97
   1  -1  -8   25.15    0.92
  -1  -1   8   26.16    0.87
  -1   1   8   24.07    0.87
   1   1  -8   25.19    0.89
   0  -1   8   15.64    0.57
   0  -1  -8   17.17    0.62
   0  -1  -8   15.61    0.62
   0   1   8   15.96    0.58
   0   1  -8   16.23    0.58
   0   1  -8   15.98    0.57
  -1  -1  -8   58.66    1.94
   1  -1   8   53.59    1.89
  -1  -1  -8   56.96    1.96
  -1   1  -8   56.74    1.89
  -1   1  -8   58.61    1.90
  -2  -1  -8    4.12    0.29
   2  -1   8    3.94    0.30
   2   1   8    3.35    0.47
   3  -1   8   50.23    1.70
   3  -1   8   48.45    1.70
   3  -1   8   50.20    1.69
   3  -1   8   48.78    1.67
   3   1   8   48.03    1.68
   3   1   8   49.39    1.70
   3   1   8   45.94    1.67
   3   1   8   48.75    1.69
   4  -1   8    0.94    0.21
   4  -1   8    1.48    0.25
   4  -1   8    1.00    0.23
   4  -1   8    0.74    0.19
   4   1   8    1.05    0.21
   4   1   8    0.60    0.21
   4   1   8    0.53    0.16
   4   1   8    0.86    0.22
   5  -1   8    3.06    0.27
   5  -1   8    2.40    0.23
   5  -1   8    2.10    0.25
   5   1   8    2.51    0.26
   5   1   8    2.41    0.26
   5   1   8    2.95    0.27
   5   1   8    2.85    0.26
   6  -1   8    0.38    0.11
   6  -1   8    0.51    0.16
   6  -1   8    0.45    0.12
   6   1   8    0.34    0.13
   6   1   8    0.22    0.10
   6   1   8    0.79    0.15
   7  -1   8    0.53    0.14
   7  -1   8    0.52    0.13
   7   1   8    0.55    0.13
  -7   1  -8    0.53    0.15
   7   1   8    0.31    0.09
   8  -2  -8    1.11    0.13
  -8   2   8    1.41    0.23
   8   2  -8    1.50    0.18
   8   2  -8    1.27    0.13
   7  -2  -8    2.33    0.19
  -7   2   8    2.74    0.25
   7   2  -8    2.53    0.22
   7   2  -8    2.35    0.19
   6  -2  -8    5.20    0.29
  -6   2   8    4.79    0.35
   6   2  -8    5.36    0.31
  -5  -2   8    8.41    0.38
  -5   2   8    8.11    0.39
  -5   2   8    8.11    0.44
   5   2  -8    8.22    0.39
  -4  -2   8    0.41    0.12
  -4   2   8    0.88    0.31
  -4   2   8    0.40    0.14
  -3  -2   8  100.52    3.53
  -3  -2   8  109.14    3.48
  -3   2   8  111.06    3.49
  -3   2   8  101.24    3.57
  -2  -2   8    0.22    0.07
  -2  -2   8    0.29    0.13
  -2   2   8    0.32    0.11
  -2   2   8    0.27    0.08
   2   2  -8    0.46    0.15
  -1  -2   8    0.15    0.07
   1  -2  -8    0.04    0.09
   1   2  -8    0.21    0.07
  -1   2   8    0.07    0.06
   0  -2  -8    7.40    0.35
   0  -2  -8    7.49    0.38
   0  -2   8    7.17    0.30
   0   2  -8    7.63    0.28
   0   2  -8    7.54    0.28
   0   2   8    6.84    0.31
  -1  -2  -8    0.76    0.24
  -1  -2  -8    1.02    0.18
   1  -2   8    0.46    0.16
   1   2   8    0.72    0.18
  -2  -2  -8   19.35    0.82
   2  -2   8   20.61    0.77
   2  -2   8   21.13    0.80
   2  -2   8   20.25    0.75
   2   2   8   19.00    0.77
   2   2   8   19.95    0.77
   3  -2   8    2.75    0.27
   3  -2   8    3.32    0.25
   3  -2   8    2.26    0.38
   3  -2   8    2.87    0.23
   3   2   8    2.83    0.27
   3   2   8    2.72    0.26
   3   2   8    2.87    0.26
   4  -2   8    3.00    0.24
   4  -2   8    3.01    0.26
   4  -2   8    2.09    0.24
   4   2   8    2.41    0.25
   4   2   8    2.44    0.30
   4   2   8    2.62    0.25
   4   2   8    3.11    0.26
   5  -2   8    1.42    0.23
   5  -2   8    1.80    0.21
   5  -2   8    1.59    0.22
   5   2   8    1.63    0.24
   5   2   8    2.09    0.24
   5   2   8    2.27    0.23
   6  -2   8    0.12    0.10
   6  -2   8    0.07    0.10
   6  -2   8   -0.02    0.10
   6   2   8    0.09    0.09
   6   2   8    0.13    0.09
   7  -2   8    0.23    0.09
   7  -2   8    0.46    0.12
   7   2   8    0.20    0.09
  -7   2  -8    0.25    0.09
   7   2   8    0.11    0.08
   8  -3  -8    0.94    0.12
   8   3  -8    0.76    0.17
  -8   3   8    0.74    0.20
   8   3  -8    1.00    0.13
   7  -3  -8    1.61    0.16
   7   3  -8    1.21    0.17
  -7   3   8    1.31    0.22
   7   3  -8    1.28    0.16
   6  -3  -8    0.35    0.12
   6   3  -8    0.27    0.11
  -6   3   8    0.19    0.14
  -5  -3   8    8.86    0.39
  -5   3   8    8.27    0.44
  -5   3   8    8.97    0.40
   5   3  -8    8.09    0.39
  -4  -3   8    1.98    0.19
  -4  -3   8    1.92    0.18
  -4   3   8    1.43    0.27
  -4   3   8    1.61    0.18
  -3  -3   8    0.32    0.15
  -3  -3   8    0.38    0.12
  -3  -3   8    0.43    0.12
  -3  -3   8    0.18    0.14
  -3   3   8    0.18    0.08
  -2  -3   8   31.55    1.04
  -2  -3   8   28.86    1.06
   2   3  -8   29.44    1.08
  -2   3   8   30.85    1.05
  -1  -3   8  112.56    3.63
  -1   3   8  113.66    3.63
   1   3  -8  105.28    3.62
   0  -3  -8    5.20    0.30
   0  -3   8    4.84    0.23
   0   3   8    4.65    0.24
  -1  -3  -8    1.71    0.23
   1  -3   8    1.68    0.17
   1   3   8    1.10    0.18
   2  -3   8    0.79    0.23
   2  -3   8    0.77    0.18
   2  -3   8    1.25    0.20
   2   3   8    0.77    0.21
   2   3   8    0.81    0.22
   2   3   8    1.24    0.25
   3  -3   8    1.14    0.23
   3  -3   8    0.74    0.23
   3  -3   8    1.21    0.19
   3   3   8    0.86    0.22
   3   3   8    1.04    0.23
   4  -3   8    0.76    0.16
   4  -3   8    1.32    0.23
   4  -3   8    1.02    0.18
   4   3   8    0.81    0.20
   4   3   8    0.84    0.20
   4   3   8    0.64    0.19
   5  -3   8    1.16    0.21
   5  -3   8    1.20    0.18
   5  -3   8    0.70    0.21
   5   3   8    1.10    0.21
   5   3   8    1.09    0.20
   5   3   8    1.32    0.22
   6  -3   8    1.42    0.18
   6  -3   8    1.20    0.16
   6  -3   8    1.38    0.17
   6   3   8    1.13    0.16
   6   3   8    1.19    0.17
   6   3   8    1.00    0.17
  -6   3  -8    1.39    0.21
   7  -3   8    0.41    0.15
   7  -3   8    0.60    0.11
   7   3   8    0.60    0.12
  -7   3  -8    0.51    0.17
   7   3   8    0.39    0.13
   8  -4  -8    0.17    0.09
  -8   4   8    0.22    0.10
   8   4  -8   -0.01    0.09
   8   4  -8    0.16    0.08
   7  -4  -8    1.15    0.17
  -7   4   8    1.33    0.18
   7   4  -8    1.37    0.16
   7   4  -8    1.12    0.15
   6  -4  -8    2.83    0.23
   6   4  -8    2.32    0.21
  -6   4   8    2.00    0.25
  -5  -4   8    8.61    0.39
   5  -4  -8    8.37    0.40
  -5   4   8    8.28    0.40
   5   4  -8    8.51    0.39
  -5   4   8    8.44    0.43
  -4  -4   8    3.94    0.26
  -4  -4   8    4.14    0.25
  -4   4   8    3.98    0.26
  -4   4   8    4.08    0.30
  -3  -4   8   14.05    0.53
  -3  -4   8   13.16    0.56
  -3  -4   8   14.03    0.57
  -3   4   8   14.07    0.58
  -3   4   8   13.98    0.54
  -2  -4   8    3.64    0.20
  -2  -4   8    3.38    0.27
  -2   4   8    3.50    0.20
  -1  -4   8   14.97    0.56
   1  -4  -8   15.70    0.67
  -1   4   8   15.36    0.57
   0  -4   8  166.99    5.52
   0  -4  -8  172.15    5.62
   0   4   8  167.84    5.52
   1  -4   8   10.46    0.49
   1  -4   8   10.77    0.47
   1  -4   8   10.93    0.42
   1   4   8   10.59    0.49
   1   4   8   10.92    0.44
   1   4   8   10.10    0.48
   2  -4   8    4.54    0.28
   2  -4   8    4.56    0.31
   2  -4   8    5.12    0.33
   2   4   8    4.85    0.30
   2   4   8    4.96    0.32
   2   4   8    4.25    0.44
   3  -4   8    0.39    0.15
   3  -4   8    0.06    0.11
   3  -4   8    0.58    0.21
   3   4   8    0.52    0.16
   3   4   8    0.26    0.11
   3   4   8    0.20    0.13
   4  -4   8   -0.02    0.13
   4  -4   8    0.05    0.13
   4  -4   8    0.13    0.12
   4   4   8    0.25    0.14
   4   4   8   -0.13    0.11
   4   4   8    0.11    0.12
   5  -4   8    0.52    0.19
   5  -4   8    0.26    0.11
   5  -4   8    0.27    0.12
   5   4   8    0.13    0.12
   5   4   8    0.17    0.12
   5   4   8   -0.01    0.10
  -5   4  -8    0.22    0.16
   6  -4   8    0.10    0.11
   6  -4   8    0.02    0.08
   6   4   8    0.04    0.08
   6   4   8    0.07    0.08
  -6   4  -8   -0.01    0.12
   6   4   8    0.06    0.09
   7  -4   8    1.06    0.30
   7  -4   8    0.63    0.10
   7   4   8    0.82    0.13
   8  -5  -8    2.65    0.20
   8   5  -8    2.89    0.17
  -8   5   8    2.62    0.20
   7  -5  -8    0.10    0.11
   7   5  -8    0.28    0.10
  -7   5   8    0.20    0.10
   7   5  -8    0.09    0.08
   6  -5  -8   19.29    0.72
   6   5  -8   18.38    0.72
  -6   5   8   18.65    0.74
   5  -5  -8    1.18    0.23
  -5  -5   8    1.29    0.20
  -5   5   8    1.16    0.19
  -5   5   8    1.15    0.20
   5   5  -8    1.35    0.18
  -4  -5   8   24.21    0.87
  -4  -5   8   22.38    0.86
  -4   5   8   24.36    0.88
  -4   5   8   23.80    0.90
  -3  -5   8   43.80    1.46
  -3  -5   8   41.29    1.46
  -3   5   8   41.19    1.49
  -3   5   8   43.41    1.47
  -2  -5   8   13.97    0.58
  -2  -5   8   13.64    0.57
  -2  -5   8   14.12    0.54
  -2   5   8   14.60    0.55
  -2   5   8   13.72    0.58
  -1  -5   8   53.20    1.91
  -1  -5   8   56.62    1.93
  -1  -5   8   58.00    1.89
  -1   5   8   58.99    1.90
  -1   5   8   54.38    1.93
   0  -5   8    8.32    0.42
   0  -5   8    8.17    0.39
   0  -5   8    8.54    0.35
   0   5   8    8.87    0.42
   0   5   8    8.73    0.43
   0   5   8    8.97    0.37
   1  -5   8    3.63    0.28
   1  -5   8    3.66    0.26
   1  -5   8    3.59    0.21
   1   5   8    3.31    0.28
   1   5   8    3.43    0.24
   1   5   8    3.33    0.28
   2  -5   8   10.06    0.49
   2  -5   8   10.38    0.45
   2  -5   8   10.26    0.48
   2   5   8    9.56    0.46
   2   5   8   10.17    0.46
   3  -5   8    8.06    0.42
   3  -5   8    8.42    0.43
   3  -5   8    7.94    0.38
   3   5   8    7.89    0.43
   3   5   8    7.75    0.40
   3   5   8    7.64    0.41
   4  -5   8    0.27    0.15
   4  -5   8    0.10    0.12
   4   5   8    0.29    0.15
   4   5   8    0.22    0.12
   5  -5   8    2.63    0.21
   5  -5   8    2.29    0.25
   5   5   8    2.57    0.22
  -5   5  -8    2.29    0.31
   5   5   8    2.53    0.22
   5   5   8    2.80    0.23
   6  -5   8    4.92    0.27
   6  -5   8    4.65    0.24
   6   5   8    4.61    0.26
   6   5   8    4.72    0.25
   6   5   8    4.55    0.25
   7  -5   8    0.30    0.09
  -7   5  -8    0.11    0.07
   8   6  -8    4.20    0.20
  -8   6   8    4.01    0.23
   7  -6  -8    5.56    0.30
  -7   6   8    5.12    0.28
   7   6  -8    5.27    0.26
   6  -6  -8    2.16    0.26
   6   6  -8    2.50    0.19
   6   6  -8    2.24    0.20
  -5  -6   8    2.81    0.24
  -5   6   8    3.20    0.25
   5   6  -8    3.46    0.24
  -5   6   8    3.14    0.27
  -4  -6   8    8.32    0.41
  -4  -6   8    8.99    0.39
  -4   6   8    8.37    0.42
  -4   6   8    8.76    0.40
  -3  -6   8    0.75    0.19
  -3  -6   8    0.74    0.15
  -3   6   8    0.73    0.15
  -3   6   8    0.63    0.18
  -2  -6   8   16.24    0.59
  -2  -6   8   14.93    0.61
  -2  -6   8   16.11    0.63
  -2   6   8   13.83    0.63
  -2   6   8   15.62    0.63
  -2   6   8   16.07    0.61
  -1  -6   8   10.41    0.43
  -1  -6   8   10.03    0.46
  -1  -6   8   10.39    0.48
  -1   6   8   10.71    0.48
  -1   6   8   11.12    0.45
  -1   6   8   10.08    0.48
   0  -6   8   40.93    1.38
   0  -6   8   39.06    1.40
   0  -6   8   40.25    1.42
   0   6   8   40.88    1.39
   0   6   8   39.88    1.42
   0   6   8   39.28    1.40
   1  -6   8   24.41    0.88
   1  -6   8   23.55    0.85
   1  -6   8   23.53    0.90
   1   6   8   23.34    0.90
   1   6   8   24.01    0.89
   2  -6   8    2.33    0.27
   2  -6   8    2.43    0.23
   2   6   8    2.95    0.25
   2   6   8    3.18    0.25
   3  -6   8    9.55    0.48
   3  -6   8   10.45    0.45
   3   6   8   10.45    0.49
   3   6   8    9.90    0.47
   4  -6   8   -0.05    0.14
   4  -6   8    0.15    0.11
   4   6   8    0.01    0.16
   4   6   8    0.52    0.20
   4   6   8    0.11    0.11
   5  -6   8    2.17    0.23
   5  -6   8    2.08    0.18
   5   6   8    2.32    0.20
   5   6   8    2.23    0.20
   5   6   8    2.14    0.23
   6  -6   8    0.52    0.11
   6   6   8    0.23    0.11
   6   6   8    0.29    0.09
   6   6   8    0.12    0.08
  -7   7   8    1.01    0.16
   7   7  -8    0.89    0.12
  -6   7   8    2.78    0.22
   6   7  -8    2.84    0.20
  -5  -7   8    3.66    0.26
  -5   7   8    4.35    0.28
   5   7  -8    3.90    0.25
  -4  -7   8   -0.02    0.10
  -4  -7   8   -0.23    0.15
  -4   7   8    0.11    0.12
  -3  -7   8   38.42    1.31
  -3  -7   8   37.17    1.31
  -3   7   8   37.52    1.34
  -3   7   8   35.17    1.32
  -3   7   8   38.02    1.32
  -2  -7   8    1.80    0.17
  -2  -7   8    1.46    0.26
  -2   7   8    2.32    0.19
  -2   7   8    1.88    0.25
  -2   7   8    1.69    0.22
  -1  -7   8   21.34    0.78
  -1  -7   8   21.17    0.82
  -1  -7   8   20.74    0.80
  -1   7   8   21.69    0.80
  -1   7   8   21.04    0.82
  -1   7   8   20.99    0.81
   0  -7   8   -0.01    0.14
   0  -7   8    0.13    0.09
   0  -7   8   -0.08    0.14
   0   7  -8    0.36    0.19
   0   7   8    0.08    0.12
   0   7   8    0.12    0.12
   1  -7   8   19.04    0.84
   1  -7   8   22.51    0.83
   1  -7   8   23.69    0.81
   1   7   8   21.72    0.84
   1   7   8   22.50    0.86
  -1   7  -8   22.28    0.84
   2  -7   8   18.22    0.73
   2  -7   8   18.05    0.70
   2   7   8   17.63    0.72
   2   7   8   18.10    0.72
   3  -7   8   17.05    0.66
   3  -7   8   16.69    0.69
   3   7   8   16.01    0.67
   3   7   8   16.81    0.69
   4  -7   8    0.78    0.25
   4   7   8    0.99    0.18
   4   7   8    0.94    0.19
   5  -7   8   -0.05    0.17
   5  -7   8    0.03    0.08
   5   7   8    0.09    0.08
   5   7   8    0.05    0.08
   5   7   8   -0.02    0.16
   6  -7   8    0.23    0.08
   6   7   8    0.21    0.08
  -6   7  -8    0.36    0.11
   6   7   8    0.46    0.13
  -7   8   8    0.15    0.08
   7   8  -8   -0.04    0.06
  -6   8   8   -0.03    0.08
   6   8  -8   -0.02    0.07
  -5  -8   8    1.16    0.21
  -5   8   8    1.71    0.21
   5   8  -8    1.49    0.16
  -4  -8   8    8.23    0.38
   4   8  -8    8.32    0.39
  -4   8   8    8.19    0.42
  -3  -8   8    1.26    0.16
  -3   8   8    0.88    0.21
  -3   8   8    1.14    0.25
  -2  -8   8    0.25    0.10
  -2   8   8    0.29    0.13
  -2   8   8    0.59    0.20
  -1  -8   8    6.32    0.30
  -1  -8   8    5.71    0.37
  -1  -8   8    5.71    0.34
  -1   8   8    5.87    0.34
  -1   8   8    6.10    0.35
   0  -8   8   12.16    0.54
   0  -8   8   12.89    0.56
   0  -8   8   13.32    0.52
   0   8   8   12.32    0.54
   0   8   8   12.83    0.56
   0   8  -8   12.68    0.58
   1  -8   8   10.18    0.43
   1  -8   8   10.17    0.46
   1  -8   8   10.34    0.49
  -1  -8  -8   10.10    0.45
   1   8   8    9.41    0.46
  -1   8  -8   10.26    0.48
   1   8   8   10.06    0.49
   2  -8   8    0.86    0.22
   2  -8   8    1.37    0.27
   2   8   8    1.30    0.22
   2   8   8    1.12    0.21
  -2   8  -8    1.30    0.23
   3  -8   8    1.99    0.28
   3  -8   8    2.87    0.23
   3   8   8    2.52    0.24
   3   8   8    2.53    0.23
  -3   8  -8    2.38    0.23
   4  -8   8    0.14    0.10
   4   8   8    0.03    0.09
  -4   8  -8    0.05    0.09
   4   8   8    0.05    0.09
   5  -8   8    2.06    0.17
   5   8   8    1.99    0.17
   5   8   8    2.09    0.17
  -5   8  -8    2.00    0.17
  -6   8  -8    0.55    0.11
   6   9  -8    0.09    0.07
  -6   9   8    0.08    0.08
   5  -9  -8    1.26    0.21
   5   9  -8    1.17    0.14
  -5   9   8    1.06    0.17
  -4  -9   8    3.58    0.24
  -4   9   8    3.92    0.26
   4   9  -8    4.21    0.24
  -3  -9   8    0.05    0.09
  -3   9   8    0.12    0.12
  -3   9   8    0.13    0.11
  -2  -9   8    5.90    0.31
  -2   9   8    6.39    0.35
  -2   9   8    6.62    0.37
  -1  -9   8    2.71    0.20
  -1  -9   8    3.54    0.28
  -1   9   8    3.31    0.27
  -1   9   8    2.58    0.24
   0  -9  -8    2.18    0.21
   0  -9   8    1.74    0.18
   0  -9   8    2.00    0.26
   0   9   8    2.52    0.24
   0   9  -8    2.50    0.29
   0   9   8    2.53    0.25
   1  -9   8   -0.06    0.09
   1  -9   8    0.05    0.17
  -1  -9  -8   -0.10    0.12
   1   9   8    0.16    0.11
   1   9   8    0.04    0.12
  -1   9  -8   -0.02    0.14
   2  -9   8    3.90    0.29
   2  -9   8    3.99    0.31
   2   9   8    4.07    0.28
   2   9   8    4.52    0.29
  -2   9  -8    4.41    0.28
   3  -9   8    0.53    0.17
   3   9   8    0.29    0.11
   3   9   8    0.27    0.09
  -3   9  -8    0.31    0.11
   4  -9   8    3.59    0.21
  -4   9  -8    3.56    0.22
   4   9   8    3.69    0.22
   4   9   8    3.35    0.22
   5  -9   8    1.74    0.19
   5   9   8    1.63    0.15
  -5   9  -8    1.64    0.14
   5   9   8    1.46    0.14
  -6  10   8    0.15    0.08
   6  10  -8    0.10    0.07
   5 -10  -8    0.17    0.15
   5  10  -8    0.07    0.07
  -5  10   8    0.15    0.08
  -4 -10   8    9.32    0.39
   4 -10  -8    8.63    0.39
  -4  10   8    8.48    0.40
   4  10  -8    8.82    0.38
  -3 -10   8    0.79    0.14
   3 -10  -8    0.79    0.16
  -3  10   8    0.92    0.18
  -3  10   8    1.18    0.20
   3  10  -8    1.13    0.16
  -2 -10   8   35.84    1.34
   2 -10  -8   36.55    1.35
  -2  10   8   39.90    1.35
  -2  10   8   41.08    1.39
   1 -10  -8   -0.04    0.09
  -1 -10   8    0.06    0.08
  -1  10   8    0.03    0.10
  -1  10   8    0.13    0.12
   0 -10   8    0.18    0.09
   0 -10  -8    0.11    0.11
   0  10   8    0.17    0.12
   0  10  -8    0.19    0.15
   0  10   8    0.13    0.10
   1 -10   8    0.16    0.11
  -1 -10  -8    0.05    0.13
  -1  10  -8    0.10    0.11
   1  10   8    0.24    0.11
   1  10   8    0.03    0.10
  -2  10  -8    9.74    0.43
   2  10   8    9.93    0.44
   2  10   8    9.60    0.44
   3  10   8    1.53    0.16
  -3  10  -8    1.74    0.17
   3  10   8    1.65    0.18
  -4  10  -8    0.21    0.08
   4  10   8    0.47    0.12
   4  10   8    0.33    0.12
   5  11  -8    0.02    0.08
  -5  11   8    0.01    0.07
  -4 -11   8    1.81    0.20
   4 -11  -8    1.64    0.18
  -4  11   8    1.39    0.16
   4  11  -8    1.55    0.15
   3 -11  -8   14.62    0.57
  -3 -11   8   14.42    0.55
  -3  11   8   14.19    0.55
   3  11  -8   14.58    0.55
  -3  11   8   13.98    0.57
   2 -11  -8    0.67    0.15
  -2 -11   8    0.61    0.13
  -2  11   8    0.53    0.16
  -2  11   8    0.39    0.15
   2  11  -8    0.53    0.16
  -1 -11   8    2.47    0.19
   1 -11  -8    2.43    0.20
  -1  11   8    2.55    0.22
  -1  11   8    2.58    0.20
   0 -11   8    0.96    0.15
   0 -11  -8    0.83    0.17
   0  11   8    1.32    0.16
   0  11   8    1.38    0.18
   1 -11   8    0.20    0.11
  -1 -11  -8    0.61    0.21
   1  11   8    0.25    0.10
   1  11   8    0.17    0.09
  -1  11  -8    0.18    0.11
   2  11   8    0.13    0.08
   2  11   8    0.19    0.09
  -2  11  -8    0.19    0.09
   3  11   8    0.00    0.08
   3  11   8    0.02    0.07
  -3  11  -8   -0.06    0.07
   4  11   8    0.03    0.09
   4  11   8    0.04    0.06
  -4  11  -8    0.01    0.07
  -4  12   8    0.99    0.13
   3 -12  -8   -0.12    0.10
  -3 -12   8    0.21    0.11
  -3  12   8    0.05    0.09
  -3  12   8    0.05    0.08
   2 -12  -8    0.42    0.11
  -2 -12   8    0.51    0.14
  -2  12   8    0.64    0.14
  -2  12   8    0.82    0.14
  -1 -12   8    0.13    0.09
   1 -12  -8    0.14    0.11
  -1  12   8    0.07    0.07
  -1  12   8   -0.02    0.09
   0 -12  -8    0.17    0.12
   0 -12   8    0.13    0.09
   0  12   8    0.12    0.08
   0  12   8    0.19    0.09
   1 -12   8    0.59    0.21
  -1  12  -8    1.03    0.19
   1  12   8    0.63    0.14
   1  12   8    0.70    0.13
  -2  12  -8    0.48    0.15
   2  12   8    0.41    0.13
   3  12   8    0.91    0.11
  -3  13   8    2.11    0.16
  -2  13   8    0.14    0.08
  -2  13   8    0.00    0.08
  -1  13   8   -0.07    0.08
  -1  13   8    0.10    0.07
   0  13   8    1.59    0.13
   0  13   8    1.92    0.16
   1  13   8    2.55    0.19
   8   0  -9   -0.05    0.07
   7   0  -9    1.69    0.16
  -6   0   9   -0.34    0.17
  -5   0   9    0.38    0.13
  -4   0   9    0.01    0.07
  -4   0   9    0.05    0.11
  -3   0   9  189.82    6.27
  -3   0   9  192.63    6.18
  -3   0   9  184.51    6.18
  -2   0   9    0.03    0.06
  -2   0   9    0.16    0.10
   2   0  -9    0.00    0.14
   1   0  -9   63.81    2.23
  -1   0   9   67.72    2.19
   0   0   9    0.00    0.06
   0   0  -9    0.13    0.09
  -1   0  -9    0.91    0.27
  -1   0  -9    1.10    0.19
   2   0   9    0.24    0.14
   2   0   9    0.09    0.15
   2   0   9    0.24    0.14
   3   0   9   69.97    2.36
   3   0   9   69.92    2.39
   3   0   9   71.05    2.39
   3   0   9   69.54    2.38
   4   0   9    0.37    0.14
   4   0   9    0.23    0.12
   4   0   9    0.28    0.13
   4   0   9    0.12    0.13
   5   0   9    2.32    0.23
   5   0   9    2.29    0.24
   5   0   9    2.33    0.23
   5   0   9    2.46    0.24
   6   0   9    0.03    0.11
   6   0   9   -0.04    0.08
   7   0   9    2.83    0.17
  -7   0  -9    2.94    0.18
   7   0   9    2.53    0.17
   8  -1  -9    0.43    0.11
   8   1  -9    0.34    0.10
   7  -1  -9   -0.09    0.08
   7   1  -9    0.11    0.08
   7   1  -9    0.16    0.13
  -6  -1   9    2.83    0.28
   6   1  -9    2.12    0.26
  -6   1   9    2.54    0.29
  -5  -1   9   -0.06    0.10
   5   1  -9   -0.05    0.12
  -4  -1   9   28.93    1.04
  -4  -1   9   27.99    1.04
  -4   1   9   29.82    1.04
  -4   1   9   30.54    1.05
  -3  -1   9   31.98    1.16
  -3  -1   9   32.67    1.24
  -3  -1   9   34.78    1.16
  -3   1   9   33.57    1.16
  -2  -1   9    6.46    0.33
   2   1  -9    5.85    0.35
  -2   1   9    6.40    0.36
  -2   1   9    6.73    0.28
  -1  -1   9    0.24    0.07
   1  -1  -9    0.30    0.13
   1   1  -9    0.22    0.09
   0  -1  -9   14.58    0.64
   0  -1  -9   16.08    0.63
   0  -1   9   16.17    0.58
   0   1  -9   17.18    0.60
   0   1   9   16.48    0.58
   0   1  -9   15.54    0.59
  -1  -1  -9   11.18    0.49
  -1  -1  -9   10.46    0.52
   1  -1   9   10.23    0.43
   2  -1   9   22.37    0.84
   2  -1   9   22.97    0.86
   2  -1   9   22.86    0.82
   2   1   9   20.43    0.83
   2   1   9   22.50    0.84
   2   1   9   22.04    0.87
   2   1   9   22.14    0.84
   3  -1   9    4.74    0.29
   3  -1   9    5.07    0.30
   3  -1   9    4.42    0.32
   3  -1   9    3.99    0.36
   3   1   9    4.72    0.30
   3   1   9    4.09    0.30
   3   1   9    4.16    0.31
   3   1   9    4.73    0.32
   4  -1   9    5.63    0.34
   4  -1   9    5.95    0.32
   4  -1   9    6.40    0.38
   4  -1   9    5.94    0.35
   4   1   9    6.11    0.35
   4   1   9    6.26    0.36
   4   1   9    5.78    0.34
   4   1   9    6.20    0.34
   5  -1   9    8.21    0.39
   5  -1   9    8.13    0.42
   5  -1   9    8.34    0.41
   5   1   9    8.45    0.41
   5   1   9    8.72    0.42
   5   1   9    8.21    0.42
   5   1   9    8.12    0.39
   6  -1   9    0.18    0.10
   6  -1   9    0.01    0.08
   6  -1   9   -0.01    0.08
   6   1   9    0.14    0.10
   6   1   9   -0.01    0.09
   6   1   9    0.17    0.12
   7  -1   9   -0.01    0.09
   7  -1   9   -0.01    0.07
  -7  -1  -9    0.15    0.08
  -7   1  -9    0.17    0.09
   7   1   9    0.03    0.07
   7   1   9   -0.02    0.07
   8  -2  -9    0.17    0.08
   8   2  -9    0.04    0.07
   7  -2  -9    0.09    0.09
   7   2  -9    0.06    0.07
  -7   2   9    0.08    0.13
   7   2  -9    0.08    0.11
  -6  -2   9    3.79    0.30
   6  -2  -9    3.96    0.25
  -6   2   9    4.12    0.32
   6   2  -9    3.83    0.27
  -6   2   9    4.12    0.35
  -5  -2   9    4.27    0.26
  -5  -2   9    4.50    0.26
   5   2  -9    3.84    0.27
  -5   2   9    4.28    0.27
  -5   2   9    4.42    0.35
  -4  -2   9   46.89    1.61
  -4  -2   9   48.56    1.61
  -4   2   9   44.67    1.64
  -4   2   9   47.20    1.61
  -3  -2   9    2.04    0.29
  -3  -2   9    2.11    0.27
  -3  -2   9    1.85    0.21
  -3  -2   9    2.13    0.16
  -3   2   9    1.70    0.15
  -3   2   9    1.62    0.27
  -2  -2   9   17.85    0.63
  -2  -2   9   17.54    0.67
  -2   2   9   17.29    0.63
   2   2  -9   16.04    0.68
  -1  -2   9    2.87    0.17
   1   2  -9    2.40    0.19
  -1   2   9    2.78    0.17
   0  -2  -9   49.67    1.73
   0  -2   9   49.48    1.66
   0   2   9   49.38    1.66
   1  -2   9   20.14    0.73
  -1  -2  -9   21.91    0.83
   1  -2   9   20.41    0.79
   1  -2   9   20.33    0.77
   2  -2   9   31.15    1.13
   2  -2   9   31.58    1.14
   2  -2   9   31.28    1.11
   2   2   9   32.31    1.13
   2   2   9   30.53    1.13
   2   2   9   29.82    1.12
   3  -2   9    0.58    0.20
   3  -2   9    0.41    0.13
   3  -2   9    0.35    0.14
   3   2   9    0.81    0.24
   3   2   9    0.53    0.19
   3   2   9    0.47    0.15
   4  -2   9   29.06    1.08
   4  -2   9   30.23    1.11
   4  -2   9   29.64    1.12
   4   2   9   30.04    1.10
   4   2   9   30.38    1.11
   4   2   9   30.18    1.11
   5  -2   9    1.41    0.20
   5  -2   9    1.54    0.21
   5   2   9    1.52    0.22
   5   2   9    1.46    0.21
   5   2   9    1.46    0.20
   6  -2   9    0.66    0.14
   6  -2   9    0.68    0.15
   6  -2   9    0.58    0.15
   6   2   9    0.47    0.15
  -6   2  -9    0.85    0.18
   6   2   9    0.46    0.14
   7  -2   9    0.81    0.13
   7  -2   9    0.64    0.12
  -7   2  -9    0.43    0.17
   7   2   9    0.67    0.12
   8  -3  -9    2.03    0.15
   8   3  -9    1.78    0.15
   8   3  -9    1.91    0.19
   7  -3  -9    0.04    0.09
  -7   3   9   -0.03    0.12
   7   3  -9    0.16    0.09
   7   3  -9   -0.10    0.09
   6  -3  -9    2.81    0.22
   6   3  -9    2.88    0.23
  -6   3   9    3.01    0.27
  -6   3   9    2.74    0.29
  -5  -3   9    4.20    0.24
  -5  -3   9    3.50    0.25
  -5   3   9    3.54    0.26
  -5   3   9    3.93    0.32
   5   3  -9    3.93    0.26
  -4  -3   9    0.09    0.11
  -4  -3   9    0.05    0.09
  -4   3   9    0.23    0.14
  -4   3   9    0.03    0.09
  -3  -3   9    0.52    0.18
  -3  -3   9    0.07    0.13
  -3  -3   9    0.04    0.06
  -3   3   9    0.07    0.17
  -3   3   9    0.25    0.16
  -3   3   9    0.01    0.08
  -2  -3   9    1.42    0.25
  -2  -3   9    1.45    0.14
  -2  -3   9    1.48    0.22
  -2   3   9    1.71    0.14
  -1  -3   9   14.70    0.54
  -1   3   9   14.44    0.54
   0  -3  -9   34.72    1.23
   0  -3   9   30.75    1.17
   0  -3   9   29.20    1.18
   0  -3   9   34.41    1.13
   0   3   9   35.25    1.14
   1  -3   9   25.03    0.93
   1  -3   9   24.40    0.87
   1  -3   9   25.84    0.90
   1   3   9   25.04    0.92
   1   3   9   24.08    0.88
   1   3   9   24.29    0.93
   2  -3   9   40.59    1.45
   2  -3   9   42.44    1.48
   2  -3   9   43.22    1.49
   2   3   9   42.89    1.47
   2   3   9   40.08    1.47
   2   3   9   42.35    1.48
   3  -3   9   20.23    0.79
   3  -3   9   19.79    0.78
   3  -3   9   19.32    0.75
   3   3   9   20.26    0.78
   3   3   9   20.16    0.78
   3   3   9   19.69    0.78
   4  -3   9    1.07    0.20
   4  -3   9    0.59    0.21
   4  -3   9    0.70    0.21
   4   3   9    1.18    0.21
   4   3   9    1.41    0.23
   4   3   9    1.09    0.21
   5  -3   9    1.26    0.19
   5  -3   9    1.10    0.17
   5  -3   9    1.13    0.20
  -5   3  -9    1.05    0.24
   5   3   9    1.37    0.20
   5   3   9    1.04    0.20
   5   3   9    1.42    0.18
   6  -3   9    0.94    0.15
   6  -3   9    1.04    0.14
  -6   3  -9    1.07    0.19
   6   3   9    1.07    0.16
   6   3   9    1.02    0.14
   6   3   9    1.01    0.16
   7  -3   9    0.55    0.11
   7  -3   9    0.60    0.14
   7   3   9    0.78    0.13
   7   3   9    0.48    0.12
   8  -4  -9   -0.03    0.09
   8   4  -9   -0.02    0.09
   8   4  -9    0.02    0.09
   7  -4  -9   10.35    0.42
   7   4  -9    9.85    0.41
  -7   4   9    9.62    0.44
   7   4  -9    9.56    0.41
   6  -4  -9    0.24    0.12
  -6   4   9    0.20    0.16
  -6   4   9    0.07    0.12
   6   4  -9    0.28    0.10
   5  -4  -9   17.45    0.68
  -5  -4   9   17.86    0.68
   5   4  -9   17.06    0.68
  -5   4   9   18.03    0.70
  -5   4   9   17.74    0.71
  -4  -4   9    2.25    0.20
  -4  -4   9    2.24    0.22
  -4   4   9    2.88    0.27
  -4   4   9    2.60    0.21
  -3  -4   9    0.22    0.09
  -3  -4   9    0.18    0.12
  -3  -4   9    0.32    0.12
  -3   4   9    0.34    0.14
  -3   4   9    0.33    0.10
  -2  -4   9    6.38    0.34
  -2  -4   9    5.93    0.33
  -2  -4   9    5.98    0.28
  -2   4   9    6.10    0.36
  -2   4   9    6.10    0.29
  -1  -4   9   24.63    0.92
  -1  -4   9   25.65    0.89
  -1  -4   9   25.84    0.94
  -1   4   9   24.35    0.95
  -1   4   9   25.68    0.90
   0  -4   9   31.36    1.12
   0  -4   9   31.88    1.09
   0  -4   9   31.31    1.14
   0   4   9   31.69    1.15
   0   4   9   32.45    1.11
   1  -4   9    5.71    0.28
   1  -4   9    5.47    0.30
   1  -4   9    5.49    0.34
   1  -4   9    5.33    0.42
   1   4   9    5.77    0.36
   1   4   9    5.61    0.35
   1   4   9    5.97    0.30
   2  -4   9    1.90    0.25
   2  -4   9    1.67    0.27
   2  -4   9    2.14    0.21
   2   4   9    1.88    0.23
   2   4   9    2.29    0.25
   3  -4   9   18.97    0.73
   3  -4   9   19.54    0.77
   3  -4   9   18.50    0.75
   3   4   9   19.20    0.75
   3   4   9   19.33    0.77
   3   4   9   18.73    0.75
   4  -4   9    4.87    0.30
   4  -4   9    4.85    0.32
   4  -4   9    4.63    0.31
   4   4   9    5.09    0.33
   4   4   9    4.79    0.31
   4   4   9    4.82    0.31
   5  -4   9    3.64    0.25
   5  -4   9    2.63    0.24
   5  -4   9    3.44    0.22
   5   4   9    3.47    0.25
   5   4   9    3.31    0.24
  -5   4  -9    2.89    0.30
   5   4   9    3.08    0.25
   6  -4   9    0.15    0.10
   6  -4   9    0.04    0.08
   6   4   9   -0.02    0.09
   6   4   9   -0.14    0.07
   6   4   9   -0.09    0.08
  -7   4  -9   -0.02    0.06
   8  -5  -9    0.95    0.20
  -8   5   9    1.22    0.20
   7  -5  -9    0.63    0.17
   7   5  -9    1.03    0.15
   7   5  -9    1.01    0.14
  -7   5   9    1.07    0.17
  -6   5   9    0.77    0.19
   6   5  -9    0.32    0.10
  -5  -5   9   33.47    1.18
   5  -5  -9   32.59    1.18
  -5   5   9   33.30    1.20
  -5   5   9   33.90    1.22
   5   5  -9   33.43    1.19
  -4  -5   9    9.62    0.44
  -4  -5   9   10.45    0.44
  -4   5   9    9.94    0.47
  -4   5   9   10.14    0.45
  -3  -5   9    4.93    0.26
  -3  -5   9    4.79    0.29
  -3  -5   9    4.56    0.29
  -3   5   9    4.78    0.27
  -3   5   9    4.49    0.31
  -2  -5   9   48.05    1.62
  -2  -5   9   48.01    1.65
  -2   5   9   47.13    1.63
  -2   5   9   46.60    1.65
  -1  -5   9   57.70    1.99
  -1  -5   9   59.83    1.97
  -1  -5   9   59.42    2.01
  -1   5   9   55.17    2.00
  -1   5   9   61.10    2.02
  -1   5   9   58.72    1.98
   0  -5   9    8.79    0.39
   0  -5   9    8.52    0.36
   0  -5   9    8.63    0.43
   0   5   9    8.39    0.42
   0   5   9    8.18    0.42
   0   5   9    8.09    0.36
   1  -5   9    0.06    0.11
   1  -5   9    0.19    0.10
   1  -5   9   -0.07    0.11
   1   5   9    0.08    0.13
   1   5   9    0.02    0.12
   1   5   9    0.21    0.12
   2  -5   9   29.02    1.03
   2  -5   9   25.21    0.99
   2   5   9   27.15    1.01
   2   5   9   28.17    1.02
   3  -5   9    8.68    0.40
   3  -5   9    8.64    0.43
   3   5   9    8.63    0.46
   3   5   9    8.25    0.43
   3   5   9    8.12    0.42
   4  -5   9    4.55    0.28
   4  -5   9    4.96    0.32
   4   5   9    4.53    0.30
   4   5   9    4.58    0.30
   4   5   9    4.69    0.33
   5  -5   9    5.56    0.28
   5  -5   9    5.35    0.30
   5   5   9    5.45    0.30
   5   5   9    5.22    0.29
   5   5   9    5.18    0.29
   6  -5   9    0.44    0.11
   6  -5   9    0.74    0.16
   6   5   9    0.42    0.11
   6   5   9    0.40    0.12
   6   5   9    0.49    0.13
   8   6  -9    0.12    0.08
  -7   6   9    1.79    0.19
   7   6  -9    1.90    0.15
  -6   6   9    2.56    0.22
   6   6  -9    2.26    0.22
   6   6  -9    2.52    0.19
  -5  -6   9    2.17    0.21
   5   6  -9    2.05    0.20
  -5   6   9    1.79    0.21
  -5   6   9    2.42    0.24
  -4  -6   9    6.83    0.36
  -4  -6   9    7.15    0.35
  -4   6   9    7.09    0.38
  -4   6   9    7.39    0.37
  -3  -6   9    4.41    0.25
  -3  -6   9    4.42    0.28
  -3   6   9    4.34    0.30
  -3   6   9    4.21    0.26
  -2  -6   9   -0.01    0.13
  -2  -6   9    0.18    0.09
  -2  -6   9    0.23    0.12
  -2   6   9    0.09    0.08
  -2   6   9   -0.05    0.18
  -2   6   9   -0.10    0.12
  -1  -6   9    0.13    0.12
  -1  -6   9    0.20    0.12
  -1  -6   9    0.21    0.09
  -1   6   9    0.11    0.14
  -1   6   9    0.25    0.10
  -1   6   9    0.15    0.13
   0  -6   9    6.38    0.36
   0  -6   9    6.89    0.32
   0  -6   9    7.09    0.35
   0   6   9    6.93    0.33
   0   6   9    6.24    0.36
   0   6   9    6.67    0.37
   1  -6   9   12.99    0.53
   1  -6   9   12.15    0.55
   1  -6   9   13.51    0.50
   1   6   9   10.88    0.54
   1   6   9   12.90    0.54
   2  -6   9    8.05    0.41
   2  -6   9    8.09    0.38
   2   6   9    7.88    0.42
   2   6   9    8.23    0.40
   3  -6   9    0.77    0.17
   3  -6   9    1.18    0.23
   3   6   9    0.92    0.20
   3   6   9    0.52    0.15
   4  -6   9    4.95    0.31
   4  -6   9    4.54    0.27
   4   6   9    4.83    0.30
   4   6   9    4.76    0.30
   5  -6   9    0.79    0.13
   5  -6   9    0.58    0.18
   5   6   9    0.82    0.21
   5   6   9    0.72    0.15
   5   6   9    0.59    0.16
   6  -6   9    0.24    0.07
   6   6   9    0.38    0.12
   6   6   9    0.12    0.13
  -6   6  -9    0.13    0.07
   6   6   9    0.11    0.07
   7   7  -9    0.11    0.07
  -7   7   9   -0.03    0.09
   6   7  -9   11.07    0.46
  -6   7   9   11.68    0.49
  -5  -7   9    0.85    0.18
   5   7  -9    0.95    0.15
  -5   7   9    1.16    0.20
  -4  -7   9    1.97    0.24
  -4  -7   9    1.52    0.19
  -4   7   9    1.87    0.24
  -4   7   9    1.76    0.20
  -3  -7   9    0.45    0.11
  -3  -7   9    0.25    0.14
  -3   7   9    0.36    0.11
  -3   7   9    0.20    0.12
  -2  -7   9    4.13    0.24
  -2  -7   9    4.69    0.29
  -2  -7   9    4.42    0.30
  -2   7   9    4.01    0.30
  -2   7   9    4.31    0.26
  -2   7   9    4.02    0.33
  -1  -7   9    1.94    0.17
  -1  -7   9    1.29    0.23
  -1  -7   9    1.81    0.23
  -1   7   9    1.90    0.24
  -1   7   9    1.93    0.24
  -1   7   9    1.77    0.19
   0  -7   9    0.43    0.13
   0  -7   9    0.21    0.14
   0  -7   9    0.04    0.13
   0   7   9    0.22    0.12
   0   7   9    0.36    0.13
   1  -7   9    6.22    0.37
   1  -7   9    6.38    0.32
   1  -7   9    6.28    0.33
   1   7   9    6.12    0.36
  -1   7  -9    6.60    0.38
   1   7   9    6.37    0.37
   2  -7   9    0.75    0.25
   2  -7   9    0.41    0.13
   2   7   9    0.83    0.21
   2   7   9    0.46    0.14
   3  -7   9   15.00    0.63
   3  -7   9   14.32    0.59
   3   7   9   15.52    0.63
   3   7   9   14.76    0.62
   4  -7   9    4.53    0.30
   4  -7   9    4.12    0.24
   4   7   9    4.21    0.27
   4   7   9    4.16    0.26
   5  -7   9    0.97    0.13
   5  -7   9    1.10    0.24
   5   7   9    1.14    0.15
   5   7   9    1.28    0.15
  -5   7  -9    0.99    0.14
   6  -7   9    0.05    0.06
  -6   7  -9    0.03    0.06
   6   7   9    0.32    0.11
   7   8  -9    2.36    0.14
  -7   8   9    2.58    0.18
   6   8  -9    1.42    0.14
  -6   8   9    1.83    0.17
  -5  -8   9    4.01    0.26
   5   8  -9    3.62    0.22
  -5   8   9    3.95    0.26
  -4  -8   9    1.53    0.19
   4   8  -9    1.52    0.19
  -4   8   9    1.85    0.22
  -3  -8   9    3.91    0.25
  -3   8   9    4.20    0.30
  -2  -8   9   35.66    1.27
  -2  -8   9   35.50    1.28
  -2   8   9   37.54    1.32
  -2   8   9   36.23    1.29
  -1  -8   9    7.07    0.38
  -1  -8   9    7.06    0.38
  -1  -8   9    7.71    0.35
  -1   8   9    7.26    0.38
  -1   8   9    7.16    0.39
   0  -8   9    1.06    0.15
   0  -8   9    0.76    0.22
   0  -8   9    1.21    0.22
   0   8   9    1.56    0.22
   0   8   9    0.88    0.23
   1  -8   9    7.20    0.37
   1  -8   9    7.52    0.41
   1  -8   9    7.26    0.34
  -1  -8  -9    6.92    0.36
   1   8   9    6.87    0.38
  -1   8  -9    7.62    0.41
   1   8   9    7.20    0.39
   2  -8   9    9.02    0.41
   2  -8   9    8.34    0.44
   2   8   9    8.34    0.43
   2   8   9    9.30    0.43
  -2   8  -9    9.27    0.44
   3  -8   9    0.28    0.12
   3  -8   9    0.22    0.14
   3   8   9    0.53    0.17
  -3   8  -9    0.51    0.17
   3   8   9    0.09    0.09
   4  -8   9    0.33    0.16
   4  -8   9    0.21    0.10
   4   8   9    0.14    0.09
  -4   8  -9    0.13    0.09
   5  -8   9    0.50    0.11
  -5   8  -9    0.37    0.11
   5   8   9    0.39    0.11
   5   8   9    0.69    0.13
   6   9  -9    0.41    0.10
  -6   9   9    0.29    0.09
   5  -9  -9    4.94    0.28
  -5  -9   9    4.44    0.28
  -5   9   9    4.29    0.26
   5   9  -9    4.43    0.24
  -4  -9   9    2.48    0.21
  -4   9   9    2.03    0.21
   4   9  -9    2.50    0.19
  -3  -9   9   39.06    1.44
  -3   9   9   42.89    1.48
  -3   9   9   42.33    1.45
  -2  -9   9    0.67    0.13
  -2   9   9    0.69    0.21
  -2   9   9    0.69    0.20
  -1  -9   9    7.08    0.37
  -1  -9   9    6.74    0.33
  -1   9   9    7.11    0.37
  -1   9   9    7.02    0.38
   0  -9  -9    2.12    0.22
   0  -9   9    2.39    0.28
   0  -9   9    2.67    0.25
   0  -9   9    1.89    0.19
   0   9   9    2.26    0.23
   0   9   9    2.49    0.24
  -1  -9  -9   19.21    0.78
   1  -9   9   19.23    0.76
   1  -9   9   21.12    0.77
   1  -9   9   20.83    0.79
   1   9   9   21.62    0.81
  -1   9  -9   21.34    0.79
   1   9   9   20.60    0.79
   2  -9   9    1.12    0.21
   2  -9   9    1.18    0.19
  -2   9  -9    0.86    0.19
   2   9   9    0.95    0.18
   2   9   9    0.97    0.17
   3  -9   9    4.04    0.24
   3   9   9    3.84    0.24
   3   9   9    4.02    0.25
  -3   9  -9    4.25    0.25
   4  -9   9    0.10    0.09
   4   9   9    0.20    0.08
  -4   9  -9    0.39    0.13
   4   9   9    0.41    0.12
  -5   9  -9    2.82    0.16
   5   9   9    2.97    0.17
   5   9   9    2.63    0.16
   6  10  -9    0.08    0.07
  -6  10   9    0.37    0.11
   5 -10  -9    8.96    0.46
   5  10  -9    8.82    0.36
  -5  10   9    9.21    0.39
   4 -10  -9    2.51    0.21
  -4 -10   9    2.11    0.19
  -4  10   9    2.69    0.20
   4  10  -9    2.48    0.17
   3 -10  -9    0.48    0.15
  -3 -10   9    0.34    0.11
  -3  10   9    0.65    0.16
  -3  10   9    0.29    0.13
   3  10  -9    0.55    0.14
   2 -10  -9    3.89    0.26
  -2 -10   9    4.14    0.24
  -2  10   9    4.08    0.26
  -2  10   9    4.69    0.28
  -1 -10   9    5.76    0.30
   1 -10  -9    5.57    0.31
  -1  10   9    5.93    0.34
  -1  10   9    6.43    0.32
   0 -10  -9    0.56    0.18
   0 -10   9    0.59    0.14
   0  10   9    0.87    0.17
   0  10   9    0.34    0.12
   1 -10   9    0.12    0.15
  -1 -10  -9    0.29    0.16
   1 -10   9    0.18    0.12
   1  10   9    0.26    0.10
   1  10   9    0.43    0.16
  -2  10  -9    0.27    0.11
   2  10   9    0.30    0.09
   2  10   9    0.27    0.10
   3  10   9    3.83    0.22
   3  10   9    3.81    0.23
  -3  10  -9    4.10    0.23
   4  10   9    1.21    0.12
  -4  10  -9    0.90    0.13
   4  10   9    1.10    0.12
  -5  11   9   -0.03    0.07
   5  11  -9    0.05    0.08
  -4 -11   9    2.37    0.22
   4 -11  -9    3.00    0.21
  -4  11   9    2.79    0.19
   4  11  -9    2.76    0.17
  -3 -11   9    0.08    0.10
   3 -11  -9   -0.06    0.09
  -3  11   9   -0.03    0.11
  -3  11   9    0.02    0.08
   3  11  -9    0.36    0.13
  -2 -11   9    0.05    0.08
   2 -11  -9    0.10    0.09
   2  11  -9    0.04    0.10
  -2  11   9    0.01    0.09
  -2  11   9    0.01    0.09
  -1 -11   9    0.89    0.14
   1 -11  -9    0.88    0.16
  -1  11   9    0.85    0.16
  -1  11   9    0.95    0.15
   0 -11   9    3.27    0.22
   0 -11  -9    3.51    0.24
   0  11   9    3.26    0.23
   0  11   9    3.49    0.23
   1 -11   9   -0.04    0.13
   1  11   9   -0.08    0.08
   1  11   9    0.10    0.08
  -1  11  -9    0.07    0.13
   2  11   9    0.99    0.14
  -2  11  -9    1.00    0.16
   2  11   9    0.83    0.13
   3  11   9    0.45    0.11
   3  11   9    0.43    0.11
  -4  12   9    0.68    0.12
   3 -12  -9    0.11    0.10
  -3 -12   9   -0.10    0.10
  -3  12   9   -0.01    0.07
   2 -12  -9    1.63    0.17
  -2 -12   9    1.60    0.15
  -2  12   9    1.57    0.17
  -2  12   9    1.63    0.15
  -1 -12   9    1.76    0.16
   1 -12  -9    1.62    0.18
  -1  12   9    1.61    0.15
  -1  12   9    1.68    0.16
   0 -12   9    0.54    0.12
   0 -12  -9    0.53    0.14
   0  12   9    0.51    0.13
   0  12   9    0.70    0.13
   1  12   9    0.15    0.08
   1  12   9    0.07    0.07
   2  12   9    0.10    0.06
   2  12   9   -0.08    0.08
  -2  13   9    0.37    0.13
  -1  13   9    1.55    0.14
  -1  13   9    1.18    0.14
   0  13   9    0.48    0.10
   8   0 -10    5.56    0.26
   7   0 -10    0.16    0.08
  -6   0  10    3.13    0.28
  -5   0  10   -0.05    0.11
  -4   0  10   49.84    1.71
  -3   0  10    0.09    0.07
  -3   0  10    0.26    0.12
  -2   0  10   14.12    0.53
   1   0 -10    0.46    0.23
   0   0  10    1.33    0.14
   0   0 -10    1.55    0.21
   1   0  10    0.32    0.15
   1   0  10    0.32    0.16
   2   0  10   34.11    1.20
   2   0  10   33.81    1.18
   2   0  10   33.42    1.19
   2   0  10   31.44    1.21
   3   0  10    0.25    0.17
   3   0  10    0.56    0.20
   3   0  10    0.28    0.13
   3   0  10    0.09    0.13
   4   0  10    6.88    0.37
   4   0  10    6.60    0.35
   4   0  10    6.46    0.37
   4   0  10    6.31    0.38
   5   0  10    0.05    0.09
   5   0  10   -0.11    0.10
   5   0  10   -0.20    0.12
   6   0  10    0.04    0.07
   6   0  10    0.12    0.11
   6   0  10    0.04    0.08
   7   0  10   -0.01    0.07
   8  -1 -10    0.71    0.11
   8   1 -10    0.52    0.11
   7  -1 -10    0.04    0.08
   7   1 -10    0.10    0.08
  -6  -1  10    0.19    0.15
   6   1 -10    0.16    0.15
  -6   1  10    0.01    0.15
  -5  -1  10    3.76    0.25
  -5  -1  10    3.81    0.25
   5   1 -10    3.57    0.28
  -5   1  10    3.80    0.26
  -4  -1  10    0.10    0.09
  -4  -1  10    0.16    0.10
  -4   1  10   -0.08    0.08
  -4   1  10    0.12    0.11
  -3  -1  10    5.87    0.40
  -3  -1  10    7.03    0.30
  -3  -1  10    6.23    0.32
  -3   1  10    6.16    0.33
  -2  -1  10   34.60    1.26
  -2  -1  10   37.76    1.24
  -2  -1  10   35.17    1.31
  -2   1  10   36.86    1.24
  -1  -1  10    3.04    0.17
  -1   1  10    3.42    0.18
   0  -1 -10   79.23    2.68
   0  -1  10   79.85    2.61
   0   1  10   77.52    2.61
   1  -1  10    0.95    0.24
  -1  -1 -10    0.94    0.32
   1  -1  10    1.10    0.21
   1   1  10    0.76    0.28
   1   1  10    1.65    0.30
   2  -1  10    0.44    0.17
   2  -1  10    0.18    0.11
   2  -1  10   -0.01    0.13
   2   1  10   -0.03    0.18
   2   1  10    0.08    0.18
   2   1  10    0.15    0.14
   2   1  10    0.08    0.14
   3  -1  10   13.11    0.54
   3  -1  10   12.23    0.59
   3  -1  10   13.25    0.57
   3  -1  10   13.07    0.56
   3   1  10   12.86    0.57
   3   1  10   12.41    0.55
   3   1  10   13.18    0.56
   3   1  10   13.17    0.57
   4  -1  10    1.29    0.27
   4  -1  10    1.13    0.20
   4  -1  10    0.89    0.22
   4  -1  10    0.76    0.22
   4   1  10    0.77    0.22
   4   1  10    1.04    0.23
   4   1  10    0.69    0.22
   4   1  10    1.01    0.25
   5  -1  10    0.20    0.10
   5  -1  10    0.54    0.17
   5  -1  10    0.19    0.11
   5   1  10   -0.04    0.11
   5   1  10    0.17    0.11
   5   1  10    0.59    0.19
   5   1  10    0.17    0.13
   6  -1  10    0.62    0.14
   6  -1  10    0.43    0.13
   6  -1  10    0.74    0.14
   6   1  10    0.77    0.13
   6   1  10    0.70    0.14
   7  -1  10    0.11    0.07
  -7  -1 -10    0.36    0.14
   7   1  10    0.16    0.07
   8  -2 -10    0.07    0.07
   8   2 -10    0.13    0.07
   7  -2 -10    0.92    0.14
   7   2 -10    0.89    0.13
   7   2 -10    1.01    0.19
   6  -2 -10    2.21    0.21
  -6  -2  10    2.51    0.25
  -6   2  10    1.57    0.25
   6   2 -10    1.65    0.22
  -5  -2  10    1.45    0.18
  -5  -2  10    1.20    0.17
  -5   2  10    0.89    0.35
   5   2 -10    1.01    0.20
  -4  -2  10    0.31    0.11
  -4  -2  10    0.40    0.12
  -4   2  10    0.37    0.11
  -4   2  10    0.50    0.13
  -3  -2  10    1.94    0.28
  -3  -2  10    2.36    0.21
  -3  -2  10    2.31    0.17
  -3   2  10    2.03    0.17
  -3   2  10    2.43    0.24
  -2  -2  10    0.00    0.11
  -2  -2  10    0.08    0.07
  -2  -2  10    0.03    0.15
  -2   2  10    0.00    0.07
  -1  -2  10   28.20    1.07
  -1  -2  10   28.71    1.04
   1  -2 -10   30.12    1.11
  -1   2  10   29.34    1.01
   0  -2  10   20.11    0.79
   0  -2  10   20.50    0.73
   0  -2 -10   20.61    0.83
   1  -2  10   19.85    0.78
  -1  -2 -10   19.06    0.86
   1  -2  10   20.61    0.81
   1  -2  10   20.12    0.72
   1  -2  10   20.78    0.75
   1   2  10   20.69    0.79
   1   2  10   19.68    0.79
   1   2  10   19.52    0.81
   2  -2  10   23.98    0.89
   2  -2  10   23.20    0.88
   2  -2  10   23.97    0.86
   2   2  10   23.27    0.88
   2   2  10   22.98    0.89
   2   2  10   22.35    0.88
   3  -2  10    0.39    0.13
   3  -2  10    0.58    0.21
   3   2  10    0.38    0.14
   3   2  10    0.37    0.14
   3   2  10    0.25    0.13
   4  -2  10    0.10    0.11
   4  -2  10    0.06    0.13
   4  -2  10    0.03    0.11
   4   2  10    0.17    0.12
   4   2  10    0.06    0.13
   4   2  10    0.24    0.12
   5  -2  10    0.07    0.10
   5  -2  10    0.13    0.10
   5  -2  10    0.39    0.12
   5   2  10    0.25    0.11
   5   2  10   -0.09    0.10
   5   2  10   -0.01    0.10
   6  -2  10    0.09    0.08
   6  -2  10    0.28    0.09
   6  -2  10    0.36    0.13
   6   2  10    0.13    0.09
   6   2  10    0.28    0.09
  -6   2 -10    0.17    0.12
   8  -3 -10    1.40    0.13
   8   3 -10    1.35    0.21
   8   3 -10    1.36    0.13
   7  -3 -10    3.19    0.20
  -7   3  10    2.70    0.26
   7   3 -10    2.87    0.19
   7   3 -10    3.06    0.21
   6  -3 -10    2.05    0.20
  -6  -3  10    1.36    0.25
   6   3 -10    1.68    0.20
  -6   3  10    1.62    0.25
  -6   3  10    2.16    0.26
  -5  -3  10   10.64    0.46
  -5  -3  10   10.76    0.47
   5   3 -10   10.44    0.47
  -5   3  10   11.47    0.48
  -5   3  10   11.25    0.51
  -4  -3  10   15.37    0.61
  -4   3  10   14.78    0.66
  -4   3  10   16.33    0.62
  -3  -3  10    3.06    0.20
  -3  -3  10    2.94    0.23
  -3  -3  10    3.43    0.27
  -3   3  10    3.14    0.21
  -3   3  10    3.44    0.33
  -3   3  10    3.10    0.31
  -2  -3  10    5.29    0.33
  -2  -3  10    5.39    0.30
  -2  -3  10    5.57    0.26
  -2   3  10    5.13    0.26
  -2   3  10    4.75    0.38
  -1  -3  10    0.62    0.13
  -1  -3  10    0.72    0.23
  -1  -3  10    0.68    0.19
  -1   3  10    0.54    0.12
   0  -3  10   34.51    1.18
   0  -3  10   34.13    1.15
   0  -3  10   33.63    1.20
   0   3  10   30.72    1.20
   0   3  10   34.12    1.16
   1  -3  10   44.35    1.53
   1  -3  10   43.23    1.48
   1  -3  10   45.16    1.51
   1  -3  10   41.86    1.54
   1   3  10   42.49    1.53
   1   3  10   44.84    1.53
   2  -3  10    4.82    0.33
   2  -3  10    4.46    0.29
   2  -3  10    4.70    0.28
   2   3  10    4.64    0.36
   2   3  10    4.66    0.32
   2   3  10    3.77    0.30
   3  -3  10    9.53    0.45
   3  -3  10    8.73    0.45
   3  -3  10    9.14    0.42
   3   3  10    9.21    0.45
   3   3  10    9.03    0.45
   3   3  10    9.43    0.44
   4  -3  10    2.06    0.22
   4  -3  10    2.36    0.24
   4  -3  10    1.97    0.23
   4   3  10    2.25    0.24
   4   3  10    1.64    0.22
   4   3  10    2.49    0.25
   5  -3  10    3.82    0.23
   5  -3  10    3.29    0.25
   5  -3  10    3.43    0.24
   5   3  10    3.54    0.25
  -5   3 -10    3.57    0.30
   5   3  10    3.56    0.25
   5   3  10    3.49    0.25
   6  -3  10    0.80    0.14
   6  -3  10    1.03    0.13
   6   3  10    0.93    0.14
   6   3  10    0.77    0.15
   8  -4 -10    6.30    0.27
   8   4 -10    6.13    0.27
   8   4 -10    6.25    0.28
   7  -4 -10    0.83    0.16
   7   4 -10    0.90    0.14
  -7   4  10    0.75    0.19
   7   4 -10    1.03    0.14
   6  -4 -10    3.61    0.23
  -6  -4  10    2.60    0.27
  -6   4  10    3.13    0.26
   6   4 -10    3.15    0.22
  -6   4  10    3.23    0.27
  -5  -4  10    0.49    0.16
  -5  -4  10    0.30    0.10
   5  -4 -10    0.29    0.14
  -5   4  10    0.16    0.12
  -5   4  10    0.17    0.15
   5   4 -10    0.30    0.11
  -4  -4  10   26.89    1.01
  -4  -4  10   29.43    1.01
  -4   4  10   28.85    1.02
  -4   4  10   27.20    1.04
  -3  -4  10   20.11    0.77
  -3  -4  10   21.19    0.77
  -3  -4  10   21.22    0.80
  -3   4  10   20.93    0.81
  -3   4  10   20.63    0.78
  -2  -4  10    0.05    0.12
  -2  -4  10    0.19    0.08
  -2  -4  10    0.27    0.12
  -2   4  10    0.13    0.15
  -2   4  10    0.29    0.10
  -1  -4  10   11.83    0.46
  -1  -4  10   12.14    0.52
  -1  -4  10   11.70    0.49
  -1   4  10   11.53    0.47
  -1   4  10   11.65    0.54
   0  -4  10    0.08    0.09
   0  -4  10    0.08    0.13
   0  -4  10    0.11    0.08
   0   4  10   -0.07    0.17
   0   4  10    0.06    0.15
   0   4  10    0.40    0.14
   1  -4  10    0.47    0.20
   1  -4  10    0.12    0.10
   1  -4  10    0.27    0.11
   1  -4  10    0.24    0.12
   1   4  10    0.01    0.13
   1   4  10    0.38    0.14
   1   4  10    0.22    0.14
   2  -4  10   26.99    1.00
   2  -4  10   26.85    1.03
   2  -4  10   28.65    1.04
   2   4  10   28.60    1.02
   2   4  10   27.31    1.03
   3  -4  10   23.69    0.90
   3  -4  10   21.72    0.87
   3  -4  10   22.49    0.86
   3   4  10   22.78    0.88
   3   4  10   23.80    0.88
   3   4  10   22.67    0.88
   4  -4  10    8.39    0.42
   4  -4  10    8.02    0.42
   4  -4  10    8.66    0.39
   4   4  10    8.09    0.41
   4   4  10    8.41    0.41
   4   4  10    8.44    0.41
   5  -4  10    0.48    0.16
   5  -4  10    0.48    0.14
   5   4  10    0.55    0.18
   5   4  10    0.28    0.10
   5   4  10    0.55    0.16
   6  -4  10    0.48    0.13
   6  -4  10    0.42    0.10
   6   4  10    0.45    0.12
   6   4  10    0.53    0.13
   8   5 -10    1.42    0.15
   7  -5 -10   -0.07    0.11
   7   5 -10    0.10    0.08
  -7   5  10    0.02    0.11
   7   5 -10    0.05    0.09
  -6  -5  10    1.03    0.24
   6  -5 -10    0.85    0.19
  -6   5  10    0.49    0.19
  -6   5  10    0.88    0.23
   6   5 -10    0.54    0.14
  -5  -5  10    0.63    0.15
   5  -5 -10    1.08    0.24
   5   5 -10    0.71    0.16
  -5   5  10    0.41    0.13
  -5   5  10    0.61    0.15
  -4  -5  10    9.79    0.42
  -4  -5  10    9.48    0.43
  -4   5  10   10.05    0.45
  -4   5  10    9.20    0.46
  -3  -5  10   10.66    0.43
  -3  -5  10    9.92    0.46
  -3  -5  10    9.24    0.44
  -3   5  10   10.23    0.48
  -3   5  10    9.79    0.44
  -2  -5  10    1.15    0.20
  -2  -5  10    1.42    0.21
  -2  -5  10    1.19    0.15
  -2   5  10    1.10    0.24
  -2   5  10    1.27    0.17
  -1  -5  10    0.19    0.09
  -1  -5  10    0.11    0.11
  -1   5  10    0.66    0.23
  -1   5  10    0.23    0.18
  -1   5  10    0.15    0.09
   0  -5  10    0.22    0.11
   0  -5  10    0.68    0.21
   0  -5  10    0.16    0.09
   0   5  10    0.23    0.13
   0   5  10    0.33    0.16
   0   5  10    0.23    0.10
   1  -5  10   24.57    0.93
   1  -5  10   25.21    0.88
   1  -5  10   24.54    0.90
   1   5  10   23.61    0.92
   1   5  10   24.58    0.92
   2  -5  10   39.19    1.39
   2  -5  10   38.78    1.41
   2   5  10   40.29    1.42
   2   5  10   40.16    1.41
   3  -5  10    1.07    0.22
   3  -5  10    1.03    0.18
   3   5  10    1.26    0.24
   3   5  10    1.51    0.22
   4  -5  10    0.59    0.14
   4  -5  10    0.71    0.15
   4   5  10    0.53    0.17
   4   5  10    0.86    0.18
   4   5  10    0.85    0.24
   5  -5  10    0.09    0.08
   5  -5  10    0.11    0.10
   5   5  10   -0.05    0.08
   5   5  10    0.02    0.08
   5   5  10    0.24    0.13
   6  -5  10    0.71    0.10
   6  -5  10    0.71    0.17
   6   5  10    0.67    0.12
   7   6 -10    1.64    0.18
   7   6 -10    1.33    0.13
  -6   6  10    0.11    0.11
   6   6 -10    0.02    0.07
  -5  -6  10    1.19    0.16
   5   6 -10    1.03    0.16
  -5   6  10    1.23    0.19
  -5   6  10    1.05    0.21
  -4  -6  10    1.07    0.20
  -4  -6  10    1.04    0.16
  -4   6  10    0.96    0.16
  -4   6  10    0.94    0.23
  -3  -6  10    3.73    0.25
  -3  -6  10    3.72    0.23
  -3   6  10    3.83    0.29
  -3   6  10    3.77    0.24
  -2  -6  10    1.51    0.16
  -2  -6  10    1.33    0.21
  -2  -6  10    1.08    0.20
  -2   6  10    1.51    0.23
  -2   6  10    1.76    0.17
  -1  -6  10    2.76    0.24
  -1  -6  10    2.25    0.24
  -1  -6  10    2.98    0.20
  -1   6  10    2.76    0.26
  -1   6  10    2.88    0.29
  -1   6  10    3.11    0.21
   0  -6  10    1.71    0.18
   0  -6  10    1.87    0.23
   0   6  10    1.59    0.24
   0   6  10    1.83    0.25
   0   6  10    1.57    0.19
   1  -6  10    5.30    0.29
   1  -6  10    5.13    0.33
   1  -6  10    5.62    0.29
   1   6  10    5.02    0.33
   1   6  10    4.83    0.32
   2  -6  10    3.58    0.26
   2  -6  10    3.93    0.30
   2   6  10    3.83    0.30
   2   6  10    4.08    0.29
   3  -6  10   13.19    0.57
   3  -6  10   13.29    0.54
   3   6  10   13.47    0.57
   3   6  10   13.17    0.58
   4  -6  10    1.42    0.16
   4  -6  10    1.42    0.20
   4   6  10    1.27    0.17
   4   6  10    0.93    0.16
   5  -6  10    3.07    0.22
   5  -6  10    3.17    0.18
   5   6  10    2.90    0.20
   5   6  10    2.99    0.20
   6  -6  10    0.08    0.06
   6   6  10    0.08    0.07
  -6   6 -10    0.08    0.06
  -7   7  10    1.67    0.17
   7   7 -10    1.96    0.14
   6   7 -10    0.23    0.08
  -6   7  10    0.54    0.16
  -5  -7  10    1.48    0.19
  -5   7  10    1.31    0.21
   5   7 -10    1.49    0.17
  -4  -7  10    1.63    0.22
  -4  -7  10    1.68    0.18
  -4   7  10    1.81    0.23
  -4   7  10    1.85    0.20
  -3  -7  10   13.39    0.54
  -3  -7  10   13.11    0.52
  -3   7  10   12.78    0.57
  -3   7  10   12.18    0.54
  -2  -7  10    5.30    0.32
  -2  -7  10    5.87    0.29
  -2  -7  10    5.54    0.33
  -2   7  10    5.21    0.34
  -2   7  10    5.58    0.30
  -2   7  10    5.06    0.37
  -1  -7  10    8.32    0.37
  -1  -7  10    8.31    0.42
  -1  -7  10    7.88    0.38
  -1   7  10    8.58    0.39
  -1   7  10    8.02    0.41
  -1   7  10    7.61    0.41
   0  -7  10   11.97    0.55
   0  -7  10   12.61    0.53
   0  -7  10   12.97    0.51
   0   7  10   12.51    0.55
   0   7  10   12.48    0.55
   1  -7  10    2.47    0.21
   1  -7  10    2.64    0.23
   1  -7  10    2.26    0.25
  -1   7 -10    2.20    0.29
   1   7  10    2.60    0.25
   1   7  10    2.49    0.25
   2  -7  10    0.10    0.12
   2  -7  10    0.28    0.15
   2   7  10    0.23    0.12
   2   7  10    0.26    0.13
   3  -7  10    1.63    0.23
   3  -7  10    1.04    0.17
   3   7  10    1.38    0.21
   3   7  10    1.28    0.20
   4  -7  10    1.86    0.17
   4  -7  10    1.78    0.22
   4   7  10    1.86    0.18
   4   7  10    1.88    0.18
   5  -7  10    2.29    0.15
   5  -7  10    2.23    0.22
  -5   7 -10    1.89    0.16
   5   7  10    2.16    0.17
   5   7  10    2.11    0.16
  -7   8  10    0.99    0.15
   7   8 -10    1.14    0.11
   6   8 -10    0.68    0.11
  -6   8  10    0.81    0.15
  -5  -8  10    0.07    0.12
  -5   8  10   -0.03    0.09
   5   8 -10    0.01    0.06
  -4  -8  10    0.29    0.10
   4   8 -10    0.28    0.10
  -4   8  10    0.07    0.11
  -3  -8  10    7.09    0.36
  -3  -8  10    6.52    0.33
  -3   8  10    6.95    0.37
  -2  -8  10    0.94    0.24
  -2  -8  10    0.43    0.14
  -2   8  10    0.97    0.24
  -2   8  10    0.39    0.14
  -1  -8  10   14.98    0.63
  -1  -8  10   15.50    0.61
  -1  -8  10   13.92    0.59
  -1   8  10   15.35    0.63
  -1   8  10   15.49    0.64
   0  -8  10    2.72    0.25
   0  -8  10    2.49    0.20
   0  -8  10    2.61    0.25
   0   8  10    2.35    0.25
   0   8  10    2.65    0.26
   1  -8  10   49.07    1.66
  -1  -8 -10   45.65    1.63
   1  -8  10   44.20    1.61
   1  -8  10   48.18    1.63
   1   8  10   47.86    1.67
   1   8  10   48.33    1.65
  -1   8 -10   47.14    1.64
   2  -8  10    0.42    0.14
   2  -8  10    0.50    0.16
   2   8  10    0.68    0.19
   2   8  10    0.52    0.16
  -2   8 -10    0.51    0.13
   3  -8  10    0.13    0.09
   3  -8  10    0.16    0.13
   3   8  10    0.48    0.16
  -3   8 -10    0.09    0.09
   3   8  10    0.20    0.09
   4  -8  10    0.39    0.11
   4  -8  10    0.50    0.15
  -4   8 -10    0.47    0.13
   4   8  10    0.41    0.12
   4   8  10    0.60    0.13
   5   8  10    0.39    0.11
   5   8  10    0.29    0.11
  -6   9  10    2.31    0.17
   6   9 -10    2.62    0.15
  -5  -9  10    0.14    0.12
   5  -9 -10    0.12    0.12
   5   9 -10    0.02    0.06
  -5   9  10    0.04    0.08
  -4  -9  10    2.22    0.19
   4   9 -10    2.23    0.18
  -4   9  10    2.32    0.21
  -3  -9  10    0.64    0.14
  -3   9  10    0.89    0.18
  -2  -9  10    2.25    0.19
  -2   9  10    2.67    0.23
  -2   9  10    2.37    0.24
  -1  -9  10    1.16    0.19
  -1  -9  10    0.70    0.15
  -1  -9  10    0.77    0.24
  -1   9  10    1.03    0.20
  -1   9  10    0.87    0.20
   0  -9 -10   63.20    2.24
   0  -9  10   61.25    2.23
   0  -9  10   68.45    2.23
   0  -9  10   67.77    2.26
   0   9  10   68.74    2.26
   0   9  10   67.90    2.28
   1  -9  10    0.18    0.13
   1  -9  10    0.40    0.13
   1  -9  10    0.40    0.14
  -1  -9 -10    0.46    0.17
  -1   9 -10    0.38    0.15
   1   9  10    0.36    0.12
   1   9  10    0.27    0.11
   2  -9  10   -0.08    0.12
   2  -9  10   -0.01    0.11
   2   9  10    0.10    0.10
  -2   9 -10    0.19    0.11
   2   9  10    0.05    0.08
   3  -9  10    1.97    0.24
   3  -9  10    2.37    0.19
   3   9  10    2.27    0.19
  -3   9 -10    2.12    0.19
   3   9  10    2.46    0.18
   4  -9  10   -0.06    0.09
  -4   9 -10    0.07    0.07
   4   9  10    0.08    0.07
   4   9  10    0.03    0.06
   5  10 -10    0.92    0.12
  -5  10  10    0.93    0.14
   4 -10 -10    0.51    0.12
  -4 -10  10    0.66    0.15
   4  10 -10    0.63    0.11
  -4  10  10    0.51    0.14
   3 -10 -10    3.29    0.22
  -3 -10  10    3.25    0.21
  -3  10  10    3.21    0.23
   3  10 -10    3.42    0.21
   2 -10 -10    2.30    0.20
  -2 -10  10    2.25    0.18
  -2  10  10    2.46    0.21
  -2  10  10    2.24    0.21
  -1 -10  10   22.34    0.84
   1 -10 -10   23.09    0.86
  -1  10  10   23.82    0.86
  -1  10  10   24.06    0.88
   0 -10  10    0.75    0.16
   0 -10 -10    0.63    0.19
   0  10  10    0.94    0.17
   0  10  10    0.84    0.17
   1 -10  10    0.66    0.20
   1 -10  10    0.97    0.20
   1  10  10    0.92    0.15
   1  10  10    0.49    0.15
   2  10  10    0.12    0.08
   2  10  10    0.10    0.08
  -2  10 -10    0.08    0.11
   3  10  10    0.11    0.08
   3  10  10    0.18    0.07
  -3  10 -10    0.15    0.09
  -4  10 -10    0.13    0.08
   4  10  10    0.12    0.07
   4  10  10    0.17    0.07
  -5  11  10    0.13    0.07
   4 -11 -10    5.76    0.31
  -4  11  10    6.02    0.27
   4  11 -10    6.02    0.26
  -3 -11  10   -0.08    0.09
   3 -11 -10    0.04    0.09
   3  11 -10    0.21    0.08
  -3  11  10    0.15    0.08
  -2 -11  10    0.35    0.09
   2 -11 -10    0.04    0.10
  -2  11  10    0.11    0.09
  -2  11  10    0.22    0.11
   2  11 -10    0.20    0.10
  -1 -11  10    0.09    0.09
   1 -11 -10    0.12    0.10
  -1  11  10    0.20    0.09
  -1  11  10    0.11    0.09
   0 -11  10    0.48    0.11
   0 -11 -10    0.28    0.14
   0  11  10    0.44    0.14
   0  11  10    0.46    0.14
   1  11  10    2.72    0.18
   1  11  10    2.46    0.18
   2  11  10    1.93    0.16
   2  11  10    1.94    0.15
   3  11  10    0.79    0.12
  -3  12  10    0.09    0.07
  -2 -12  10    0.68    0.14
   2 -12 -10    0.87    0.17
  -2  12  10    0.87    0.13
  -1 -12  10    3.03    0.21
   1 -12 -10    2.91    0.23
  -1  12  10    3.13    0.19
  -1  12  10    2.84    0.19
   0  12  10    1.27    0.14
   0  12  10    1.44    0.14
   1  12  10    1.36    0.12
   1  12  10    1.15    0.13
   2  12  10    0.01    0.07
   2  12  10    0.07    0.06
   8   0 -11   -0.04    0.06
   7   0 -11    2.02    0.17
  -6   0  11   -0.24    0.14
  -5   0  11    2.02    0.19
  -4   0  11   -0.08    0.11
  -4   0  11    0.02    0.08
  -3   0  11    3.68    0.22
  -3   0  11    3.62    0.25
  -2   0  11    0.20    0.13
  -2   0  11   -0.05    0.06
  -1   0  11   11.79    0.51
   1   0 -11   11.57    0.59
  -1   0  11   12.97    0.47
   0   0  11   -0.02    0.14
   0   0  11   -0.18    0.19
   0   0  11   -0.12    0.08
   1   0  11    6.36    0.43
   1   0  11    6.27    0.35
   1   0  11    6.53    0.37
   2   0  11    0.10    0.12
   2   0  11   -0.11    0.14
   2   0  11    0.10    0.14
   3   0  11  144.09    4.81
   3   0  11  146.10    4.82
   3   0  11  147.43    4.82
   3   0  11  143.68    4.79
   4   0  11    0.16    0.14
   4   0  11   -0.06    0.12
   4   0  11    0.25    0.13
   4   0  11    0.19    0.13
   5   0  11    1.29    0.18
   5   0  11    1.21    0.18
   5   0  11    1.26    0.17
   6   0  11    0.12    0.08
   6   0  11   -0.02    0.07
   6   0  11    0.04    0.12
   8  -1 -11    0.29    0.10
   8   1 -11    0.45    0.10
   7  -1 -11    5.26    0.26
   7   1 -11    5.05    0.26
  -6  -1  11   -0.04    0.12
  -6   1  11   -0.04    0.14
   6   1 -11   -0.03    0.15
  -5  -1  11   10.22    0.44
  -5  -1  11    9.72    0.44
   5   1 -11    9.56    0.45
  -4  -1  11    1.20    0.16
  -4   1  11    1.03    0.17
  -4   1  11    1.27    0.19
  -3  -1  11    2.65    0.32
  -3  -1  11    3.23    0.24
  -3   1  11    3.42    0.21
  -3   1  11    2.77    0.23
  -2  -1  11    5.10    0.37
  -2  -1  11    4.58    0.24
  -2  -1  11    5.92    0.30
  -2   1  11    4.62    0.32
  -2   1  11    4.62    0.24
   1  -1 -11    0.35    0.20
  -1  -1  11    0.08    0.12
  -1  -1  11    0.36    0.18
  -1  -1  11    0.04    0.05
  -1   1  11    0.08    0.16
  -1   1  11    0.09    0.06
   0  -1  11   35.58    1.25
   0  -1  11   34.71    1.22
   0  -1  11   35.45    1.19
   0   1  11   33.45    1.23
   0   1  11   33.47    1.27
   0   1  11   35.04    1.19
   1  -1  11   11.65    0.50
   1  -1  11   12.65    0.53
   1  -1  11   10.55    0.58
   1   1  11   12.20    0.52
   1   1  11   11.86    0.55
   1   1  11   11.64    0.55
   2  -1  11    0.03    0.15
   2  -1  11    0.20    0.13
   2  -1  11    0.28    0.12
   2   1  11   -0.02    0.14
   2   1  11    0.47    0.20
   2   1  11    0.14    0.14
   2   1  11    0.76    0.25
   3  -1  11    1.54    0.21
   3  -1  11    1.31    0.22
   3  -1  11    2.02    0.23
   3   1  11    1.89    0.27
   3   1  11    2.08    0.26
   3   1  11    1.85    0.25
   3   1  11    2.15    0.24
   4  -1  11   18.33    0.71
   4  -1  11   18.72    0.74
   4  -1  11   18.89    0.75
   4   1  11   18.77    0.74
   4   1  11   18.49    0.73
   4   1  11   17.95    0.71
   4   1  11   18.34    0.73
   5  -1  11    0.04    0.10
   5  -1  11    0.10    0.10
   5  -1  11    0.03    0.08
   5   1  11    0.14    0.14
   5   1  11    0.14    0.10
   5   1  11    0.05    0.08
   6  -1  11    0.44    0.15
   6  -1  11    0.45    0.13
   6  -1  11    0.59    0.12
   6   1  11    0.47    0.12
   6   1  11    0.39    0.12
   8  -2 -11    8.05    0.32
   8   2 -11    7.88    0.32
   7  -2 -11    0.10    0.08
   7   2 -11    0.21    0.08
   7   2 -11    0.59    0.20
   6  -2 -11    0.54    0.16
  -6  -2  11    0.39    0.13
  -6   2  11    0.39    0.15
   6   2 -11    0.28    0.12
  -5  -2  11    6.10    0.31
  -5  -2  11    5.48    0.31
  -5   2  11    5.92    0.32
   5   2 -11    5.67    0.32
  -4  -2  11    9.31    0.40
  -4  -2  11    8.91    0.40
  -4   2  11    8.25    0.40
  -3  -2  11    4.16    0.31
  -3  -2  11    4.33    0.26
  -3  -2  11    4.00    0.23
  -3   2  11    4.34    0.24
  -3   2  11    4.09    0.28
  -2  -2  11    2.44    0.27
  -2  -2  11    2.62    0.17
  -2   2  11    2.47    0.18
  -2   2  11    2.27    0.30
  -1  -2  11   45.04    1.50
  -1  -2  11   44.40    1.55
  -1  -2  11   43.60    1.52
  -1   2  11   44.93    1.51
  -1   2  11   42.67    1.55
   0  -2  11    0.21    0.11
   0  -2  11    0.07    0.07
   0  -2  11    0.18    0.12
   0   2  11    0.02    0.09
   0   2  11    0.20    0.27
   1  -2  11   11.54    0.60
   1  -2  11   12.11    0.54
   1  -2  11   12.83    0.51
   1   2  11   12.10    0.57
   1   2  11   12.67    0.59
   1   2  11   12.15    0.55
   2  -2  11   17.26    0.66
   2  -2  11   16.11    0.67
   2  -2  11   17.27    0.69
   2   2  11   16.39    0.67
   2   2  11   17.04    0.69
   2   2  11   17.10    0.70
   3  -2  11   44.50    1.57
   3  -2  11   46.46    1.61
   3  -2  11   45.12    1.60
   3   2  11   45.38    1.60
   3   2  11   45.17    1.59
   3   2  11   45.49    1.60
   4  -2  11    0.19    0.11
   4  -2  11    0.15    0.11
   4  -2  11   -0.08    0.10
   4   2  11    0.16    0.12
   4   2  11    0.11    0.12
   4   2  11    0.11    0.12
   5  -2  11    0.04    0.09
   5  -2  11    0.17    0.10
   5  -2  11    0.07    0.09
   5   2  11    0.16    0.11
   5   2  11    0.04    0.11
   5   2  11    0.13    0.09
   6  -2  11    0.98    0.13
   6  -2  11    1.05    0.14
   6   2  11    1.10    0.13
   6   2  11    0.96    0.13
   8  -3 -11    0.10    0.08
   8   3 -11    0.10    0.07
   7  -3 -11    2.42    0.18
   7   3 -11    2.40    0.19
   7   3 -11    2.03    0.16
  -6  -3  11    3.81    0.29
   6  -3 -11    4.68    0.26
  -6   3  11    4.15    0.29
   6   3 -11    4.10    0.26
  -5  -3  11    5.10    0.28
  -5  -3  11    4.95    0.29
  -5   3  11    5.05    0.37
   5   3 -11    5.09    0.29
  -5   3  11    4.99    0.30
  -4  -3  11    0.09    0.07
  -4  -3  11    0.21    0.09
  -4   3  11   -0.04    0.17
  -4   3  11   -0.03    0.09
  -3  -3  11    9.31    0.39
  -3  -3  11    8.74    0.40
  -3  -3  11    9.47    0.44
  -3   3  11    8.98    0.47
  -3   3  11    8.21    0.44
  -3   3  11    9.15    0.40
  -2  -3  11   11.30    0.47
  -2  -3  11   12.28    0.50
  -2  -3  11   12.18    0.52
  -2   3  11   11.47    0.48
  -2   3  11   11.35    0.56
  -1  -3  11    0.38    0.13
  -1  -3  11    0.10    0.11
  -1  -3  11    0.20    0.13
  -1   3  11    0.24    0.19
   0  -3  11    0.23    0.09
   0  -3  11    0.37    0.12
   0  -3  11    0.21    0.10
   0   3  11    0.34    0.10
   0   3  11    0.14    0.18
   0   3  11    0.37    0.19
   1  -3  11    1.01    0.34
   1  -3  11    0.41    0.13
   1  -3  11    0.40    0.12
   1   3  11    0.69    0.27
   2  -3  11    7.28    0.40
   2  -3  11    6.91    0.37
   2  -3  11    7.35    0.36
   2   3  11    6.87    0.39
   2   3  11    7.18    0.39
   2   3  11    6.77    0.43
   3  -3  11    0.34    0.15
   3  -3  11    0.53    0.18
   3  -3  11    0.41    0.14
   3   3  11    0.44    0.14
   3   3  11    0.45    0.15
   3   3  11    0.34    0.16
   4  -3  11    1.19    0.19
   4  -3  11    1.35    0.20
   4  -3  11    0.90    0.16
   4   3  11    1.32    0.20
   4   3  11    1.13    0.19
   4   3  11    1.48    0.23
   5  -3  11    0.28    0.10
   5  -3  11    0.43    0.15
   5  -3  11    0.52    0.13
   5   3  11    0.43    0.14
   5   3  11    0.51    0.15
   5   3  11    0.35    0.12
   6  -3  11    1.34    0.13
   6  -3  11    1.06    0.12
   6   3  11    0.97    0.13
   6   3  11    1.20    0.14
   8  -4 -11    0.02    0.11
   8   4 -11    0.01    0.08
   7  -4 -11    0.17    0.10
   7   4 -11    0.17    0.07
   7   4 -11    0.18    0.09
  -7   4  11    0.66    0.24
  -6  -4  11    0.25    0.14
   6  -4 -11    0.38    0.11
  -6   4  11    0.48    0.15
  -6   4  11    0.39    0.14
   6   4 -11    0.39    0.14
  -5  -4  11    5.75    0.31
   5  -4 -11    6.80    0.34
  -5  -4  11    6.60    0.33
  -5   4  11    6.29    0.38
  -5   4  11    6.05    0.34
   5   4 -11    5.84    0.32
  -4  -4  11    6.85    0.35
  -4  -4  11    7.65    0.35
  -4   4  11    7.48    0.41
  -4   4  11    7.18    0.37
  -3  -4  11    1.52    0.22
  -3  -4  11    1.72    0.19
  -3  -4  11    1.50    0.16
  -3   4  11    1.83    0.26
  -3   4  11    1.39    0.17
  -2  -4  11   10.06    0.47
  -2  -4  11   11.04    0.44
  -2   4  11   10.32    0.44
  -2   4  11   10.51    0.51
  -1  -4  11    0.99    0.20
  -1  -4  11    1.00    0.14
  -1  -4  11    0.61    0.18
  -1   4  11    0.86    0.16
  -1   4  11    0.68    0.17
   0  -4  11   15.56    0.66
   0  -4  11   16.24    0.61
   0  -4  11   16.57    0.63
   0   4  11   16.41    0.62
   0   4  11   16.10    0.67
   0   4  11   16.32    0.67
   1  -4  11    0.48    0.13
   1  -4  11    0.40    0.12
   1  -4  11    0.23    0.12
   1  -4  11    0.49    0.22
   1   4  11    0.67    0.23
   1   4  11    0.66    0.21
   2  -4  11    9.85    0.44
   2  -4  11   10.32    0.49
   2  -4  11    9.89    0.47
   2   4  11   10.10    0.48
   2   4  11   10.25    0.47
   3  -4  11   12.09    0.51
   3  -4  11   12.33    0.54
   3  -4  11   12.43    0.54
   3   4  11   11.71    0.53
   3   4  11   11.65    0.54
   3   4  11   11.61    0.53
   4  -4  11    2.98    0.25
   4  -4  11    2.98    0.25
   4  -4  11    3.11    0.22
   4   4  11    2.71    0.23
   4   4  11    2.85    0.26
   4   4  11    3.00    0.24
   5  -4  11    0.93    0.14
   5  -4  11    0.64    0.12
   5   4  11    0.63    0.14
   5   4  11    0.38    0.11
   5   4  11    0.61    0.15
   6  -4  11    1.45    0.12
   6   4  11    1.22    0.13
   6   4  11    1.42    0.17
   7  -5 -11   -0.16    0.13
  -7   5  11   -0.06    0.11
   7   5 -11   -0.10    0.08
   7   5 -11    0.03    0.07
  -6  -5  11    2.36    0.24
   6  -5 -11    2.83    0.24
  -6   5  11    2.69    0.25
   6   5 -11    2.48    0.19
  -6   5  11    2.23    0.24
  -5  -5  11    7.27    0.36
  -5  -5  11    8.12    0.37
  -5   5  11    7.11    0.37
  -5   5  11    8.36    0.41
   5   5 -11    7.84    0.37
  -4  -5  11   10.75    0.47
  -4  -5  11   11.14    0.46
  -4   5  11   10.33    0.47
  -4   5  11   10.66    0.50
  -3  -5  11    0.45    0.13
  -3  -5  11    0.45    0.13
  -3  -5  11    0.64    0.14
  -3   5  11    0.54    0.15
  -3   5  11    0.50    0.14
  -2  -5  11   -0.01    0.08
  -2  -5  11    0.24    0.12
  -2  -5  11    0.37    0.12
  -2   5  11    0.13    0.09
  -2   5  11   -0.02    0.14
  -1  -5  11   22.04    0.81
  -1  -5  11   22.06    0.82
  -1   5  11   21.43    0.85
  -1   5  11   22.65    0.82
   0  -5  11   -0.13    0.10
   0  -5  11    0.00    0.12
   0  -5  11   -0.08    0.09
   0   5  11    0.16    0.13
   0   5  11    0.14    0.11
   0   5  11    0.21    0.15
   1  -5  11    7.31    0.36
   1  -5  11    7.24    0.39
   1   5  11    7.65    0.39
   1   5  11    7.60    0.40
   2  -5  11   11.56    0.49
   2  -5  11   11.28    0.52
   2   5  11   11.39    0.52
   2   5  11   11.65    0.52
   3  -5  11    5.06    0.32
   3  -5  11    5.08    0.29
   3   5  11    5.02    0.32
   3   5  11    4.66    0.31
   4  -5  11    1.99    0.17
   4  -5  11    1.82    0.20
   4   5  11    1.76    0.19
   4   5  11    1.96    0.20
   4   5  11    1.91    0.25
   5  -5  11    0.05    0.10
   5  -5  11    0.15    0.08
   5   5  11    0.18    0.09
   5   5  11    0.21    0.08
   5   5  11    0.15    0.13
   6  -5  11   -0.06    0.05
  -6   5 -11   -0.02    0.06
   6   5  11   -0.07    0.06
  -7   6  11    0.13    0.11
   7   6 -11    0.18    0.11
   7   6 -11   -0.02    0.06
  -6  -6  11    0.10    0.22
  -6   6  11    0.03    0.11
   6   6 -11    0.08    0.08
  -5  -6  11    0.10    0.10
  -5   6  11    0.25    0.11
   5   6 -11    0.20    0.09
  -5   6  11   -0.06    0.12
  -4  -6  11    0.05    0.09
  -4  -6  11    0.28    0.13
  -4   6  11    0.11    0.09
  -4   6  11    0.14    0.12
  -3  -6  11    0.41    0.14
  -3  -6  11    0.44    0.13
  -3   6  11    0.38    0.10
  -3   6  11    0.69    0.22
  -2  -6  11   49.27    1.76
  -2  -6  11   51.38    1.73
  -2  -6  11   50.17    1.74
  -2   6  11   50.97    1.78
  -2   6  11   50.90    1.75
  -1  -6  11    2.78    0.24
  -1  -6  11    2.67    0.25
  -1  -6  11    2.83    0.20
  -1   6  11    2.46    0.33
  -1   6  11    3.11    0.22
  -1   6  11    2.56    0.26
   0  -6  11   10.82    0.44
   0  -6  11   10.73    0.46
   0  -6  11   10.46    0.49
   0   6  11   10.46    0.45
   0   6  11   10.30    0.49
   0   6  11   10.69    0.49
   1  -6  11   18.61    0.72
   1  -6  11   18.67    0.75
   1  -6  11   17.89    0.70
   1   6  11   18.96    0.75
   1   6  11   18.75    0.74
   2  -6  11    8.54    0.43
   2  -6  11    8.84    0.41
   2   6  11    8.33    0.42
   2   6  11    8.52    0.43
   3  -6  11    2.22    0.20
   3  -6  11    2.40    0.24
   3   6  11    2.39    0.22
   3   6  11    2.32    0.23
   4  -6  11    2.05    0.20
   4  -6  11    2.17    0.17
   4   6  11    1.67    0.18
   4   6  11    1.82    0.18
   5  -6  11    2.45    0.16
   5  -6  11    2.58    0.20
   5   6  11    2.46    0.17
   5   6  11    2.52    0.17
   7   7 -11    0.32    0.10
  -7   7  11    0.27    0.11
  -6   7  11    0.08    0.10
   6   7 -11    0.15    0.07
  -5  -7  11    0.95    0.16
  -5   7  11    1.09    0.18
   5   7 -11    1.27    0.15
  -4  -7  11    1.51    0.17
  -4  -7  11    1.73    0.22
  -4   7  11    1.39    0.19
  -4   7  11    1.82    0.22
  -3  -7  11    5.01    0.29
  -3  -7  11    5.43    0.30
  -3   7  11    4.98    0.30
  -3   7  11    5.45    0.34
  -2  -7  11    3.86    0.23
  -2  -7  11    3.75    0.27
  -2  -7  11    4.17    0.29
  -2   7  11    4.00    0.31
  -2   7  11    3.77    0.25
  -1  -7  11    0.95    0.20
  -1  -7  11    0.70    0.21
  -1  -7  11    0.62    0.15
  -1   7  11    0.65    0.22
  -1   7  11    0.65    0.17
   0  -7  11    4.76    0.33
   0  -7  11    4.95    0.29
   0  -7  11    4.64    0.27
   0   7  11    5.13    0.33
   0   7  11    4.68    0.32
   1  -7  11    0.59    0.20
   1  -7  11    0.33    0.13
   1  -7  11    0.31    0.12
  -1   7 -11    0.35    0.18
   1   7  11    0.58    0.20
   2  -7  11    1.49    0.17
   2  -7  11    1.54    0.22
  -2   7 -11    1.44    0.22
   2   7  11    1.24    0.20
   3  -7  11    2.49    0.22
   3  -7  11    2.37    0.18
   3   7  11    2.57    0.21
   3   7  11    2.46    0.21
   4  -7  11    0.64    0.17
   4  -7  11    0.71    0.12
   4   7  11    0.95    0.14
  -4   7 -11    0.81    0.14
   4   7  11    0.76    0.14
   5  -7  11    0.09    0.06
  -5   7 -11    0.09    0.06
   5   7  11    0.09    0.07
   5   7  11   -0.01    0.06
   6   8 -11    0.40    0.10
  -6   8  11    0.21    0.09
  -5  -8  11    1.97    0.19
  -5   8  11    2.34    0.20
   5   8 -11    2.11    0.16
  -4  -8  11    1.86    0.18
   4   8 -11    1.70    0.17
  -4   8  11    1.90    0.21
  -3  -8  11    0.33    0.11
  -3  -8  11    0.33    0.13
  -3   8  11    0.54    0.17
  -2  -8  11    0.33    0.15
  -2  -8  11    0.08    0.09
  -2   8  11   -0.02    0.15
  -2   8  11    0.03    0.11
  -1  -8  11    1.89    0.22
  -1  -8  11    1.92    0.22
  -1  -8  11    1.80    0.18
  -1   8  11    2.07    0.26
  -1   8  11    2.20    0.24
   0  -8  11    0.90    0.21
   0  -8  11    1.19    0.20
   0  -8  11    0.73    0.17
   0   8  11    1.41    0.22
   0   8  11    1.26    0.22
   1  -8  11    0.76    0.18
   1  -8  11    0.79    0.21
   1   8  11    0.60    0.18
  -1   8 -11    0.24    0.22
   1   8  11    0.61    0.18
   2  -8  11    0.41    0.13
   2  -8  11    0.18    0.10
  -2   8 -11    0.39    0.13
   2   8  11    0.64    0.16
   2   8  11    0.49    0.16
   3  -8  11    1.88    0.20
   3  -8  11    2.20    0.17
  -3   8 -11    2.13    0.19
   3   8  11    2.29    0.19
   3   8  11    1.96    0.19
   4  -8  11    0.14    0.12
   4  -8  11    0.33    0.11
  -4   8 -11    0.34    0.12
   4   8  11    0.30    0.11
   4   8  11    0.13    0.07
   6   9 -11   -0.05    0.06
  -6   9  11   -0.09    0.07
   5  -9 -11    1.64    0.19
  -5  -9  11    1.23    0.19
  -5   9  11    1.85    0.16
   5   9 -11    1.66    0.14
  -4  -9  11    0.12    0.09
  -4   9  11    0.45    0.14
   4   9 -11    0.35    0.11
  -3  -9  11    0.13    0.09
  -3   9  11    0.00    0.09
  -2  -9  11   10.09    0.42
  -2   9  11    8.29    0.45
  -2   9  11   11.43    0.47
  -1  -9  11    7.21    0.35
  -1  -9  11    8.14    0.38
  -1  -9  11    7.53    0.38
  -1   9  11    7.37    0.38
  -1   9  11    7.43    0.38
   0  -9  11    5.33    0.29
   0  -9 -11    4.93    0.29
   0  -9  11    4.46    0.28
   0  -9  11    4.44    0.26
   0   9  11    4.76    0.29
   0   9  11    5.55    0.31
   1  -9  11    0.39    0.15
   1  -9  11    0.10    0.11
   1  -9  11    0.26    0.12
   1   9  11    0.26    0.10
   1   9  11    0.34    0.11
   2  -9  11    1.95    0.17
   2  -9  11    1.86    0.20
   2   9  11    1.85    0.18
  -2   9 -11    1.79    0.21
   2   9  11    2.06    0.19
   3  -9  11    2.98    0.19
   3  -9  11    3.09    0.24
  -3   9 -11    3.54    0.22
   3   9  11    3.50    0.20
   3   9  11    3.39    0.21
   4  -9  11    0.76    0.14
   4   9  11    0.51    0.11
   4   9  11    0.61    0.11
   5  10 -11    0.65    0.10
  -5  10  11    0.53    0.12
   4 -10 -11    0.78    0.16
  -4 -10  11    0.45    0.11
  -4  10  11    0.53    0.13
   4  10 -11    0.52    0.11
  -3 -10  11   -0.01    0.08
   3 -10 -11    0.05    0.09
  -3  10  11    0.11    0.08
   3  10 -11    0.11    0.08
  -2 -10  11    0.10    0.09
   2 -10 -11    0.10    0.10
  -2  10  11    0.13    0.13
  -2  10  11    0.13    0.09
  -1 -10  11    1.45    0.16
   1 -10 -11    1.61    0.19
  -1  10  11    1.47    0.17
  -1  10  11    1.31    0.19
   0 -10 -11    0.27    0.13
   0 -10  11    0.44    0.12
   0  10  11    0.27    0.10
   0  10  11    0.05    0.09
   1 -10  11    0.88    0.18
   1  10  11    0.67    0.14
   1  10  11    0.53    0.13
   2  10  11    0.84    0.13
   2  10  11    0.61    0.13
   3  10  11    0.68    0.11
   3  10  11    0.67    0.11
  -3  10 -11    0.63    0.17
   4  11 -11   -0.05    0.07
  -4  11  11    0.00    0.07
   3 -11 -11    0.59    0.15
  -3 -11  11    0.63    0.14
  -3  11  11    0.51    0.12
   3  11 -11    0.67    0.12
  -2 -11  11    0.46    0.13
   2 -11 -11    0.27    0.10
  -2  11  11    0.37    0.12
   2  11 -11    0.14    0.09
  -2  11  11    0.20    0.13
  -1 -11  11    0.46    0.16
   1 -11 -11    0.37    0.12
  -1  11  11    0.32    0.10
  -1  11  11    0.34    0.12
   0 -11  11    0.32    0.13
   0 -11 -11    0.44    0.19
   0  11  11    0.34    0.12
   0  11  11    0.26    0.09
   1  11  11    0.09    0.07
   1  11  11    0.09    0.06
   2  11  11    3.13    0.17
   2  11  11    2.79    0.17
  -3  12  11    0.02    0.06
  -2  12  11    0.01    0.06
  -1  12  11    0.02    0.06
  -1  12  11    0.21    0.10
   0  12  11    1.62    0.14
   0  12  11    1.61    0.14
   1  12  11    0.04    0.07
   1  12  11    0.03    0.07
   8   0 -12   -0.06    0.06
   7   0 -12    0.04    0.07
  -6   0  12   13.78    0.57
  -5   0  12    0.08    0.10
  -4   0  12  267.51    8.75
  -4   0  12  268.51    8.76
  -3   0  12    0.04    0.07
  -3   0  12   -0.17    0.10
  -2   0  12    0.25    0.20
  -2   0  12    0.38    0.12
  -2   0  12    0.43    0.13
  -1   0  12    0.14    0.13
  -1   0  12    1.09    0.28
   0   0  12    0.41    0.10
   0   0  12    0.79    0.23
   0   0  12    0.42    0.16
   1   0  12   -0.04    0.15
   1   0  12    0.14    0.13
   2   0  12   22.00    0.83
   2   0  12   22.73    0.86
   2   0  12   22.09    0.85
   3   0  12    0.66    0.21
   3   0  12    0.33    0.14
   3   0  12    0.26    0.18
   3   0  12    0.20    0.14
   4   0  12    6.03    0.33
   4   0  12    5.85    0.31
   4   0  12    5.87    0.33
   5   0  12   -0.06    0.08
   5   0  12    0.00    0.11
   5   0  12   -0.01    0.08
   6   0  12    0.61    0.12
   6   0  12    0.58    0.11
   8  -1 -12    0.00    0.06
   8   1 -12    0.00    0.06
   7  -1 -12    0.35    0.11
   7   1 -12    0.39    0.11
  -6  -1  12    4.22    0.27
  -6   1  12    2.92    0.26
  -5  -1  12   86.41    2.75
  -5  -1  12   82.33    2.74
  -5   1  12   78.92    2.74
   5   1 -12   78.23    2.73
  -4  -1  12    1.08    0.15
  -4  -1  12    0.86    0.17
  -4   1  12    1.09    0.19
  -4   1  12    0.77    0.15
  -3  -1  12   20.98    0.80
  -3  -1  12   21.03    0.84
  -3  -1  12   22.08    0.81
  -3   1  12   23.26    0.82
  -3   1  12   22.04    0.81
  -2  -1  12    8.23    0.36
  -2  -1  12    8.39    0.44
  -2  -1  12    8.34    0.39
  -2   1  12    8.35    0.37
  -2   1  12    8.35    0.41
  -1  -1  12   12.61    0.51
  -1  -1  12   11.83    0.54
  -1  -1  12   12.40    0.48
  -1   1  12   12.43    0.53
  -1   1  12   12.34    0.49
   0  -1  12    0.29    0.12
   0  -1  12    0.52    0.15
   0  -1  12    0.11    0.14
   0   1  12    0.45    0.20
   0   1  12    0.35    0.16
   1  -1  12    2.18    0.33
   1  -1  12    1.78    0.21
   1  -1  12    1.35    0.25
   1   1  12    1.80    0.30
   1   1  12    1.95    0.33
   1   1  12    2.09    0.26
   2  -1  12    0.50    0.13
   2  -1  12    0.39    0.14
   2  -1  12    0.74    0.23
   2   1  12    0.48    0.15
   2   1  12    0.62    0.16
   2   1  12    1.10    0.29
   2   1  12    1.03    0.22
   3  -1  12    0.16    0.13
   3  -1  12    0.25    0.13
   3  -1  12    0.05    0.12
   3   1  12    0.65    0.25
   3   1  12    0.21    0.17
   3   1  12    0.10    0.12
   3   1  12    0.20    0.14
   4  -1  12    0.12    0.11
   4  -1  12   -0.18    0.10
   4  -1  12    0.04    0.11
   4   1  12    0.09    0.14
   4   1  12    0.18    0.11
   4   1  12    0.10    0.11
   4   1  12    0.01    0.12
   5  -1  12    0.24    0.09
   5  -1  12    0.61    0.15
   5  -1  12    0.33    0.10
   5   1  12    0.20    0.09
   6  -1  12    0.07    0.07
  -6  -1 -12   -0.01    0.10
   6   1  12    0.07    0.08
   6   1  12    0.12    0.07
   8  -2 -12    1.85    0.14
   8   2 -12    1.71    0.13
   7  -2 -12    0.82    0.13
   7   2 -12    0.83    0.12
  -6  -2  12    0.41    0.13
   6   2 -12    0.54    0.19
  -6   2  12    0.60    0.21
  -5  -2  12   28.16    1.01
  -5  -2  12   26.00    1.01
  -5   2  12   28.22    1.02
   5   2 -12   28.79    1.01
  -4  -2  12   17.65    0.68
  -4   2  12   17.13    0.67
  -4   2  12   17.34    0.68
  -3  -2  12    2.63    0.27
  -3  -2  12    2.50    0.21
  -3   2  12    2.72    0.24
  -3   2  12    2.62    0.20
  -2  -2  12    0.92    0.23
  -2   2  12    0.64    0.17
  -1  -2  12    3.84    0.29
  -1  -2  12    3.32    0.20
  -1  -2  12    3.30    0.24
  -1   2  12    2.34    0.31
  -1   2  12    2.93    0.20
   0  -2  12    0.50    0.12
   0  -2  12    0.60    0.14
   0  -2  12    0.46    0.13
   1  -2  12    0.87    0.22
   1  -2  12    0.87    0.16
   1   2  12    0.88    0.33
   1   2  12    1.03    0.32
   1   2  12    0.86    0.27
   2  -2  12    2.38    0.29
   2  -2  12    2.33    0.22
   2  -2  12    2.45    0.25
   2   2  12    2.86    0.29
   2   2  12    2.44    0.26
   2   2  12    2.41    0.29
   3  -2  12    1.07    0.21
   3  -2  12    0.97    0.19
   3  -2  12    0.70    0.16
   3   2  12    1.13    0.23
   3   2  12    1.03    0.23
   3   2  12    0.92    0.23
   4  -2  12    0.19    0.10
   4  -2  12    0.32    0.11
   4  -2  12    0.55    0.18
   4   2  12    0.39    0.12
   4   2  12    0.29    0.11
   5  -2  12    1.13    0.14
   5  -2  12    1.01    0.15
   5  -2  12    1.15    0.15
   5   2  12    0.90    0.14
   5   2  12    0.88    0.16
   6  -2  12    0.05    0.08
   6  -2  12   -0.10    0.06
   6   2  12   -0.01    0.06
   6   2  12    0.03    0.08
   8  -3 -12   -0.11    0.09
   8   3 -12    0.08    0.07
   7  -3 -12    0.56    0.13
   7   3 -12    0.53    0.16
   7   3 -12    0.41    0.11
   6  -3 -12    0.79    0.15
  -6  -3  12    0.91    0.21
   6   3 -12    0.74    0.16
  -6   3  12    0.44    0.15
  -5  -3  12    0.09    0.10
  -5  -3  12    0.04    0.10
   5   3 -12    0.17    0.11
  -5   3  12    0.11    0.12
  -4  -3  12    0.03    0.09
  -4  -3  12    0.09    0.07
  -4   3  12    0.16    0.11
  -3  -3  12   38.29    1.37
  -3  -3  12   37.71    1.35
  -3  -3  12   39.77    1.35
  -3   3  12   37.65    1.36
  -3   3  12   40.37    1.36
  -2  -3  12    7.49    0.39
  -2  -3  12    7.46    0.37
  -2  -3  12    7.69    0.34
  -2   3  12    7.48    0.35
  -1  -3  12    5.24    0.32
  -1  -3  12    5.23    0.27
  -1  -3  12    5.36    0.30
  -1   3  12    5.35    0.28
  -1   3  12    5.32    0.40
   0  -3  12    0.17    0.12
   0  -3  12    0.27    0.10
   0  -3  12    0.20    0.11
   0   3  12    0.22    0.12
   0   3  12    0.35    0.17
   1  -3  12    6.89    0.37
   1   3  12    7.21    0.40
   1   3  12    7.63    0.40
   2  -3  12    1.78    0.27
   2  -3  12    1.72    0.25
   2  -3  12    1.65    0.21
   2   3  12    1.62    0.27
   2   3  12    2.07    0.24
   2   3  12    2.45    0.33
   3  -3  12   -0.02    0.11
   3  -3  12    0.08    0.12
   3  -3  12    0.19    0.11
   3   3  12    0.15    0.12
   3   3  12    0.66    0.24
   3   3  12    0.23    0.13
   4  -3  12    1.21    0.19
   4  -3  12    1.23    0.18
   4  -3  12    1.09    0.16
   4   3  12    1.07    0.17
   4   3  12    1.46    0.19
   4   3  12    1.19    0.21
   5  -3  12    0.02    0.08
   5  -3  12   -0.02    0.07
   5   3  12    0.07    0.07
   5   3  12    0.09    0.10
   5   3  12    0.06    0.09
   6  -3  12    0.75    0.13
   6  -3  12    0.85    0.11
   6   3  12    0.76    0.17
   6   3  12    0.87    0.11
   7  -4 -12    1.24    0.17
   7   4 -12    1.28    0.15
   7   4 -12    1.31    0.13
  -6  -4  12    0.27    0.14
   6  -4 -12    0.84    0.16
   6   4 -12    0.48    0.14
  -6   4  12    0.60    0.19
  -6   4  12    0.16    0.14
   5  -4 -12    0.07    0.13
  -5  -4  12   -0.02    0.10
  -5  -4  12    0.18    0.09
   5   4 -12    0.06    0.09
  -5   4  12    0.32    0.17
  -5   4  12    0.00    0.12
  -4  -4  12    8.07    0.37
  -4   4  12    6.60    0.36
  -4   4  12    7.93    0.43
  -3  -4  12    0.39    0.12
  -3  -4  12    0.57    0.13
  -3  -4  12    0.48    0.12
  -3   4  12    0.72    0.16
  -3   4  12    0.73    0.19
  -2  -4  12   41.28    1.48
  -2  -4  12   40.38    1.45
  -2  -4  12   42.80    1.44
  -2   4  12   40.54    1.48
  -2   4  12   42.98    1.45
  -1  -4  12    1.17    0.19
  -1  -4  12    1.27    0.15
  -1  -4  12    1.32    0.21
  -1   4  12    1.29    0.26
  -1   4  12    1.12    0.17
   0  -4  12    4.66    0.28
   0  -4  12    5.03    0.26
   0  -4  12    5.07    0.32
   0   4  12    4.57    0.35
   0   4  12    4.28    0.35
   0   4  12    4.63    0.28
   1  -4  12    0.14    0.11
   1  -4  12    0.05    0.10
   1   4  12    0.20    0.13
   1   4  12   -0.02    0.13
   2  -4  12    0.08    0.11
   2  -4  12    0.20    0.16
   2  -4  12    0.25    0.12
   2   4  12    0.03    0.13
   2   4  12    0.27    0.14
   3  -4  12    2.51    0.21
   3  -4  12    2.93    0.26
   3  -4  12    2.58    0.24
   3   4  12    2.52    0.24
   3   4  12    2.18    0.29
   3   4  12    2.56    0.24
   4  -4  12    0.04    0.10
   4  -4  12   -0.04    0.08
   4   4  12    0.56    0.21
   4   4  12    0.03    0.09
   4   4  12   -0.04    0.09
   5  -4  12    1.01    0.14
   5  -4  12    1.04    0.13
   5   4  12    1.02    0.14
   5   4  12    1.11    0.14
   5   4  12    1.35    0.18
   7   5 -12    0.65    0.13
   7   5 -12    0.81    0.12
  -6  -5  12    5.58    0.32
   6   5 -12    6.37    0.29
  -6   5  12    5.74    0.33
  -6   5  12    6.00    0.33
  -5  -5  12    4.48    0.27
  -5  -5  12    5.72    0.29
   5   5 -12    5.07    0.28
  -5   5  12    5.15    0.32
  -5   5  12    4.67    0.29
  -4  -5  12    2.20    0.21
  -4  -5  12    2.12    0.19
  -4   5  12    1.99    0.27
  -4   5  12    2.52    0.22
  -3  -5  12   23.75    0.83
  -3  -5  12   21.90    0.82
  -3  -5  12   20.47    0.84
  -3   5  12   21.48    0.86
  -3   5  12   22.40    0.83
  -2  -5  12    0.62    0.19
  -2  -5  12    0.54    0.13
  -2  -5  12    0.47    0.13
  -2   5  12    0.72    0.16
  -2   5  12    0.69    0.24
  -1  -5  12    5.33    0.30
  -1  -5  12    5.36    0.33
  -1  -5  12    5.91    0.29
  -1   5  12    5.81    0.30
  -1   5  12    5.09    0.34
   0  -5  12    3.06    0.25
   0  -5  12    3.95    0.24
   0  -5  12    3.32    0.27
   0   5  12    3.36    0.25
   0   5  12    3.67    0.32
   0   5  12    3.92    0.30
   1  -5  12   15.44    0.63
   1  -5  12   14.40    0.60
   1   5  12   14.94    0.62
   1   5  12   14.28    0.62
   2  -5  12    1.30    0.22
   2  -5  12    1.04    0.18
   2   5  12    1.17    0.22
   2   5  12    1.57    0.23
   3  -5  12    1.04    0.19
   3  -5  12    1.29    0.17
   3   5  12    1.35    0.20
   3   5  12    0.91    0.18
   4  -5  12    5.43    0.27
   4  -5  12    5.52    0.29
   4   5  12    5.51    0.29
   4   5  12    5.75    0.30
   5  -5  12    0.02    0.07
   5  -5  12    0.16    0.09
   5   5  12    0.05    0.07
   5   5  12    0.09    0.07
   7   6 -12    1.96    0.21
   7   6 -12    1.53    0.13
  -6  -6  12    1.08    0.23
   6   6 -12    1.01    0.13
  -6   6  12    0.67    0.19
  -5  -6  12    1.01    0.15
   5   6 -12    1.33    0.15
  -5   6  12    1.27    0.18
  -5   6  12    1.18    0.21
  -4  -6  12   18.63    0.66
  -4  -6  12   15.87    0.65
  -4   6  12   18.09    0.69
  -4   6  12   15.00    0.66
  -3  -6  12    0.33    0.11
  -3  -6  12    0.26    0.10
  -3   6  12    0.26    0.11
  -3   6  12    0.30    0.14
  -2  -6  12   13.76    0.56
  -2  -6  12   15.32    0.60
  -2  -6  12   14.56    0.57
  -2   6  12   12.24    0.56
  -2   6  12   14.18    0.61
  -1  -6  12    3.61    0.27
  -1  -6  12    3.91    0.23
  -1  -6  12    3.15    0.25
  -1   6  12    3.43    0.23
  -1   6  12    3.59    0.30
   0  -6  12    2.20    0.22
   0  -6  12    2.04    0.19
   0  -6  12    2.35    0.26
   0   6  12    2.13    0.28
   0   6  12    1.90    0.21
   0   6  12    2.16    0.27
   1  -6  12    8.83    0.41
   1  -6  12    9.03    0.43
   1   6  12    8.62    0.44
   1   6  12    8.61    0.42
   2  -6  12    1.46    0.18
   2  -6  12    2.05    0.23
   2   6  12    1.56    0.22
   2   6  12    1.96    0.22
   3  -6  12    2.53    0.22
   3  -6  12    2.42    0.18
   3   6  12    2.53    0.21
   3   6  12    2.50    0.22
   4  -6  12   -0.04    0.07
   4  -6  12    0.11    0.09
   4   6  12    0.04    0.08
   4   6  12   -0.03    0.08
   5  -6  12    0.48    0.14
   5  -6  12    0.45    0.09
   5   6  12    0.29    0.11
  -5   6 -12    0.41    0.11
   5   6  12    0.47    0.11
   7   7 -12    0.04    0.06
  -6   7  12    0.00    0.10
   6   7 -12   -0.09    0.12
   6   7 -12   -0.04    0.06
  -5  -7  12    7.80    0.36
   5   7 -12    8.41    0.37
  -5   7  12    8.42    0.39
  -4  -7  12    1.20    0.15
  -4  -7  12    1.48    0.19
  -4   7  12    1.51    0.21
  -4   7  12    1.12    0.17
  -3  -7  12    0.05    0.09
  -3  -7  12    0.09    0.10
  -3   7  12   -0.06    0.11
  -3   7  12    0.10    0.10
  -2  -7  12    0.19    0.11
  -2  -7  12    0.23    0.12
  -2  -7  12    0.07    0.08
  -2   7  12    0.02    0.09
  -1  -7  12   12.62    0.55
  -1  -7  12   12.94    0.53
  -1  -7  12   12.36    0.52
  -1   7  12   12.52    0.57
  -1   7  12   13.13    0.57
   0  -7  12   10.06    0.45
   0  -7  12   10.78    0.49
   0  -7  12   10.95    0.46
   0   7  12   11.04    0.50
   0   7  12   10.86    0.49
   1  -7  12   10.57    0.45
   1  -7  12   10.71    0.48
   1   7  12    9.90    0.48
   1   7  12   10.62    0.47
   2  -7  12    1.35    0.16
   2  -7  12    1.59    0.19
   2   7  12    1.23    0.19
   2   7  12    1.16    0.19
  -2   7 -12    1.14    0.22
   3  -7  12    0.48    0.15
   3  -7  12    0.27    0.08
  -3   7 -12    0.24    0.10
   3   7  12    0.24    0.10
   3   7  12    0.08    0.09
   4  -7  12    0.37    0.10
   4  -7  12    0.61    0.15
   4   7  12    0.58    0.13
   4   7  12    0.49    0.12
  -4   7 -12    0.50    0.12
  -5   7 -12    0.56    0.17
  -6   8  12    0.08    0.09
   6   8 -12    0.33    0.09
  -5  -8  12    0.48    0.15
   5   8 -12    0.56    0.11
  -5   8  12    0.48    0.14
  -4  -8  12    1.98    0.17
  -4  -8  12    1.94    0.21
  -4   8  12    2.26    0.21
   4   8 -12    2.25    0.18
  -3  -8  12    5.54    0.29
  -3  -8  12    5.11    0.28
  -3   8  12    6.05    0.32
  -2  -8  12    6.44    0.32
  -2  -8  12    6.83    0.33
  -2   8  12    6.87    0.36
  -1  -8  12    9.59    0.41
  -1  -8  12    8.66    0.40
  -1  -8  12    9.58    0.43
  -1   8  12    9.47    0.45
  -1   8  12    9.54    0.44
   0  -8  12    1.71    0.19
   0  -8  12    2.31    0.20
   0  -8  12    1.98    0.21
   0   8  12    2.34    0.22
   0   8  12    2.09    0.23
   1  -8  12    3.55    0.24
   1  -8  12    3.69    0.23
   1   8  12    3.72    0.24
   1   8  12    3.15    0.24
   2  -8  12    0.40    0.14
   2  -8  12    0.19    0.10
  -2   8 -12    0.04    0.12
   2   8  12    0.09    0.10
   2   8  12   -0.08    0.08
   3  -8  12   -0.07    0.08
   3  -8  12    0.17    0.09
  -3   8 -12   -0.08    0.09
   3   8  12    0.05    0.07
   3   8  12   -0.04    0.07
   4  -8  12    0.09    0.07
   4   8  12    0.17    0.07
   4   8  12    0.07    0.06
  -4   8 -12    0.19    0.08
   6   9 -12    1.32    0.11
   5  -9 -12    0.13    0.13
   5   9 -12   -0.03    0.06
  -5   9  12    0.02    0.08
  -4  -9  12    3.54    0.21
   4   9 -12    3.57    0.20
  -4   9  12    3.56    0.22
  -3  -9  12    3.84    0.23
  -3   9  12    3.95    0.24
  -2  -9  12    1.09    0.21
  -2  -9  12    1.40    0.16
  -2   9  12    1.39    0.18
  -1  -9  12    0.22    0.11
  -1  -9  12    0.23    0.10
  -1  -9  12    0.04    0.12
  -1   9  12    0.21    0.13
  -1   9  12    0.09    0.10
   0  -9  12    0.04    0.11
   0  -9 -12    0.34    0.14
   0  -9  12    0.07    0.11
   0  -9  12    0.14    0.10
   0   9  12   -0.10    0.09
   0   9  12   -0.08    0.10
   1  -9  12    1.90    0.17
   1  -9  12    1.61    0.18
   1   9  12    1.76    0.17
   1   9  12    2.04    0.18
   2  -9  12    3.46    0.22
   2  -9  12    3.46    0.21
   2   9  12    3.08    0.21
   2   9  12    3.35    0.21
   3  -9  12    1.67    0.35
   3  -9  12    1.77    0.15
   3   9  12    1.52    0.14
   3   9  12    1.65    0.14
   5  10 -12    0.32    0.09
   4 -10 -12    9.28    0.39
  -4 -10  12    8.88    0.38
  -4  10  12    9.51    0.38
   4  10 -12    9.51    0.37
  -3 -10  12    0.44    0.13
   3 -10 -12    0.46    0.13
   3  10 -12    0.55    0.11
  -3  10  12    0.33    0.13
  -2 -10  12    0.39    0.13
   2 -10 -12    0.18    0.10
  -2  10  12    0.19    0.09
   1 -10 -12    0.18    0.11
  -1 -10  12    0.12    0.09
  -1  10  12    0.16    0.11
  -1  10  12    0.42    0.13
   0 -10  12    2.25    0.22
   0 -10 -12    2.79    0.26
   0  10  12    2.49    0.19
   0  10  12    2.53    0.19
   1  10  12    1.58    0.15
   1  10  12    1.20    0.15
   2  10  12    0.15    0.08
   2  10  12    0.28    0.11
   3  10  12    0.17    0.06
   3  10  12    0.02    0.06
  -4  11  12    0.13    0.07
   3  11 -12    2.91    0.16
  -3  11  12    2.26    0.16
  -2 -11  12    0.58    0.14
   2 -11 -12    0.28    0.11
  -2  11  12    0.19    0.07
   2  11 -12    0.24    0.08
   1 -11 -12   -0.03    0.18
  -1 -11  12    0.18    0.10
  -1  11  12    0.03    0.11
  -1  11  12    0.31    0.11
   0  11  12    0.58    0.11
   1  11  12    1.29    0.14
   1  11  12    1.32    0.13
   2  11  12    0.05    0.06
   2  11  12    0.13    0.07
  -1  12  12   -0.05    0.06
   8   0 -13    0.01    0.06
   7   0 -13    0.01    0.06
  -6   0  13    0.04    0.13
  -5   0  13   67.07    2.28
  -4   0  13    0.23    0.10
  -4   0  13    0.18    0.11
  -3   0  13    2.24    0.19
  -2   0  13   -0.09    0.19
  -2   0  13    0.13    0.12
  -2   0  13    0.01    0.07
  -1   0  13    3.52    0.34
  -1   0  13    4.23    0.24
  -1   0  13    4.31    0.28
   0   0  13    0.02    0.11
   0   0  13    0.18    0.15
   0   0  13    0.03    0.12
   1   0  13   59.40    1.99
   1   0  13   56.04    1.96
   2   0  13   -0.02    0.15
   2   0  13    0.29    0.15
   2   0  13   -0.04    0.12
   3   0  13   14.99    0.63
   3   0  13   15.66    0.64
   3   0  13   15.86    0.61
   4   0  13   -0.01    0.10
   4   0  13    0.10    0.10
   4   0  13   -0.10    0.09
   5   0  13    2.29    0.17
   5   0  13    1.96    0.17
   5   0  13    2.51    0.25
   8  -1 -13    0.44    0.10
   8   1 -13    0.43    0.09
   7  -1 -13    0.08    0.07
   7   1 -13    0.11    0.06
  -6  -1  13    1.24    0.22
  -6   1  13    1.34    0.21
  -5  -1  13    7.82    0.37
  -5  -1  13    7.78    0.38
  -5   1  13    7.61    0.38
  -4  -1  13    2.90    0.23
  -4  -1  13    3.31    0.22
  -4   1  13    3.06    0.22
  -4   1  13    3.20    0.25
  -3  -1  13    6.02    0.38
  -3  -1  13    7.12    0.32
  -3  -1  13    6.51    0.34
  -3   1  13    6.77    0.35
  -3   1  13    7.00    0.33
  -2  -1  13    2.95    0.20
  -2  -1  13    3.23    0.29
  -2   1  13    3.21    0.24
  -2   1  13    3.23    0.21
  -1  -1  13    5.65    0.36
  -1  -1  13    5.83    0.29
  -1  -1  13    6.24    0.33
  -1   1  13    5.41    0.33
  -1   1  13    6.18    0.29
   0  -1  13    0.13    0.14
   0  -1  13    0.06    0.11
   0  -1  13    0.08    0.10
   0   1  13   -0.02    0.10
   0   1  13    0.16    0.19
   0   1  13    0.17    0.15
   1  -1  13    0.02    0.13
   1  -1  13    0.12    0.11
   1   1  13   -0.02    0.16
   1   1  13   -0.10    0.18
   1   1  13    0.17    0.17
   2  -1  13    4.05    0.32
   2  -1  13    3.52    0.30
   2  -1  13    3.53    0.26
   2   1  13    3.77    0.30
   2   1  13    3.44    0.31
   2   1  13    3.61    0.31
   3  -1  13    8.92    0.42
   3  -1  13    8.19    0.42
   3  -1  13    8.69    0.39
   3   1  13    8.23    0.41
   3   1  13    8.34    0.41
   4  -1  13    0.14    0.10
   4  -1  13    0.18    0.11
   4  -1  13    0.50    0.16
   4   1  13    0.35    0.14
   4   1  13    0.25    0.10
   5  -1  13    0.15    0.09
   5  -1  13    0.16    0.08
   5  -1  13    0.10    0.09
   5   1  13    0.23    0.09
   5   1  13    0.20    0.08
   8  -2 -13   -0.10    0.07
   8   2 -13    0.07    0.06
   7  -2 -13    0.54    0.12
   7   2 -13    0.63    0.10
   6  -2 -13    1.66    0.17
  -6  -2  13    1.66    0.21
   6   2 -13    1.99    0.22
  -6   2  13    1.86    0.23
  -5  -2  13    2.54    0.20
  -5  -2  13    2.77    0.21
  -5   2  13    2.25    0.23
   5   2 -13    2.74    0.23
  -4  -2  13    2.18    0.19
  -4  -2  13    2.08    0.21
  -4   2  13    1.92    0.23
  -4   2  13    1.96    0.20
  -3  -2  13    0.03    0.14
  -3  -2  13   -0.06    0.06
  -3  -2  13    0.13    0.11
  -3   2  13    0.26    0.13
  -3   2  13    0.06    0.09
  -2  -2  13    2.50    0.18
  -2  -2  13    2.14    0.25
  -2  -2  13    2.57    0.21
  -2   2  13    2.44    0.26
  -2   2  13    2.57    0.19
  -1  -2  13    2.16    0.17
  -1  -2  13    1.72    0.24
  -1  -2  13    2.10    0.21
  -1   2  13    2.48    0.30
  -1   2  13    2.16    0.18
   0  -2  13   10.77    0.49
   0  -2  13   10.74    0.47
   0  -2  13   10.75    0.44
   0   2  13   10.40    0.45
   1  -2  13   -0.06    0.11
   1  -2  13    0.03    0.10
   1   2  13   -0.04    0.20
   1   2  13    0.17    0.16
   1   2  13   -0.27    0.20
   2  -2  13   26.85    1.01
   2  -2  13   26.62    1.00
   2  -2  13   26.27    0.98
   2   2  13   26.96    1.01
   2   2  13   27.33    1.00
   2   2  13   27.32    1.01
   3  -2  13    6.84    0.34
   3  -2  13    6.30    0.35
   3  -2  13    6.58    0.35
   3   2  13    6.35    0.35
   3   2  13    6.16    0.35
   3   2  13    6.37    0.35
   4  -2  13    0.28    0.10
   4  -2  13    0.14    0.09
   4  -2  13    0.44    0.16
   4   2  13    0.28    0.11
   4   2  13    0.56    0.18
   4   2  13    0.19    0.11
   5  -2  13    0.50    0.11
   5  -2  13    0.69    0.13
   5   2  13    0.62    0.13
   5   2  13    0.70    0.15
   8   3 -13    0.53    0.10
   7  -3 -13    0.10    0.09
   7   3 -13    0.01    0.14
   7   3 -13    0.06    0.06
   6  -3 -13    2.32    0.19
  -6  -3  13    2.21    0.21
   6   3 -13    2.17    0.19
  -6   3  13    2.26    0.23
  -5  -3  13    3.42    0.23
  -5  -3  13    3.28    0.22
  -5   3  13    3.13    0.24
   5   3 -13    3.47    0.24
  -4  -3  13   -0.06    0.06
  -4  -3  13    0.02    0.08
  -4   3  13    0.07    0.09
  -3  -3  13    9.32    0.43
  -3  -3  13    9.73    0.41
  -3  -3  13    9.36    0.45
  -3   3  13    8.92    0.44
  -3   3  13    9.82    0.42
  -2  -3  13    6.89    0.35
  -2  -3  13    7.12    0.33
  -2  -3  13    6.86    0.37
  -2   3  13    7.40    0.34
  -1  -3  13    5.07    0.27
  -1  -3  13    5.23    0.30
  -1  -3  13    5.42    0.32
  -1   3  13    5.58    0.29
   0  -3  13   21.81    0.84
   0  -3  13   21.76    0.81
   0  -3  13   21.82    0.79
   0   3  13   21.12    0.85
   0   3  13   21.40    0.80
   1  -3  13    4.05    0.29
   1  -3  13    3.99    0.26
   1   3  13    4.73    0.34
   1   3  13    4.36    0.33
   2  -3  13    1.32    0.22
   2  -3  13    1.77    0.28
   2  -3  13    1.81    0.19
   2   3  13    1.46    0.24
   2   3  13    1.77    0.27
   2   3  13    1.64    0.33
   3  -3  13    0.09    0.10
   3  -3  13    0.16    0.12
   3  -3  13    0.12    0.11
   3   3  13   -0.12    0.14
   3   3  13    0.11    0.12
   3   3  13    0.07    0.12
   4  -3  13    3.03    0.20
   4  -3  13    3.36    0.22
   4  -3  13    2.96    0.22
   4   3  13    2.96    0.22
   4   3  13    3.70    0.25
   4   3  13    3.23    0.22
   5  -3  13    0.34    0.10
   5  -3  13    0.36    0.12
   5   3  13    0.60    0.17
   5   3  13    0.38    0.12
   7  -4 -13    3.52    0.22
   7   4 -13    3.56    0.19
   7   4 -13    3.48    0.21
   6  -4 -13    0.53    0.17
   6   4 -13    0.80    0.15
  -6   4  13    1.12    0.20
  -5  -4  13    0.16    0.09
  -5  -4  13    0.01    0.09
   5  -4 -13    0.08    0.13
  -5   4  13    0.03    0.11
   5   4 -13   -0.03    0.09
  -4  -4  13    4.10    0.25
  -4   4  13    3.61    0.25
  -3  -4  13    3.54    0.26
  -3  -4  13    3.21    0.27
  -3   4  13    3.52    0.23
  -3   4  13    2.99    0.36
  -2  -4  13   15.12    0.63
  -2  -4  13   16.62    0.63
  -2  -4  13   16.57    0.67
  -2   4  13   17.06    0.64
  -2   4  13   16.29    0.68
  -1  -4  13    2.85    0.26
  -1  -4  13    3.62    0.25
  -1  -4  13    3.50    0.22
  -1   4  13    3.06    0.31
  -1   4  13    3.51    0.23
   0  -4  13    5.08    0.29
   0  -4  13    4.86    0.26
   0  -4  13    5.32    0.32
   0   4  13    5.04    0.30
   0   4  13    4.51    0.35
   1  -4  13   16.23    0.66
   1  -4  13   16.28    0.63
   1   4  13   15.22    0.65
   1   4  13   15.21    0.65
   2  -4  13    0.49    0.13
   2  -4  13    0.62    0.16
   2   4  13    0.49    0.13
   2   4  13    0.95    0.23
   3  -4  13   -0.02    0.09
   3  -4  13   -0.05    0.09
   3   4  13    0.09    0.20
   3   4  13   -0.18    0.10
   3   4  13    0.01    0.10
   4  -4  13    1.20    0.14
   4  -4  13    1.64    0.16
   4   4  13    1.45    0.17
   4   4  13    1.33    0.16
   4   4  13    1.45    0.24
   5  -4  13    0.20    0.07
   5  -4  13    0.43    0.12
   5   4  13    0.11    0.07
   7   5 -13    1.72    0.15
   7   5 -13    2.00    0.14
  -6  -5  13    0.04    0.15
  -6   5  13    0.12    0.13
   6   5 -13    0.09    0.08
  -5  -5  13    0.07    0.09
  -5  -5  13   -0.11    0.09
  -5   5  13    0.17    0.15
   5   5 -13    0.14    0.09
  -5   5  13   -0.02    0.10
  -4  -5  13   13.96    0.55
  -4   5  13   12.43    0.56
  -4   5  13   14.49    0.60
  -3  -5  13   10.04    0.46
  -3  -5  13   10.48    0.43
  -3  -5  13    9.41    0.43
  -3   5  13    9.49    0.44
  -3   5  13    9.52    0.48
  -2  -5  13    4.38    0.25
  -2  -5  13    4.71    0.28
  -2  -5  13    4.69    0.31
  -2   5  13    4.65    0.27
  -2   5  13    4.45    0.35
  -1  -5  13    2.01    0.18
  -1  -5  13    1.58    0.20
  -1  -5  13    1.60    0.22
  -1   5  13    1.79    0.19
  -1   5  13    1.87    0.27
   0  -5  13    4.58    0.28
   0  -5  13    4.20    0.25
   0  -5  13    4.40    0.30
   0   5  13    4.26    0.33
   0   5  13    4.29    0.34
   0   5  13    3.88    0.27
   1  -5  13    6.11    0.35
   1  -5  13    6.23    0.32
   1   5  13    6.01    0.35
   1   5  13    5.83    0.36
   2  -5  13    0.18    0.09
   2  -5  13   -0.04    0.11
   2   5  13    0.23    0.12
   2   5  13    0.12    0.11
   3  -5  13    7.95    0.37
   3  -5  13    7.64    0.35
   3   5  13    7.75    0.37
   3   5  13    7.73    0.37
   4  -5  13    3.05    0.20
   4  -5  13    2.71    0.17
   4   5  13    2.69    0.19
   4   5  13    2.85    0.19
   5  -5  13    0.11    0.08
   5  -5  13    0.32    0.08
  -5   5 -13    0.17    0.07
   5   5  13    0.05    0.06
   7   6 -13    0.17    0.08
  -6  -6  13    3.93    0.31
  -6   6  13    4.04    0.27
   6   6 -13    4.54    0.22
  -5  -6  13    1.16    0.15
  -5   6  13    0.88    0.20
   5   6 -13    1.29    0.15
  -5   6  13    1.05    0.17
  -4  -6  13    0.39    0.12
  -4  -6  13    0.37    0.11
  -4   6  13    0.64    0.20
  -4   6  13    0.20    0.10
  -3  -6  13    0.61    0.16
  -3  -6  13    0.67    0.14
  -3   6  13    0.54    0.14
  -3   6  13    0.66    0.21
  -2  -6  13   13.05    0.54
  -2  -6  13   13.62    0.57
  -2  -6  13   13.95    0.55
  -2   6  13   14.54    0.59
  -2   6  13   11.93    0.54
  -1  -6  13    1.29    0.20
  -1  -6  13    1.31    0.19
  -1  -6  13    1.27    0.16
  -1   6  13    1.14    0.18
  -1   6  13    1.62    0.24
   0  -6  13    0.27    0.12
   0  -6  13   -0.01    0.10
   0  -6  13   -0.01    0.11
   0   6  13   -0.14    0.14
   0   6  13    0.04    0.12
   1  -6  13    2.98    0.24
   1  -6  13    2.74    0.22
   1   6  13    3.33    0.27
   1   6  13    2.91    0.25
   2  -6  13    0.18    0.09
   2  -6  13   -0.15    0.09
   2   6  13    0.12    0.11
   2   6  13   -0.06    0.10
   3  -6  13    0.72    0.15
   3  -6  13    0.56    0.12
   3   6  13    0.38    0.14
   3   6  13    0.83    0.15
   4  -6  13    0.08    0.08
   4  -6  13    0.19    0.07
   4   6  13    0.24    0.08
  -4   6 -13    0.42    0.13
   4   6  13    0.46    0.12
   6   7 -13    0.05    0.06
  -6   7  13   -0.01    0.11
  -5  -7  13    0.25    0.09
  -5   7  13    0.61    0.17
   5   7 -13    0.17    0.08
  -4  -7  13    6.73    0.32
  -4  -7  13    7.30    0.33
  -4   7  13    7.13    0.36
  -4   7  13    6.80    0.35
  -3  -7  13   -0.01    0.09
  -3  -7  13   -0.02    0.08
  -3   7  13    0.14    0.11
  -3   7  13   -0.07    0.08
  -2  -7  13    0.25    0.10
  -2  -7  13    0.57    0.17
  -2  -7  13    0.37    0.12
  -2   7  13    0.21    0.09
  -1  -7  13    0.10    0.10
  -1  -7  13   -0.03    0.10
  -1  -7  13    0.03    0.09
  -1   7  13    0.06    0.11
   0  -7  13    1.67    0.20
   0  -7  13    1.65    0.20
   0  -7  13    1.35    0.19
   0   7  13    1.64    0.23
   0   7  13    1.94    0.23
   1  -7  13    6.66    0.34
   1  -7  13    6.73    0.31
   1   7  13    6.54    0.34
   1   7  13    6.24    0.34
   2  -7  13    1.62    0.19
   2  -7  13    1.48    0.16
  -2   7 -13    1.58    0.33
   2   7  13    1.28    0.19
   2   7  13    1.74    0.19
   3  -7  13    1.52    0.14
   3  -7  13    1.69    0.17
   3   7  13    1.30    0.15
   3   7  13    1.63    0.16
  -3   7 -13    1.42    0.18
   4  -7  13   -0.03    0.06
   4  -7  13    0.18    0.08
  -4   7 -13   -0.08    0.08
   4   7  13   -0.03    0.07
   4   7  13    0.05    0.07
   6   8 -13    0.08    0.06
  -5  -8  13    0.44    0.16
  -5   8  13    0.90    0.15
   5   8 -13    0.71    0.11
  -4  -8  13   10.12    0.43
  -4   8  13   10.29    0.44
   4   8 -13   10.83    0.43
  -3  -8  13    2.00    0.17
  -3  -8  13    2.08    0.19
  -3   8  13    2.17    0.21
  -2  -8  13    0.84    0.16
  -2  -8  13    0.72    0.14
  -2   8  13    0.88    0.18
  -1  -8  13    1.37    0.18
  -1  -8  13    1.85    0.18
  -1  -8  13    1.68    0.18
  -1   8  13    1.84    0.21
   0  -8  13    7.96    0.36
   0  -8  13    7.64    0.37
   0  -8  13    8.24    0.36
   0   8  13    7.80    0.38
   0   8  13    8.02    0.37
   1  -8  13    0.09    0.09
   1  -8  13   -0.03    0.09
   1   8  13    0.04    0.10
   1   8  13    0.03    0.09
   2  -8  13    1.20    0.13
   2  -8  13    1.03    0.14
   2   8  13    1.06    0.15
   2   8  13    1.03    0.15
   3  -8  13    0.46    0.13
   3  -8  13    0.29    0.10
   3   8  13    0.12    0.07
   3   8  13    0.15    0.08
   4   8  13   -0.05    0.07
   5   9 -13    7.17    0.29
  -5   9  13    6.93    0.30
  -4  -9  13    0.02    0.08
  -4   9  13    0.12    0.08
   4   9 -13    0.14    0.07
  -3  -9  13    0.56    0.12
  -3   9  13    0.56    0.15
  -2  -9  13    2.25    0.20
  -2  -9  13    2.32    0.17
  -2   9  13    1.95    0.19
  -1  -9  13    2.51    0.20
  -1  -9  13    3.07    0.20
  -1   9  13    2.75    0.21
   0  -9  13    0.17    0.10
   0  -9  13    0.20    0.12
   0  -9  13    0.16    0.09
   0   9  13    0.12    0.10
   0   9  13    0.10    0.09
   1  -9  13    0.72    0.14
   1   9  13    0.88    0.15
   1   9  13    0.82    0.14
   2  -9  13    0.69    0.13
   2  -9  13    0.83    0.15
   2   9  13    1.14    0.13
   2   9  13    1.06    0.13
   3   9  13    1.11    0.12
   3   9  13    1.40    0.13
   4  10 -13    2.01    0.13
  -4  10  13    2.00    0.15
  -3 -10  13    0.40    0.13
   3 -10 -13    0.11    0.09
  -3  10  13    0.01    0.07
   3  10 -13    0.14    0.07
  -2 -10  13    1.25    0.15
   2 -10 -13    1.21    0.17
  -2  10  13    1.16    0.15
   1 -10 -13    0.07    0.13
  -1 -10  13    0.02    0.10
   0  10  13   -0.08    0.10
   0  10  13    0.00    0.07
   1  10  13    1.60    0.16
   1  10  13    1.67    0.14
   2  10  13    0.51    0.12
  -3  11  13   -0.01    0.07
  -2  11  13    2.65    0.16
   2  11 -13    2.38    0.17
   1  11 -13    0.63    0.19
   0  11  13    0.14    0.07
   1  11  13    0.15    0.07
   8   0 -14    0.53    0.09
   7   0 -14    0.14    0.07
  -6   0  14   12.89    0.53
  -5   0  14   -0.04    0.09
  -4   0  14    3.13    0.23
  -4   0  14    3.44    0.24
  -3   0  14    0.07    0.09
  -3   0  14    0.02    0.10
  -2   0  14    0.26    0.12
  -2   0  14    0.11    0.09
  -1   0  14    0.26    0.17
  -1   0  14    0.02    0.09
   0   0  14    2.45    0.30
   0   0  14    2.26    0.23
   0   0  14    2.46    0.23
   1   0  14    0.27    0.14
   1   0  14    0.15    0.14
   2   0  14    0.05    0.12
   2   0  14    0.30    0.14
   2   0  14    0.31    0.14
   3   0  14    0.07    0.12
   3   0  14   -0.13    0.10
   3   0  14   -0.03    0.11
   4   0  14    0.75    0.17
   4   0  14    1.00    0.15
   4   0  14    0.85    0.19
   5   0  14    0.03    0.07
   5   0  14   -0.11    0.07
   7  -1 -14    0.05    0.07
   7   1 -14    0.10    0.06
  -6  -1  14    0.18    0.13
  -6   1  14   -0.09    0.12
  -5  -1  14    0.50    0.15
  -5  -1  14    0.91    0.15
  -5   1  14    0.74    0.17
  -4  -1  14    1.81    0.20
  -4  -1  14    2.11    0.18
  -4   1  14    2.33    0.22
  -4   1  14    1.75    0.18
  -3  -1  14    0.13    0.11
  -3  -1  14    0.02    0.16
  -3  -1  14    0.06    0.07
  -3   1  14    0.02    0.11
  -3   1  14   -0.02    0.08
  -2  -1  14   18.43    0.70
  -2  -1  14   18.84    0.74
  -2  -1  14   18.03    0.70
  -2   1  14   18.66    0.70
  -2   1  14   18.42    0.71
  -1  -1  14    4.00    0.24
  -1  -1  14    4.12    0.27
  -1  -1  14    4.46    0.31
  -1   1  14    4.28    0.28
  -1   1  14    4.23    0.25
   0  -1  14    3.62    0.25
   0  -1  14    3.63    0.30
   0  -1  14    3.64    0.25
   0   1  14    3.39    0.36
   0   1  14    3.46    0.25
   0   1  14    3.50    0.28
   1  -1  14   -0.05    0.13
   1  -1  14    0.07    0.12
   1   1  14    0.00    0.15
   1   1  14    0.20    0.15
   2  -1  14    0.11    0.15
   2  -1  14    0.26    0.13
   2  -1  14    0.34    0.12
   2   1  14    0.12    0.15
   2   1  14    0.29    0.15
   2   1  14    0.28    0.16
   3  -1  14    0.95    0.20
   3  -1  14    0.82    0.19
   3  -1  14    0.88    0.16
   3   1  14    0.64    0.18
   3   1  14    1.11    0.21
   4  -1  14    0.10    0.09
   4  -1  14    0.03    0.08
   4  -1  14    0.00    0.09
   4   1  14    0.14    0.11
   4   1  14    0.43    0.15
   5  -1  14    1.09    0.12
   5  -1  14    0.95    0.21
   5   1  14    1.04    0.13
   5   1  14    0.96    0.13
   7  -2 -14    0.36    0.12
   7   2 -14    0.19    0.07
   6  -2 -14   -0.03    0.09
  -6  -2  14   -0.07    0.11
  -5  -2  14    0.78    0.17
  -5  -2  14    0.99    0.15
   5   2 -14    0.82    0.19
  -5   2  14    0.82    0.17
  -4  -2  14    2.42    0.21
  -4  -2  14    2.41    0.19
  -4   2  14    2.48    0.21
  -3  -2  14    4.74    0.28
  -3  -2  14    4.48    0.31
  -3  -2  14    5.01    0.26
  -3   2  14    4.61    0.26
  -3   2  14    4.40    0.30
  -2  -2  14    2.05    0.25
  -2  -2  14    2.54    0.18
  -2  -2  14    2.35    0.21
  -2   2  14    2.07    0.19
  -1  -2  14   20.06    0.79
  -1  -2  14   20.54    0.77
  -1  -2  14   21.27    0.75
  -1   2  14   20.89    0.76
  -1   2  14   18.63    0.77
   0  -2  14    0.21    0.14
   0  -2  14    0.31    0.12
   0  -2  14    0.54    0.17
   0   2  14    0.40    0.13
   1  -2  14    0.06    0.11
   1  -2  14    0.13    0.12
   1   2  14    0.24    0.18
   1   2  14   -0.23    0.17
   2  -2  14    0.68    0.18
   2  -2  14    0.33    0.16
   2  -2  14    0.71    0.16
   2   2  14    0.39    0.15
   2   2  14    1.24    0.27
   3  -2  14    1.12    0.21
   3  -2  14    0.78    0.14
   3  -2  14    0.90    0.17
   3   2  14    1.30    0.23
   3   2  14    0.71    0.15
   4  -2  14    0.14    0.09
   4  -2  14    0.40    0.15
   4  -2  14    0.18    0.08
   4   2  14    0.08    0.11
   4   2  14    0.13    0.09
   5  -2  14    0.09    0.09
   5   2  14    0.16    0.07
   5   2  14    0.08    0.09
   7  -3 -14    2.35    0.17
   7   3 -14    2.56    0.15
  -6  -3  14    2.35    0.21
   6  -3 -14    2.02    0.17
   6   3 -14    2.39    0.19
  -6   3  14    1.98    0.22
  -5  -3  14    2.08    0.18
  -5  -3  14    1.64    0.17
   5   3 -14    1.72    0.19
  -5   3  14    1.37    0.19
  -4  -3  14    1.36    0.17
  -4  -3  14    1.11    0.15
  -4   3  14    1.19    0.17
  -3  -3  14    5.18    0.28
  -3  -3  14    5.19    0.32
  -3  -3  14    5.69    0.31
  -3   3  14    5.33    0.29
  -2  -3  14    3.24    0.21
  -2  -3  14    3.39    0.28
  -2  -3  14    3.05    0.24
  -2   3  14    3.23    0.22
  -1  -3  14    7.92    0.35
  -1  -3  14    7.52    0.40
  -1  -3  14    7.83    0.38
  -1   3  14    7.52    0.36
   0  -3  14   12.01    0.50
   0  -3  14   11.95    0.53
   0  -3  14   11.94    0.48
   0   3  14   10.82    0.49
   1  -3  14    0.24    0.13
   1  -3  14    0.09    0.10
   1   3  14    0.25    0.18
   2  -3  14    2.02    0.22
   2  -3  14    2.37    0.20
   2   3  14    2.84    0.26
   2   3  14    2.12    0.26
   3  -3  14    2.63    0.19
   3  -3  14    2.59    0.20
   3   3  14    2.26    0.22
   3   3  14    2.64    0.23
   3   3  14    2.15    0.27
   4  -3  14    1.06    0.13
   4  -3  14    1.06    0.15
   4   3  14    1.44    0.20
   4   3  14    0.79    0.14
   4   3  14    1.02    0.18
   5  -3  14   -0.09    0.07
   5  -3  14   -0.08    0.07
   5   3  14    0.16    0.07
   7   4 -14    0.07    0.06
   6  -4 -14    4.56    0.26
  -6  -4  14    4.46    0.27
   6   4 -14    4.42    0.24
  -6   4  14    4.93    0.28
  -5  -4  14    1.36    0.16
   5  -4 -14    1.76    0.23
  -5  -4  14    1.62    0.16
  -5   4  14    1.67    0.19
   5   4 -14    1.61    0.17
  -4  -4  14    1.85    0.18
  -4  -4  14    1.59    0.16
  -4   4  14    1.56    0.18
  -3  -4  14    2.21    0.21
  -3  -4  14    2.06    0.22
  -3  -4  14    2.08    0.17
  -3   4  14    1.97    0.19
  -2  -4  14    0.21    0.13
  -2  -4  14    0.15    0.08
  -2   4  14    0.01    0.18
  -2   4  14    0.18    0.10
  -1  -4  14    0.04    0.12
  -1  -4  14   -0.04    0.08
  -1  -4  14    0.02    0.10
  -1   4  14    0.06    0.10
  -1   4  14    0.09    0.17
   0  -4  14   16.96    0.66
   0  -4  14   17.52    0.68
   0  -4  14   17.63    0.71
   0   4  14   17.71    0.71
   1  -4  14   15.12    0.60
   1  -4  14   15.12    0.63
   1   4  14   15.65    0.63
   1   4  14   14.81    0.63
   2  -4  14    7.67    0.36
   2  -4  14    7.93    0.39
   2   4  14    8.16    0.40
   2   4  14    8.36    0.40
   3  -4  14    0.71    0.13
   3  -4  14    1.06    0.17
   3   4  14    0.95    0.17
   3   4  14    1.26    0.18
   4  -4  14    0.16    0.07
   4  -4  14    0.19    0.08
   4   4  14    0.54    0.15
   4   4  14    0.51    0.13
   5  -4  14   -0.03    0.06
   5  -4  14   -0.02    0.07
   5   4  14    0.02    0.07
  -5   4 -14    0.18    0.11
   7   5 -14    0.37    0.11
  -6  -5  14    0.20    0.15
  -6   5  14    0.16    0.13
   6   5 -14    0.05    0.08
  -5  -5  14    0.12    0.09
  -5  -5  14    0.04    0.09
   5   5 -14    0.07    0.09
  -5   5  14   -0.06    0.09
  -4  -5  14    0.55    0.12
  -4  -5  14    0.40    0.11
  -4   5  14    0.71    0.16
  -3  -5  14    3.46    0.22
  -3  -5  14    3.99    0.24
  -3   5  14    3.35    0.24
  -3   5  14    4.02    0.32
  -2  -5  14    0.24    0.12
  -2  -5  14    0.14    0.07
  -2  -5  14    0.31    0.12
  -2   5  14    0.07    0.09
  -2   5  14    0.19    0.15
  -1  -5  14    2.02    0.20
  -1  -5  14    1.95    0.22
  -1  -5  14    1.87    0.17
  -1   5  14    1.72    0.18
  -1   5  14    1.69    0.27
   0  -5  14    7.55    0.39
   0  -5  14    7.94    0.37
   0  -5  14    7.28    0.35
   0   5  14    8.29    0.42
   1  -5  14   -0.02    0.09
   1  -5  14    0.12    0.11
   1   5  14    0.19    0.13
   2  -5  14    4.70    0.28
   2  -5  14    4.71    0.26
   2   5  14    5.45    0.30
   2   5  14    5.25    0.29
   3  -5  14    0.98    0.15
   3  -5  14    1.10    0.13
   3   5  14    1.07    0.16
   3   5  14    1.16    0.17
   4  -5  14    0.22    0.08
   4   5  14    0.15    0.09
   4   5  14    0.20    0.08
   6   6 -14    0.35    0.10
  -5  -6  14    0.11    0.09
  -5   6  14    0.13    0.13
  -5   6  14    0.13    0.10
   5   6 -14    0.14    0.08
  -4  -6  14    3.23    0.20
  -4   6  14    3.05    0.22
  -4   6  14    2.82    0.25
  -3  -6  14    2.71    0.19
  -3  -6  14    2.97    0.20
  -3   6  14    2.77    0.26
  -3   6  14    2.86    0.21
  -2  -6  14    6.65    0.33
  -2  -6  14    7.62    0.35
  -2  -6  14    7.23    0.37
  -2   6  14    7.41    0.38
  -2   6  14    6.80    0.35
  -1  -6  14    1.87    0.19
  -1  -6  14    1.91    0.21
  -1  -6  14    1.66    0.18
  -1   6  14    1.72    0.19
  -1   6  14    1.64    0.23
   0  -6  14    0.00    0.10
   0  -6  14   -0.01    0.10
   0  -6  14    0.12    0.10
   0   6  14    0.17    0.12
   0   6  14    0.04    0.15
   1  -6  14   18.09    0.66
   1  -6  14   18.40    0.69
   1   6  14   16.45    0.68
   1   6  14   16.92    0.68
   2  -6  14    1.30    0.15
   2  -6  14    0.94    0.15
   2   6  14    1.22    0.18
   2   6  14    1.19    0.18
   3  -6  14    0.28    0.08
   3  -6  14    0.38    0.12
   3   6  14    0.19    0.09
   3   6  14    0.17    0.08
   4  -6  14    0.12    0.07
   4  -6  14    0.16    0.07
   4   6  14    0.31    0.12
  -4   6 -14    0.19    0.10
   4   6  14    0.41    0.12
   6   7 -14   -0.05    0.06
  -5  -7  14    1.76    0.18
  -5   7  14    2.33    0.21
   5   7 -14    2.15    0.15
  -4  -7  14    0.52    0.11
  -4  -7  14    0.55    0.14
  -4   7  14    0.69    0.18
  -3  -7  14    0.41    0.10
  -3  -7  14    0.52    0.12
  -3   7  14    0.71    0.19
  -3   7  14    0.43    0.14
  -2  -7  14    3.88    0.24
  -2  -7  14    4.34    0.25
  -2  -7  14    3.97    0.24
  -2   7  14    4.14    0.25
  -2   7  14    4.09    0.28
  -1  -7  14    0.34    0.10
  -1  -7  14    0.23    0.10
  -1  -7  14    0.55    0.15
  -1   7  14    0.29    0.12
   0  -7  14    1.32    0.18
   0  -7  14    1.39    0.16
   0  -7  14    1.06    0.17
   0   7  14    1.44    0.20
   1  -7  14    2.67    0.19
   1  -7  14    2.44    0.20
   1   7  14    2.76    0.22
   1   7  14    2.94    0.23
   2  -7  14    0.90    0.15
   2  -7  14    0.78    0.12
   2   7  14    0.99    0.16
   2   7  14    1.13    0.16
   3  -7  14    0.87    0.12
   3  -7  14    0.64    0.11
   3   7  14    1.00    0.13
   3   7  14    0.74    0.13
   5   8 -14    0.95    0.11
  -5   8  14    1.06    0.18
  -4  -8  14    0.36    0.12
  -4   8  14    0.20    0.10
   4   8 -14    0.47    0.10
  -3  -8  14    0.16    0.07
  -3  -8  14    0.11    0.09
  -3   8  14    0.04    0.10
  -2  -8  14    0.12    0.09
  -2  -8  14    0.08    0.09
  -2   8  14   -0.01    0.09
  -1  -8  14   20.41    0.75
  -1  -8  14   20.73    0.77
  -1  -8  14   20.44    0.75
  -1   8  14   21.03    0.78
   0  -8  14    0.07    0.12
   0  -8  14    0.23    0.09
   0  -8  14    0.26    0.08
   0   8  14    0.34    0.13
   0   8  14    0.13    0.09
   1  -8  14    0.08    0.08
   1  -8  14    0.07    0.08
   1   8  14    0.05    0.10
   1   8  14    0.07    0.08
   2  -8  14    0.05    0.07
   2  -8  14    0.03    0.08
   2   8  14   -0.01    0.08
   2   8  14    0.06    0.08
   3  -8  14    0.05    0.08
   3  -8  14    0.02    0.06
   3   8  14   -0.06    0.08
   3   8  14    0.05    0.06
   5   9 -14    0.05    0.05
  -4  -9  14    0.21    0.08
  -4   9  14    0.17    0.09
   4   9 -14    0.12    0.06
  -3  -9  14    0.39    0.12
  -3   9  14    0.25    0.09
  -2  -9  14   24.16    0.87
  -2  -9  14   24.12    0.86
  -2   9  14   25.39    0.89
  -1  -9  14    0.04    0.11
  -1  -9  14    0.13    0.09
   1  -9 -14    0.21    0.13
  -1   9  14    0.00    0.09
   0  -9  14    3.27    0.20
   0  -9  14    3.40    0.20
   0   9  14    3.26    0.20
   0   9  14    3.20    0.24
   1  -9  14    0.38    0.12
   1  -9  14    0.54    0.12
   1   9  14    0.42    0.16
   1   9  14    0.47    0.13
   2  -9  14    0.76    0.13
   2  -9  14    0.78    0.14
   2   9  14    0.68    0.11
   2   9  14    0.46    0.14
   4  10 -14    0.46    0.09
  -3  10  14    3.15    0.18
   3  10 -14    3.40    0.17
  -2 -10  14    0.09    0.11
  -2  10  14    0.50    0.12
  -1  10  14    2.61    0.17
   0  10  14    0.12    0.07
   1  10  14    0.57    0.12
   7   0 -15    0.60    0.10
  -6   0  15    0.01    0.12
  -5   0  15    0.13    0.10
  -4   0  15   -0.01    0.08
  -4   0  15   -0.05    0.10
  -3   0  15    3.01    0.21
  -3   0  15    2.95    0.23
  -2   0  15    0.23    0.12
  -2   0  15    0.00    0.09
  -1   0  15   19.69    0.74
  -1   0  15   19.56    0.78
  -1   0  15   19.40    0.73
   0   0  15    0.26    0.15
   0   0  15   -0.12    0.11
   0   0  15    0.01    0.14
   1   0  15   22.23    0.83
   1   0  15   22.92    0.86
   2   0  15    0.23    0.15
   2   0  15    0.60    0.18
   3   0  15    0.75    0.18
   3   0  15    0.42    0.15
   3   0  15    0.39    0.12
   4   0  15   -0.04    0.08
   4   0  15    0.04    0.09
   5   0  15    1.46    0.14
   7  -1 -15    0.25    0.07
   7   1 -15    0.42    0.09
  -6  -1  15   -0.12    0.12
  -6   1  15    0.02    0.13
  -5  -1  15   -0.04    0.09
  -5   1  15    0.01    0.10
  -4  -1  15    4.59    0.27
  -4   1  15    4.41    0.27
  -4   1  15    4.67    0.27
  -3  -1  15    0.21    0.09
  -3  -1  15    0.29    0.10
  -3   1  15    0.11    0.08
  -3   1  15    0.22    0.12
  -2  -1  15    0.43    0.13
  -2  -1  15    0.51    0.17
  -2  -1  15    0.16    0.12
  -2   1  15    0.28    0.10
  -2   1  15    0.21    0.13
  -1  -1  15    0.76    0.26
  -1  -1  15    1.04    0.19
  -1  -1  15    1.10    0.17
  -1   1  15    1.09    0.23
  -1   1  15    1.17    0.17
   0   1  15    0.80    0.29
   1  -1  15    2.10    0.21
   1  -1  15    2.17    0.26
   1   1  15    2.48    0.29
   1   1  15    1.55    0.24
   2  -1  15   42.25    1.45
   2  -1  15   43.63    1.43
   2   1  15   39.13    1.44
   2   1  15   40.38    1.44
   3  -1  15    0.07    0.11
   3  -1  15   -0.01    0.09
   3  -1  15    0.00    0.10
   3   1  15   -0.11    0.10
   3   1  15   -0.03    0.10
   4  -1  15    0.81    0.15
   4  -1  15    1.00    0.15
   4  -1  15    1.07    0.14
   4   1  15    0.81    0.14
   4   1  15    1.14    0.15
   7  -2 -15    0.24    0.08
   7   2 -15    0.24    0.08
  -6  -2  15    0.28    0.13
   6  -2 -15    0.08    0.08
  -6   2  15    0.02    0.12
  -5  -2  15    1.67    0.18
  -5  -2  15    1.65    0.16
   5   2 -15    1.55    0.21
  -5   2  15    1.59    0.18
  -4  -2  15    1.21    0.17
  -4  -2  15    1.29    0.15
  -4   2  15    1.36    0.17
  -3  -2  15    4.83    0.26
  -3  -2  15    5.18    0.28
  -3   2  15    4.91    0.29
  -3   2  15    4.66    0.27
  -2  -2  15    0.11    0.13
  -2  -2  15    0.06    0.09
  -2  -2  15    0.09    0.11
  -2   2  15    0.07    0.10
  -2   2  15   -0.14    0.14
  -1  -2  15    4.26    0.31
  -1  -2  15    4.25    0.28
  -1  -2  15    4.77    0.26
  -1   2  15    4.35    0.26
   1  -2  15    9.50    0.45
   1  -2  15    9.82    0.43
   2  -2  15    2.05    0.22
   2  -2  15    1.80    0.19
   2   2  15    2.20    0.26
   2   2  15    1.76    0.25
   3  -2  15    0.09    0.09
   3  -2  15    0.03    0.09
   3   2  15    0.11    0.10
   3   2  15   -0.18    0.11
   4  -2  15    0.51    0.13
   4   2  15    0.50    0.13
   4   2  15    0.75    0.17
   7   3 -15    0.35    0.09
   6  -3 -15    0.16    0.10
   6   3 -15   -0.17    0.12
  -6   3  15    0.09    0.11
  -5  -3  15    0.06    0.10
  -5  -3  15    0.08    0.08
  -5   3  15   -0.08    0.10
   5   3 -15   -0.12    0.09
  -4  -3  15    1.74    0.17
  -4  -3  15    1.98    0.18
  -4   3  15    1.81    0.18
  -3  -3  15    0.19    0.10
  -3  -3  15    0.04    0.08
  -3   3  15    0.22    0.10
  -2  -3  15    4.74    0.27
  -2  -3  15    4.41    0.30
  -2  -3  15    4.00    0.24
  -2   3  15    4.22    0.26
  -1  -3  15    0.04    0.09
  -1  -3  15    0.08    0.13
  -1  -3  15    0.01    0.10
  -1   3  15    0.03    0.11
   0  -3  15    2.89    0.22
   0  -3  15    2.36    0.23
   1  -3  15    0.48    0.15
   1  -3  15    0.26    0.12
   2  -3  15    4.74    0.25
   2  -3  15    4.17    0.27
   2   3  15    4.14    0.29
   3  -3  15    1.73    0.16
   3  -3  15    1.63    0.18
   3   3  15    1.52    0.19
   3   3  15    1.76    0.22
   4  -3  15    0.02    0.07
   4  -3  15    0.20    0.08
   4   3  15    0.08    0.08
   7   4 -15    0.36    0.09
  -6  -4  15   -0.21    0.13
  -6   4  15    0.05    0.12
   6   4 -15    0.13    0.09
  -5  -4  15    0.10    0.08
  -5  -4  15    0.20    0.08
   5   4 -15    0.19    0.09
  -5   4  15   -0.01    0.10
  -4  -4  15    0.01    0.08
  -4  -4  15   -0.09    0.08
  -4   4  15   -0.10    0.09
  -3  -4  15    0.16    0.08
  -3  -4  15    0.15    0.09
  -3   4  15    0.06    0.10
  -2  -4  15    2.54    0.22
  -2  -4  15    3.02    0.24
  -2  -4  15    2.55    0.19
  -2   4  15    2.55    0.20
  -1  -4  15    0.54    0.16
  -1  -4  15    0.22    0.09
  -1  -4  15    0.31    0.12
  -1   4  15    0.41    0.13
   0  -4  15    1.35    0.18
   0  -4  15    0.86    0.20
   1  -4  15   12.33    0.52
   1  -4  15   12.33    0.50
   1   4  15   11.62    0.52
   2  -4  15    0.71    0.14
   2  -4  15    0.59    0.15
   2   4  15    0.87    0.20
   2   4  15    0.40    0.13
   3  -4  15    1.74    0.15
   3  -4  15    1.50    0.16
   3   4  15    1.27    0.18
   3   4  15    1.78    0.17
   4  -4  15    0.10    0.07
   4  -4  15    0.15    0.07
   4   4  15    0.17    0.08
   6   5 -15    0.99    0.13
  -5  -5  15    0.13    0.08
  -5   5  15    0.11    0.10
   5   5 -15    0.05    0.07
  -4  -5  15    2.73    0.20
  -4  -5  15    3.02    0.20
  -4   5  15    2.71    0.20
  -3  -5  15    6.31    0.29
  -3  -5  15    5.61    0.29
  -3   5  15    6.24    0.31
  -2  -5  15    1.10    0.19
  -2  -5  15    1.14    0.17
  -2  -5  15    1.12    0.14
  -2   5  15    1.28    0.17
  -1  -5  15    5.57    0.31
  -1  -5  15    5.03    0.28
  -1  -5  15    6.38    0.30
  -1   5  15    4.93    0.29
  -1   5  15    6.09    0.35
   0  -5  15    2.02    0.18
   0  -5  15    2.00    0.21
   0  -5  15    2.34    0.21
   0   5  15    1.94    0.24
   1  -5  15    4.68    0.25
   1  -5  15    4.80    0.27
   1   5  15    4.44    0.31
   1   5  15    5.08    0.30
   2  -5  15    0.22    0.09
   2  -5  15    0.36    0.14
   2   5  15    0.29    0.11
   2   5  15    0.43    0.12
   3  -5  15    1.79    0.15
   3  -5  15    1.22    0.13
   3   5  15    1.21    0.16
   3   5  15    1.63    0.17
   4  -5  15    0.36    0.08
   4  -5  15    0.00    0.07
   4   5  15    0.18    0.08
   6   6 -15    1.52    0.13
   6   6 -15    1.27    0.14
  -5  -6  15    0.20    0.09
   5   6 -15    0.21    0.08
  -5   6  15   -0.07    0.10
  -4  -6  15    4.82    0.24
  -4  -6  15    4.84    0.25
  -4   6  15    4.50    0.26
  -3  -6  15    1.18    0.14
  -3   6  15    1.61    0.23
  -3   6  15    1.13    0.16
  -2  -6  15    2.85    0.20
  -2  -6  15    2.83    0.22
  -2  -6  15    2.72    0.20
  -2   6  15    2.56    0.26
  -2   6  15    2.78    0.21
  -1  -6  15    3.28    0.22
  -1  -6  15    3.89    0.24
  -1  -6  15    3.88    0.22
  -1   6  15    3.03    0.24
  -1   6  15    3.59    0.28
   0  -6  15    1.94    0.17
   0  -6  15    1.69    0.21
   0  -6  15    1.91    0.18
   0   6  15    1.87    0.21
   1  -6  15    0.50    0.12
   1  -6  15    0.45    0.15
   1   6  15    0.79    0.21
   1   6  15    0.36    0.12
   2  -6  15    0.73    0.13
   2  -6  15    0.68    0.11
   2   6  15    0.94    0.15
   2   6  15    0.48    0.18
   3  -6  15   -0.04    0.07
   3  -6  15    0.08    0.06
   3   6  15    0.05    0.08
   3   6  15   -0.08    0.09
   6   7 -15    0.11    0.07
  -5  -7  15    0.68    0.15
   5   7 -15    0.91    0.10
  -4  -7  15    0.01    0.07
  -4  -7  15    0.03    0.08
  -4   7  15   -0.15    0.12
  -3  -7  15    0.06    0.07
  -3  -7  15    0.03    0.08
  -3   7  15    0.10    0.11
  -2  -7  15    2.51    0.19
  -2  -7  15    2.43    0.18
  -2   7  15    2.42    0.22
  -1  -7  15    2.03    0.17
  -1  -7  15    2.30    0.19
  -1  -7  15    2.31    0.18
  -1   7  15    2.27    0.21
   0  -7  15    0.17    0.09
   0   7  15    0.10    0.10
   1  -7  15    0.98    0.12
   1  -7  15    1.21    0.14
   1   7  15    1.38    0.19
   1   7  15    1.03    0.17
   2  -7  15    1.29    0.13
   2  -7  15    1.15    0.13
   2   7  15    0.98    0.17
   2   7  15    1.30    0.14
   3  -7  15    0.14    0.07
   3  -7  15   -0.02    0.06
   3   7  15    0.09    0.08
   5   8 -15   -0.02    0.06
  -4   8  15    0.35    0.11
   4   8 -15    0.36    0.09
  -3  -8  15    5.17    0.25
  -3  -8  15    5.19    0.24
  -3   8  15    4.97    0.27
  -2  -8  15    0.12    0.09
  -2  -8  15    0.00    0.08
  -2   8  15   -0.02    0.09
  -1  -8  15    0.00    0.07
  -1  -8  15    0.08    0.08
  -1  -8  15    0.16    0.09
  -1   8  15    0.04    0.09
   0  -8  15   -0.05    0.07
   0  -8  15   -0.07    0.07
   0   8  15    0.07    0.09
   1  -8  15    1.60    0.14
   1  -8  15    1.54    0.13
   1   8  15    1.62    0.16
   1   8  15    1.63    0.21
   2  -8  15    0.08    0.07
   2  -8  15    0.00    0.06
   2   8  15   -0.05    0.07
   2   8  15   -0.08    0.10
   4   9 -15    1.20    0.11
  -3  -9  15    0.88    0.13
   3  -9 -15    0.40    0.12
   3   9 -15    0.64    0.10
  -3   9  15    0.49    0.14
  -2  -9  15    1.16    0.15
  -2  -9  15    1.32    0.16
  -2   9  15    1.21    0.15
  -1  -9  15    0.71    0.13
  -1   9  15    0.54    0.13
   0  -9  15    1.46    0.14
   0   9  15    1.27    0.14
   1  -9  15    2.38    0.16
   1   9  15    2.23    0.16
   2  10 -15    0.19    0.06
  -2  10  15    0.06    0.08
  -1  10  15    0.87    0.12
   0  10  15    0.00    0.08
   7   0 -16   -0.08    0.06
  -6   0  16   25.74    0.92
  -5   0  16   -0.01    0.10
  -4   0  16   -0.05    0.09
  -4   0  16   -0.02    0.08
  -3   0  16   -0.02    0.09
  -2   0  16    1.17    0.18
  -2   0  16    1.35    0.17
  -1   0  16    0.28    0.12
  -1   0  16   -0.02    0.16
  -1   0  16   -0.04    0.10
   0   0  16    4.86    0.29
   0   0  16    5.42    0.33
   1   0  16    0.11    0.11
   1   0  16    0.00    0.13
   2   0  16    5.64    0.29
   2   0  16    5.69    0.31
   3   0  16    0.32    0.19
   3   0  16    0.05    0.12
   3   0  16   -0.06    0.10
   4   0  16   -0.14    0.09
   7  -1 -16    6.74    0.27
   7   1 -16    6.43    0.26
  -6  -1  16    1.43    0.20
   6  -1 -16    1.84    0.15
  -6   1  16    1.70    0.21
  -5   1  16   21.55    0.80
  -4  -1  16    0.98    0.15
  -4  -1  16    1.45    0.16
  -4   1  16    1.18    0.16
  -4   1  16    1.10    0.16
  -3  -1  16    1.73    0.17
  -3  -1  16    1.80    0.18
  -3   1  16    2.10    0.20
  -3   1  16    1.71    0.18
  -2  -1  16    0.44    0.15
  -2  -1  16    0.63    0.16
  -2  -1  16    0.74    0.17
  -2   1  16    0.59    0.15
  -2   1  16    0.81    0.16
  -1  -1  16    0.32    0.11
  -1  -1  16    0.09    0.14
  -1  -1  16    0.13    0.10
  -1   1  16    0.17    0.12
  -1   1  16    0.14    0.12
   0  -1  16    0.57    0.14
   0  -1  16    0.58    0.17
   0   1  16    0.69    0.20
   1  -1  16    1.94    0.22
   1  -1  16    2.26    0.19
   1   1  16    1.59    0.27
   2  -1  16    0.07    0.09
   2  -1  16    0.09    0.11
   2   1  16    0.10    0.13
   3  -1  16   -0.03    0.09
   3  -1  16    0.02    0.10
   3   1  16   -0.02    0.12
   3   1  16   -0.10    0.11
   4  -1  16    0.17    0.08
   4   1  16    0.01    0.10
   4   1  16    0.10    0.11
   7   2 -16    2.33    0.13
  -6  -2  16    2.60    0.23
   6  -2 -16    2.66    0.17
  -6   2  16    2.89    0.23
  -5  -2  16    0.12    0.09
  -5   2  16    0.09    0.10
  -4  -2  16    3.35    0.20
  -4  -2  16    2.97    0.21
  -4   2  16    2.82    0.22
  -3  -2  16    2.04    0.17
  -3  -2  16    2.06    0.17
  -3   2  16    2.10    0.22
  -3   2  16    1.91    0.18
  -2  -2  16    0.12    0.08
  -2  -2  16    0.08    0.10
  -2   2  16    0.21    0.10
  -2   2  16    0.04    0.13
  -1  -2  16    0.25    0.13
  -1  -2  16    0.25    0.11
  -1  -2  16    0.29    0.12
  -1   2  16    0.27    0.11
   0  -2  16    0.75    0.18
   1  -2  16    0.73    0.15
   1  -2  16    0.70    0.17
   2  -2  16    0.29    0.09
   2  -2  16    0.17    0.10
   2   2  16   -0.04    0.18
   3  -2  16    0.68    0.13
   3   2  16    0.66    0.17
   3   2  16    1.25    0.23
   4  -2  16   -0.04    0.11
   4  -2  16   -0.06    0.06
   4   2  16    0.08    0.10
   7   3 -16    0.21    0.07
  -6  -3  16    1.35    0.21
   6  -3 -16    0.86    0.25
  -6   3  16    1.09    0.19
  -5  -3  16    0.43    0.13
   5  -3 -16    0.40    0.14
  -5   3  16    0.45    0.15
   5   3 -16    0.50    0.17
  -4  -3  16    1.53    0.16
  -4  -3  16    1.39    0.15
  -4   3  16    1.59    0.17
  -3  -3  16    0.59    0.13
  -3  -3  16    0.69    0.13
  -3   3  16    0.54    0.14
  -2  -3  16    1.17    0.20
  -2  -3  16    0.78    0.16
  -2  -3  16    0.64    0.14
  -2   3  16    0.84    0.16
  -1  -3  16    4.11    0.25
  -1  -3  16    4.64    0.26
  -1  -3  16    4.50    0.28
  -1   3  16    4.18    0.27
   0  -3  16    3.65    0.26
   0  -3  16    3.51    0.22
   1  -3  16    0.54    0.16
   1  -3  16    0.21    0.09
   2  -3  16    0.66    0.14
   2  -3  16    0.70    0.13
   2   3  16    0.52    0.14
   3  -3  16    0.34    0.10
   3   3  16    0.63    0.17
   4  -3  16    0.31    0.10
  -5  -4  16    0.85    0.15
   5   4 -16    0.65    0.14
  -4  -4  16   11.69    0.46
  -4  -4  16   10.99    0.47
  -4   4  16   12.04    0.48
  -3  -4  16   -0.01    0.08
  -3  -4  16    0.07    0.07
  -3   4  16    0.01    0.09
  -2  -4  16    3.57    0.25
  -2  -4  16    3.57    0.22
  -2  -4  16    3.16    0.22
  -2   4  16    3.34    0.24
  -1  -4  16    0.26    0.11
  -1  -4  16    0.45    0.12
  -1  -4  16    0.56    0.14
  -1   4  16    0.54    0.16
   0  -4  16    1.22    0.15
   0  -4  16    1.35    0.19
   1  -4  16    5.35    0.29
   1  -4  16    5.71    0.28
   2  -4  16    0.05    0.08
   2  -4  16    0.09    0.07
   2   4  16   -0.16    0.12
   3  -4  16    0.52    0.10
   3  -4  16    0.63    0.11
   3   4  16    0.33    0.11
   6   5 -16    0.32    0.10
  -5  -5  16    0.25    0.10
  -5   5  16    0.50    0.15
   5   5 -16    0.51    0.12
  -4  -5  16    0.04    0.07
  -4  -5  16    0.01    0.08
  -4   5  16    0.04    0.08
  -3  -5  16    0.16    0.08
  -3   5  16    0.19    0.09
  -2  -5  16    1.52    0.15
  -2  -5  16    1.44    0.17
  -2  -5  16    1.30    0.15
  -2   5  16    1.40    0.17
  -1  -5  16    3.90    0.24
  -1  -5  16    4.05    0.23
  -1  -5  16    3.65    0.24
  -1   5  16    3.47    0.25
   0  -5  16    0.02    0.08
   0  -5  16    0.15    0.08
   1  -5  16    0.17    0.08
   1  -5  16    0.17    0.08
   1   5  16    0.17    0.13
   2  -5  16    2.17    0.15
   2  -5  16    2.15    0.17
   2   5  16    2.15    0.21
   2   5  16    2.66    0.22
   3  -5  16   -0.06    0.06
   3  -5  16    0.04    0.06
   3   5  16    0.05    0.10
  -5  -6  16   -0.01    0.10
   5   6 -16    0.08    0.06
  -4  -6  16    0.01    0.07
  -4  -6  16    0.08    0.08
  -4   6  16    0.07    0.09
  -3  -6  16    0.00    0.07
  -3  -6  16    0.07    0.08
  -3   6  16    0.08    0.09
  -2  -6  16    0.99    0.13
  -2  -6  16    1.03    0.14
  -2  -6  16    0.97    0.14
  -2   6  16    0.71    0.15
  -2   6  16    1.27    0.23
  -1  -6  16    0.74    0.17
  -1  -6  16    0.97    0.15
  -1  -6  16    0.94    0.14
  -1   6  16    1.44    0.21
   0  -6  16    3.25    0.19
   0  -6  16    2.95    0.20
   0   6  16    3.20    0.25
   1  -6  16    0.04    0.07
   1  -6  16    0.03    0.07
   1   6  16   -0.13    0.11
   2  -6  16    0.18    0.07
   2  -6  16    0.15    0.06
   2   6  16    0.47    0.16
   3  -6  16    0.43    0.09
   3  -6  16    0.29    0.08
   5   7 -16   -0.04    0.06
  -4  -7  16   -0.10    0.08
  -4  -7  16   -0.14    0.07
   4   7 -16    0.06    0.06
  -3  -7  16    4.07    0.20
  -3  -7  16    3.67    0.21
  -3   7  16    4.08    0.27
  -2  -7  16    4.67    0.23
  -2  -7  16    5.20    0.25
  -2   7  16    5.09    0.28
  -1  -7  16    0.44    0.11
  -1  -7  16    0.27    0.12
  -1  -7  16    0.35    0.12
  -1   7  16    0.36    0.12
   0  -7  16    2.19    0.15
   0  -7  16    2.30    0.17
   0   7  16    2.43    0.21
   1  -7  16   -0.03    0.06
   1  -7  16   -0.04    0.06
   1   7  16    0.04    0.09
   2  -7  16    0.35    0.09
   2  -7  16    0.32    0.09
   2   7  16    0.21    0.10
   4   8 -16    0.11    0.06
  -3  -8  16    1.47    0.14
  -3  -8  16    1.50    0.15
  -3   8  16    1.67    0.21
  -2  -8  16    1.93    0.17
  -2  -8  16    1.45    0.13
  -2   8  16    1.81    0.18
  -1  -8  16    1.55    0.13
  -1   8  16    1.69    0.17
   0  -8  16    0.29    0.10
   0  -8  16    0.18    0.07
   0   8  16    0.53    0.15
   1  -8  16    0.01    0.06
   1  -8  16   -0.05    0.06
   1   8  16   -0.10    0.08
   3   9 -16    0.07    0.06
  -2   9  16    1.91    0.17
  -1   9  16    0.50    0.15
   0   9  16    0.75    0.15
  -6   0  17    0.30    0.14
  -5   0  17    1.85    0.18
  -4   0  17    0.01    0.08
  -4   0  17    0.07    0.08
  -3   0  17    0.48    0.14
  -3   0  17    0.45    0.11
  -2   0  17    0.13    0.10
  -2   0  17   -0.10    0.08
  -1   0  17    2.59    0.20
  -1   0  17    2.24    0.23
   0   0  17   -0.17    0.14
   1   0  17    7.94    0.34
   1   0  17    7.52    0.36
   2   0  17   -0.09    0.10
   2   0  17    0.09    0.11
   3   0  17    0.02    0.09
   6  -1 -17    3.01    0.17
  -6   1  17    3.33    0.32
  -5  -1  17    1.92    0.18
  -5   1  17    1.46    0.16
  -4  -1  17    0.43    0.13
  -4  -1  17    0.52    0.13
  -4   1  17    0.55    0.14
  -3  -1  17    1.06    0.15
  -3  -1  17    1.06    0.15
  -3   1  17    0.82    0.15
  -3   1  17    1.04    0.17
  -2  -1  17   -0.03    0.08
  -2  -1  17   -0.02    0.10
  -2  -1  17   -0.22    0.13
  -2   1  17    0.23    0.11
  -2   1  17    0.16    0.10
  -1  -1  17    0.03    0.10
  -1  -1  17    0.07    0.13
  -1   1  17    0.33    0.12
  -1   1  17    0.17    0.13
   0  -1  17    4.72    0.26
   0  -1  17    4.93    0.29
   1  -1  17    4.42    0.24
   1  -1  17    4.45    0.26
   2  -1  17    0.86    0.15
   2  -1  17    0.81    0.15
   2   1  17    1.12    0.20
   3  -1  17    0.13    0.08
   3  -1  17    0.25    0.11
   6  -2 -17    0.62    0.13
  -5  -2  17    0.13    0.10
  -5   2  17    0.05    0.10
  -4  -2  17    0.13    0.08
  -4  -2  17    0.14    0.08
  -4   2  17    0.12    0.10
  -3  -2  17    0.88    0.13
  -3  -2  17    0.55    0.14
  -3   2  17    0.50    0.15
  -2  -2  17    2.49    0.23
  -2  -2  17    2.42    0.20
  -2  -2  17    2.89    0.20
  -2   2  17    2.75    0.21
  -1  -2  17    2.67    0.20
  -1  -2  17    2.50    0.22
  -1  -2  17    2.06    0.21
  -1   2  17    2.21    0.23
   0  -2  17    4.46    0.24
   0  -2  17    4.75    0.28
   1  -2  17    0.92    0.14
   1  -2  17    0.76    0.16
   2  -2  17    0.18    0.08
   2  -2  17    0.01    0.08
   3  -2  17    0.18    0.07
   3  -2  17    0.18    0.09
  -5  -3  17    1.07    0.15
  -5   3  17    0.96    0.16
  -4  -3  17    0.04    0.07
  -4  -3  17    0.02    0.09
  -4   3  17    0.05    0.09
  -3  -3  17    0.71    0.14
  -3  -3  17    1.04    0.13
  -3   3  17    1.02    0.16
  -2  -3  17    1.33    0.18
  -2  -3  17    1.14    0.15
  -2  -3  17    1.08    0.17
  -2   3  17    1.17    0.17
  -1  -3  17    0.24    0.11
  -1  -3  17    0.34    0.10
  -1  -3  17    0.32    0.13
  -1   3  17    0.61    0.20
   0  -3  17    0.59    0.13
   0  -3  17    0.64    0.15
   1  -3  17    1.56    0.15
   1  -3  17    1.69    0.18
   2  -3  17    0.07    0.08
   2  -3  17    0.40    0.11
   3  -3  17   -0.05    0.07
   3  -3  17    0.05    0.07
  -5  -4  17    1.34    0.16
  -5   4  17    1.39    0.16
   5   4 -17    1.55    0.16
  -4  -4  17    2.81    0.18
  -4  -4  17    2.84    0.20
  -4   4  17    3.15    0.20
  -3  -4  17    3.33    0.21
  -3  -4  17    3.32    0.20
  -3   4  17    3.34    0.22
  -2  -4  17    2.11    0.17
  -2  -4  17    2.00    0.18
  -2  -4  17    1.97    0.18
  -2   4  17    2.51    0.20
  -1  -4  17    7.02    0.33
  -1  -4  17    7.07    0.34
  -1  -4  17    6.98    0.31
  -1   4  17    6.75    0.35
   0  -4  17    0.79    0.12
   0  -4  17    0.74    0.14
   1  -4  17    0.11    0.07
   1  -4  17    0.12    0.09
   2  -4  17    2.08    0.14
   2  -4  17    1.98    0.15
   3  -4  17    2.07    0.14
   3  -4  17    1.92    0.13
  -5  -5  17    1.17    0.16
  -5   5  17    0.83    0.16
   5   5 -17    0.97    0.13
  -4  -5  17   -0.07    0.06
  -4  -5  17    0.07    0.07
  -4   5  17   -0.02    0.08
  -3  -5  17    2.24    0.16
  -3  -5  17    2.00    0.17
  -3   5  17    2.34    0.18
  -2  -5  17   -0.07    0.07
  -2  -5  17   -0.02    0.09
  -2  -5  17    0.04    0.08
  -2   5  17    0.00    0.11
  -1  -5  17    1.01    0.19
  -1  -5  17    0.41    0.13
  -1  -5  17    0.60    0.12
   0  -5  17    0.06    0.07
   0  -5  17    0.03    0.08
   1  -5  17    1.40    0.13
   1  -5  17    1.16    0.12
   2  -5  17    0.27    0.10
   2  -5  17    0.11    0.06
   5   6 -17    1.91    0.14
  -4  -6  17    3.64    0.18
  -4  -6  17    3.48    0.20
   4   6 -17    3.59    0.19
  -3  -6  17    0.99    0.11
  -3  -6  17    1.09    0.14
  -3   6  17    0.75    0.16
  -2  -6  17    0.38    0.10
  -2  -6  17    0.15    0.10
  -1  -6  17    0.91    0.13
  -1  -6  17    1.18    0.12
   0  -6  17    0.34    0.11
   0  -6  17    0.41    0.10
   1  -6  17    0.09    0.06
   1  -6  17    0.15    0.06
   2  -6  17    0.15    0.06
   2  -6  17    0.22    0.08
   4   7 -17    0.00    0.06
  -3  -7  17    0.02    0.08
  -3  -7  17    0.30    0.10
  -2  -7  17    1.67    0.18
  -2  -7  17    1.83    0.13
  -1  -7  17    2.07    0.14
   0  -7  17    0.19    0.07
   0  -7  17    0.21    0.07
   1  -7  17    0.16    0.06
   1  -7  17    0.34    0.09
   3   8 -17    0.14    0.06
  -2  -8  17    1.73    0.13
  -1  -8  17    0.04    0.06
   0  -8  17    1.16    0.11
   6   0 -18    0.70    0.10
  -5   0  18    0.01    0.10
  -4   0  18    0.22    0.09
  -3   0  18    0.04    0.08
  -3   0  18   -0.09    0.09
  -2   0  18    0.50    0.13
  -2   0  18    0.57    0.16
  -1   0  18   -0.05    0.09
  -1   0  18   -0.09    0.17
   0   0  18    0.47    0.15
   1   0  18    0.73    0.20
   2   0  18    0.41    0.12
   6   1 -18    0.07    0.07
  -5  -1  18    1.41    0.16
  -5   1  18    1.35    0.17
  -4  -1  18    1.39    0.15
  -4  -1  18    1.18    0.13
  -4   1  18    1.36    0.16
  -3  -1  18    1.03    0.15
  -3  -1  18    0.85    0.13
  -3   1  18    1.03    0.15
  -3   1  18    1.29    0.16
  -2  -1  18    2.13    0.16
  -2   1  18    1.75    0.19
  -2   1  18    1.73    0.20
  -1  -1  18    0.20    0.16
  -1  -1  18    0.18    0.09
  -1  -1  18   -0.05    0.13
  -1   1  18    0.47    0.17
   0  -1  18    0.04    0.11
   0  -1  18    0.14    0.09
   1  -1  18   -0.08    0.08
   1  -1  18    0.09    0.11
   2  -1  18    0.07    0.09
   2  -1  18    0.07    0.11
   6   2 -18    0.13    0.07
  -5  -2  18    0.28    0.11
  -5   2  18    0.23    0.11
  -4  -2  18    0.40    0.14
  -4  -2  18    0.14    0.07
  -4   2  18    0.14    0.10
  -3  -2  18    5.49    0.28
  -3  -2  18    5.70    0.26
  -3   2  18    5.05    0.28
  -2  -2  18    1.08    0.12
  -2  -2  18    0.70    0.16
  -2   2  18    0.80    0.17
  -1  -2  18    1.70    0.15
  -1  -2  18    1.37    0.18
  -1  -2  18    1.67    0.27
   0  -2  18    0.03    0.09
   0  -2  18   -0.01    0.08
   1  -2  18    1.52    0.15
   1  -2  18    1.33    0.14
   2  -2  18    0.28    0.09
   2  -2  18    0.14    0.08
  -5  -3  18    0.81    0.16
  -4  -3  18    0.06    0.07
  -4  -3  18    0.07    0.09
   4   3 -18   -0.14    0.18
  -4   3  18    0.11    0.09
  -3  -3  18    0.55    0.11
  -3  -3  18    0.45    0.13
  -3   3  18    0.21    0.10
  -2  -3  18    2.55    0.17
  -2  -3  18    2.70    0.19
  -2   3  18    2.30    0.21
  -1  -3  18   -0.02    0.07
  -1  -3  18   -0.09    0.09
   0  -3  18    2.14    0.18
   0  -3  18    2.42    0.16
   1  -3  18    0.79    0.14
   1  -3  18    1.03    0.12
   2  -3  18    0.61    0.10
   2  -3  18    0.46    0.11
  -4  -4  18    1.14    0.11
  -4  -4  18    1.31    0.14
  -4   4  18    1.18    0.15
   4   4 -18    0.87    0.15
  -3  -4  18    0.11    0.10
  -3  -4  18    0.22    0.07
  -2  -4  18    2.72    0.21
  -2  -4  18    2.96    0.17
  -2   4  18    3.17    0.22
  -1  -4  18    0.61    0.11
  -1  -4  18    0.55    0.13
   0  -4  18    1.71    0.15
   0  -4  18    1.57    0.14
   1  -4  18    0.36    0.11
   1  -4  18    0.41    0.09
   2  -4  18    0.06    0.06
   2  -4  18    0.01    0.06
  -4  -5  18    0.01    0.06
  -4  -5  18   -0.05    0.09
  -4   5  18   -0.07    0.09
   4   5 -18    0.09    0.08
  -3  -5  18    0.46    0.15
  -3  -5  18    0.26    0.09
  -3   5  18    0.15    0.10
  -2  -5  18    1.64    0.20
  -2  -5  18    1.82    0.13
  -1  -5  18    0.12    0.07
  -1  -5  18    0.16    0.08
   0  -5  18    6.69    0.30
   0  -5  18    7.05    0.29
   1  -5  18    0.92    0.10
   1  -5  18    0.73    0.10
   4   6 -18    0.78    0.11
  -3  -6  18    0.10    0.06
  -2  -6  18    0.27    0.09
  -1  -6  18    2.31    0.14
   0  -6  18    0.08    0.06
   0  -6  18    0.07    0.06
   1  -6  18    0.01    0.06
   1  -6  18    0.00    0.06
  -3  -7  18    0.43    0.09
   3   7 -18    0.30    0.09
  -2  -7  18    0.37    0.09
  -1  -7  18    1.20    0.10
   0  -7  18    0.02    0.05
  -4   0  19   -0.03    0.10
  -3   0  19    1.31    0.13
  -3   0  19    1.23    0.17
  -2   0  19    0.02    0.09
  -2   0  19    0.10    0.13
  -1   0  19    1.53    0.15
  -4  -1  19   -0.09    0.09
  -4   1  19   -0.04    0.10
  -3  -1  19   -0.06    0.10
  -3  -1  19    0.00    0.07
  -3   1  19    0.04    0.11
  -2  -1  19    4.96    0.23
  -2  -1  19    4.68    0.28
  -2   1  19    4.40    0.28
  -1  -1  19    0.36    0.11
   0  -1  19    9.63    0.37
   1  -1  19    0.07    0.12
   1  -1  19    0.00    0.10
  -4  -2  19    0.00    0.10
  -4   2  19   -0.05    0.10
  -3  -2  19    0.19    0.07
  -3   2  19    0.23    0.11
  -2  -2  19    1.10    0.22
  -2  -2  19    1.16    0.12
  -2   2  19    0.72    0.22
  -1  -2  19    1.85    0.18
  -1  -2  19    1.78    0.14
   0  -2  19    2.03    0.15
   1  -2  19    0.94    0.14
   1  -2  19    1.31    0.13
  -4  -3  19    0.29    0.09
  -4  -3  19    0.19    0.11
  -4   3  19    0.22    0.13
  -3  -3  19    0.87    0.17
  -3  -3  19    0.46    0.09
  -3   3  19    0.24    0.10
  -2  -3  19    0.03    0.06
  -2   3  19    0.16    0.19
  -1  -3  19   -0.02    0.08
  -1  -3  19    0.04    0.06
   0  -3  19    3.26    0.20
   0  -3  19    3.83    0.18
   1  -3  19    0.28    0.09
   1  -3  19    0.45    0.12
  -3  -4  19    0.41    0.09
  -2  -4  19    0.07    0.06
  -1  -4  19    4.81    0.21
  -1  -4  19    4.70    0.23
   0  -4  19    0.14    0.07
   0  -4  19   -0.01    0.06
   1  -4  19    0.01    0.06
   1  -4  19    0.06    0.07
  -3  -5  19    1.96    0.12
  -2  -5  19    0.02    0.06
  -1  -5  19    1.53    0.11
   0  -5  19    0.95    0.09
   0  -5  19    0.73    0.10
  -3  -6  19    0.00    0.06
  -2  -6  19    0.39    0.08
  -1  -6  19    0.23    0.08
  -2  -1  20    0.00    0.08
  -1  -1  20    1.87    0.15
  -3  -2  20   -0.04    0.06
  -2  -2  20    0.65    0.10
  -1  -2  20    0.13    0.07
   0  -2  20    0.49    0.12
  -3  -3  20    0.59    0.08
  -2  -3  20    0.29    0.10
  -1  -3  20    0.74    0.09
   0  -3  20    1.29    0.11
  -3  -4  20    0.03    0.05
  -2  -4  20    1.68    0.11
  -1  -4  20    0.72    0.09
   0   0   0    0.00    0.00
;
_shelx_hkl_checksum              64232
_shelx_res_file
;
    JTM743_0m.res created by SHELXL-2014/7
TITL JTM743_0m_a.res in P2(1)/n
REM Old TITL JTM743_0m in P2(1)/n
REM SHELXT solution in P2(1)/n
REM R1 0.169,  Rweak 0.010,  Alpha 0.036,  Orientation as input
REM Formula found by SHELXT:  C16 N2 O3 S
CELL  1.54178   7.3834  11.7331  16.9144   90.000  101.731   90.000
ZERR    4.000   0.0002   0.0003   0.0004    0.000    0.001    0.000
LATT  1
SYMM 1/2-X, 1/2+Y, 1/2-Z
SFAC C H N O S
UNIT 64 48 8 12 4
TEMP 25
SIZE 0.139 0.188 0.242
L.S. 5
BOND $H
LIST 4
FMAP 2
CONF
EQIV $1 -x+3/2, y+1/2, -z+1/2
HTAB C2 O2_$1
HTAB C9 O2_$1
EQIV $2 x-3/2, -y+1/2, z-1/2
HTAB C16 O1_$2
MPLA N1 C1 > C8
MPLA S1 C13 > C16
ACTA 140
PLAN 5
WGHT    0.089000    0.707800
FVAR       0.27016
S1    5   -0.048910    0.361068    0.117982    11.00000    0.06672    0.05669 =
         0.08779   -0.01662    0.02088   -0.00800
O1    4    1.145967    0.263413    0.431191    11.00000    0.09171    0.06718 =
         0.09295    0.03124    0.02216    0.03223
O2    4    0.812993    0.263714    0.301662    11.00000    0.08047    0.03729 =
         0.09841   -0.00748    0.02005   -0.00768
O3    4    0.446816    0.416075    0.321538    11.00000    0.04848    0.08350 =
         0.07351    0.03396    0.01660    0.00739
N1    3    0.844755    0.458160    0.318462    11.00000    0.04119    0.03363 =
         0.05395   -0.00143    0.00635   -0.00051
N2    3    0.282907    0.390682    0.263983    11.00000    0.05004    0.06109 =
         0.07177    0.01899    0.01902   -0.00037
C1    1    0.974005    0.531262    0.366750    11.00000    0.03567    0.04190 =
         0.04554   -0.00384    0.00873   -0.00027
C2    1    0.978329    0.648708    0.365142    11.00000    0.05255    0.04182 =
         0.06150   -0.00515    0.00690   -0.00120
H2    2    0.899529    0.690712    0.330696    11.00000    0.06325
C3    1    1.122444    0.701851    0.417538    11.00000    0.06747    0.05865 =
         0.07917   -0.02214    0.01315   -0.01546
H3    2    1.129685    0.777563    0.414568    11.00000    0.08126
C4    1    1.254197    0.641229    0.470168    11.00000    0.05372    0.09509 =
         0.06731   -0.02432    0.00611   -0.01603
H4    2    1.346875    0.684817    0.508411    11.00000    0.08229
C5    1    1.249409    0.524044    0.470919    11.00000    0.04101    0.09616 =
         0.05359    0.00280    0.00683    0.00601
H5    2    1.332026    0.485915    0.506265    11.00000    0.08291
C6    1    1.108609    0.468672    0.418500    11.00000    0.03973    0.06076 =
         0.04664    0.00491    0.01193    0.00733
C7    1    1.066611    0.347963    0.401772    11.00000    0.05621    0.05396 =
         0.06172    0.01476    0.02131    0.01516
C8    1    0.891523    0.346477    0.334218    11.00000    0.05429    0.03789 =
         0.06403    0.00353    0.02043    0.00284
C9    1    0.684673    0.497269    0.259997    11.00000    0.04072    0.04526 =
         0.04627   -0.00125    0.00597   -0.00246
H9A   2    0.715298    0.565692    0.232715    11.00000    0.04820
H9B   2    0.655990    0.438919    0.219952    11.00000    0.05330
C10   1    0.521445    0.522807    0.298345    11.00000    0.04584    0.05806 =
         0.05276   -0.00246    0.00779    0.00339
H10   2    0.549638    0.557152    0.343509    11.00000    0.06231
C11   1    0.361535    0.578421    0.240540    11.00000    0.04373    0.04660 =
         0.07293    0.00178    0.00529    0.00280
H11A  2    0.299470    0.640845    0.267414    11.00000    0.10223
H11B  2    0.402922    0.607010    0.192142    11.00000    0.07068
C12   1    0.234659    0.478945    0.220108    11.00000    0.04354    0.04551 =
         0.05394    0.00266    0.01858    0.00155
C13   1    0.067938    0.481424    0.157391    11.00000    0.04904    0.05039 =
         0.05058   -0.00140    0.01588   -0.00402
C14   1   -0.020447    0.576802    0.122283    11.00000    0.05617    0.04954 =
         0.06050    0.01076    0.00249   -0.00500
AFIX  43
H14   2    0.022145    0.650610    0.134452    11.00000   -1.20000
AFIX   0
C15   1   -0.183348    0.550738    0.065583    11.00000    0.07305    0.08943 =
         0.06448    0.01481   -0.00430   -0.00213
AFIX  43
H15   2   -0.261768    0.605799    0.037625    11.00000   -1.20000
AFIX   0
C16   1   -0.213190    0.439248    0.056241    11.00000    0.07261    0.09411 =
         0.06096   -0.01662    0.00728   -0.01745
AFIX  43
H16   2   -0.312444    0.407757    0.020112    11.00000   -1.20000
AFIX   0
HKLF 4
REM  JTM743_0m_a.res in P2(1)/n
REM R1 =  0.0567 for    2500 Fo > 4sig(Fo)  and  0.0634 for all    2899 data
REM    235 parameters refined using      0 restraints
END
WGHT      0.0888      0.7098
REM Highest difference peak  0.800,  deepest hole -0.383,  1-sigma level  0.051
Q1    1  -0.3931  0.4591 -0.0032  11.00000  0.05    0.80
Q2    1   0.0351  0.5321  0.1157  11.00000  0.05    0.23
Q3    1   1.2019  0.3158  0.4808  11.00000  0.05    0.20
Q4    1   0.8965  0.4997  0.3442  11.00000  0.05    0.19
Q5    1  -0.1013  0.5866  0.1006  11.00000  0.05    0.19
;
_shelx_res_checksum              18063
loop_
_space_group_symop_operation_xyz
'x, y, z'
'-x+1/2, y+1/2, -z+1/2'
'-x, -y, -z'
'x-1/2, -y-1/2, z-1/2'
loop_
_atom_site_type_symbol
_atom_site_label
_atom_site_fract_x
_atom_site_fract_y
_atom_site_fract_z
_atom_site_U_iso_or_equiv
_atom_site_adp_type
_atom_site_calc_flag
_atom_site_occupancy
S S1 -0.04891(11) 0.36107(6) 0.11798(5) 0.0697(3) Uani d 1
O O1 1.1460(3) 0.26341(19) 0.43119(14) 0.0835(7) Uani d 1
O O2 0.8130(3) 0.26371(15) 0.30166(14) 0.0718(5) Uani d 1
O O3 0.4468(2) 0.41608(18) 0.32154(12) 0.0679(6) Uani d 1
N N1 0.8448(2) 0.45816(15) 0.31846(11) 0.0434(4) Uani d 1
N N2 0.2829(3) 0.39068(19) 0.26398(14) 0.0600(6) Uani d 1
C C1 0.9740(3) 0.53126(18) 0.36675(12) 0.0410(5) Uani d 1
C C2 0.9783(3) 0.6487(2) 0.36514(16) 0.0526(6) Uani d 1
H H2 0.900(4) 0.691(2) 0.3307(18) 0.063(8) Uiso d 1
C C3 1.1224(4) 0.7019(3) 0.41754(19) 0.0687(8) Uani d 1
H H3 1.130(5) 0.778(3) 0.415(2) 0.081(10) Uiso d 1
C C4 1.2542(4) 0.6412(3) 0.47017(19) 0.0729(8) Uani d 1
H H4 1.347(5) 0.685(3) 0.508(2) 0.082(10) Uiso d 1
C C5 1.2494(3) 0.5240(3) 0.47092(16) 0.0640(7) Uani d 1
H H5 1.332(5) 0.486(3) 0.506(2) 0.083(10) Uiso d 1
C C6 1.1086(3) 0.4687(2) 0.41850(13) 0.0486(5) Uani d 1
C C7 1.0666(4) 0.3480(2) 0.40177(16) 0.0560(6) Uani d 1
C C8 0.8915(3) 0.34648(19) 0.33422(15) 0.0509(5) Uani d 1
C C9 0.6847(3) 0.4973(2) 0.26000(13) 0.0445(5) Uani d 1
H H9A 0.715(3) 0.566(2) 0.2327(15) 0.048(6) Uiso d 1
H H9B 0.656(4) 0.439(2) 0.2200(16) 0.053(7) Uiso d 1
C C10 0.5214(3) 0.5228(2) 0.29834(16) 0.0525(6) Uani d 1
H H10 0.550(4) 0.557(3) 0.3435(18) 0.062(8) Uiso d 1
C C11 0.3615(3) 0.5784(2) 0.24054(18) 0.0553(6) Uani d 1
H H11A 0.299(5) 0.641(3) 0.267(2) 0.102(12) Uiso d 1
H H11B 0.403(4) 0.607(3) 0.1921(19) 0.071(8) Uiso d 1
C C12 0.2347(3) 0.47894(19) 0.22011(14) 0.0464(5) Uani d 1
C C13 0.0679(3) 0.4814(2) 0.15739(14) 0.0492(5) Uani d 1
C C14 -0.0204(3) 0.5768(2) 0.12228(15) 0.0567(6) Uani d 1
H H14 0.0221 0.6506 0.1345 0.068 Uiso calc 1
C C15 -0.1833(5) 0.5507(3) 0.06558(19) 0.0782(9) Uani d 1
H H15 -0.2618 0.6058 0.0376 0.094 Uiso calc 1
C C16 -0.2132(5) 0.4392(3) 0.05624(18) 0.0768(8) Uani d 1
H H16 -0.3124 0.4078 0.0201 0.092 Uiso calc 1
loop_
_atom_site_aniso_label
_atom_site_aniso_U_11
_atom_site_aniso_U_22
_atom_site_aniso_U_33
_atom_site_aniso_U_12
_atom_site_aniso_U_13
_atom_site_aniso_U_23
S1 0.0667(5) 0.0567(4) 0.0878(5) -0.0080(3) 0.0209(4) -0.0166(3)
O1 0.0917(15) 0.0672(12) 0.0930(15) 0.0322(11) 0.0222(12) 0.0312(11)
O2 0.0805(13) 0.0373(9) 0.0984(14) -0.0077(9) 0.0201(11) -0.0075(9)
O3 0.0485(9) 0.0835(13) 0.0735(12) 0.0074(9) 0.0166(8) 0.0340(10)
N1 0.0412(9) 0.0336(9) 0.0540(10) -0.0005(7) 0.0063(8) -0.0014(7)
N2 0.0500(11) 0.0611(12) 0.0718(13) -0.0004(9) 0.0190(10) 0.0190(10)
C1 0.0357(9) 0.0419(11) 0.0455(11) -0.0003(8) 0.0087(8) -0.0038(8)
C2 0.0526(13) 0.0418(12) 0.0615(14) -0.0012(10) 0.0069(11) -0.0051(10)
C3 0.0675(17) 0.0587(17) 0.0792(18) -0.0155(13) 0.0131(14) -0.0221(14)
C4 0.0537(15) 0.095(2) 0.0673(17) -0.0160(15) 0.0061(13) -0.0243(16)
C5 0.0410(12) 0.096(2) 0.0536(14) 0.0060(13) 0.0068(10) 0.0028(13)
C6 0.0397(10) 0.0608(14) 0.0466(11) 0.0073(9) 0.0119(9) 0.0049(10)
C7 0.0562(13) 0.0540(13) 0.0617(14) 0.0152(11) 0.0213(11) 0.0148(11)
C8 0.0543(13) 0.0379(11) 0.0640(14) 0.0028(9) 0.0204(11) 0.0035(10)
C9 0.0407(10) 0.0453(11) 0.0463(11) -0.0025(9) 0.0060(9) -0.0013(9)
C10 0.0458(12) 0.0581(14) 0.0528(13) 0.0034(10) 0.0078(10) -0.0025(11)
C11 0.0437(11) 0.0466(13) 0.0729(16) 0.0028(10) 0.0053(11) 0.0018(11)
C12 0.0435(11) 0.0455(11) 0.0539(12) 0.0016(9) 0.0186(9) 0.0027(9)
C13 0.0490(12) 0.0504(12) 0.0506(12) -0.0040(10) 0.0159(10) -0.0014(9)
C14 0.0562(13) 0.0495(13) 0.0605(14) -0.0050(10) 0.0025(11) 0.0108(10)
C15 0.0731(18) 0.089(2) 0.0645(17) -0.0021(16) -0.0043(14) 0.0148(15)
C16 0.0726(18) 0.094(2) 0.0610(16) -0.0175(17) 0.0073(13) -0.0166(15)
loop_
_atom_type_symbol
_atom_type_description
_atom_type_scat_dispersion_real
_atom_type_scat_dispersion_imag
_atom_type_scat_source
C C 0.0181 0.0091 'International Tables Vol C Tables 4.2.6.8 and 6.1.1.4'
H H 0.0000 0.0000 'International Tables Vol C Tables 4.2.6.8 and 6.1.1.4'
N N 0.0311 0.0180 'International Tables Vol C Tables 4.2.6.8 and 6.1.1.4'
O O 0.0492 0.0322 'International Tables Vol C Tables 4.2.6.8 and 6.1.1.4'
S S 0.3331 0.5567 'International Tables Vol C Tables 4.2.6.8 and 6.1.1.4'
loop_
_geom_angle_atom_site_label_1
_geom_angle_atom_site_label_2
_geom_angle_atom_site_label_3
_geom_angle
C16 S1 C13 91.96(14)
N2 O3 C10 108.19(17)
C8 N1 C1 110.79(18)
C8 N1 C9 125.00(19)
C1 N1 C9 124.21(18)
C12 N2 O3 109.0(2)
C2 C1 C6 121.5(2)
C2 C1 N1 127.7(2)
C6 C1 N1 110.8(2)
C1 C2 C3 117.0(3)
C1 C2 H2 123.7(19)
C3 C2 H2 119.1(19)
C4 C3 C2 122.1(3)
C4 C3 H3 121(2)
C2 C3 H3 117(2)
C5 C4 C3 120.4(3)
C5 C4 H4 122.0(19)
C3 C4 H4 117.5(19)
C4 C5 C6 118.7(3)
C4 C5 H5 120(2)
C6 C5 H5 121(2)
C5 C6 C1 120.2(2)
C5 C6 C7 132.8(2)
C1 C6 C7 107.0(2)
O1 C7 C6 130.5(3)
O1 C7 C8 124.1(3)
C6 C7 C8 105.47(18)
O2 C8 N1 127.2(2)
O2 C8 C7 126.9(2)
N1 C8 C7 105.9(2)
N1 C9 C10 112.35(19)
N1 C9 H9A 110.3(14)
C10 C9 H9A 108.8(14)
N1 C9 H9B 106.8(16)
C10 C9 H9B 111.4(15)
H9A C9 H9B 107(2)
O3 C10 C9 108.9(2)
O3 C10 C11 104.84(19)
C9 C10 C11 113.1(2)
O3 C10 H10 102(2)
C9 C10 H10 114(2)
C11 C10 H10 113(2)
C12 C11 C10 100.50(19)
C12 C11 H11A 110(2)
C10 C11 H11A 113(2)
C12 C11 H11B 111.0(18)
C10 C11 H11B 110.4(18)
H11A C11 H11B 112(3)
N2 C12 C13 122.2(2)
N2 C12 C11 114.2(2)
C13 C12 C11 123.5(2)
C14 C13 C12 126.3(2)
C14 C13 S1 110.26(19)
C12 C13 S1 123.45(18)
C13 C14 C15 112.5(3)
C13 C14 H14 123.7
C15 C14 H14 123.7
C16 C15 C14 113.0(3)
C16 C15 H15 123.5
C14 C15 H15 123.5
C15 C16 S1 112.2(2)
C15 C16 H16 123.9
S1 C16 H16 123.9
loop_
_geom_bond_atom_site_label_1
_geom_bond_atom_site_label_2
_geom_bond_distance
S1 C16 1.699(4)
S1 C13 1.717(2)
O1 C7 1.207(3)
O2 C8 1.205(3)
O3 N2 1.422(3)
O3 C10 1.454(3)
N1 C8 1.367(3)
N1 C1 1.413(3)
N1 C9 1.453(3)
N2 C12 1.282(3)
C1 C2 1.379(3)
C1 C6 1.393(3)
C2 C3 1.387(4)
C2 H2 0.88(3)
C3 C4 1.376(5)
C3 H3 0.89(4)
C4 C5 1.376(5)
C4 H4 0.98(3)
C5 C6 1.384(4)
C5 H5 0.88(4)
C6 C7 1.465(4)
C7 C8 1.542(4)
C9 C10 1.510(3)
C9 H9A 0.98(3)
C9 H9B 0.96(3)
C10 C11 1.519(3)
C10 H10 0.85(3)
C11 C12 1.493(3)
C11 H11A 1.02(4)
C11 H11B 0.99(3)
C12 C13 1.453(3)
C13 C14 1.369(3)
C14 C15 1.411(4)
C14 H14 0.9300
C15 C16 1.331(5)
C15 H15 0.9300
C16 H16 0.9300
loop_
_geom_hbond_atom_site_label_D
_geom_hbond_atom_site_label_H
_geom_hbond_atom_site_label_A
_geom_hbond_site_symmetry_A
_geom_hbond_distance_DH
_geom_hbond_distance_HA
_geom_hbond_distance_DA
_geom_hbond_angle_DHA
C2 H2 O2 2_655 0.88(3) 2.60(3) 3.455(3) 162(2)
C9 H9A O2 2_655 0.98(3) 2.39(3) 3.297(3) 153.7(19)
C16 H16 O1 4_465 0.93 2.49 3.212(4) 134
loop_
_geom_torsion_atom_site_label_1
_geom_torsion_atom_site_label_2
_geom_torsion_atom_site_label_3
_geom_torsion_atom_site_label_4
_geom_torsion
C10 O3 N2 C12 -12.4(3)
C8 N1 C1 C2 176.5(2)
C9 N1 C1 C2 -3.3(3)
C8 N1 C1 C6 -2.0(2)
C9 N1 C1 C6 178.19(19)
C6 C1 C2 C3 -0.2(4)
N1 C1 C2 C3 -178.6(2)
C1 C2 C3 C4 -1.2(4)
C2 C3 C4 C5 1.7(5)
C3 C4 C5 C6 -0.7(4)
C4 C5 C6 C1 -0.6(4)
C4 C5 C6 C7 177.5(3)
C2 C1 C6 C5 1.1(3)
N1 C1 C6 C5 179.7(2)
C2 C1 C6 C7 -177.5(2)
N1 C1 C6 C7 1.2(2)
C5 C6 C7 O1 1.0(5)
C1 C6 C7 O1 179.2(3)
C5 C6 C7 C8 -178.3(2)
C1 C6 C7 C8 -0.1(2)
C1 N1 C8 O2 -177.7(2)
C9 N1 C8 O2 2.1(4)
C1 N1 C8 C7 1.8(2)
C9 N1 C8 C7 -178.35(18)
O1 C7 C8 O2 -0.9(4)
C6 C7 C8 O2 178.4(2)
O1 C7 C8 N1 179.6(2)
C6 C7 C8 N1 -1.1(2)
C8 N1 C9 C10 96.1(3)
C1 N1 C9 C10 -84.1(3)
N2 O3 C10 C9 -103.2(2)
N2 O3 C10 C11 18.1(3)
N1 C9 C10 O3 -71.4(2)
N1 C9 C10 C11 172.41(19)
O3 C10 C11 C12 -16.3(2)
C9 C10 C11 C12 102.3(2)
O3 N2 C12 C13 -177.69(19)
O3 N2 C12 C11 0.9(3)
C10 C11 C12 N2 10.0(3)
C10 C11 C12 C13 -171.4(2)
N2 C12 C13 C14 161.9(2)
C11 C12 C13 C14 -16.6(4)
N2 C12 C13 S1 -16.9(3)
C11 C12 C13 S1 164.62(19)
C16 S1 C13 C14 -0.3(2)
C16 S1 C13 C12 178.6(2)
C12 C13 C14 C15 -177.5(2)
S1 C13 C14 C15 1.4(3)
C13 C14 C15 C16 -2.1(4)
C14 C15 C16 S1 1.9(4)
C13 S1 C16 C15 -0.9(3)

_cod_database_fobs_code 1545621
