#------------------------------------------------------------------------------
#$Date: 2017-02-04 04:03:45 +0200 (Sat, 04 Feb 2017) $
#$Revision: 191314 $
#$URL: file:///home/coder/svn-repositories/cod/cif/1/54/52/1545222.cif $
#------------------------------------------------------------------------------
#
# This file is available in the Crystallography Open Database (COD),
# http://www.crystallography.net/
#
# All data on this site have been placed in the public domain by the
# contributors.
#
data_1545222
loop_
_publ_author_name
'Wang, Gaonan'
'You, Xu'
'Gan, Yi'
'Liu, Yuanhong'
_publ_section_title
;
 Synthesis of \d- and \a-Carbolines via Nickel-Catalyzed [2 + 2 + 2]
 Cycloaddition of Functionalized Alkyne-Nitriles with Alkynes.
;
_journal_issue                   1
_journal_name_full               'Organic letters'
_journal_page_first              110
_journal_page_last               113
_journal_paper_doi               10.1021/acs.orglett.6b03385
_journal_volume                  19
_journal_year                    2017
_chemical_absolute_configuration ad
_chemical_formula_sum            'C28 H26 N2 O2 S'
_chemical_formula_weight         454.57
_chemical_name_systematic
; 
 ? 
;
_space_group_crystal_system      orthorhombic
_space_group_IT_number           19
_space_group_name_Hall           'P 2ac 2ab'
_space_group_name_H-M_alt        'P 21 21 21'
_symmetry_space_group_name_Hall  'P 2ac 2ab'
_symmetry_space_group_name_H-M   'P 21 21 21'
_atom_sites_solution_hydrogens   geom
_audit_creation_method           SHELXL-2013
_cell_angle_alpha                90
_cell_angle_beta                 90
_cell_angle_gamma                90
_cell_formula_units_Z            4
_cell_length_a                   10.818(3)
_cell_length_b                   14.183(4)
_cell_length_c                   15.569(4)
_cell_measurement_reflns_used    3772
_cell_measurement_temperature    293(2)
_cell_measurement_theta_max      48.517
_cell_measurement_theta_min      4.585
_cell_volume                     2388.8(11)
_computing_cell_refinement       'Bruker SMART'
_computing_data_collection       'Bruker SMART'
_computing_data_reduction        'Bruker SHELXTL'
_computing_molecular_graphics    'Bruker SHELXTL'
_computing_publication_material  'Bruker SHELXTL'
_computing_structure_refinement  'SHELXL-2013 (Sheldrick, 2013)'
_computing_structure_solution    'Bruker SHELXTL'
_diffrn_ambient_temperature      293(2)
_diffrn_measured_fraction_theta_full 1.000
_diffrn_measured_fraction_theta_max 1.000
_diffrn_measurement_device_type  'CCD area detector'
_diffrn_measurement_method       'phi and omega scans'
_diffrn_radiation_type           MoK\a
_diffrn_radiation_wavelength     0.71073
_diffrn_reflns_av_R_equivalents  0.0384
_diffrn_reflns_av_unetI/netI     0.0384
_diffrn_reflns_Laue_measured_fraction_full 1.000
_diffrn_reflns_Laue_measured_fraction_max 1.000
_diffrn_reflns_limit_h_max       12
_diffrn_reflns_limit_h_min       -13
_diffrn_reflns_limit_k_max       17
_diffrn_reflns_limit_k_min       -17
_diffrn_reflns_limit_l_max       18
_diffrn_reflns_limit_l_min       -16
_diffrn_reflns_number            13806
_diffrn_reflns_point_group_measured_fraction_full 1.000
_diffrn_reflns_point_group_measured_fraction_max 1.000
_diffrn_reflns_theta_full        25.242
_diffrn_reflns_theta_max         25.498
_diffrn_reflns_theta_min         1.942
_exptl_absorpt_coefficient_mu    0.163
_exptl_absorpt_correction_T_max  0.7456
_exptl_absorpt_correction_T_min  0.6492
_exptl_absorpt_correction_type   multi-scan
_exptl_absorpt_process_details   sadabs
_exptl_crystal_colour            colorless
_exptl_crystal_density_diffrn    1.264
_exptl_crystal_description       prismatic
_exptl_crystal_F_000             960
_exptl_crystal_size_max          0.200
_exptl_crystal_size_mid          0.160
_exptl_crystal_size_min          0.100
_refine_diff_density_max         0.211
_refine_diff_density_min         -0.119
_refine_diff_density_rms         0.036
_refine_ls_abs_structure_details
; 
 Flack x determined using 1441 quotients [(I+)-(I-)]/[(I+)+(I-)] 
 (Parsons and Flack (2004), Acta Cryst. A60, s61). 
;
_refine_ls_abs_structure_Flack   0.04(4)
_refine_ls_extinction_method     none
_refine_ls_goodness_of_fit_ref   1.024
_refine_ls_hydrogen_treatment    constr
_refine_ls_matrix_type           full
_refine_ls_number_parameters     300
_refine_ls_number_reflns         4445
_refine_ls_number_restraints     0
_refine_ls_restrained_S_all      1.024
_refine_ls_R_factor_all          0.0539
_refine_ls_R_factor_gt           0.0433
_refine_ls_shift/su_max          0.031
_refine_ls_shift/su_mean         0.003
_refine_ls_structure_factor_coef Fsqd
_refine_ls_weighting_details
'w=1/[\s^2^(Fo^2^)+(0.0700P)^2^+0.0537P] where P=(Fo^2^+2Fc^2^)/3'
_refine_ls_weighting_scheme      calc
_refine_ls_wR_factor_gt          0.1074
_refine_ls_wR_factor_ref         0.1145
_reflns_Friedel_coverage         0.762
_reflns_Friedel_fraction_full    1.000
_reflns_Friedel_fraction_max     1.000
_reflns_number_gt                3747
_reflns_number_total             4445
_reflns_threshold_expression     'I > 2\s(I)'
_cod_data_source_file            ol6b03385_si_005.cif
_cod_data_source_block           cd16724
_cod_original_cell_volume        2388.6(12)
_cod_database_code               1545222
_shelx_space_group_comment
; 
The symmetry employed for this shelxl refinement is uniquely defined 
by the following loop, which should always be used as a source of 
symmetry information in preference to the above space-group names. 
They are only intended as comments. 
;
_shelx_estimated_absorpt_t_min   0.968
_shelx_estimated_absorpt_t_max   0.984
_shelxl_version_number           2013-4
_shelx_res_file
; 
TITL cd16724 in P2(1)2(1)2(1) 
CELL 0.71073  10.8177  14.1827  15.5688  90.000  90.000  90.000 
ZERR    4.00   0.0031   0.0040   0.0043   0.000   0.000   0.000 
LATT -1 
SYMM 0.5-X, -Y, 0.5+Z 
SYMM -X, 0.5+Y, 0.5-Z 
SYMM 0.5+X, 0.5-Y, -Z 
SFAC C  H  N  O  S 
UNIT 112 104 8 8 4 
OMIT  -3.00  51.00 
L.S. 10 
ACTA 
BOND  $H 
FMAP 2 
PLAN 20 
wpdb -1 
size 0.20 0.16 0.10 
mpla c22 > c27 
mpla c12 > c17 
mpla n2 c7 > c11 
mpla n1 c1 > c8 
htab 
conf 
WGHT    0.070000    0.053700 
FVAR       0.18300 
MOLE 1 
S1    5    0.962863    0.487599    1.057105    11.00000    0.06934    0.04759 = 
         0.04061   -0.00261   -0.00064   -0.00352 
N1    3    0.862508    0.433545    0.989532    11.00000    0.04931    0.04643 = 
         0.04558    0.00404    0.00356   -0.00192 
N2    3    0.922603    0.318758    0.788558    11.00000    0.08204    0.06824 = 
         0.04466   -0.00017    0.00428   -0.01610 
O1    4    0.892695    0.556363    1.102095    11.00000    0.10209    0.06641 = 
         0.05634   -0.01629    0.01618    0.00105 
O2    4    1.025333    0.416124    1.102733    11.00000    0.09474    0.05464 = 
         0.05236    0.00569   -0.02105   -0.01108 
C1    1    0.805135    0.496925    0.929236    11.00000    0.04343    0.04999 = 
         0.06170    0.01357   -0.00161   -0.00545 
C2    1    0.739504    0.577810    0.945333    11.00000    0.05807    0.06321 = 
         0.08609    0.01693    0.00460    0.00136 
AFIX  43 
H2    2    0.730103    0.601014    1.000820    11.00000   -1.20000 
AFIX   0 
C3    1    0.687858    0.623386    0.875276    11.00000    0.06909    0.06497 = 
         0.11885    0.02993   -0.00522    0.00568 
AFIX  43 
H3    2    0.642800    0.678374    0.884153    11.00000   -1.20000 
AFIX   0 
C4    1    0.701246    0.589801    0.793351    11.00000    0.08251    0.07704 = 
         0.10002    0.04379   -0.02128   -0.00991 
AFIX  43 
H4    2    0.664398    0.621965    0.748027    11.00000   -1.20000 
AFIX   0 
C5    1    0.767684    0.509976    0.776983    11.00000    0.07664    0.07046 = 
         0.06819    0.02864   -0.01645   -0.02262 
AFIX  43 
H5    2    0.776433    0.487431    0.721220    11.00000   -1.20000 
AFIX   0 
C6    1    0.822237    0.462991    0.846230    11.00000    0.04791    0.05865 = 
         0.05508    0.01614   -0.00441   -0.01952 
C7    1    0.889892    0.375646    0.852307    11.00000    0.05360    0.05313 = 
         0.04006    0.00568    0.00206   -0.01373 
C8    1    0.908805    0.355697    0.939033    11.00000    0.04077    0.04721 = 
         0.04094   -0.00059    0.00233   -0.00842 
C9    1    0.950748    0.267415    0.964766    11.00000    0.03719    0.04728 = 
         0.04558   -0.00075    0.00154   -0.00824 
C10   1    0.988413    0.207668    0.897637    11.00000    0.04727    0.05727 = 
         0.05507   -0.01061    0.00979   -0.00797 
C11   1    0.973628    0.238678    0.813183    11.00000    0.08011    0.06589 = 
         0.05079   -0.01213    0.01262   -0.01137 
AFIX  43 
H11   2    1.002557    0.199041    0.770050    11.00000   -1.20000 
AFIX   0 
C12   1    0.942460    0.233090    1.055074    11.00000    0.04674    0.03547 = 
         0.04317    0.00025   -0.00327   -0.00024 
C13   1    1.043494    0.199864    1.100699    11.00000    0.04443    0.06284 = 
         0.05638   -0.00197   -0.00470    0.00662 
AFIX  43 
H13   2    1.121792    0.201550    1.076081    11.00000   -1.20000 
AFIX   0 
C14   1    1.028272    0.164193    1.182752    11.00000    0.06766    0.05962 = 
         0.05796    0.00136   -0.01832    0.01572 
AFIX  43 
H14   2    1.096399    0.141660    1.212855    11.00000   -1.20000 
AFIX   0 
C15   1    0.914471    0.161860    1.219646    11.00000    0.08402    0.05901 = 
         0.04700    0.00976   -0.00143    0.00996 
AFIX  43 
H15   2    0.904758    0.137435    1.274670    11.00000   -1.20000 
AFIX   0 
C16   1    0.814153    0.195517    1.175695    11.00000    0.06312    0.06203 = 
         0.05208    0.00603    0.00942   -0.00106 
AFIX  43 
H16   2    0.736388    0.194527    1.201146    11.00000   -1.20000 
AFIX   0 
C17   1    0.828169    0.230960    1.093597    11.00000    0.04404    0.04899 = 
         0.04968    0.00545   -0.00258    0.00252 
AFIX  43 
H17   2    0.759559    0.253607    1.064101    11.00000   -1.20000 
AFIX   0 
C18   1    1.027639    0.106683    0.911721    11.00000    0.06211    0.05746 = 
         0.06590   -0.01430    0.00181    0.00452 
AFIX  23 
H18A  2    1.049858    0.098295    0.971597    11.00000   -1.20000 
H18B  2    1.100551    0.093915    0.877371    11.00000   -1.20000 
AFIX   0 
C19   1    0.927687    0.036312    0.888474    11.00000    0.06928    0.06112 = 
         0.07974    0.00245   -0.00586   -0.00087 
AFIX  23 
H19A  2    0.852792    0.053164    0.919102    11.00000   -1.20000 
H19B  2    0.910491    0.041933    0.827541    11.00000   -1.20000 
AFIX   0 
C20   1    0.957349   -0.064252    0.907735    11.00000    0.07188    0.06285 = 
         0.08317   -0.01222   -0.00520    0.00421 
AFIX  23 
H20A  2    1.032642   -0.081135    0.877598    11.00000   -1.20000 
H20B  2    0.973408   -0.070253    0.968788    11.00000   -1.20000 
AFIX   0 
C21   1    0.858645   -0.132471    0.883536    11.00000    0.08372    0.07152 = 
         0.11274   -0.02094    0.00626   -0.01235 
AFIX 137 
H21A  2    0.782800   -0.115301    0.911470    11.00000   -1.50000 
H21B  2    0.882443   -0.194754    0.901131    11.00000   -1.50000 
H21C  2    0.847070   -0.131331    0.822410    11.00000   -1.50000 
AFIX   0 
C22   1    1.066238    0.544598    0.987982    11.00000    0.05414    0.04041 = 
         0.05357   -0.00211   -0.00840   -0.00484 
C23   1    1.052518    0.639665    0.969118    11.00000    0.06052    0.04876 = 
         0.08136    0.00290   -0.00243    0.00011 
AFIX  43 
H23   2    0.988592    0.674323    0.993580    11.00000   -1.20000 
AFIX   0 
C24   1    1.134282    0.681772    0.914043    11.00000    0.06879    0.05242 = 
         0.10464    0.02223   -0.00863   -0.00894 
AFIX  43 
H24   2    1.125006    0.745519    0.901619    11.00000   -1.20000 
AFIX   0 
C25   1    1.229646    0.632734    0.876553    11.00000    0.05694    0.07684 = 
         0.09042    0.01662   -0.00265   -0.01453 
C26   1    1.241414    0.538447    0.896355    11.00000    0.05504    0.07986 = 
         0.09403   -0.01005    0.01271   -0.00331 
AFIX  43 
H26   2    1.305843    0.503985    0.872301    11.00000   -1.20000 
AFIX   0 
C27   1    1.159853    0.494151    0.950984    11.00000    0.05784    0.04634 = 
         0.08139   -0.00459   -0.00176   -0.00226 
AFIX  43 
H27   2    1.168419    0.430176    0.962662    11.00000   -1.20000 
AFIX   0 
C28   1    1.319050    0.680698    0.816502    11.00000    0.07938    0.13503 = 
         0.13905    0.04541    0.01050   -0.02641 
AFIX 137 
H28A  2    1.329232    0.745298    0.833501    11.00000   -1.50000 
H28B  2    1.287375    0.678212    0.758947    11.00000   -1.50000 
H28C  2    1.397482    0.649132    0.818815    11.00000   -1.50000 
AFIX   0 
HKLF 4 
  
REM  cd16724 in P2(1)2(1)2(1) 
REM R1 =  0.0433 for    3747 Fo > 4sig(Fo)  and  0.0539 for all    4445 data 
REM    300 parameters refined using      0 restraints 
  
END 
  
WGHT      0.0680      0.0830 
  
REM Instructions for potential hydrogen bonds 
HTAB C2 O1 
  
REM Highest difference peak  0.211,  deepest hole -0.119,  1-sigma level  0.036 
Q1    1   0.9121  0.4543  1.0170  11.00000  0.05    0.21 
Q2    1   1.0164  0.5157  1.0196  11.00000  0.05    0.21 
Q3    1   0.8430  0.0582  0.8628  11.00000  0.05    0.17 
Q4    1   0.9549  0.2250  0.9352  11.00000  0.05    0.15 
Q5    1   0.9069  0.4021  0.9605  11.00000  0.05    0.15 
Q6    1   0.8624  0.3475  0.8991  11.00000  0.05    0.14 
Q7    1   1.0215  0.5814  0.9594  11.00000  0.05    0.14 
Q8    1   0.8171  0.4081  1.0235  11.00000  0.05    0.14 
Q9    1   0.9521  0.5387  1.0911  11.00000  0.05    0.14 
Q10   1   0.9428  0.2348  1.0092  11.00000  0.05    0.14 
Q11   1   1.0295  0.1979  1.1345  11.00000  0.05    0.14 
Q12   1   0.9923  0.2423  0.9389  11.00000  0.05    0.13 
Q13   1   0.8127  0.4825  0.8192  11.00000  0.05    0.13 
Q14   1   0.8828  0.4354  0.8420  11.00000  0.05    0.13 
Q15   1   0.9553  0.4281  1.0910  11.00000  0.05    0.13 
Q16   1   0.8884  0.2651  1.0837  11.00000  0.05    0.13 
Q17   1   0.9916  0.1885  1.0605  11.00000  0.05    0.13 
Q18   1   0.9065  0.3084  0.9563  11.00000  0.05    0.13 
Q19   1   0.9253  0.3623  0.8025  11.00000  0.05    0.13 
Q20   1   0.9468  0.3750  0.8987  11.00000  0.05    0.13 
;
_shelx_res_checksum              50083
_shelx_hkl_file
; 
   1   0   0   -0.44    0.02 
   2   0   0  345.81   12.70 
   3   0   0    0.01    0.05 
   4   0   0   47.69    1.88 
   5   0   0   -0.03    0.07 
   6   0   0    0.09    0.09 
   7   0   0   -0.05    0.08 
   8   0   0   18.16    0.92 
  -9   0   0    0.16    0.14 
 -10   0   0    9.62    0.71 
 -11   0   0   -0.20    0.23 
 -12   0   0    1.04    0.36 
 -13   0   0   -0.20    0.26 
 -14   0   0    2.58    0.47 
 -14   1   0    0.00    0.32 
 -12   1   0    0.34    0.28 
 -11   1   0    9.30    0.73 
 -10   1   0    2.54    0.42 
  -9   1   0    0.40    0.23 
  -8   1   0    4.11    0.42 
  -7   1   0    2.20    0.31 
  -6   1   0    9.13    0.55 
   5  -1   0    0.93    0.16 
   4  -1   0    5.19    0.32 
   3  -1   0    0.34    0.08 
  -3   1   0   -0.02    0.06 
  -2   1   0  499.69   18.34 
  -1   1   0  121.12    4.49 
   0  -1   0   -0.27    0.01 
   0  -1   0   -0.30    0.01 
   0   1   0   -0.30    0.01 
  -1  -1   0  122.33    4.27 
  -1  -1   0  117.71    4.14 
   2   1   0  478.70   17.56 
   3   1   0    0.20    0.07 
   4   1   0    5.65    0.33 
   5   1   0    0.96    0.15 
   6   1   0    9.57    0.53 
   7   1   0    1.65    0.24 
   8   1   0    3.73    0.36 
   9   1   0    0.47    0.17 
  10   1   0    2.20    0.37 
 -11  -1   0    8.96    0.71 
 -11  -1   0    8.53    0.61 
 -12  -1   0    0.36    0.24 
 -13  -1   0    0.14    0.29 
 -14   2   0    0.00    0.37 
 -13   2   0    0.11    0.33 
 -12   2   0   -0.16    0.24 
 -11   2   0    0.50    0.29 
 -10   2   0    0.93    0.28 
  -9   2   0   -0.10    0.15 
  -8   2   0    0.82    0.22 
  -7   2   0    0.91    0.20 
  -6   2   0    2.55    0.29 
  -5   2   0    1.10    0.19 
  -4   2   0   11.00    0.57 
  -3   2   0  212.83    7.92 
  -2   2   0  116.47    4.37 
  -1   2   0    0.89    0.10 
   0  -2   0  209.55    7.26 
   0  -2   0  201.20    7.04 
   0   2   0  205.83    7.56 
  -1  -2   0    0.96    0.05 
  -1  -2   0    0.95    0.08 
   1   2   0    0.91    0.08 
  -2  -2   0  116.17    3.98 
  -2  -2   0  118.98    3.82 
   2   2   0   97.05    4.10 
  -3  -2   0  217.69    7.58 
   3   2   0  224.39    8.17 
   4   2   0   11.44    0.54 
   5   2   0    1.22    0.17 
   6   2   0    2.58    0.26 
   7   2   0    1.04    0.20 
   8   2   0    0.92    0.21 
  -9  -2   0   -0.06    0.12 
   9   2   0    0.02    0.14 
 -10  -2   0    0.88    0.26 
  10   2   0    0.95    0.27 
 -11  -2   0    0.83    0.25 
  11   2   0    0.52    0.27 
 -12  -2   0   -0.07    0.21 
 -13   3   0    0.17    0.31 
 -12   3   0    0.75    0.32 
 -11   3   0    2.00    0.42 
 -10   3   0    0.33    0.24 
  -9   3   0    2.38    0.38 
  -8   3   0   17.81    0.97 
  -7   3   0   13.72    0.78 
  -6   3   0    3.98    0.37 
  -5   3   0    3.62    0.33 
  -4   3   0   76.58    3.00 
  -3   3   0   45.78    1.83 
  -2   3   0    0.00    0.06 
  -1   3   0  185.58    6.87 
   0  -3   0    0.00    0.04 
   0  -3   0    0.08    0.04 
   0   3   0   -0.04    0.04 
  -1  -3   0  199.48    6.56 
  -1  -3   0  187.86    6.79 
   1   3   0  187.40    7.05 
  -2  -3   0    0.09    0.06 
  -2  -3   0    0.05    0.03 
   2   3   0    0.05    0.04 
  -3  -3   0   45.56    1.76 
  -3  -3   0   46.67    1.63 
   3   3   0   46.73    1.79 
  -4  -3   0   77.52    2.91 
  -4  -3   0   78.91    2.75 
   4   3   0   78.17    2.98 
  -5  -3   0    4.14    0.25 
   5   3   0    4.12    0.29 
  -6  -3   0    3.50    0.26 
   6   3   0    4.60    0.33 
  -7  -3   0   13.64    0.65 
   7   3   0   14.54    0.74 
  -8  -3   0   17.95    0.83 
   8   3   0   19.39    0.94 
  -9  -3   0    2.60    0.29 
   9   3   0    2.45    0.33 
 -10  -3   0    0.15    0.17 
  10   3   0   -0.20    0.19 
 -11  -3   0    1.82    0.31 
  11   3   0    2.10    0.38 
 -12  -3   0    0.86    0.31 
 -13  -3   0    0.55    0.29 
 -14  -3   0    0.10    0.32 
 -13   4   0    1.04    0.42 
 -12   4   0   -0.03    0.27 
 -11   4   0    1.74    0.40 
 -10   4   0    5.77    0.59 
  -9   4   0    0.29    0.24 
  -8   4   0   15.22    0.90 
  -7   4   0   17.42    0.94 
  -6   4   0    8.37    0.55 
  -5   4   0  129.42    4.98 
  -4   4   0   47.14    1.94 
  -3   4   0    8.04    0.45 
  -2   4   0    8.84    0.46 
   1  -4   0  207.23    7.37 
  -1   4   0  208.43    7.70 
   0  -4   0   48.30    1.74 
   0  -4   0   47.01    1.67 
   0   4   0   47.04    1.82 
  -1  -4   0  203.13    7.46 
  -1  -4   0  218.13    7.20 
   1   4   0  209.75    7.76 
  -2  -4   0   10.00    0.37 
  -2  -4   0    9.77    0.45 
   2   4   0    9.39    0.44 
  -3  -4   0    8.85    0.44 
  -3  -4   0    8.88    0.35 
   3   4   0    8.46    0.41 
  -4  -4   0   51.64    1.80 
  -4  -4   0   49.49    1.95 
   4   4   0   50.72    1.98 
  -5  -4   0  132.67    4.80 
  -5  -4   0  129.72    4.54 
   5   4   0  129.97    4.93 
  -6  -4   0    8.26    0.43 
  -6  -4   0    9.64    0.53 
   6   4   0    9.67    0.52 
  -7  -4   0   17.09    0.87 
  -7  -4   0   17.82    0.76 
   7   4   0   18.25    0.88 
  -8  -4   0   14.75    0.68 
  -8  -4   0   14.81    0.78 
   8   4   0   13.15    0.76 
  -9  -4   0    0.69    0.18 
  -9  -4   0    0.29    0.19 
   9   4   0    0.87    0.21 
 -10  -4   0    5.73    0.43 
 -10  -4   0    7.27    0.58 
  10   4   0    5.48    0.51 
 -11  -4   0    1.45    0.34 
 -12  -4   0    0.35    0.27 
 -13  -4   0    1.48    0.39 
 -14  -4   0   -0.19    0.33 
 -13   5   0    0.75    0.40 
 -12   5   0    0.73    0.35 
 -11   5   0    0.40    0.30 
 -10   5   0   -0.16    0.21 
  -9   5   0    1.64    0.34 
  -8   5   0   25.06    1.28 
  -7   5   0    9.71    0.65 
  -6   5   0   22.65    1.12 
  -5   5   0  102.73    4.02 
  -4   5   0    1.72    0.25 
  -3   5   0   12.69    0.65 
  -2   5   0    5.72    0.35 
   1  -5   0   69.65    2.51 
  -1   5   0   67.76    2.64 
   0  -5   0   -0.01    0.05 
   0  -5   0    0.01    0.04 
   0   5   0    0.06    0.06 
  -1  -5   0   69.86    2.56 
  -1  -5   0   70.42    2.43 
   1   5   0   69.53    2.65 
  -2  -5   0    5.97    0.34 
  -2  -5   0    7.13    0.27 
   2   5   0    6.84    0.35 
  -3  -5   0   11.71    0.58 
  -3  -5   0   13.02    0.47 
   3   5   0   12.44    0.56 
  -4  -5   0    2.02    0.14 
  -4  -5   0    2.13    0.23 
   4   5   0    1.90    0.18 
  -5  -5   0  106.64    3.67 
  -5  -5   0  106.02    3.92 
   5   5   0  103.29    4.01 
  -6  -5   0   23.55    0.95 
  -6  -5   0   24.91    1.10 
   6   5   0   24.97    1.09 
  -7  -5   0   11.75    0.54 
  -7  -5   0   10.34    0.63 
   7   5   0   12.62    0.65 
  -8  -5   0   22.36    0.96 
  -8  -5   0   24.19    1.13 
   8   5   0   24.62    1.13 
  -9  -5   0    2.70    0.27 
  -9  -5   0    2.80    0.38 
   9   5   0    2.89    0.35 
 -10  -5   0   -0.08    0.19 
  10   5   0   -0.09    0.22 
 -11  -5   0    0.49    0.28 
 -12  -5   0    0.72    0.32 
 -13  -5   0    0.50    0.32 
 -13   6   0    0.10    0.36 
 -12   6   0    0.16    0.29 
 -11   6   0    1.59    0.41 
 -10   6   0    0.86    0.33 
  -9   6   0    1.69    0.34 
  -8   6   0    3.41    0.44 
  -7   6   0   -0.31    0.15 
  -6   6   0    0.45    0.20 
  -5   6   0   10.50    0.64 
  -4   6   0    2.93    0.31 
  -3   6   0   21.60    0.99 
  -2   6   0    1.02    0.17 
   1  -6   0   38.99    1.44 
  -1   6   0   36.42    1.53 
   0  -6   0   31.96    1.25 
   0  -6   0   32.82    1.19 
   0   6   0   32.71    1.32 
  -1  -6   0   35.49    1.41 
  -1  -6   0   38.14    1.33 
   1   6   0   37.65    1.48 
  -2  -6   0    1.07    0.08 
  -2  -6   0    0.93    0.14 
   2   6   0    1.10    0.14 
  -3  -6   0   24.26    0.87 
  -3  -6   0   24.49    1.02 
   3   6   0   24.26    1.02 
  -4  -6   0    3.30    0.17 
  -4  -6   0    3.15    0.28 
   4   6   0    3.52    0.26 
  -5  -6   0   11.07    0.45 
  -5  -6   0   10.42    0.58 
   5   6   0   10.95    0.56 
  -6  -6   0    0.39    0.10 
  -6  -6   0    0.10    0.12 
   6   6   0    0.40    0.13 
  -7  -6   0    0.17    0.17 
  -7  -6   0    0.01    0.10 
   7   6   0    0.15    0.12 
  -8  -6   0    2.97    0.37 
  -8  -6   0    3.24    0.26 
   8   6   0    3.37    0.35 
  -9  -6   0    1.62    0.31 
   9   6   0    2.00    0.29 
 -10  -6   0    0.81    0.26 
 -11  -6   0    1.29    0.33 
 -12  -6   0    0.42    0.28 
 -13  -6   0    0.22    0.28 
 -13   7   0    1.97    0.52 
 -12   7   0   -0.14    0.32 
 -11   7   0    4.15    0.58 
 -10   7   0    0.31    0.27 
  -9   7   0    0.44    0.27 
  -8   7   0   -0.11    0.19 
  -7   7   0   21.80    1.15 
  -6   7   0    0.14    0.20 
  -5   7   0   25.48    1.22 
  -4   7   0   10.37    0.61 
  -3   7   0    2.91    0.30 
  -2   7   0    8.07    0.47 
   1  -7   0    0.09    0.07 
  -1   7   0    0.05    0.09 
   0  -7   0    0.03    0.07 
   0  -7   0   -0.03    0.06 
   0   7   0    0.03    0.08 
  -1  -7   0    0.12    0.08 
  -1  -7   0    0.04    0.06 
   1   7   0   -0.04    0.07 
  -2  -7   0    8.13    0.33 
  -2  -7   0    7.58    0.41 
   2   7   0    7.89    0.42 
  -3  -7   0    4.09    0.29 
  -3  -7   0    4.34    0.20 
   3   7   0    4.22    0.28 
  -4  -7   0    9.66    0.53 
  -4  -7   0   10.09    0.39 
   4   7   0    9.79    0.52 
  -5  -7   0   23.53    1.07 
  -5  -7   0   24.27    0.89 
   5   7   0   23.92    1.06 
  -6  -7   0   -0.12    0.07 
  -6  -7   0    0.09    0.14 
   6   7   0   -0.08    0.09 
  -7  -7   0   22.10    1.06 
   7   7   0   21.39    1.02 
  -8  -7   0    0.12    0.17 
   8   7   0   -0.04    0.14 
  -9  -7   0    0.47    0.25 
   9   7   0    0.42    0.20 
 -10  -7   0    0.29    0.23 
 -11  -7   0    3.64    0.48 
 -12  -7   0    0.02    0.26 
 -13  -7   0    1.42    0.43 
 -13   8   0    0.22    0.42 
 -12   8   0    0.35    0.36 
 -11   8   0    1.01    0.38 
 -10   8   0   -0.25    0.22 
  -9   8   0    1.08    0.32 
  -8   8   0    2.31    0.40 
  -7   8   0    4.78    0.52 
  -6   8   0    0.29    0.23 
  -5   8   0    4.02    0.41 
  -4   8   0    7.24    0.50 
  -3   8   0   -0.06    0.09 
  -2   8   0    0.67    0.15 
   1  -8   0    0.61    0.13 
  -1   8   0    0.44    0.13 
   0  -8   0    5.26    0.32 
   0  -8   0    5.44    0.29 
   0   8   0    5.75    0.36 
  -1  -8   0    0.62    0.10 
  -1  -8   0    0.52    0.12 
   1   8   0    0.72    0.15 
  -2  -8   0    0.60    0.13 
  -2  -8   0    0.60    0.09 
   2   8   0    0.60    0.14 
  -3  -8   0   -0.06    0.08 
  -3  -8   0   -0.11    0.05 
   3   8   0    0.11    0.09 
  -4  -8   0    8.10    0.34 
  -4  -8   0    8.13    0.47 
   4   8   0    8.20    0.46 
  -5  -8   0    4.72    0.23 
  -5  -8   0    4.21    0.39 
   5   8   0    4.47    0.35 
  -6  -8   0    0.65    0.21 
   6   8   0    0.46    0.16 
  -7  -8   0    3.87    0.41 
   7   8   0    4.54    0.39 
  -8  -8   0    2.11    0.33 
   8   8   0    2.37    0.30 
  -9  -8   0    1.08    0.28 
 -10  -8   0    0.16    0.23 
 -11  -8   0    1.26    0.33 
 -12  -8   0    0.18    0.30 
 -13  -8   0    0.67    0.34 
 -12   9   0    0.68    0.39 
 -11   9   0    0.58    0.35 
 -10   9   0   -0.04    0.23 
  -9   9   0   -0.30    0.18 
  -8   9   0    0.80    0.31 
  -7   9   0    3.13    0.44 
  -6   9   0   33.48    1.58 
  -5   9   0   25.92    1.27 
  -4   9   0   52.14    2.20 
  -3   9   0    0.75    0.19 
  -2   9   0   29.07    1.29 
   1  -9   0    2.01    0.22 
  -1   9   0    1.94    0.25 
   0  -9   0    0.07    0.09 
   0   9   0   -0.06    0.10 
  -1  -9   0    1.60    0.21 
  -1  -9   0    2.14    0.17 
   1   9   0    1.82    0.22 
  -2  -9   0   28.84    1.08 
  -2  -9   0   28.24    1.19 
   2   9   0   30.03    1.25 
  -3  -9   0    0.41    0.14 
  -3  -9   0    0.68    0.10 
   3   9   0    1.10    0.19 
  -4  -9   0   55.76    2.08 
   4   9   0   49.14    2.10 
  -5  -9   0   26.14    1.15 
   5   9   0   23.98    1.13 
  -6  -9   0   39.66    1.64 
   6   9   0   36.72    1.63 
  -7  -9   0    2.94    0.39 
   7   9   0    3.61    0.35 
  -8  -9   0    1.45    0.31 
   8   9   0    1.08    0.28 
  -9  -9   0   -0.21    0.18 
 -10  -9   0    0.09    0.20 
 -11  -9   0    0.42    0.29 
 -12  -9   0    0.24    0.28 
 -12  10   0    0.61    0.43 
 -11  10   0   -0.13    0.33 
 -10  10   0    0.05    0.29 
  -9  10   0    0.06    0.27 
  -8  10   0    0.07    0.23 
  -7  10   0    0.93    0.30 
  -6  10   0   11.99    0.79 
  -5  10   0    0.38    0.25 
  -4  10   0   14.53    0.83 
  -3  10   0    1.87    0.31 
  -2  10   0    0.57    0.21 
   1 -10   0    0.03    0.09 
  -1  10   0    0.09    0.12 
   0 -10   0    0.29    0.12 
   0  10   0    0.42    0.15 
  -1 -10   0   -0.01    0.08 
  -1 -10   0   -0.04    0.08 
   1  10   0    0.06    0.11 
  -2 -10   0    0.77    0.19 
  -2 -10   0    0.82    0.12 
   2  10   0    0.97    0.18 
  -3 -10   0    1.85    0.26 
   3  10   0    2.21    0.26 
  -4 -10   0   14.81    0.77 
   4  10   0   15.65    0.77 
  -5 -10   0    0.23    0.18 
   5  10   0    0.50    0.17 
  -6 -10   0   12.65    0.73 
   6  10   0   12.66    0.70 
  -7 -10   0    1.19    0.27 
   7  10   0    0.61    0.23 
  -8 -10   0   -0.15    0.18 
  -9 -10   0   -0.08    0.19 
 -10 -10   0    0.07    0.21 
 -11 -10   0    0.21    0.26 
 -12 -10   0    1.20    0.39 
 -11  11   0    0.24    0.37 
 -10  11   0    0.24    0.34 
  -9  11   0    0.71    0.33 
  -8  11   0    0.70    0.32 
  -7  11   0    3.12    0.47 
  -6  11   0    3.44    0.47 
  -5  11   0   31.90    1.53 
  -4  11   0    0.06    0.22 
  -3  11   0    0.30    0.20 
  -2  11   0    0.15    0.18 
   1 -11   0    5.77    0.41 
  -1  11   0    6.09    0.46 
   0 -11   0    0.12    0.13 
   0  11   0   -0.20    0.15 
  -1 -11   0    5.70    0.40 
   1  11   0    5.12    0.39 
  -2 -11   0   -0.09    0.12 
   2  11   0    0.16    0.13 
  -3 -11   0    0.02    0.15 
   3  11   0    0.19    0.13 
  -4 -11   0   -0.06    0.17 
   4  11   0    0.09    0.13 
  -5 -11   0   30.47    1.29 
   5  11   0   25.46    1.26 
  -6 -11   0    3.87    0.42 
   6  11   0    4.32    0.41 
  -7 -11   0    4.10    0.44 
   7  11   0    3.13    0.39 
  -8 -11   0    0.42    0.25 
  -9 -11   0    1.27    0.32 
 -10 -11   0    0.19    0.26 
 -11 -11   0    0.30    0.29 
 -11  12   0    0.23    0.41 
 -10  12   0    0.26    0.36 
  -9  12   0    0.49    0.34 
  -8  12   0    0.19    0.28 
  -7  12   0    1.17    0.35 
  -6  12   0    1.37    0.35 
  -5  12   0    2.32    0.39 
  -4  12   0    3.49    0.43 
  -3  12   0    0.63    0.23 
  -2  12   0    1.53    0.28 
   1 -12   0    4.16    0.37 
  -1  12   0    4.64    0.42 
   0 -12   0    2.66    0.31 
   0  12   0    3.13    0.35 
  -1 -12   0    4.65    0.39 
   1  12   0    4.68    0.41 
  -2 -12   0    1.97    0.29 
   2  12   0    1.91    0.29 
  -3 -12   0    1.00    0.23 
   3  12   0    1.03    0.25 
  -4 -12   0    2.73    0.35 
   4  12   0    3.31    0.36 
  -5 -12   0    2.42    0.34 
   5  12   0    2.87    0.34 
  -6 -12   0    1.10    0.28 
   6  12   0    1.16    0.28 
  -7 -12   0    0.66    0.25 
  -8 -12   0    0.29    0.22 
  -9 -12   0    1.12    0.34 
 -10 -12   0    0.53    0.31 
 -11 -12   0    0.19    0.31 
 -10  13   0    0.31    0.40 
  -9  13   0   -0.37    0.26 
  -8  13   0    0.69    0.33 
  -7  13   0    1.01    0.36 
  -6  13   0    0.40    0.28 
  -5  13   0    1.74    0.35 
  -4  13   0    1.74    0.35 
  -3  13   0    0.74    0.27 
  -2  13   0    0.66    0.26 
   1 -13   0    1.09    0.24 
  -1  13   0    1.09    0.26 
   0 -13   0    0.03    0.16 
   0  13   0    0.10    0.19 
  -1 -13   0    1.65    0.27 
   1  13   0    1.76    0.30 
  -2 -13   0    0.71    0.22 
   2  13   0    0.81    0.24 
  -3 -13   0    0.77    0.23 
   3  13   0    0.77    0.23 
  -4 -13   0    1.19    0.27 
   4  13   0    1.75    0.30 
  -5 -13   0    2.53    0.36 
   5  13   0    2.77    0.35 
  -6 -13   0    0.67    0.26 
  -7 -13   0    1.12    0.30 
  -8 -13   0    0.14    0.25 
  -9 -13   0    0.41    0.29 
 -10 -13   0    0.09    0.31 
  -9  14   0   -0.08    0.34 
  -8  14   0    0.07    0.35 
  -7  14   0   -0.04    0.26 
  -6  14   0   -0.09    0.24 
  -5  14   0    1.44    0.35 
  -4  14   0    0.31    0.25 
  -3  14   0    2.52    0.39 
  -2  14   0   -0.13    0.18 
  -1  14   0    3.01    0.39 
   0 -14   0    4.53    0.42 
   0  14   0    5.22    0.48 
  -1 -14   0    3.61    0.38 
   1  14   0    4.35    0.44 
  -2 -14   0    0.30    0.19 
   2  14   0    0.10    0.20 
  -3 -14   0    3.82    0.41 
   3  14   0    3.24    0.41 
  -4 -14   0    0.53    0.24 
   4  14   0    0.36    0.21 
  -5 -14   0    1.09    0.28 
   5  14   0    1.14    0.29 
  -6 -14   0   -0.07    0.22 
  -7 -14   0    0.16    0.26 
  -8 -14   0   -0.17    0.25 
  -9 -14   0    0.23    0.31 
  -8  15   0   -0.20    0.32 
  -7  15   0    0.56    0.35 
  -6  15   0    1.71    0.42 
  -5  15   0    0.70    0.31 
  -4  15   0    1.51    0.37 
  -3  15   0    1.80    0.35 
  -2  15   0    0.01    0.23 
  -1  15   0    0.98    0.28 
   0 -15   0    0.01    0.17 
   0  15   0   -0.04    0.21 
  -1 -15   0    1.40    0.30 
   1  15   0    1.55    0.32 
  -2 -15   0   -0.03    0.19 
   2  15   0   -0.01    0.20 
  -3 -15   0    1.35    0.31 
   3  15   0    1.28    0.31 
  -4 -15   0    1.29    0.33 
   4  15   0    1.45    0.30 
  -5 -15   0    0.34    0.24 
  -6 -15   0    2.12    0.40 
  -7 -15   0    0.32    0.31 
  -8 -15   0    0.15    0.30 
  -7  16   0   -0.21    0.28 
  -6  16   0   -0.25    0.30 
  -5  16   0   -0.13    0.24 
  -4  16   0    1.30    0.39 
  -3  16   0    0.75    0.32 
  -2  16   0    0.40    0.27 
  -1  16   0    8.45    0.67 
   0 -16   0    2.71    0.40 
   0  16   0    2.86    0.43 
  -1 -16   0    8.49    0.62 
   1  16   0    9.88    0.69 
  -2 -16   0    0.11    0.20 
   2  16   0    0.04    0.23 
  -3 -16   0    0.69    0.26 
   3  16   0    0.94    0.31 
  -4 -16   0    1.25    0.33 
   4  16   0    0.98    0.33 
  -5 -16   0   -0.02    0.26 
  -6 -16   0   -0.08    0.23 
  -7 -16   0   -0.12    0.25 
  -6  17   0    0.45    0.39 
  -5  17   0    0.00    0.32 
  -4  17   0    0.39    0.33 
  -3  17   0    0.07    0.29 
  -2  17   0    0.21    0.29 
  -1  17   0   -0.19    0.24 
   0  17   0    0.18    0.24 
  -1 -17   0    0.19    0.25 
   1  17   0    0.36    0.27 
  -2 -17   0    0.40    0.27 
   2  17   0    0.36    0.28 
  -3 -17   0    0.57    0.30 
   3  17   0    0.14    0.28 
  -4 -17   0    0.05    0.25 
  -5 -17   0    0.21    0.29 
  -6 -17   0    0.69    0.37 
  -4  18   0    0.11    0.33 
  -3  18   0    0.45    0.34 
  -2  18   0   -0.08    0.30 
  -1  18   0    5.05    0.59 
   0  18   0    0.35    0.30 
  -1 -18   0    4.82    0.54 
   1  18   0    4.12    0.53 
  -2 -18   0    0.11    0.27 
   2  18   0    0.07    0.28 
  -3 -18   0    0.88    0.34 
  -4 -18   0    0.09    0.28 
  -4 -18   1   -0.04    0.28 
  -3 -18   1    0.61    0.31 
  -2 -18   1    0.22    0.30 
   1  18  -1    0.07    0.28 
  -1 -18   1    0.10    0.27 
   0  18  -1    0.01    0.27 
  -1  18  -1   -0.03    0.28 
  -2  18  -1    0.61    0.34 
  -3  18  -1    0.59    0.36 
  -4  18  -1   -0.18    0.34 
  -6 -17   1    0.02    0.29 
  -5 -17   1   -0.18    0.25 
  -4 -17   1    0.20    0.28 
  -3 -17   1    0.35    0.26 
   2  17  -1    1.42    0.36 
  -2 -17   1    0.75    0.28 
   1  17  -1    0.26    0.26 
  -1 -17   1    0.12    0.24 
   0  17  -1    0.77    0.29 
   0 -17   1    0.25    0.24 
  -1  17  -1    0.50    0.30 
  -2  17  -1    0.95    0.32 
  -3  17  -1   -0.08    0.27 
  -4  17  -1   -0.25    0.28 
  -5  17  -1   -0.13    0.32 
  -6  17  -1   -0.27    0.33 
  -7 -16   1    0.51    0.33 
  -6 -16   1   -0.05    0.25 
  -5 -16   1   -0.09    0.25 
  -4 -16   1    0.93    0.29 
   3  16  -1    2.51    0.40 
  -3 -16   1    2.24    0.38 
   2  16  -1    1.00    0.29 
  -2 -16   1    0.47    0.23 
   1  16  -1    0.66    0.26 
  -1 -16   1    0.61    0.27 
   0  16  -1    1.13    0.32 
   0 -16   1    1.64    0.34 
  -1  16  -1    0.85    0.29 
  -2  16  -1    0.59    0.30 
  -3  16  -1    2.85    0.46 
  -4  16  -1    0.34    0.29 
  -5  16  -1    0.19    0.33 
  -6  16  -1   -0.28    0.27 
  -7  16  -1    0.03    0.33 
  -8 -15   1    0.46    0.33 
  -7 -15   1    0.19    0.25 
  -5 -15   1    0.17    0.22 
  -4 -15   1    0.06    0.20 
   3  15  -1    0.35    0.22 
  -3 -15   1    0.62    0.24 
   2  15  -1    3.86    0.44 
  -2 -15   1    4.70    0.45 
   1  15  -1    3.80    0.43 
  -1 -15   1    4.33    0.44 
   0  15  -1    9.31    0.67 
   0 -15   1    9.72    0.61 
  -1  15  -1    3.38    0.43 
  -2  15  -1    4.00    0.48 
  -3  15  -1    0.43    0.28 
  -4  15  -1   -0.12    0.25 
  -5  15  -1    0.06    0.28 
  -6  15  -1    0.20    0.33 
  -7  15  -1   -0.06    0.31 
  -8  15  -1    0.22    0.37 
  -9 -14   1   -0.21    0.27 
  -8 -14   1    0.32    0.29 
  -7 -14   1    1.12    0.32 
  -6 -14   1   -0.21    0.19 
  -5 -14   1    0.63    0.25 
   4  14  -1    1.04    0.27 
  -4 -14   1    0.64    0.23 
   3  14  -1    0.19    0.20 
  -3 -14   1   -0.02    0.18 
   2  14  -1    2.58    0.36 
  -2 -14   1    3.10    0.37 
   1  14  -1    1.48    0.30 
  -1 -14   1    1.80    0.30 
   0  14  -1    1.39    0.30 
   0 -14   1    1.62    0.29 
  -1  14  -1    1.28    0.31 
   1 -14   1    1.24    0.26 
  -2  14  -1    2.68    0.40 
  -3  14  -1    0.51    0.26 
  -4  14  -1    1.00    0.32 
  -5  14  -1    0.56    0.28 
  -6  14  -1    0.07    0.25 
  -7  14  -1    0.34    0.30 
  -8  14  -1    0.40    0.36 
  -9  14  -1    0.14    0.36 
 -10 -13   1    1.00    0.35 
  -9 -13   1    0.18    0.26 
  -8 -13   1    1.83    0.38 
  -7 -13   1    0.34    0.26 
  -6 -13   1   -0.11    0.19 
   5  13  -1    2.08    0.33 
  -5 -13   1    1.93    0.33 
   4  13  -1    3.22    0.36 
  -4 -13   1    3.69    0.39 
   3  13  -1    1.34    0.27 
  -3 -13   1    0.67    0.21 
   2  13  -1    7.36    0.52 
  -2 -13   1    7.71    0.52 
   1  13  -1    5.53    0.47 
  -1 -13   1    5.41    0.41 
   0  13  -1   13.94    0.77 
   0 -13   1   12.80    0.71 
  -1  13  -1    5.85    0.49 
   1 -13   1    5.46    0.44 
  -2  13  -1    6.32    0.54 
  -3  13  -1    1.12    0.28 
  -4  13  -1    3.55    0.45 
  -5  13  -1    1.46    0.33 
  -6  13  -1   -0.18    0.24 
  -7  13  -1    0.07    0.25 
  -8  13  -1    1.82    0.46 
  -9  13  -1   -0.23    0.33 
 -10  13  -1    0.57    0.43 
 -11 -12   1    0.43    0.35 
 -10 -12   1   -0.11    0.26 
  -9 -12   1    0.05    0.25 
  -8 -12   1    0.13    0.23 
  -7 -12   1    1.50    0.31 
  -6 -12   1    6.38    0.54 
   5  12  -1    1.13    0.25 
  -5 -12   1    0.95    0.25 
   4  12  -1    2.73    0.32 
  -4 -12   1    2.54    0.33 
   3  12  -1    1.80    0.28 
  -3 -12   1    1.80    0.28 
   2  12  -1    1.22    0.24 
  -2 -12   1    0.99    0.22 
   1  12  -1    5.96    0.45 
  -1 -12   1    5.17    0.41 
   0  12  -1    5.95    0.46 
   0 -12   1    5.33    0.39 
  -1  12  -1    5.91    0.48 
   1 -12   1    6.09    0.43 
  -2  12  -1    0.94    0.25 
  -3  12  -1    1.30    0.29 
  -4  12  -1    3.38    0.44 
  -5  12  -1    1.25    0.31 
  -6  12  -1    5.49    0.58 
  -7  12  -1    1.49    0.38 
  -8  12  -1   -0.19    0.27 
  -9  12  -1    0.31    0.38 
 -10  12  -1    0.11    0.37 
 -11  12  -1    0.43    0.43 
 -11 -11   1   -0.05    0.28 
 -10 -11   1    0.21    0.28 
  -9 -11   1    0.69    0.30 
  -8 -11   1    1.43    0.31 
  -7 -11   1    3.42    0.42 
   6  11  -1    0.63    0.18 
  -6 -11   1    1.49    0.28 
   5  11  -1    3.29    0.33 
  -5 -11   1    3.60    0.39 
   4  11  -1    4.89    0.36 
  -4 -11   1    4.33    0.41 
   3  11  -1    0.02    0.11 
  -3 -11   1   -0.15    0.13 
   2  11  -1    9.25    0.53 
  -2 -11   1    9.06    0.44 
  -2 -11   1    8.06    0.51 
   1  11  -1    2.96    0.30 
  -1 -11   1    3.27    0.25 
  -1 -11   1    2.59    0.29 
   0  11  -1    9.41    0.58 
   0 -11   1    9.97    0.54 
   0 -11   1   10.01    0.51 
  -1  11  -1    3.15    0.34 
   1 -11   1    2.81    0.29 
  -2  11  -1   10.34    0.65 
  -3  11  -1    0.00    0.17 
  -4  11  -1    4.21    0.46 
  -5  11  -1    3.09    0.42 
  -6  11  -1    0.67    0.28 
  -7  11  -1    2.90    0.46 
  -8  11  -1    1.22    0.37 
  -9  11  -1    0.87    0.36 
 -10  11  -1    0.59    0.37 
 -11  11  -1    0.08    0.38 
 -12 -10   1   -0.17    0.31 
 -11 -10   1    0.47    0.32 
 -10 -10   1    0.03    0.23 
  -9 -10   1    1.02    0.29 
  -8 -10   1    0.16    0.22 
  -7 -10   1    0.45    0.22 
   5  10  -1   15.23    0.77 
  -5 -10   1   14.74    0.80 
   4  10  -1    5.93    0.41 
  -4 -10   1    6.38    0.45 
   3  10  -1    0.22    0.12 
  -3 -10   1    0.17    0.14 
  -3 -10   1    0.65    0.11 
   2  10  -1   13.37    0.70 
  -2 -10   1   14.64    0.60 
  -2 -10   1   14.20    0.70 
   1  10  -1    2.31    0.26 
  -1 -10   1    2.54    0.21 
  -1 -10   1    2.66    0.26 
   0  10  -1    3.89    0.33 
   0 -10   1    3.58    0.26 
   0 -10   1    3.08    0.28 
  -1  10  -1    2.05    0.26 
   1 -10   1    2.14    0.23 
  -2  10  -1   13.61    0.74 
  -3  10  -1    0.54    0.21 
  -4  10  -1    5.50    0.49 
  -5  10  -1   14.94    0.89 
  -6  10  -1    8.10    0.63 
  -7  10  -1    0.36    0.25 
  -8  10  -1    0.22    0.26 
  -9  10  -1    1.46    0.39 
 -10  10  -1    0.15    0.30 
 -11  10  -1    0.54    0.39 
 -12  10  -1    0.04    0.36 
 -12  -9   1    0.16    0.28 
 -11  -9   1    0.78    0.31 
 -10  -9   1    0.31    0.26 
  -9  -9   1    1.34    0.32 
  -8  -9   1    1.20    0.29 
   7   9  -1    1.20    0.21 
  -7  -9   1    1.06    0.27 
   6   9  -1    0.03    0.07 
  -6  -9   1    0.40    0.19 
   5   9  -1    1.80    0.22 
  -5  -9   1    2.21    0.32 
   4   9  -1    0.63    0.15 
  -4  -9   1    0.82    0.11 
  -4  -9   1    0.68    0.20 
   3   9  -1   12.51    0.62 
  -3  -9   1   12.22    0.51 
  -3  -9   1   12.12    0.62 
   2   9  -1    1.06    0.17 
  -2  -9   1    0.82    0.16 
  -2  -9   1    0.96    0.12 
   1   9  -1    3.42    0.27 
  -1  -9   1    3.41    0.26 
  -1  -9   1    3.39    0.22 
   0   9  -1    2.96    0.28 
   0  -9   1    3.10    0.23 
   0  -9   1    2.93    0.25 
  -1   9  -1    3.97    0.31 
   1  -9   1    3.25    0.27 
   1  -9   1    3.14    0.26 
  -2   9  -1    1.01    0.21 
  -3   9  -1   11.15    0.65 
  -4   9  -1    0.92    0.26 
  -5   9  -1    2.01    0.34 
  -6   9  -1    0.85    0.28 
  -7   9  -1    1.55    0.37 
  -8   9  -1    1.11    0.33 
  -9   9  -1    1.54    0.36 
 -10   9  -1    0.29    0.29 
 -11   9  -1    0.59    0.37 
 -12   9  -1    0.23    0.36 
 -13  -8   1    0.24    0.32 
 -12  -8   1    0.05    0.27 
 -11  -8   1   -0.02    0.24 
 -10  -8   1    2.41    0.40 
  -9  -8   1    1.52    0.33 
  -8  -8   1    0.51    0.24 
   7   8  -1    3.76    0.34 
  -7  -8   1    3.32    0.40 
  -6  -8   1   11.05    0.66 
  -6  -8   1   12.14    0.50 
  -5  -8   1   11.80    0.67 
  -5  -8   1   11.92    0.49 
   4   8  -1   15.45    0.72 
  -4  -8   1   15.15    0.60 
  -4  -8   1   15.78    0.76 
   3   8  -1    4.97    0.32 
  -3  -8   1    4.76    0.24 
  -3  -8   1    4.15    0.31 
   2   8  -1    8.44    0.45 
  -2  -8   1    8.77    0.38 
  -2  -8   1    8.48    0.45 
   1   8  -1   30.76    1.27 
  -1  -8   1   29.80    1.14 
  -1  -8   1   31.42    1.23 
   0   8  -1   11.42    0.60 
   0  -8   1   12.75    0.58 
   0  -8   1   12.84    0.55 
  -1   8  -1   30.30    1.29 
   1  -8   1   29.87    1.17 
   1  -8   1   30.08    1.20 
  -2   8  -1    8.38    0.50 
  -3   8  -1    4.80    0.38 
  -4   8  -1   13.79    0.76 
  -5   8  -1   11.29    0.71 
  -6   8  -1   12.11    0.77 
  -7   8  -1    3.87    0.48 
  -8   8  -1    0.72    0.29 
  -9   8  -1    1.94    0.40 
 -10   8  -1    2.73    0.51 
 -11   8  -1    0.55    0.34 
 -12   8  -1   -0.12    0.33 
 -13   8  -1    0.40    0.44 
 -13  -7   1    0.22    0.35 
 -12  -7   1   -0.01    0.25 
 -11  -7   1    0.37    0.25 
 -10  -7   1    0.94    0.28 
  -9  -7   1    2.79    0.39 
   8   7  -1    6.55    0.46 
  -8  -7   1    7.40    0.55 
   7   7  -1    8.47    0.52 
  -7  -7   1    9.99    0.60 
  -7  -7   1    8.58    0.43 
   6   7  -1    3.87    0.30 
  -6  -7   1    3.39    0.37 
  -6  -7   1    3.84    0.24 
  -5  -7   1   16.68    0.84 
  -5  -7   1   17.64    0.68 
  -4  -7   1    1.86    0.13 
  -4  -7   1    2.22    0.25 
   3   7  -1   12.73    0.59 
  -3  -7   1   11.33    0.59 
  -3  -7   1   12.60    0.49 
   2   7  -1    6.38    0.35 
  -2  -7   1    6.43    0.29 
  -2  -7   1    6.07    0.35 
   1   7  -1   98.55    3.72 
  -1  -7   1   98.14    3.42 
  -1  -7   1   97.67    3.58 
   0   7  -1    4.67    0.31 
   0  -7   1    4.56    0.26 
   0  -7   1    4.78    0.28 
  -1   7  -1   99.51    3.80 
   1  -7   1  100.21    3.61 
   1  -7   1   98.04    3.50 
  -2   7  -1    6.50    0.42 
  -3   7  -1   12.57    0.68 
  -4   7  -1    1.79    0.27 
  -5   7  -1   16.12    0.88 
  -6   7  -1    3.29    0.41 
  -7   7  -1    7.73    0.61 
  -8   7  -1    6.39    0.60 
  -9   7  -1    1.88    0.38 
 -10   7  -1    1.05    0.35 
 -11   7  -1    0.24    0.28 
 -12   7  -1    0.34    0.36 
 -13   7  -1    0.48    0.39 
 -13  -6   1    1.11    0.39 
 -12  -6   1    1.68    0.37 
 -11  -6   1    0.04    0.22 
 -10  -6   1    0.47    0.24 
  -9  -6   1    2.18    0.36 
   8   6  -1   11.97    0.68 
  -8  -6   1   13.72    0.76 
  -8  -6   1   12.13    0.58 
   7   6  -1    8.12    0.51 
  -7  -6   1    8.22    0.55 
  -7  -6   1    9.27    0.45 
   6   6  -1   21.17    0.96 
  -6  -6   1   21.30    0.84 
  -6  -6   1   21.38    1.00 
   5   6  -1    1.63    0.19 
  -5  -6   1    2.58    0.29 
  -5  -6   1    2.28    0.17 
  -4  -6   1    1.92    0.24 
  -4  -6   1    2.01    0.14 
  -3  -6   1   41.84    1.45 
  -3  -6   1   39.29    1.60 
   2   6  -1   13.26    0.59 
  -2  -6   1   12.37    0.59 
  -2  -6   1   13.78    0.51 
   1   6  -1    5.53    0.30 
  -1  -6   1    5.18    0.29 
  -1  -6   1    5.52    0.25 
   0   6  -1    3.79    0.25 
   0  -6   1    4.50    0.23 
   0  -6   1    3.84    0.23 
  -1   6  -1    4.78    0.31 
   1  -6   1    5.17    0.28 
   1  -6   1    5.35    0.28 
  -2   6  -1   13.49    0.65 
   2  -6   1   12.35    0.57 
  -3   6  -1   38.97    1.65 
  -4   6  -1    2.06    0.28 
  -5   6  -1    2.17    0.30 
  -6   6  -1   20.46    1.06 
  -7   6  -1    8.11    0.61 
  -8   6  -1   12.63    0.82 
  -9   6  -1    1.56    0.36 
 -10   6  -1    0.65    0.31 
 -11   6  -1    0.83    0.35 
 -12   6  -1    1.46    0.41 
 -13   6  -1    0.29    0.38 
 -13  -5   1    0.47    0.34 
 -12  -5   1    1.55    0.38 
 -11  -5   1    1.31    0.32 
 -10  -5   1    9.01    0.54 
 -10  -5   1    9.36    0.65 
   9   5  -1    1.61    0.25 
  -9  -5   1    1.09    0.19 
  -9  -5   1    2.46    0.36 
   8   5  -1   11.14    0.66 
  -8  -5   1   13.26    0.74 
  -8  -5   1   12.46    0.59 
   7   5  -1    1.19    0.20 
  -7  -5   1    0.77    0.22 
  -7  -5   1    0.82    0.15 
   6   5  -1   37.48    1.56 
  -6  -5   1   37.88    1.58 
  -6  -5   1   37.96    1.41 
   5   5  -1   12.32    0.58 
  -5  -5   1   11.90    0.52 
  -5  -5   1   11.80    0.63 
   4   5  -1   87.77    3.63 
  -4  -5   1   99.55    3.59 
  -4  -5   1  102.10    3.36 
  -3  -5   1    3.67    0.18 
  -3  -5   1    3.38    0.27 
  -2  -5   1   18.40    0.67 
  -2  -5   1   18.07    0.77 
   1   5  -1    6.75    0.34 
  -1  -5   1    6.91    0.34 
  -1  -5   1    7.33    0.30 
   0   5  -1  119.28    4.48 
   0  -5   1  118.64    4.15 
   0  -5   1  121.66    4.29 
  -1   5  -1    7.11    0.38 
   1  -5   1    7.08    0.32 
   1  -5   1    6.51    0.33 
  -2   5  -1   17.58    0.80 
   2  -5   1   17.03    0.71 
  -3   5  -1    2.93    0.28 
  -4   5  -1   95.21    3.73 
  -5   5  -1   11.70    0.68 
  -6   5  -1   37.00    1.67 
  -7   5  -1    0.63    0.23 
  -8   5  -1   12.92    0.82 
  -9   5  -1    1.80    0.36 
 -10   5  -1    9.03    0.72 
 -11   5  -1    1.02    0.37 
 -12   5  -1    1.02    0.39 
 -13   5  -1   -0.20    0.33 
 -14  -4   1    0.15    0.33 
 -13  -4   1   -0.09    0.27 
 -12  -4   1    0.22    0.25 
 -11  -4   1    0.54    0.23 
 -11  -4   1    0.90    0.29 
 -10  -4   1    1.48    0.31 
 -10  -4   1    1.33    0.24 
   9   4  -1    0.06    0.09 
  -9  -4   1    0.20    0.15 
  -8  -4   1   17.11    0.78 
   7   4  -1    3.24    0.29 
   6   4  -1  147.36    6.10 
  -6  -4   1  177.65    5.67 
   5   4  -1   22.44    0.98 
  -5  -4   1   23.48    0.90 
  -5  -4   1   23.57    1.02 
   4   4  -1   43.52    1.70 
  -4  -4   1   44.26    1.72 
  -4  -4   1   43.07    1.57 
   3   4  -1    6.16    0.31 
  -3  -4   1    6.20    0.28 
  -3  -4   1    6.57    0.36 
  -2  -4   1   77.21    2.91 
  -2  -4   1   81.75    2.75 
   1   4  -1    8.48    0.39 
  -1  -4   1    8.64    0.40 
  -1  -4   1    9.35    0.35 
   0   4  -1  157.11    5.81 
   0  -4   1  156.11    5.38 
   0  -4   1  156.93    5.57 
  -1   4  -1   10.19    0.47 
   1  -4   1    9.29    0.41 
   1  -4   1    9.30    0.40 
  -2   4  -1   77.96    2.97 
   2  -4   1   76.21    2.73 
  -3   4  -1    5.59    0.37 
  -4   4  -1   39.84    1.68 
  -5   4  -1   23.54    1.12 
  -6   4  -1  188.39    7.19 
  -7   4  -1    7.69    0.56 
  -8   4  -1   18.83    1.05 
  -9   4  -1    0.27    0.23 
 -10   4  -1    1.96    0.42 
 -11   4  -1    0.62    0.32 
 -12   4  -1   -0.32    0.26 
 -13   4  -1   -0.59    0.25 
 -14   4  -1   -0.15    0.38 
 -14  -3   1    0.45    0.36 
 -13  -3   1    1.25    0.39 
 -12  -3   1   -0.01    0.21 
 -11  -3   1    0.85    0.26 
  10   3  -1    5.11    0.46 
 -10  -3   1    5.61    0.45 
   9   3  -1    5.94    0.44 
  -9  -3   1    6.09    0.42 
  -8  -3   1    7.10    0.43 
  -6  -3   1   17.33    0.74 
   5   3  -1   69.05    3.00 
  -5  -3   1   88.65    2.82 
   4   3  -1  124.20    4.59 
  -4  -3   1  121.07    4.26 
   3   3  -1    6.01    0.30 
  -3  -3   1    6.34    0.28 
  -3  -3   1    6.73    0.35 
   2   3  -1   67.61    2.50 
  -2  -3   1   67.48    2.32 
  -2  -3   1   65.42    2.46 
  -1  -3   1  232.34    8.40 
  -1  -3   1  242.07    8.10 
   0   3  -1  248.32    9.26 
   0  -3   1  253.99    8.60 
   0  -3   1  252.33    8.88 
  -1   3  -1  235.74    8.74 
   1  -3   1  235.40    8.11 
   1  -3   1  238.55    8.35 
  -2   3  -1   61.46    2.40 
   2  -3   1   62.25    2.20 
  -3   3  -1    6.11    0.38 
  -4   3  -1  123.48    4.73 
  -5   3  -1   91.26    3.60 
  -6   3  -1   18.03    0.93 
  -7   3  -1    9.44    0.63 
  -8   3  -1    8.10    0.62 
  -9   3  -1    5.78    0.57 
 -10   3  -1    5.68    0.59 
 -11   3  -1    0.57    0.30 
 -12   3  -1   -0.16    0.26 
 -13   3  -1    1.50    0.44 
 -14   3  -1    0.01    0.40 
 -13  -2   1    0.38    0.27 
 -12  -2   1    0.06    0.23 
 -11  -2   1    0.36    0.22 
  10   2  -1    3.81    0.41 
 -10  -2   1    4.91    0.43 
   9   2  -1    6.41    0.47 
  -9  -2   1    6.45    0.45 
   8   2  -1    0.93    0.20 
  -8  -2   1    1.58    0.23 
   7   2  -1    4.46    0.35 
  -7  -2   1    5.09    0.34 
  -6  -2   1   10.06    0.50 
  -5  -2   1   16.25    0.69 
   4   2  -1   82.80    3.56 
  -4  -2   1  107.19    3.34 
   3   2  -1  338.92   11.92 
  -3  -2   1  309.21   11.08 
   2   2  -1  105.78    3.85 
  -2  -2   1  102.11    3.58 
   1   2  -1   78.08    2.94 
  -1  -2   1   80.14    2.86 
  -1  -2   1   80.15    2.74 
   0   2  -1    5.57    0.27 
   0  -2   1    6.04    0.25 
   0  -2   1    6.07    0.24 
  -1   2  -1   78.76    2.92 
   1  -2   1   76.44    2.69 
  -2   2  -1   98.18    3.66 
   2  -2   1   95.19    3.37 
  -3   2  -1  302.98   11.22 
  -4   2  -1  107.86    4.14 
  -5   2  -1   15.00    0.77 
  -6   2  -1    8.89    0.56 
  -7   2  -1    5.77    0.49 
  -8   2  -1    1.10    0.25 
  -9   2  -1    6.36    0.60 
 -10   2  -1    5.13    0.58 
 -11   2  -1    1.19    0.39 
 -12   2  -1    0.54    0.32 
 -13   2  -1   -0.21    0.28 
 -14  -1   1   -0.32    0.30 
 -13  -1   1    0.05    0.25 
 -12  -1   1    0.46    0.26 
 -11  -1   1    1.27    0.34 
 -11  -1   1    1.99    0.35 
 -10  -1   1    2.01    0.32 
 -10  -1   1    0.94    0.30 
  -9  -1   1    3.71    0.40 
  -9  -1   1    3.06    0.34 
   8   1  -1    4.73    0.37 
   7   1  -1    0.00    0.10 
   6   1  -1    3.95    0.30 
   5   1  -1   21.23    0.92 
   3   1  -1   62.33    2.36 
   2   1  -1  428.45   14.82 
  -2  -1   1  378.09   13.75 
   1   1  -1  341.43   12.70 
  -1  -1   1  333.63   11.54 
   0  -1   1  238.50    8.17 
   1  -1   1  316.14   11.63 
   1  -1   1  315.23   10.81 
   2  -1   1  378.64   13.91 
   3  -1   1   99.26    3.75 
   4  -1   1   15.24    0.71 
   5  -1   1   27.77    1.20 
   6  -1   1    4.06    0.32 
   7  -1   1    0.19    0.12 
  -8   1  -1    5.39    0.50 
   8  -1   1    6.33    0.46 
  -9   1  -1    3.14    0.45 
 -10   1  -1    1.88    0.39 
 -11   1  -1    1.60    0.40 
 -12   1  -1    0.17    0.30 
 -13   1  -1    0.20    0.32 
 -14   0   1    0.09    0.31 
 -13   0   1    1.36    0.38 
 -12   0   1    2.22    0.39 
 -11   0   1    0.81    0.27 
 -11   0   1    0.25    0.25 
 -10   0   1    0.35    0.22 
  -9   0   1    3.34    0.38 
  -8   0   1    2.34    0.31 
  -7   0   1    0.23    0.13 
   6   0  -1    0.00    0.08 
   5   0  -1   16.87    0.76 
   4   0  -1   26.38    1.08 
   3   0  -1    2.44    0.16 
  -2   0   1  409.47   15.04 
  -1   0   1   12.38    0.49 
  -1   0   1   11.92    0.47 
   0   0   1   -0.86    0.02 
   1   0   1   12.52    0.52 
   1   0   1   12.37    0.47 
   2   0   1  406.03   14.91 
   3   0   1    4.65    0.28 
   4   0   1   27.44    1.15 
   5   0   1   17.22    0.81 
   6   0   1    0.14    0.10 
   7   0   1   -0.02    0.11 
   8   0   1    2.51    0.32 
   9   0   1    3.42    0.40 
 -10   0  -1    0.79    0.30 
  10   0   1    0.74    0.28 
 -11   0  -1    0.09    0.28 
 -12   0  -1    2.16    0.46 
 -14   0  -1    0.69    0.38 
 -14   1   1    0.47    0.36 
 -13   1   1    0.32    0.31 
 -12   1   1    0.50    0.28 
 -12   1   1    0.79    0.33 
 -11   1   1    1.63    0.35 
 -10   1   1    1.65    0.35 
  -9   1   1    4.02    0.42 
  -8   1   1    6.52    0.49 
  -7   1   1    0.17    0.12 
  -6   1   1    4.65    0.35 
  -5   1   1   27.77    1.20 
  -4   1   1   16.04    0.73 
  -3   1   1   99.27    3.74 
  -2   1   1  385.74   14.17 
  -1   1   1  315.25   11.61 
   0  -1  -1  227.31    8.19 
   0   1   1  235.71    8.53 
  -1  -1  -1  320.21   11.60 
   1   1   1  332.55   11.36 
   1   1   1  332.23   12.08 
  -2  -1  -1  391.86   13.89 
   2   1   1  395.64   14.46 
   3   1   1  104.57    3.93 
   4   1   1   15.87    0.73 
   5   1   1   27.25    1.18 
   6   1   1    4.38    0.34 
   7   1   1   -0.09    0.10 
   8   1   1    6.08    0.46 
   9   1   1    3.49    0.41 
  10   1   1    1.18    0.30 
  11   1   1    1.30    0.35 
 -12  -1  -1    0.77    0.34 
 -13  -1  -1    0.28    0.28 
 -14   2   1    0.06    0.36 
 -13   2   1    0.37    0.34 
 -12   2   1    0.92    0.34 
 -11   2   1    0.18    0.24 
 -10   2   1    5.02    0.52 
  -9   2   1    5.71    0.52 
  -8   2   1    1.44    0.27 
  -7   2   1    5.06    0.40 
  -6   2   1   10.04    0.58 
  -5   2   1   15.40    0.75 
  -4   2   1  102.99    3.93 
  -3   2   1  315.81   11.66 
  -2   2   1  102.36    3.84 
  -1   2   1   77.99    2.92 
   0  -2  -1    5.88    0.26 
   0   2   1    6.23    0.28 
  -1  -2  -1   77.64    2.81 
   1   2   1   79.65    2.93 
  -2  -2  -1   98.74    3.64 
   2   2   1  104.63    3.80 
  -3  -2  -1  321.65   11.50 
   3   2   1  327.79   11.97 
   4   2   1  113.33    4.28 
   5   2   1   16.51    0.78 
   6   2   1    9.94    0.56 
   7   2   1    4.91    0.38 
   8   2   1    1.46    0.25 
   9   2   1    5.78    0.50 
  10   2   1    5.41    0.53 
 -11  -2  -1    0.38    0.22 
  11   2   1    0.30    0.26 
 -12  -2  -1    0.78    0.29 
 -12  -2  -1    1.06    0.30 
  12   2   1    0.93    0.34 
 -13  -2  -1    0.87    0.34 
 -14   3   1    0.19    0.36 
 -12   3   1   -0.35    0.23 
 -11   3   1    0.65    0.29 
 -10   3   1    5.18    0.53 
  -9   3   1    6.46    0.56 
  -8   3   1    7.16    0.53 
  -7   3   1    8.57    0.56 
  -6   3   1   17.55    0.88 
  -5   3   1   86.78    3.39 
  -4   3   1  119.42    4.55 
  -3   3   1    6.04    0.36 
  -2   3   1   63.27    2.43 
  -1   3   1  241.54    8.90 
   0  -3  -1  242.47    8.72 
   0   3   1  251.19    9.09 
  -1  -3  -1  237.66    8.52 
   1   3   1  244.23    8.87 
  -2  -3  -1   64.47    2.39 
  -2  -3  -1   66.91    2.27 
   2   3   1   65.41    2.48 
  -3  -3  -1    6.06    0.32 
  -3  -3  -1    6.37    0.26 
   3   3   1    5.80    0.33 
  -4  -3  -1  121.14    4.49 
   4   3   1  126.36    4.67 
  -5  -3  -1   90.26    3.37 
   5   3   1   91.76    3.50 
  -6  -3  -1   17.21    0.81 
   6   3   1   17.87    0.86 
  -7  -3  -1    9.20    0.53 
   7   3   1    8.54    0.54 
  -8  -3  -1    7.99    0.50 
   8   3   1    7.38    0.52 
  -9  -3  -1    6.45    0.49 
  -9  -3  -1    6.83    0.43 
   9   3   1    6.32    0.51 
 -10  -3  -1    5.65    0.51 
 -10  -3  -1    5.72    0.43 
  10   3   1    6.14    0.55 
 -11  -3  -1    0.75    0.26 
 -11  -3  -1    1.06    0.29 
  11   3   1    0.85    0.33 
 -12  -3  -1    0.32    0.25 
 -13  -3  -1    0.93    0.32 
 -13   4   1   -0.28    0.28 
 -12   4   1    0.07    0.26 
 -11   4   1    0.88    0.31 
 -10   4   1    2.59    0.43 
  -9   4   1    0.17    0.19 
  -8   4   1   19.38    1.04 
  -7   4   1    8.01    0.55 
  -6   4   1  182.58    6.94 
  -5   4   1   22.43    1.05 
  -4   4   1   41.92    1.73 
  -3   4   1    5.96    0.37 
  -2   4   1   78.98    3.02 
  -1   4   1    9.43    0.45 
   0  -4  -1  153.64    5.46 
   0   4   1  153.33    5.70 
  -1  -4  -1    9.69    0.41 
  -1  -4  -1    9.45    0.35 
   1   4   1    8.98    0.43 
  -2  -4  -1   84.50    2.77 
  -2  -4  -1   78.12    2.92 
   2   4   1   78.07    3.03 
  -3  -4  -1    6.65    0.26 
  -3  -4  -1    6.15    0.34 
   3   4   1    6.10    0.34 
  -4  -4  -1   42.50    1.66 
  -4  -4  -1   42.26    1.52 
   4   4   1   43.34    1.71 
  -5  -4  -1   23.77    1.03 
  -5  -4  -1   24.85    0.92 
   5   4   1   23.44    1.05 
  -6  -4  -1  189.21    6.84 
  -6  -4  -1  184.48    6.52 
   6   4   1  191.96    7.10 
  -7  -4  -1    7.41    0.41 
  -7  -4  -1    7.87    0.49 
   7   4   1    7.91    0.51 
  -8  -4  -1   18.54    0.91 
  -8  -4  -1   17.95    0.80 
   8   4   1   18.49    0.94 
  -9  -4  -1    0.38    0.20 
  -9  -4  -1    0.28    0.15 
   9   4   1    0.34    0.18 
 -10  -4  -1    1.57    0.27 
 -10  -4  -1    1.31    0.31 
  10   4   1    2.00    0.36 
 -11  -4  -1    0.95    0.29 
  11   4   1    0.72    0.32 
 -12  -4  -1    0.29    0.26 
 -13  -4  -1    0.00    0.26 
 -13   5   1    0.06    0.31 
 -12   5   1    1.12    0.35 
 -11   5   1    0.55    0.31 
 -10   5   1    8.63    0.68 
  -9   5   1    1.42    0.32 
  -8   5   1   12.83    0.78 
  -7   5   1    0.81    0.23 
  -6   5   1   37.19    1.64 
  -5   5   1   11.96    0.67 
  -4   5   1   99.27    3.85 
  -3   5   1    3.40    0.28 
  -2   5   1   18.55    0.83 
  -1   5   1    7.16    0.38 
   0  -5  -1  120.78    4.32 
   0   5   1  119.95    4.51 
  -1  -5  -1    7.41    0.30 
  -1  -5  -1    7.69    0.36 
   1   5   1    7.72    0.38 
  -2  -5  -1   19.03    0.67 
  -2  -5  -1   19.16    0.78 
   2   5   1   18.77    0.81 
  -3  -5  -1    3.52    0.15 
  -3  -5  -1    3.67    0.25 
   3   5   1    3.38    0.24 
  -4  -5  -1  101.56    3.79 
  -4  -5  -1  104.88    3.56 
   4   5   1  103.14    3.93 
  -5  -5  -1   12.32    0.61 
  -5  -5  -1   12.02    0.49 
   5   5   1   12.15    0.61 
  -6  -5  -1   38.39    1.56 
  -6  -5  -1   36.52    1.39 
   6   5   1   38.40    1.59 
  -7  -5  -1    1.64    0.25 
  -7  -5  -1    1.06    0.16 
   7   5   1    0.78    0.20 
  -8  -5  -1   13.98    0.64 
  -8  -5  -1   14.20    0.76 
   8   5   1   14.41    0.79 
  -9  -5  -1    1.61    0.21 
  -9  -5  -1    1.75    0.30 
   9   5   1    1.50    0.31 
 -10  -5  -1    9.20    0.63 
  10   5   1    8.73    0.64 
 -11  -5  -1    1.17    0.30 
 -12  -5  -1    0.99    0.31 
 -13  -5  -1    0.43    0.29 
 -13   6   1    0.54    0.39 
 -12   6   1    1.74    0.45 
 -11   6   1   -0.02    0.24 
 -10   6   1    0.58    0.28 
  -9   6   1    1.50    0.33 
  -8   6   1   10.62    0.71 
  -7   6   1    8.51    0.60 
  -6   6   1   22.61    1.11 
  -5   6   1    2.47    0.31 
  -4   6   1    1.51    0.23 
  -3   6   1   43.52    1.79 
  -2   6   1   13.09    0.64 
   1  -6  -1    4.81    0.28 
  -1   6   1    5.01    0.31 
   0  -6  -1    4.29    0.25 
   0   6   1    3.78    0.26 
  -1  -6  -1    5.17    0.29 
   1   6   1    5.00    0.30 
  -2  -6  -1   13.44    0.50 
  -2  -6  -1   13.56    0.61 
   2   6   1   14.00    0.63 
  -3  -6  -1   41.76    1.63 
  -3  -6  -1   42.93    1.46 
   3   6   1   41.37    1.68 
  -4  -6  -1    2.04    0.23 
  -4  -6  -1    2.10    0.12 
   4   6   1    1.94    0.21 
  -5  -6  -1    2.27    0.15 
  -5  -6  -1    1.85    0.24 
   5   6   1    2.30    0.24 
  -6  -6  -1   20.93    0.97 
  -6  -6  -1   21.41    0.81 
   6   6   1   20.66    0.98 
  -7  -6  -1    8.47    0.40 
  -7  -6  -1    7.88    0.52 
   7   6   1    7.67    0.51 
  -8  -6  -1   11.88    0.70 
   8   6   1   12.16    0.70 
  -9  -6  -1    2.31    0.34 
   9   6   1    1.96    0.34 
 -10  -6  -1    0.78    0.25 
  10   6   1    0.47    0.26 
 -11  -6  -1    0.04    0.19 
 -12  -6  -1    1.26    0.33 
 -13  -6  -1    0.87    0.34 
 -13   7   1    0.43    0.39 
 -12   7   1    0.19    0.32 
 -11   7   1    0.60    0.32 
 -10   7   1    0.32    0.26 
  -9   7   1    2.58    0.41 
  -8   7   1    6.58    0.59 
  -7   7   1    8.11    0.60 
  -6   7   1    2.44    0.35 
  -5   7   1   15.49    0.82 
  -4   7   1    2.12    0.28 
  -3   7   1   11.23    0.61 
  -2   7   1    5.94    0.38 
   1  -7  -1  102.92    3.76 
  -1   7   1  103.47    3.95 
   0  -7  -1    4.38    0.27 
   0   7   1    3.97    0.28 
  -1  -7  -1   99.35    3.66 
   1   7   1  101.52    3.82 
  -2  -7  -1    6.35    0.26 
  -2  -7  -1    6.54    0.36 
   2   7   1    5.85    0.36 
  -3  -7  -1   11.96    0.45 
  -3  -7  -1   11.82    0.58 
   3   7   1   12.42    0.60 
  -4  -7  -1    2.20    0.24 
  -4  -7  -1    2.30    0.12 
   4   7   1    2.26    0.24 
  -5  -7  -1   17.82    0.63 
  -5  -7  -1   15.59    0.79 
   5   7   1   16.23    0.81 
  -6  -7  -1    3.69    0.36 
   6   7   1    3.76    0.33 
  -7  -7  -1    8.92    0.56 
   7   7   1    8.26    0.54 
  -8  -7  -1    7.12    0.52 
   8   7   1    6.52    0.48 
  -9  -7  -1    2.57    0.37 
   9   7   1    1.69    0.33 
 -10  -7  -1    0.34    0.23 
 -11  -7  -1    0.28    0.25 
 -12  -7  -1    0.01    0.25 
 -13  -7  -1    0.11    0.29 
 -13   8   1    0.19    0.40 
 -12   8   1    0.04    0.32 
 -11   8   1   -0.04    0.27 
 -10   8   1    1.95    0.42 
  -9   8   1    2.22    0.40 
  -8   8   1    0.80    0.29 
  -7   8   1    3.21    0.42 
  -6   8   1   12.01    0.75 
  -5   8   1    9.80    0.65 
  -4   8   1   15.24    0.81 
  -3   8   1    4.59    0.36 
  -2   8   1    8.17    0.49 
   1  -8  -1   30.47    1.24 
  -1   8   1   30.93    1.31 
   0  -8  -1   12.54    0.59 
   0   8   1   12.92    0.64 
  -1  -8  -1   29.74    1.22 
   1   8   1   31.06    1.29 
  -2  -8  -1    9.11    0.46 
  -2  -8  -1    8.68    0.35 
   2   8   1    7.71    0.46 
  -3  -8  -1    4.64    0.20 
  -3  -8  -1    4.75    0.32 
   3   8   1    4.34    0.31 
  -4  -8  -1   14.97    0.55 
  -4  -8  -1   15.49    0.72 
   4   8   1   14.40    0.73 
  -5  -8  -1   12.08    0.64 
   5   8   1   10.71    0.61 
  -6  -8  -1   12.74    0.69 
   6   8   1   11.83    0.68 
  -7  -8  -1    3.98    0.41 
   7   8   1    4.13    0.39 
  -8  -8  -1    0.62    0.23 
   8   8   1    0.57    0.24 
  -9  -8  -1    2.38    0.36 
   9   8   1    1.33    0.33 
 -10  -8  -1    2.41    0.39 
 -11  -8  -1    0.38    0.25 
 -12  -8  -1    0.13    0.26 
 -13  -8  -1    0.38    0.33 
 -12   9   1    0.04    0.35 
 -11   9   1    0.24    0.30 
 -10   9   1    0.29    0.28 
  -9   9   1    0.81    0.31 
  -8   9   1    1.24    0.31 
  -7   9   1    1.09    0.30 
  -6   9   1    0.61    0.26 
  -5   9   1    1.91    0.33 
  -4   9   1    0.73    0.23 
  -3   9   1   11.45    0.65 
  -2   9   1    0.92    0.20 
   1  -9  -1    3.82    0.27 
  -1   9   1    2.91    0.30 
   0  -9  -1    2.94    0.26 
   0   9   1    2.85    0.28 
  -1  -9  -1    3.37    0.29 
   1   9   1    3.62    0.31 
  -2  -9  -1    0.68    0.15 
   2   9   1    1.04    0.18 
  -3  -9  -1   11.07    0.58 
   3   9   1   11.48    0.61 
  -4  -9  -1    0.87    0.21 
   4   9   1    0.52    0.16 
  -5  -9  -1    1.84    0.27 
   5   9   1    2.01    0.27 
  -6  -9  -1    0.58    0.22 
   6   9   1    0.42    0.17 
  -7  -9  -1    1.66    0.31 
   7   9   1    1.36    0.29 
  -8  -9  -1    0.84    0.25 
   8   9   1    0.95    0.25 
  -9  -9  -1    1.33    0.31 
 -10  -9  -1    0.85    0.27 
 -11  -9  -1    0.12    0.25 
 -12  -9  -1    0.10    0.29 
 -12  10   1   -0.02    0.37 
 -11  10   1    0.47    0.33 
 -10  10   1    0.54    0.31 
  -9  10   1    1.97    0.41 
  -8  10   1    0.48    0.28 
  -7  10   1    0.38    0.23 
  -6  10   1    8.86    0.66 
  -5  10   1   17.01    0.95 
  -4  10   1    6.73    0.51 
  -3  10   1    0.22    0.20 
  -2  10   1   14.69    0.79 
   1 -10  -1    2.35    0.26 
  -1  10   1    2.02    0.27 
   0 -10  -1    3.39    0.29 
   0  10   1    3.28    0.32 
  -1 -10  -1    1.92    0.24 
   1  10   1    1.94    0.25 
  -2 -10  -1   14.14    0.71 
   2  10   1   15.27    0.75 
  -3 -10  -1    0.05    0.15 
   3  10   1    0.60    0.16 
  -4 -10  -1    5.42    0.41 
   4  10   1    6.38    0.43 
  -5 -10  -1   15.75    0.79 
   5  10   1   14.70    0.79 
  -6 -10  -1    8.51    0.56 
   6  10   1    8.97    0.60 
  -7 -10  -1    0.38    0.21 
   7  10   1    0.22    0.21 
  -8 -10  -1    0.07    0.21 
   8  10   1    0.30    0.23 
  -9 -10  -1    1.33    0.32 
 -10 -10  -1    0.28    0.25 
 -11 -10  -1    0.44    0.29 
 -12 -10  -1   -0.02    0.29 
 -11  11   1    0.09    0.35 
 -10  11   1   -0.09    0.30 
  -9  11   1    0.74    0.33 
  -8  11   1    1.00    0.32 
  -7  11   1    3.17    0.45 
  -6  11   1    1.34    0.33 
  -5  11   1    3.47    0.45 
  -4  11   1    4.18    0.45 
  -3  11   1    0.08    0.18 
  -2  11   1    9.52    0.62 
   1 -11  -1    3.04    0.31 
  -1  11   1    2.73    0.33 
   0 -11  -1   10.01    0.57 
   0  11   1    9.97    0.61 
  -1 -11  -1    2.39    0.27 
   1  11   1    2.13    0.29 
  -2 -11  -1    9.65    0.55 
   2  11   1    8.21    0.55 
  -3 -11  -1   -0.16    0.13 
   3  11   1    0.01    0.16 
  -4 -11  -1    3.65    0.37 
   4  11   1    3.96    0.38 
  -5 -11  -1    3.70    0.39 
   5  11   1    3.93    0.40 
  -6 -11  -1    0.61    0.23 
   6  11   1    0.97    0.27 
  -7 -11  -1    3.09    0.40 
   7  11   1    3.23    0.40 
  -8 -11  -1    0.93    0.27 
  -9 -11  -1    0.71    0.27 
 -10 -11  -1   -0.03    0.22 
 -11 -11  -1    0.05    0.27 
 -11  12   1    0.40    0.41 
 -10  12   1   -0.28    0.28 
  -9  12   1    0.21    0.31 
  -8  12   1    0.21    0.29 
  -7  12   1    1.32    0.34 
  -6  12   1    6.06    0.60 
  -5  12   1    0.70    0.27 
  -4  12   1    2.74    0.39 
  -3  12   1    1.66    0.31 
  -2  12   1    1.16    0.27 
  -1  12   1    6.11    0.49 
   0 -12  -1    6.18    0.45 
   0  12   1    6.29    0.47 
  -1 -12  -1    6.20    0.42 
   1  12   1    5.70    0.45 
  -2 -12  -1    0.86    0.22 
   2  12   1    1.16    0.25 
  -3 -12  -1    1.39    0.26 
   3  12   1    1.81    0.30 
  -4 -12  -1    2.55    0.33 
   4  12   1    2.99    0.35 
  -5 -12  -1    0.72    0.23 
   5  12   1    1.27    0.28 
  -6 -12  -1    6.28    0.52 
   6  12   1    5.47    0.51 
  -7 -12  -1    1.40    0.30 
   7  12   1    1.62    0.34 
  -8 -12  -1   -0.05    0.20 
  -9 -12  -1   -0.06    0.24 
 -10 -12  -1    0.30    0.30 
 -11 -12  -1    0.35    0.32 
 -10  13   1    0.79    0.42 
  -9  13   1    0.01    0.34 
  -8  13   1    2.25    0.45 
  -7  13   1    0.15    0.27 
  -6  13   1    0.36    0.25 
  -5  13   1    1.76    0.36 
  -4  13   1    3.56    0.45 
  -3  13   1    1.13    0.29 
  -2  13   1    6.98    0.54 
  -1  13   1    4.11    0.43 
   0 -13  -1   14.12    0.76 
   0  13   1   15.08    0.84 
  -1 -13  -1    5.21    0.44 
   1  13   1    5.48    0.48 
  -2 -13  -1    5.95    0.45 
   2  13   1    7.51    0.53 
  -3 -13  -1    0.55    0.20 
   3  13   1    0.96    0.27 
  -4 -13  -1    3.25    0.39 
   4  13   1    4.34    0.42 
  -5 -13  -1    1.57    0.31 
   5  13   1    1.28    0.31 
  -6 -13  -1    0.28    0.21 
   6  13   1   -0.23    0.19 
  -7 -13  -1    0.13    0.22 
  -8 -13  -1    1.73    0.36 
  -9 -13  -1    0.64    0.31 
 -10 -13  -1    0.87    0.38 
  -9  14   1    0.02    0.33 
  -8  14   1    0.09    0.32 
  -7  14   1    0.22    0.33 
  -6  14   1   -0.17    0.20 
  -5  14   1    0.48    0.29 
  -4  14   1    1.14    0.31 
  -3  14   1    0.43    0.24 
  -2  14   1    2.34    0.37 
  -1  14   1    1.53    0.32 
   0 -14  -1    2.24    0.33 
   0  14   1    1.85    0.35 
  -1 -14  -1    1.34    0.28 
   1  14   1    1.61    0.31 
  -2 -14  -1    2.24    0.34 
   2  14   1    3.35    0.40 
  -3 -14  -1    0.06    0.19 
   3  14   1    0.32    0.23 
  -4 -14  -1    1.29    0.29 
   4  14   1    1.06    0.27 
  -5 -14  -1    0.77    0.24 
   5  14   1    0.40    0.23 
  -6 -14  -1    0.23    0.22 
   6  14   1   -0.15    0.22 
  -7 -14  -1    0.38    0.28 
  -8 -14  -1    0.33    0.28 
  -9 -14  -1    0.24    0.31 
  -8  15   1    0.73    0.39 
  -7  15   1   -0.14    0.30 
  -6  15   1    0.25    0.29 
  -5  15   1    0.08    0.27 
  -4  15   1    0.32    0.25 
  -3  15   1    0.54    0.28 
  -2  15   1    3.52    0.46 
  -1  15   1    3.86    0.46 
   0 -15  -1    8.84    0.60 
   0  15   1    8.30    0.64 
  -1 -15  -1    3.69    0.43 
   1  15   1    3.90    0.45 
  -2 -15  -1    4.16    0.44 
   2  15   1    3.55    0.45 
  -3 -15  -1    1.04    0.27 
   3  15   1    0.66    0.25 
  -4 -15  -1    0.29    0.22 
   4  15   1   -0.03    0.22 
  -5 -15  -1   -0.13    0.19 
   5  15   1    0.52    0.28 
  -6 -15  -1    0.27    0.26 
  -7 -15  -1    0.16    0.27 
  -8 -15  -1    0.41    0.33 
  -7  16   1    0.12    0.33 
  -6  16   1   -0.19    0.23 
  -5  16   1    0.30    0.32 
  -4  16   1    0.57    0.32 
  -3  16   1    2.27    0.43 
  -2  16   1    0.33    0.27 
  -1  16   1    0.93    0.32 
   0  16   1    0.68    0.27 
  -1 -16  -1    1.01    0.29 
   1  16   1    0.59    0.29 
  -2 -16  -1    0.43    0.25 
   2  16   1    0.38    0.27 
  -3 -16  -1    1.78    0.33 
   3  16   1    2.67    0.42 
  -4 -16  -1    0.56    0.26 
   4  16   1    1.07    0.31 
  -5 -16  -1    0.47    0.28 
  -6 -16  -1   -0.04    0.28 
  -7 -16  -1    0.35    0.32 
  -6  17   1    0.22    0.33 
  -5  17   1    0.02    0.27 
  -4  17   1   -0.10    0.26 
  -3  17   1   -0.01    0.26 
  -2  17   1    0.20    0.26 
  -1  17   1    0.21    0.25 
   0  17   1    0.29    0.27 
  -1 -17  -1    0.32    0.24 
   1  17   1    0.28    0.27 
  -2 -17  -1    0.51    0.28 
   2  17   1    0.85    0.32 
  -3 -17  -1    0.43    0.27 
   3  17   1    0.59    0.29 
  -4 -17  -1   -0.03    0.25 
   4  17   1   -0.02    0.30 
  -5 -17  -1    0.20    0.27 
  -6 -17  -1    0.56    0.34 
  -4  18   1    0.10    0.33 
  -3  18   1    0.81    0.37 
  -2  18   1    0.30    0.30 
  -1  18   1   -0.05    0.30 
   0  18   1    0.01    0.28 
   1  18   1    0.32    0.30 
  -2 -18  -1    0.36    0.29 
   2  18   1    0.52    0.33 
  -3 -18  -1    1.14    0.36 
   3  18   1    1.61    0.42 
  -4 -18  -1   -0.13    0.27 
  -4 -18   2    0.10    0.28 
  -3 -18   2    0.91    0.33 
  -2 -18   2    0.62    0.31 
   1  18  -2    1.38    0.41 
  -1 -18   2    1.37    0.37 
   0  18  -2    0.08    0.27 
  -1  18  -2    1.90    0.41 
  -2  18  -2   -0.07    0.28 
  -3  18  -2    0.82    0.38 
  -4  18  -2   -0.21    0.31 
  -6 -17   2    0.61    0.38 
  -5 -17   2    0.24    0.30 
  -4 -17   2    0.15    0.27 
  -3 -17   2    0.47    0.28 
  -2 -17   2    0.03    0.24 
   1  17  -2    1.18    0.33 
  -1 -17   2    1.51    0.36 
   0  17  -2    0.64    0.30 
   0 -17   2    0.12    0.23 
  -1  17  -2    1.53    0.37 
  -2  17  -2    0.28    0.30 
  -3  17  -2    0.75    0.35 
  -4  17  -2    0.59    0.34 
  -5  17  -2    0.29    0.35 
  -6  17  -2    0.49    0.40 
  -7 -16   2    0.17    0.30 
  -6 -16   2    1.41    0.38 
  -5 -16   2    0.35    0.28 
  -4 -16   2    0.43    0.28 
  -3 -16   2    0.41    0.24 
   2  16  -2    0.39    0.27 
  -2 -16   2    0.31    0.23 
   1  16  -2    2.51    0.38 
  -1 -16   2    2.05    0.34 
   0  16  -2    1.01    0.28 
   0 -16   2    0.93    0.28 
  -1  16  -2    1.63    0.36 
  -2  16  -2    0.45    0.28 
  -3  16  -2    0.11    0.26 
  -4  16  -2    0.74    0.34 
  -5  16  -2   -0.25    0.28 
  -6  16  -2    1.41    0.44 
  -7  16  -2   -0.26    0.34 
  -8 -15   2    0.06    0.31 
  -7 -15   2    0.31    0.27 
  -6 -15   2    1.43    0.35 
  -5 -15   2    0.08    0.22 
  -4 -15   2    1.42    0.33 
   3  15  -2    1.55    0.31 
  -3 -15   2    1.32    0.30 
   2  15  -2    0.82    0.25 
  -2 -15   2    0.40    0.22 
   1  15  -2    4.71    0.46 
  -1 -15   2    4.11    0.42 
   0  15  -2    0.27    0.23 
   0 -15   2    0.28    0.21 
  -1  15  -2    3.88    0.45 
   1 -15   2    3.95    0.41 
  -2  15  -2    0.37    0.27 
  -3  15  -2    1.36    0.35 
  -4  15  -2    1.71    0.38 
  -5  15  -2    0.36    0.31 
  -6  15  -2    0.90    0.37 
  -7  15  -2   -0.09    0.32 
  -8  15  -2   -0.30    0.33 
  -9 -14   2    0.38    0.31 
  -8 -14   2    0.55    0.31 
  -7 -14   2    0.67    0.30 
  -6 -14   2    0.16    0.23 
  -5 -14   2   -0.14    0.19 
  -4 -14   2    0.16    0.21 
   3  14  -2    3.45    0.38 
  -3 -14   2    3.91    0.41 
   2  14  -2    2.26    0.33 
  -2 -14   2    1.53    0.29 
   1  14  -2    8.78    0.62 
  -1 -14   2    9.38    0.57 
   0  14  -2    8.40    0.60 
   0 -14   2    8.52    0.56 
  -1  14  -2    8.18    0.60 
   1 -14   2    7.83    0.53 
  -2  14  -2    1.48    0.31 
  -3  14  -2    3.76    0.46 
  -4  14  -2    0.00    0.20 
  -5  14  -2    0.05    0.27 
  -6  14  -2    0.14    0.28 
  -7  14  -2    0.53    0.33 
  -8  14  -2   -0.31    0.29 
  -9  14  -2    0.50    0.41 
 -10 -13   2    0.19    0.32 
  -9 -13   2    0.15    0.30 
  -8 -13   2    0.55    0.29 
  -7 -13   2    0.49    0.25 
  -6 -13   2    0.68    0.27 
  -5 -13   2    0.98    0.26 
   4  13  -2    0.62    0.22 
  -4 -13   2    0.70    0.24 
   3  13  -2    4.46    0.40 
  -3 -13   2    3.57    0.38 
   2  13  -2    0.73    0.23 
  -2 -13   2    0.50    0.21 
   1  13  -2    3.49    0.38 
  -1 -13   2    3.71    0.37 
   0  13  -2    0.27    0.20 
   0 -13   2    0.12    0.15 
   0 -13   2    0.32    0.18 
  -1  13  -2    4.78    0.44 
   1 -13   2    4.06    0.38 
  -2  13  -2    0.27    0.24 
  -3  13  -2    3.59    0.44 
  -4  13  -2    0.22    0.23 
  -5  13  -2    1.30    0.34 
  -6  13  -2    0.62    0.28 
  -7  13  -2    0.47    0.27 
  -8  13  -2    0.90    0.38 
  -9  13  -2    0.43    0.41 
 -10  13  -2    0.61    0.45 
 -11 -12   2   -0.15    0.28 
 -10 -12   2    0.20    0.29 
  -9 -12   2    0.68    0.31 
  -8 -12   2   -0.02    0.24 
  -7 -12   2    1.09    0.29 
  -6 -12   2    3.28    0.41 
  -5 -12   2    2.18    0.33 
   4  12  -2    5.34    0.39 
  -4 -12   2    4.94    0.45 
   3  12  -2    6.51    0.46 
  -3 -12   2    7.53    0.49 
   2  12  -2    4.28    0.38 
  -2 -12   2    4.67    0.39 
   1  12  -2    0.19    0.19 
  -1 -12   2    0.19    0.15 
  -1 -12   2    0.25    0.18 
   0  12  -2    0.20    0.17 
   0 -12   2    0.10    0.15 
   0 -12   2    0.16    0.16 
  -1  12  -2    0.60    0.23 
   1 -12   2    0.12    0.16 
   1 -12   2    0.41    0.17 
  -2  12  -2    6.42    0.51 
  -3  12  -2    7.62    0.59 
  -4  12  -2    5.25    0.52 
  -5  12  -2    2.44    0.42 
  -6  12  -2    4.53    0.56 
  -7  12  -2    0.31    0.29 
  -8  12  -2   -0.15    0.27 
  -9  12  -2    0.70    0.38 
 -10  12  -2    0.29    0.36 
 -11  12  -2   -0.08    0.41 
 -11 -11   2    0.28    0.32 
 -10 -11   2    0.03    0.24 
  -9 -11   2   -0.32    0.21 
  -8 -11   2    0.81    0.27 
  -7 -11   2    2.37    0.39 
  -6 -11   2    1.21    0.29 
  -5 -11   2    4.71    0.44 
   4  11  -2    7.24    0.45 
  -4 -11   2    7.01    0.50 
   3  11  -2    0.92    0.18 
  -3 -11   2    0.28    0.17 
   2  11  -2    3.86    0.33 
  -2 -11   2    2.83    0.31 
  -2 -11   2    3.69    0.26 
   1  11  -2    1.05    0.20 
  -1 -11   2    1.35    0.18 
  -1 -11   2    0.66    0.18 
   0  11  -2    2.02    0.26 
   0 -11   2    1.52    0.23 
   0 -11   2    1.71    0.22 
  -1  11  -2    0.91    0.23 
   1 -11   2    0.90    0.19 
   1 -11   2    0.90    0.18 
  -2  11  -2    3.39    0.38 
  -3  11  -2    0.44    0.24 
  -4  11  -2    6.62    0.54 
  -5  11  -2    4.98    0.54 
  -6  11  -2    1.13    0.32 
  -7  11  -2    2.66    0.44 
  -8  11  -2    0.77    0.32 
  -9  11  -2   -0.25    0.23 
 -10  11  -2   -0.01    0.34 
 -11  11  -2    0.51    0.43 
 -12 -10   2   -0.02    0.30 
 -11 -10   2   -0.01    0.28 
 -10 -10   2    0.39    0.27 
  -9 -10   2    0.34    0.23 
  -8 -10   2    1.01    0.30 
  -7 -10   2    2.15    0.36 
  -6 -10   2    4.22    0.44 
   5  10  -2    0.69    0.17 
  -5 -10   2    0.54    0.23 
  -4 -10   2   11.38    0.65 
  -4 -10   2   11.93    0.52 
   3  10  -2    4.29    0.32 
  -3 -10   2    4.66    0.36 
  -3 -10   2    4.61    0.28 
   2  10  -2    3.77    0.30 
  -2 -10   2    3.45    0.32 
  -2 -10   2    4.43    0.26 
   1  10  -2    0.38    0.14 
  -1 -10   2    0.41    0.13 
  -1 -10   2    0.28    0.12 
   0  10  -2    0.25    0.13 
   0 -10   2   -0.06    0.10 
   0 -10   2   -0.05    0.08 
  -1  10  -2    0.25    0.13 
   1 -10   2    0.29    0.12 
   1 -10   2    0.27    0.11 
  -2  10  -2    3.25    0.35 
   2 -10   2    3.60    0.31 
  -3  10  -2    4.70    0.45 
  -4  10  -2   13.13    0.81 
  -5  10  -2    0.79    0.27 
  -6  10  -2    3.66    0.47 
  -7  10  -2    1.97    0.40 
  -8  10  -2    1.25    0.36 
  -9  10  -2    0.29    0.28 
 -10  10  -2    1.26    0.43 
 -11  10  -2   -0.22    0.35 
 -12  10  -2   -0.29    0.40 
 -12  -9   2   -0.48    0.27 
 -11  -9   2    1.41    0.40 
 -10  -9   2    0.03    0.24 
  -9  -9   2    0.64    0.27 
  -8  -9   2    1.80    0.34 
  -7  -9   2    7.01    0.54 
   6   9  -2   16.49    0.82 
  -6  -9   2   17.61    0.90 
   5   9  -2   17.31    0.81 
  -5  -9   2   17.02    0.69 
  -5  -9   2   16.84    0.87 
  -4  -9   2   29.57    1.28 
  -4  -9   2   29.30    1.10 
   3   9  -2    5.48    0.35 
  -3  -9   2    5.68    0.38 
  -3  -9   2    5.28    0.29 
   2   9  -2   25.03    1.07 
  -2  -9   2   24.23    0.96 
  -2  -9   2   25.50    1.06 
   1   9  -2    4.05    0.30 
  -1  -9   2    4.01    0.28 
  -1  -9   2    4.44    0.27 
   0   9  -2   -0.12    0.09 
   0  -9   2    0.05    0.09 
   0  -9   2   -0.06    0.08 
  -1   9  -2    4.12    0.34 
   1  -9   2    4.64    0.29 
   1  -9   2    4.38    0.30 
  -2   9  -2   25.45    1.14 
   2  -9   2   23.50    1.02 
   2  -9   2   24.54    1.02 
  -3   9  -2    5.25    0.42 
  -4   9  -2   27.78    1.33 
  -5   9  -2   17.06    0.96 
  -6   9  -2   15.68    0.94 
  -7   9  -2    7.51    0.66 
  -8   9  -2    1.18    0.34 
  -9   9  -2    0.91    0.33 
 -10   9  -2    0.24    0.28 
 -11   9  -2    1.06    0.41 
 -12   9  -2   -0.32    0.37 
 -12  -8   2   -0.03    0.28 
 -11  -8   2    0.84    0.33 
 -10  -8   2   -0.17    0.21 
  -9  -8   2    5.82    0.57 
  -8  -8   2   13.77    0.83 
  -7  -8   2   10.85    0.69 
   6   8  -2    7.31    0.44 
  -6  -8   2    6.94    0.36 
  -6  -8   2    7.55    0.53 
   5   8  -2   33.78    1.40 
  -5  -8   2   34.04    1.25 
  -5  -8   2   32.78    1.45 
   4   8  -2    6.14    0.35 
  -4  -8   2    5.55    0.40 
  -4  -8   2    5.52    0.28 
  -3  -8   2    3.95    0.31 
  -3  -8   2    4.02    0.22 
   2   8  -2   10.72    0.52 
  -2  -8   2   10.43    0.45 
  -2  -8   2    9.95    0.52 
   1   8  -2    7.84    0.43 
  -1  -8   2    7.72    0.41 
  -1  -8   2    7.81    0.37 
   0   8  -2   13.90    0.67 
   0  -8   2   13.79    0.62 
   0  -8   2   13.94    0.60 
  -1   8  -2    7.32    0.45 
   1  -8   2    8.19    0.40 
   1  -8   2    7.63    0.41 
  -2   8  -2   10.06    0.58 
   2  -8   2   10.54    0.49 
   2  -8   2    9.88    0.51 
  -3   8  -2    4.17    0.38 
  -4   8  -2    5.12    0.46 
  -5   8  -2   33.63    1.57 
  -6   8  -2    6.48    0.58 
  -7   8  -2   10.31    0.75 
  -8   8  -2   15.55    0.97 
  -9   8  -2    5.04    0.61 
 -10   8  -2    0.01    0.29 
 -11   8  -2    0.24    0.32 
 -12   8  -2    0.22    0.36 
 -13  -7   2    1.15    0.41 
 -12  -7   2    0.57    0.33 
 -11  -7   2    2.51    0.43 
 -10  -7   2    7.04    0.62 
  -9  -7   2    3.13    0.43 
  -8  -7   2    3.24    0.26 
  -8  -7   2    3.13    0.42 
   7   7  -2    4.28    0.33 
  -7  -7   2    4.19    0.28 
  -7  -7   2    3.67    0.41 
   6   7  -2    0.89    0.17 
  -6  -7   2    1.72    0.28 
  -6  -7   2    0.99    0.15 
   5   7  -2    9.17    0.49 
  -5  -7   2    9.72    0.56 
  -5  -7   2    9.67    0.43 
   4   7  -2    0.31    0.10 
  -4  -7   2    0.51    0.09 
  -4  -7   2    0.28    0.12 
   3   7  -2   21.60    0.94 
  -3  -7   2   22.02    0.98 
  -3  -7   2   23.49    0.85 
  -2  -7   2    4.44    0.23 
  -2  -7   2    4.44    0.30 
   1   7  -2    8.74    0.44 
  -1  -7   2    8.32    0.43 
  -1  -7   2    9.52    0.40 
   0   7  -2   35.29    1.39 
   0  -7   2   33.52    1.27 
   0  -7   2   33.03    1.31 
  -1   7  -2    8.92    0.49 
   1  -7   2    8.47    0.43 
   1  -7   2    9.09    0.42 
  -2   7  -2    4.55    0.34 
   2  -7   2    4.31    0.29 
  -3   7  -2   20.91    1.03 
   3  -7   2   22.70    0.93 
  -4   7  -2    0.49    0.16 
  -5   7  -2    9.01    0.59 
  -6   7  -2    0.81    0.25 
  -7   7  -2    3.12    0.43 
  -8   7  -2    2.44    0.43 
  -9   7  -2    3.33    0.51 
 -10   7  -2    6.48    0.69 
 -11   7  -2    2.31    0.47 
 -12   7  -2    0.80    0.41 
 -13   7  -2    0.86    0.50 
 -13  -6   2    0.33    0.32 
 -12  -6   2    0.11    0.24 
 -11  -6   2    1.49    0.37 
 -10  -6   2    3.25    0.45 
  -9  -6   2    6.59    0.42 
  -9  -6   2    6.53    0.58 
  -8  -6   2    0.65    0.16 
  -8  -6   2    0.27    0.20 
   7   6  -2    6.51    0.43 
  -7  -6   2    7.46    0.40 
  -7  -6   2    7.43    0.53 
   6   6  -2   12.93    0.63 
  -6  -6   2   13.07    0.56 
  -6  -6   2   12.09    0.70 
   5   6  -2   11.79    0.57 
  -5  -6   2   12.54    0.66 
  -5  -6   2   12.13    0.52 
   4   6  -2   16.40    0.70 
  -4  -6   2   15.80    0.62 
  -4  -6   2   14.77    0.74 
   3   6  -2    2.26    0.18 
  -3  -6   2    2.32    0.15 
  -3  -6   2    2.01    0.22 
  -2  -6   2    8.79    0.37 
  -2  -6   2    8.54    0.44 
   1   6  -2    2.40    0.19 
  -1  -6   2    2.86    0.17 
  -1  -6   2    2.97    0.20 
   0   6  -2   39.28    1.61 
   0  -6   2   40.91    1.48 
   0  -6   2   41.85    1.54 
  -1   6  -2    2.49    0.24 
   1  -6   2    2.91    0.20 
   1  -6   2    2.89    0.19 
  -2   6  -2    8.14    0.48 
   2  -6   2    8.99    0.43 
  -3   6  -2    1.57    0.24 
   3  -6   2    1.69    0.20 
  -4   6  -2   14.83    0.79 
  -5   6  -2   11.99    0.71 
  -6   6  -2   10.28    0.68 
  -7   6  -2    6.94    0.61 
  -8   6  -2    0.68    0.29 
  -9   6  -2    6.51    0.64 
 -10   6  -2    2.86    0.51 
 -11   6  -2    1.08    0.38 
 -12   6  -2    0.29    0.31 
 -13   6  -2    1.01    0.47 
 -13  -5   2    0.24    0.29 
 -12  -5   2    1.21    0.35 
 -11  -5   2    2.48    0.40 
 -10  -5   2    0.57    0.27 
 -10  -5   2    0.32    0.18 
  -9  -5   2    0.48    0.16 
  -9  -5   2    0.87    0.28 
   8   5  -2    5.00    0.37 
  -8  -5   2    4.66    0.33 
  -8  -5   2    4.30    0.45 
   7   5  -2   21.21    0.95 
  -7  -5   2   21.19    1.02 
  -7  -5   2   19.71    0.86 
   6   5  -2    6.77    0.39 
  -6  -5   2    6.87    0.37 
  -6  -5   2    6.40    0.45 
   5   5  -2    8.53    0.44 
  -5  -5   2    8.93    0.41 
  -5  -5   2    7.71    0.50 
   4   5  -2   17.11    0.71 
  -4  -5   2   16.96    0.66 
  -4  -5   2   15.34    0.77 
   3   5  -2   12.93    0.55 
  -3  -5   2   12.13    0.60 
  -3  -5   2   12.96    0.51 
   2   5  -2   19.98    0.79 
  -2  -5   2   19.65    0.72 
  -2  -5   2   18.56    0.82 
  -1  -5   2    4.82    0.27 
  -1  -5   2    5.13    0.24 
   0   5  -2  144.67    5.34 
   0  -5   2  142.78    5.11 
   0  -5   2  142.37    4.95 
  -1   5  -2    4.67    0.30 
   1  -5   2    4.20    0.24 
   1  -5   2    5.01    0.24 
  -2   5  -2   17.87    0.82 
   2  -5   2   17.77    0.74 
  -3   5  -2   12.07    0.65 
   3  -5   2   13.11    0.59 
  -4   5  -2   14.37    0.76 
  -5   5  -2    9.39    0.60 
  -6   5  -2    6.23    0.49 
  -7   5  -2   20.93    1.12 
  -8   5  -2    4.81    0.53 
  -9   5  -2    0.50    0.25 
 -10   5  -2    0.43    0.28 
 -11   5  -2    2.36    0.47 
 -12   5  -2    1.45    0.45 
 -13   5  -2   -0.30    0.35 
 -14  -4   2    0.30    0.36 
 -13  -4   2    0.13    0.29 
 -12  -4   2    1.29    0.35 
 -11  -4   2    1.21    0.26 
 -10  -4   2    4.14    0.38 
   9   4  -2    0.37    0.18 
  -9  -4   2    0.26    0.17 
   8   4  -2    9.60    0.54 
  -8  -4   2    8.77    0.49 
   7   4  -2    3.96    0.31 
  -7  -4   2    4.66    0.31 
   6   4  -2   14.59    0.68 
  -6  -4   2   13.86    0.63 
   5   4  -2    6.82    0.37 
  -5  -4   2    6.87    0.35 
   4   4  -2    4.89    0.27 
  -4  -4   2    5.05    0.27 
   3   4  -2   20.56    0.82 
  -3  -4   2   20.48    0.77 
  -3  -4   2   19.99    0.87 
   2   4  -2   31.42    1.21 
  -2  -4   2   31.84    1.13 
  -2  -4   2   30.75    1.23 
  -1  -4   2   74.85    2.75 
  -1  -4   2   76.38    2.63 
   0   4  -2  126.01    4.67 
   0  -4   2  126.58    4.33 
   0  -4   2  123.46    4.47 
  -1   4  -2   75.98    2.79 
   1  -4   2   64.91    2.61 
   1  -4   2   77.95    2.57 
  -2   4  -2   28.93    1.25 
   2  -4   2   30.36    1.13 
  -3   4  -2   19.08    0.89 
   3  -4   2   19.19    0.79 
  -4   4  -2    4.75    0.37 
  -5   4  -2    5.59    0.44 
  -6   4  -2   14.64    0.83 
  -7   4  -2    4.11    0.45 
  -8   4  -2   10.60    0.75 
  -9   4  -2    0.20    0.23 
 -10   4  -2    4.21    0.56 
 -11   4  -2    1.40    0.40 
 -12   4  -2    1.07    0.40 
 -13   4  -2    0.11    0.35 
 -14   4  -2    0.55    0.45 
 -14  -3   2    0.94    0.41 
 -12  -3   2    1.99    0.34 
 -11  -3   2    2.78    0.37 
 -10  -3   2    0.53    0.23 
   9   3  -2    5.03    0.39 
  -9  -3   2    5.23    0.39 
   8   3  -2    5.57    0.41 
  -8  -3   2    6.64    0.41 
   7   3  -2    7.43    0.46 
  -7  -3   2    9.27    0.47 
   6   3  -2   16.76    0.76 
  -6  -3   2   16.43    0.72 
   5   3  -2   26.81    1.09 
  -5  -3   2   25.85    1.02 
   4   3  -2   11.24    0.49 
  -4  -3   2   10.31    0.47 
   3   3  -2  287.29   10.41 
  -3  -3   2  278.75    9.69 
   2   3  -2  152.34    5.55 
  -2  -3   2  150.90    5.41 
  -2  -3   2  148.99    5.18 
   1   3  -2   32.97    1.22 
  -1  -3   2   30.71    1.21 
  -1  -3   2   31.96    1.14 
   0   3  -2  477.05   19.06 
   0  -3   2  530.20   17.73 
   0  -3   2  553.38   18.33 
  -1   3  -2   30.66    1.24 
   1  -3   2   30.73    1.12 
  -2   3  -2  144.36    5.45 
   2  -3   2  145.90    5.03 
  -3   3  -2  259.81    9.60 
   3  -3   2  255.52    8.88 
  -4   3  -2   10.35    0.58 
  -5   3  -2   23.84    1.13 
  -6   3  -2   16.08    0.87 
  -7   3  -2    9.22    0.63 
  -8   3  -2    6.47    0.60 
  -9   3  -2    4.74    0.55 
 -10   3  -2    0.49    0.28 
 -11   3  -2    2.77    0.51 
 -12   3  -2    1.25    0.43 
 -13   3  -2    0.59    0.39 
 -14   3  -2    0.42    0.43 
 -13  -2   2   -0.16    0.26 
 -12  -2   2    0.25    0.24 
 -11  -2   2    0.85    0.26 
 -10  -2   2    0.28    0.20 
  -9  -2   2   15.90    0.84 
  -9  -2   2   14.80    0.77 
   8   2  -2    2.42    0.27 
  -8  -2   2    3.26    0.30 
   7   2  -2    2.43    0.25 
  -7  -2   2    1.89    0.23 
   6   2  -2    3.18    0.25 
  -6  -2   2    3.81    0.27 
   5   2  -2   48.74    1.87 
  -5  -2   2   46.62    1.76 
   4   2  -2    3.01    0.19 
  -4  -2   2    2.59    0.19 
   3   2  -2   77.71    2.83 
  -3  -2   2   73.28    2.65 
   2   2  -2  582.00   20.59 
  -2  -2   2  536.56   19.04 
   1   2  -2   83.60    3.05 
  -1  -2   2   80.73    2.84 
   0  -2   2  377.50   12.87 
  -1   2  -2   76.22    2.96 
   1  -2   2   79.41    2.72 
   1  -2   2   79.00    2.78 
   2  -2   2  517.51   17.60 
   2  -2   2  513.88   18.93 
   3  -2   2   68.95    2.66 
   3  -2   2   68.63    2.45 
   4  -2   2    2.89    0.26 
   5  -2   2   44.16    1.83 
   6  -2   2    2.32    0.28 
   7  -2   2    2.51    0.31 
  -8   2  -2    2.89    0.42 
  -9   2  -2   16.50    1.01 
 -10   2  -2    0.54    0.29 
 -11   2  -2    0.98    0.36 
 -12   2  -2   -0.28    0.26 
 -13   2  -2    0.55    0.36 
 -14   2  -2   -0.10    0.39 
 -14  -1   2    0.41    0.33 
 -13  -1   2    0.00    0.26 
 -12  -1   2    2.69    0.40 
 -11  -1   2    5.65    0.50 
 -10  -1   2    1.28    0.28 
 -10  -1   2    1.12    0.25 
  -9  -1   2    6.81    0.49 
  -9  -1   2    6.16    0.46 
  -8  -1   2    2.96    0.31 
  -8  -1   2    3.08    0.33 
  -7  -1   2    0.23    0.12 
  -7  -1   2    0.23    0.12 
   6   1  -2    1.21    0.16 
  -6  -1   2    2.21    0.22 
   5   1  -2    2.28    0.18 
  -5  -1   2    2.42    0.22 
   4   1  -2    3.51    0.21 
  -4  -1   2    3.33    0.22 
   3   1  -2   11.40    0.47 
  -3  -1   2   11.10    0.48 
  -2  -1   2  901.33   31.30 
  -2  -1   2  938.60   33.94 
  -1  -1   2    4.53    0.20 
   0  -1   2   41.47    1.56 
   0  -1   2   41.31    1.44 
   1  -1   2    4.47    0.20 
   1  -1   2    4.26    0.23 
   2  -1   2  833.61   29.95 
   2  -1   2  926.54   32.24 
   3  -1   2   10.55    0.52 
   4  -1   2    3.31    0.26 
   5  -1   2    2.44    0.26 
   6  -1   2    1.83    0.25 
   7  -1   2   -0.07    0.10 
   8  -1   2    2.50    0.33 
   9  -1   2    6.51    0.57 
 -10   1  -2    1.58    0.39 
 -11   1  -2    7.21    0.72 
 -12   1  -2    2.68    0.54 
 -13   1  -2    0.00    0.32 
 -14   0   2   -0.41    0.27 
 -13   0   2   -0.16    0.25 
 -12   0   2    1.58    0.35 
 -11   0   2    1.40    0.34 
 -11   0   2    2.09    0.36 
 -10   0   2   15.55    0.89 
 -10   0   2   16.25    0.86 
  -9   0   2    1.47    0.26 
  -9   0   2    1.44    0.29 
  -8   0   2    0.80    0.19 
  -7   0   2    2.05    0.26 
  -6   0   2    0.10    0.09 
  -5   0   2    4.67    0.30 
  -4   0   2    0.81    0.12 
  -3   0   2   57.94    2.18 
  -3   0   2   56.42    2.05 
  -2   0   2  285.32    9.85 
  -2   0   2  290.09   10.58 
  -1   0   2    0.93    0.06 
  -1   0   2    0.87    0.08 
   0   0   2  652.99   23.45 
   0   0   2  623.60   21.76 
  -1   0  -2    0.87    0.05 
   1   0   2    0.73    0.06 
   1   0   2    0.89    0.09 
   2   0   2  305.21   10.89 
   2   0   2  285.25   10.09 
   3   0   2   57.09    2.22 
   4   0   2    0.98    0.16 
   5   0   2    4.82    0.34 
   6   0   2   -0.05    0.09 
   7   0   2    2.68    0.32 
   8   0   2    1.01    0.23 
   9   0   2    1.31    0.30 
  10   0   2   17.02    0.99 
 -11   0  -2    2.32    0.47 
  11   0   2    2.11    0.41 
 -12   0  -2    2.07    0.47 
 -13   0  -2   -0.17    0.29 
 -14   1   2   -0.21    0.33 
 -13   1   2   -0.19    0.26 
 -12   1   2    2.32    0.40 
 -11   1   2    5.47    0.52 
 -11   1   2    4.83    0.53 
 -10   1   2    1.10    0.29 
  -9   1   2    6.54    0.49 
  -8   1   2    2.18    0.29 
  -7   1   2    0.09    0.12 
  -6   1   2    2.37    0.25 
  -5   1   2    2.10    0.22 
  -4   1   2    3.35    0.24 
  -3   1   2   11.91    0.53 
  -2   1   2  882.53   32.30 
  -1   1   2    4.38    0.20 
  -1   1   2    4.01    0.20 
   0   1   2   44.70    1.68 
  -1  -1  -2    4.44    0.19 
   1   1   2    4.37    0.23 
   1   1   2    4.23    0.17 
  -2  -1  -2  863.73   32.74 
   2   1   2 1000.00   34.13 
  -3  -1  -2   11.12    0.47 
   3   1   2   10.66    0.52 
   4   1   2    3.89    0.28 
   5   1   2    2.21    0.24 
   6   1   2    2.38    0.27 
   7   1   2   -0.04    0.10 
   8   1   2    2.59    0.34 
   9   1   2    7.26    0.57 
  10   1   2    1.08    0.30 
  11   1   2    5.85    0.59 
 -12  -1  -2    2.06    0.48 
  12   1   2    1.73    0.42 
 -13  -1  -2    0.07    0.35 
 -14   2   2   -0.30    0.30 
 -13   2   2    0.35    0.31 
 -12   2   2   -0.07    0.25 
 -11   2   2    0.72    0.29 
 -10   2   2    0.40    0.21 
  -9   2   2   15.99    0.89 
  -8   2   2    3.23    0.35 
  -7   2   2    2.71    0.30 
  -6   2   2    2.93    0.29 
  -5   2   2   45.08    1.83 
  -4   2   2    3.11    0.24 
  -3   2   2   72.04    2.75 
  -2   2   2  527.59   19.35 
  -1   2   2   81.51    3.04 
   0   2   2  369.56   12.25 
   0   2   2  297.21   11.37 
  -1  -2  -2   82.80    2.92 
   1   2   2   83.56    2.82 
   1   2   2   78.64    3.05 
  -2  -2  -2  524.50   18.84 
   2   2   2  546.33   19.64 
  -3  -2  -2   71.85    2.62 
   3   2   2   72.31    2.76 
  -4  -2  -2    3.06    0.21 
   4   2   2    2.44    0.23 
  -5  -2  -2   47.36    1.86 
   5   2   2   50.46    1.99 
  -6  -2  -2    3.01    0.27 
   6   2   2    3.29    0.32 
   7   2   2    2.51    0.30 
   8   2   2    3.05    0.36 
   9   2   2   15.10    0.88 
 -10  -2  -2    0.75    0.24 
  10   2   2    0.29    0.23 
 -11  -2  -2    1.42    0.30 
  11   2   2    0.65    0.31 
 -12  -2  -2    0.40    0.24 
  12   2   2   -0.01    0.28 
 -14   3   2    0.45    0.36 
 -13   3   2    0.60    0.34 
 -12   3   2    1.39    0.37 
 -11   3   2    3.27    0.46 
 -10   3   2    0.52    0.26 
  -9   3   2    4.25    0.45 
  -8   3   2    6.18    0.47 
  -7   3   2    8.79    0.55 
  -6   3   2   15.90    0.80 
  -5   3   2   24.98    1.11 
  -4   3   2   10.49    0.54 
  -3   3   2  259.93    9.62 
  -2   3   2  146.43    5.45 
  -1   3   2   31.30    1.23 
   0  -3  -2  557.40   19.36 
   0   3   2  542.29   20.15 
  -1  -3  -2   32.76    1.22 
   1   3   2   32.85    1.29 
  -2  -3  -2  141.76    5.18 
   2   3   2  149.34    5.42 
  -3  -3  -2  260.42    9.49 
   3   3   2  274.75    9.90 
  -4  -3  -2   10.26    0.49 
   4   3   2   10.33    0.53 
  -5  -3  -2   25.66    1.04 
   5   3   2   24.03    1.09 
  -6  -3  -2   15.10    0.74 
   6   3   2   16.74    0.81 
  -7  -3  -2    9.01    0.51 
   7   3   2    8.32    0.55 
  -8  -3  -2    5.71    0.41 
   8   3   2    6.65    0.49 
  -9  -3  -2    5.23    0.44 
   9   3   2    4.85    0.49 
 -10  -3  -2    0.45    0.22 
  10   3   2    0.99    0.29 
 -11  -3  -2    4.06    0.45 
  11   3   2    3.41    0.48 
 -12  -3  -2    1.39    0.35 
  12   3   2    1.49    0.39 
 -14   4   2    0.29    0.36 
 -12   4   2    0.96    0.33 
 -11   4   2    1.73    0.37 
 -10   4   2    4.64    0.50 
  -9   4   2    0.51    0.24 
  -8   4   2    7.49    0.54 
  -7   4   2    4.95    0.42 
  -6   4   2   12.98    0.71 
  -5   4   2    6.04    0.41 
  -4   4   2    4.10    0.31 
  -3   4   2   20.39    0.90 
  -2   4   2   29.89    1.22 
  -1   4   2   77.24    2.93 
   0  -4  -2  128.43    4.59 
   0   4   2  128.09    4.78 
  -1  -4  -2   79.50    2.83 
   1   4   2   76.67    2.96 
  -2  -4  -2   29.94    1.17 
   2   4   2   31.71    1.24 
  -3  -4  -2   19.89    0.69 
  -3  -4  -2   18.91    0.79 
   3   4   2   18.73    0.84 
  -4  -4  -2    4.50    0.21 
  -4  -4  -2    4.72    0.28 
   4   4   2    3.64    0.29 
  -5  -4  -2    6.82    0.39 
   5   4   2    5.70    0.39 
  -6  -4  -2   12.83    0.65 
   6   4   2   13.32    0.69 
  -7  -4  -2    4.10    0.35 
   7   4   2    4.13    0.38 
  -8  -4  -2    9.32    0.56 
  -8  -4  -2    9.59    0.49 
   8   4   2    8.32    0.58 
  -9  -4  -2    0.28    0.15 
  -9  -4  -2    0.00    0.16 
   9   4   2    0.19    0.22 
 -10  -4  -2    3.87    0.42 
  10   4   2    4.52    0.49 
 -11  -4  -2    2.07    0.35 
  11   4   2    1.79    0.38 
 -12  -4  -2    0.77    0.28 
  12   4   2    1.18    0.38 
 -13  -4  -2    0.77    0.35 
 -13   5   2   -0.12    0.33 
 -12   5   2    1.04    0.36 
 -11   5   2    2.48    0.43 
 -10   5   2    0.50    0.27 
  -9   5   2    1.03    0.29 
  -8   5   2    4.95    0.48 
  -7   5   2   20.37    1.03 
  -6   5   2    6.59    0.47 
  -5   5   2    8.26    0.51 
  -4   5   2   14.50    0.72 
  -3   5   2   13.51    0.66 
  -2   5   2   19.81    0.87 
  -1   5   2    4.71    0.29 
   0  -5  -2  145.44    5.15 
   0   5   2  142.24    5.37 
  -1  -5  -2    5.57    0.28 
   1   5   2    4.71    0.29 
  -2  -5  -2   20.35    0.83 
   2   5   2   20.36    0.87 
  -3  -5  -2   13.03    0.58 
   3   5   2   13.33    0.62 
  -4  -5  -2   15.04    0.71 
  -4  -5  -2   16.75    0.59 
   4   5   2   16.20    0.76 
  -5  -5  -2    7.86    0.45 
  -5  -5  -2    8.65    0.36 
   5   5   2    7.88    0.48 
  -6  -5  -2    5.92    0.30 
  -6  -5  -2    5.81    0.39 
   6   5   2    5.71    0.40 
  -7  -5  -2   19.13    0.80 
  -7  -5  -2   19.66    0.93 
   7   5   2   20.55    0.98 
  -8  -5  -2    4.52    0.31 
  -8  -5  -2    4.98    0.42 
   8   5   2    4.57    0.43 
  -9  -5  -2    0.70    0.23 
   9   5   2    0.61    0.25 
 -10  -5  -2    0.23    0.21 
  10   5   2    0.42    0.26 
 -11  -5  -2    2.65    0.40 
  11   5   2    2.19    0.43 
 -12  -5  -2    1.58    0.34 
 -13  -5  -2    0.47    0.31 
 -13   6   2    0.18    0.35 
 -12   6   2    0.50    0.33 
 -11   6   2    1.27    0.36 
 -10   6   2    2.97    0.44 
  -9   6   2    6.64    0.59 
  -8   6   2    0.97    0.27 
  -7   6   2    7.74    0.57 
  -6   6   2   13.06    0.73 
  -5   6   2   11.00    0.63 
  -4   6   2   16.24    0.81 
  -3   6   2    2.28    0.25 
  -2   6   2    9.70    0.51 
  -1   6   2    2.56    0.23 
   0  -6  -2   40.79    1.53 
   0   6   2   39.01    1.60 
  -1  -6  -2    2.97    0.20 
   1   6   2    2.36    0.21 
  -2  -6  -2    9.47    0.44 
   2   6   2    8.61    0.47 
  -3  -6  -2    2.37    0.21 
   3   6   2    1.87    0.20 
  -4  -6  -2   15.09    0.70 
   4   6   2   15.93    0.75 
  -5  -6  -2   12.65    0.47 
  -5  -6  -2   11.62    0.60 
   5   6   2   11.37    0.63 
  -6  -6  -2   11.97    0.65 
  -6  -6  -2   13.72    0.53 
   6   6   2   12.30    0.69 
  -7  -6  -2    6.37    0.44 
   7   6   2    6.14    0.45 
  -8  -6  -2    0.28    0.18 
   8   6   2    0.74    0.24 
  -9  -6  -2    6.03    0.50 
   9   6   2    5.69    0.53 
 -10  -6  -2    2.65    0.38 
  10   6   2    2.94    0.43 
 -11  -6  -2    0.94    0.30 
  11   6   2    1.40    0.35 
 -12  -6  -2    0.43    0.27 
 -13  -6  -2    0.56    0.32 
 -13   7   2    0.59    0.40 
 -12   7   2    0.41    0.33 
 -11   7   2    1.43    0.40 
 -10   7   2    6.90    0.64 
  -9   7   2    2.58    0.42 
  -8   7   2    3.12    0.42 
  -7   7   2    4.43    0.46 
  -6   7   2    1.40    0.28 
  -5   7   2    9.98    0.61 
  -4   7   2    0.42    0.14 
  -3   7   2   23.17    1.06 
  -2   7   2    4.14    0.31 
  -1   7   2    8.44    0.46 
   0  -7  -2   34.90    1.37 
   0   7   2   34.86    1.44 
  -1  -7  -2    9.72    0.47 
   1   7   2    9.11    0.49 
  -2  -7  -2    4.55    0.29 
   2   7   2    4.50    0.31 
  -3  -7  -2   22.39    0.96 
   3   7   2   23.21    1.01 
  -4  -7  -2    0.33    0.12 
   4   7   2    0.54    0.14 
  -5  -7  -2    9.79    0.55 
   5   7   2   10.57    0.59 
  -6  -7  -2    1.05    0.23 
   6   7   2    1.11    0.21 
  -7  -7  -2    4.02    0.39 
   7   7   2    3.86    0.38 
  -8  -7  -2    2.81    0.36 
   8   7   2    2.95    0.37 
  -9  -7  -2    2.58    0.36 
   9   7   2    2.63    0.39 
 -10  -7  -2    6.56    0.56 
  10   7   2    6.33    0.59 
 -11  -7  -2    1.95    0.35 
 -12  -7  -2    0.05    0.23 
 -13  -7  -2    1.08    0.37 
 -12   8   2   -0.08    0.27 
 -11   8   2    0.55    0.30 
 -10   8   2    0.17    0.25 
  -9   8   2    4.98    0.54 
  -8   8   2   15.69    0.93 
  -7   8   2   11.50    0.74 
  -6   8   2    6.96    0.54 
  -5   8   2   33.13    1.50 
  -4   8   2    5.75    0.43 
  -3   8   2    3.45    0.33 
  -2   8   2   10.58    0.58 
  -1   8   2    8.25    0.47 
   0  -8  -2   13.51    0.64 
   0   8   2   14.23    0.69 
  -1  -8  -2    8.16    0.43 
   1   8   2    7.81    0.46 
  -2  -8  -2    9.77    0.50 
   2   8   2   10.02    0.54 
  -3  -8  -2    3.67    0.28 
   3   8   2    3.74    0.30 
  -4  -8  -2    5.84    0.37 
   4   8   2    5.52    0.39 
  -5  -8  -2   34.90    1.43 
   5   8   2   33.71    1.49 
  -6  -8  -2    7.05    0.48 
   6   8   2    6.66    0.47 
  -7  -8  -2   11.94    0.68 
   7   8   2   10.89    0.69 
  -8  -8  -2   15.52    0.83 
   8   8   2   15.21    0.87 
  -9  -8  -2    6.12    0.52 
   9   8   2    5.20    0.52 
 -10  -8  -2    0.03    0.21 
  10   8   2    0.17    0.27 
 -11  -8  -2    0.89    0.29 
 -12  -8  -2   -0.09    0.26 
 -12   9   2   -0.04    0.32 
 -11   9   2    1.95    0.44 
 -10   9   2    0.42    0.32 
  -9   9   2    1.05    0.34 
  -8   9   2    2.51    0.42 
  -7   9   2    5.98    0.56 
  -6   9   2   17.38    0.95 
  -5   9   2   16.52    0.91 
  -4   9   2   31.14    1.42 
  -3   9   2    4.64    0.40 
  -2   9   2   25.62    1.16 
  -1   9   2    4.28    0.34 
   0  -9  -2    0.06    0.09 
   0   9   2   -0.11    0.08 
  -1  -9  -2    4.02    0.29 
   1   9   2    4.85    0.35 
  -2  -9  -2   26.52    1.09 
   2   9   2   24.36    1.13 
  -3  -9  -2    4.69    0.33 
   3   9   2    4.95    0.37 
  -4  -9  -2   29.48    1.23 
   4   9   2   27.83    1.27 
  -5  -9  -2   15.64    0.81 
   5   9   2   17.85    0.87 
  -6  -9  -2   17.86    0.87 
   6   9   2   16.33    0.89 
  -7  -9  -2    6.86    0.51 
   7   9   2    7.40    0.55 
  -8  -9  -2    2.40    0.36 
   8   9   2    1.90    0.34 
  -9  -9  -2    0.95    0.28 
   9   9   2    1.08    0.30 
 -10  -9  -2    0.87    0.28 
 -11  -9  -2    1.43    0.34 
 -12  -9  -2    0.10    0.28 
 -12  10   2    0.10    0.35 
 -11  10   2   -0.55    0.28 
 -10  10   2    0.21    0.32 
  -9  10   2    0.38    0.26 
  -8  10   2    0.98    0.31 
  -7  10   2    1.78    0.35 
  -6  10   2    4.14    0.48 
  -5  10   2    0.23    0.21 
  -4  10   2   12.12    0.73 
  -3  10   2    4.29    0.42 
  -2  10   2    3.39    0.35 
  -1  10   2    0.25    0.16 
   0 -10  -2    0.09    0.12 
   0  10   2    0.14    0.12 
  -1 -10  -2    0.37    0.16 
   1  10   2    0.30    0.14 
  -2 -10  -2    3.13    0.32 
   2  10   2    4.39    0.36 
  -3 -10  -2    4.74    0.36 
   3  10   2    4.54    0.39 
  -4 -10  -2   11.81    0.62 
   4  10   2    9.39    0.61 
  -5 -10  -2    0.70    0.23 
   5  10   2    0.52    0.21 
  -6 -10  -2    4.88    0.43 
   6  10   2    3.97    0.43 
  -7 -10  -2    2.03    0.32 
   7  10   2    2.15    0.34 
  -8 -10  -2    0.58    0.22 
   8  10   2    1.01    0.28 
  -9 -10  -2    0.27    0.21 
   9  10   2    0.01    0.27 
 -10 -10  -2    0.74    0.26 
 -11 -10  -2   -0.13    0.25 
 -12 -10  -2   -0.26    0.28 
 -11  11   2    0.35    0.38 
 -10  11   2    0.01    0.28 
  -9  11   2    0.15    0.28 
  -8  11   2    0.39    0.25 
  -7  11   2    2.47    0.41 
  -6  11   2    0.91    0.28 
  -5  11   2    4.58    0.48 
  -4  11   2    6.46    0.55 
  -3  11   2    0.78    0.25 
  -2  11   2    3.72    0.40 
  -1  11   2    1.42    0.26 
   0 -11  -2    1.92    0.27 
   0  11   2    1.67    0.27 
  -1 -11  -2    0.84    0.20 
   1  11   2    1.06    0.24 
  -2 -11  -2    2.83    0.32 
   2  11   2    4.07    0.39 
  -3 -11  -2    0.29    0.17 
   3  11   2    0.41    0.19 
  -4 -11  -2    7.05    0.48 
   4  11   2    7.48    0.51 
  -5 -11  -2    5.61    0.46 
   5  11   2    4.60    0.44 
  -6 -11  -2    1.19    0.27 
   6  11   2    1.07    0.27 
  -7 -11  -2    2.90    0.38 
   7  11   2    3.24    0.42 
  -8 -11  -2    0.40    0.24 
   8  11   2    0.45    0.27 
  -9 -11  -2   -0.10    0.20 
 -10 -11  -2    0.29    0.25 
 -11 -11  -2    0.46    0.31 
 -11  12   2   -0.19    0.38 
 -10  12   2    0.28    0.33 
  -9  12   2    0.43    0.34 
  -8  12   2   -0.10    0.22 
  -7  12   2    0.90    0.33 
  -6  12   2    3.30    0.46 
  -5  12   2    3.20    0.43 
  -4  12   2    5.39    0.53 
  -3  12   2    8.11    0.59 
  -2  12   2    6.36    0.51 
  -1  12   2    0.52    0.23 
   0 -12  -2    0.20    0.19 
   0  12   2    0.51    0.22 
  -1 -12  -2    0.69    0.21 
   1  12   2    0.40    0.19 
  -2 -12  -2    5.64    0.42 
   2  12   2    4.81    0.45 
  -3 -12  -2    6.35    0.48 
   3  12   2    7.31    0.53 
  -4 -12  -2    4.95    0.43 
   4  12   2    5.06    0.46 
  -5 -12  -2    2.50    0.33 
   5  12   2    2.42    0.36 
  -6 -12  -2    3.59    0.41 
   6  12   2    3.52    0.43 
  -7 -12  -2    1.19    0.28 
   7  12   2    0.65    0.27 
  -8 -12  -2    0.14    0.22 
  -9 -12  -2    0.65    0.28 
 -10 -12  -2    0.11    0.27 
 -11 -12  -2   -0.24    0.27 
 -10  13   2    0.43    0.37 
  -9  13   2    0.15    0.35 
  -8  13   2    1.24    0.37 
  -7  13   2    0.35    0.29 
  -6  13   2    0.84    0.31 
  -5  13   2    0.98    0.30 
  -4  13   2    0.13    0.21 
  -3  13   2    4.23    0.46 
  -2  13   2    1.15    0.30 
  -1  13   2    4.81    0.48 
   0 -13  -2    0.36    0.20 
   0  13   2    0.36    0.22 
  -1 -13  -2    4.26    0.41 
   1  13   2    4.13    0.42 
  -2 -13  -2    0.28    0.18 
   2  13   2    0.23    0.21 
  -3 -13  -2    3.94    0.41 
   3  13   2    4.09    0.44 
  -4 -13  -2    0.26    0.19 
   4  13   2    0.34    0.22 
  -5 -13  -2    1.10    0.28 
   5  13   2    1.46    0.32 
  -6 -13  -2    1.14    0.26 
   6  13   2    0.66    0.26 
  -7 -13  -2    0.11    0.22 
   7  13   2    0.58    0.29 
  -8 -13  -2    0.61    0.28 
  -9 -13  -2    0.43    0.28 
 -10 -13  -2    0.09    0.30 
  -9  14   2    0.86    0.43 
  -8  14   2    0.38    0.32 
  -7  14   2    0.34    0.33 
  -6  14   2    0.23    0.27 
  -5  14   2   -0.11    0.21 
  -4  14   2    0.12    0.22 
  -3  14   2    3.11    0.44 
  -2  14   2    2.12    0.36 
  -1  14   2    8.39    0.64 
   0 -14  -2    9.58    0.60 
   0  14   2    8.06    0.61 
  -1 -14  -2    8.42    0.56 
   1  14   2    8.44    0.62 
  -2 -14  -2    1.64    0.30 
   2  14   2    2.22    0.35 
  -3 -14  -2    2.88    0.37 
   3  14   2    3.62    0.43 
  -4 -14  -2    0.00    0.19 
   4  14   2    0.43    0.23 
  -5 -14  -2    0.19    0.21 
   5  14   2   -0.14    0.20 
  -6 -14  -2    0.26    0.24 
   6  14   2   -0.27    0.21 
  -7 -14  -2    0.53    0.26 
  -8 -14  -2    0.27    0.26 
  -9 -14  -2    0.49    0.33 
  -8  15   2    0.53    0.37 
  -7  15   2    0.49    0.40 
  -6  15   2    1.05    0.34 
  -5  15   2    0.06    0.24 
  -4  15   2    1.18    0.34 
  -3  15   2    0.98    0.31 
  -2  15   2    0.65    0.29 
  -1  15   2    3.88    0.48 
   0  15   2    0.14    0.24 
  -1 -15  -2    4.18    0.45 
   1  15   2    4.21    0.47 
  -2 -15  -2    0.37    0.22 
   2  15   2    0.98    0.30 
  -3 -15  -2    1.07    0.28 
   3  15   2    1.41    0.34 
  -4 -15  -2    0.65    0.25 
   4  15   2    1.60    0.34 
  -5 -15  -2   -0.10    0.21 
   5  15   2    0.17    0.24 
  -6 -15  -2    1.13    0.34 
   6  15   2    1.53    0.41 
  -7 -15  -2   -0.11    0.25 
  -8 -15  -2    0.54    0.33 
  -7  16   2    0.02    0.31 
  -6  16   2    1.40    0.42 
  -5  16   2    0.20    0.30 
  -4  16   2    0.79    0.33 
  -3  16   2    0.38    0.27 
  -2  16   2    0.76    0.31 
  -1  16   2    3.05    0.46 
   0  16   2    0.81    0.30 
  -1 -16  -2    2.28    0.37 
   1  16   2    2.73    0.41 
  -2 -16  -2    0.56    0.25 
   2  16   2    1.13    0.33 
  -3 -16  -2    0.29    0.24 
   3  16   2    0.23    0.24 
  -4 -16  -2    0.99    0.31 
   4  16   2    0.43    0.28 
  -5 -16  -2    0.18    0.27 
   5  16   2   -0.28    0.25 
  -6 -16  -2    1.19    0.37 
  -7 -16  -2   -0.13    0.30 
  -6  17   2    0.02    0.29 
  -5  17   2    0.25    0.30 
  -4  17   2    0.07    0.28 
  -3  17   2    0.73    0.32 
  -2  17   2   -0.02    0.28 
  -1  17   2    1.01    0.34 
   0  17   2   -0.02    0.26 
   1  17   2    2.05    0.42 
  -2 -17  -2    0.31    0.26 
   2  17   2    0.49    0.30 
  -3 -17  -2    0.34    0.29 
   3  17   2    1.04    0.33 
  -4 -17  -2   -0.11    0.24 
   4  17   2    0.21    0.29 
  -5 -17  -2    0.26    0.29 
  -6 -17  -2    0.22    0.30 
  -4  18   2    0.05    0.32 
  -3  18   2    0.87    0.38 
  -2  18   2    0.03    0.31 
  -1  18   2    1.27    0.38 
   0  18   2    0.15    0.31 
   1  18   2    1.86    0.44 
  -2 -18  -2   -0.01    0.25 
   2  18   2    0.42    0.35 
  -3 -18  -2    0.48    0.33 
   3  18   2    0.47    0.34 
  -4 -18  -2   -0.03    0.30 
   4  18   2   -0.09    0.35 
  -3 -18   3    0.59    0.31 
  -2 -18   3   -0.11    0.27 
  -1 -18   3   -0.03    0.26 
   0  18  -3    0.20    0.31 
   0 -18   3    0.43    0.27 
  -1  18  -3    0.32    0.30 
  -2  18  -3   -0.06    0.30 
  -3  18  -3    0.29    0.31 
  -5 -17   3    1.25    0.36 
  -4 -17   3    0.02    0.28 
  -3 -17   3    0.60    0.30 
  -2 -17   3    0.02    0.24 
  -1 -17   3   -0.11    0.23 
   0  17  -3    1.44    0.33 
   0 -17   3    1.52    0.33 
  -1  17  -3    0.42    0.28 
  -2  17  -3    0.29    0.28 
  -3  17  -3    0.01    0.29 
  -4  17  -3   -0.29    0.27 
  -5  17  -3    0.51    0.40 
  -7 -16   3    0.86    0.36 
  -6 -16   3    0.16    0.28 
  -5 -16   3    0.16    0.25 
  -4 -16   3    2.34    0.40 
  -3 -16   3    1.01    0.29 
  -2 -16   3    1.90    0.35 
   1  16  -3    0.51    0.25 
  -1 -16   3    0.31    0.22 
   0  16  -3    1.59    0.33 
   0 -16   3    2.01    0.33 
  -1  16  -3    0.07    0.25 
  -2  16  -3    1.18    0.33 
  -3  16  -3    0.26    0.28 
  -4  16  -3    2.02    0.44 
  -5  16  -3    0.01    0.30 
  -6  16  -3    0.76    0.39 
  -7  16  -3    0.92    0.43 
  -8 -15   3    2.54    0.48 
  -7 -15   3    0.20    0.28 
  -6 -15   3    2.86    0.43 
  -5 -15   3    0.51    0.27 
  -4 -15   3    0.62    0.26 
  -3 -15   3    1.76    0.33 
   2  15  -3    2.81    0.38 
  -2 -15   3    3.13    0.39 
   1  15  -3   -0.10    0.20 
  -1 -15   3    0.27    0.19 
   0  15  -3    1.16    0.28 
   0 -15   3    1.24    0.27 
  -1  15  -3    0.18    0.23 
   1 -15   3    0.25    0.19 
  -2  15  -3    3.14    0.43 
  -3  15  -3    0.97    0.31 
  -4  15  -3    0.71    0.32 
  -5  15  -3    0.16    0.28 
  -6  15  -3    3.87    0.56 
  -7  15  -3    0.11    0.32 
  -8  15  -3    2.38    0.51 
  -9 -14   3    0.40    0.30 
  -8 -14   3    0.11    0.27 
  -7 -14   3    0.06    0.24 
  -6 -14   3    0.30    0.25 
  -5 -14   3    1.10    0.29 
  -4 -14   3    0.37    0.21 
  -3 -14   3    0.58    0.23 
   2  14  -3    8.36    0.56 
  -2 -14   3    7.79    0.54 
   1  14  -3    0.09    0.21 
  -1 -14   3    0.10    0.17 
   0  14  -3    1.40    0.30 
   0 -14   3    0.97    0.25 
  -1  14  -3   -0.07    0.20 
   1 -14   3    0.19    0.18 
  -2  14  -3    7.32    0.58 
  -3  14  -3    1.00    0.30 
  -4  14  -3    0.39    0.26 
  -5  14  -3    0.53    0.29 
  -6  14  -3    0.42    0.31 
  -7  14  -3   -0.05    0.29 
  -8  14  -3    0.97    0.39 
  -9  14  -3    0.13    0.38 
 -10 -13   3    0.63    0.35 
  -9 -13   3    0.02    0.30 
  -8 -13   3    0.86    0.31 
  -7 -13   3    1.18    0.31 
  -6 -13   3    0.10    0.23 
  -5 -13   3    3.68    0.43 
  -4 -13   3    0.69    0.22 
   3  13  -3    4.96    0.42 
  -3 -13   3    5.02    0.44 
   2  13  -3    2.60    0.32 
  -2 -13   3    3.07    0.34 
   1  13  -3    2.53    0.32 
  -1 -13   3    2.68    0.32 
   0  13  -3    0.35    0.21 
   0 -13   3    0.48    0.16 
   0 -13   3    0.20    0.17 
  -1  13  -3    2.75    0.36 
   1 -13   3    3.08    0.35 
   1 -13   3    3.00    0.33 
  -2  13  -3    2.40    0.36 
  -3  13  -3    4.68    0.50 
  -4  13  -3    0.89    0.29 
  -5  13  -3    3.42    0.48 
  -6  13  -3   -0.24    0.22 
  -7  13  -3    1.96    0.43 
  -8  13  -3    0.68    0.39 
  -9  13  -3    0.55    0.40 
 -10  13  -3    0.62    0.41 
 -10 -12   3    0.80    0.33 
  -9 -12   3   -0.13    0.26 
  -8 -12   3    0.70    0.30 
  -7 -12   3    0.12    0.22 
  -6 -12   3    0.60    0.23 
  -5 -12   3    0.42    0.19 
  -4 -12   3    2.94    0.36 
   3  12  -3    9.50    0.53 
  -3 -12   3    8.01    0.54 
   2  12  -3   22.20    1.00 
  -2 -12   3   18.85    0.87 
  -2 -12   3   21.35    0.98 
   1  12  -3    6.09    0.44 
  -1 -12   3    5.88    0.39 
  -1 -12   3    5.89    0.43 
   0  12  -3   31.25    1.40 
   0 -12   3   31.87    1.29 
   0 -12   3   31.07    1.32 
  -1  12  -3    5.76    0.48 
   1 -12   3    5.58    0.41 
   1 -12   3    5.97    0.42 
  -2  12  -3   21.36    1.08 
   2 -12   3   20.74    0.98 
  -3  12  -3    8.57    0.63 
  -4  12  -3    2.61    0.40 
  -5  12  -3    0.40    0.25 
  -6  12  -3    0.71    0.29 
  -7  12  -3   -0.19    0.23 
  -8  12  -3    1.09    0.35 
  -9  12  -3    0.10    0.33 
 -10  12  -3    0.60    0.42 
 -11 -11   3    0.15    0.33 
 -10 -11   3   -0.07    0.26 
  -9 -11   3    0.20    0.26 
  -8 -11   3    1.06    0.32 
  -7 -11   3    0.97    0.27 
  -6 -11   3   -0.22    0.17 
  -5 -11   3    1.89    0.33 
   4  11  -3    8.04    0.47 
  -4 -11   3    7.06    0.50 
  -3 -11   3    8.58    0.55 
  -3 -11   3    9.19    0.45 
   2  11  -3    3.37    0.31 
  -2 -11   3    2.54    0.30 
  -2 -11   3    3.64    0.27 
   1  11  -3    0.71    0.18 
  -1 -11   3    0.53    0.18 
  -1 -11   3    0.69    0.16 
   0  11  -3    0.04    0.13 
   0 -11   3    0.06    0.14 
   0 -11   3   -0.17    0.12 
  -1  11  -3    0.48    0.21 
   1 -11   3    0.67    0.18 
   1 -11   3    0.81    0.17 
  -2  11  -3    2.94    0.36 
   2 -11   3    3.02    0.31 
   2 -11   3    2.37    0.26 
  -3  11  -3    9.98    0.65 
  -4  11  -3    8.61    0.66 
  -5  11  -3    1.17    0.30 
  -6  11  -3   -0.19    0.21 
  -7  11  -3    0.52    0.27 
  -8  11  -3    0.87    0.33 
  -9  11  -3    0.16    0.32 
 -10  11  -3   -0.11    0.36 
 -11  11  -3    0.25    0.45 
 -12 -10   3    0.32    0.34 
 -11 -10   3    1.49    0.42 
 -10 -10   3    0.28    0.27 
  -9 -10   3   -0.03    0.22 
  -8 -10   3    0.02    0.21 
  -7 -10   3    6.79    0.58 
  -6 -10   3    1.61    0.30 
   5  10  -3   10.46    0.57 
  -5 -10   3   11.25    0.67 
   4  10  -3   12.14    0.63 
  -4 -10   3   13.61    0.57 
  -4 -10   3   12.80    0.71 
  -3 -10   3   11.70    0.63 
  -3 -10   3   11.47    0.52 
   2  10  -3    3.01    0.27 
  -2 -10   3    2.81    0.23 
  -2 -10   3    2.00    0.26 
   1  10  -3   10.41    0.57 
  -1 -10   3   11.28    0.53 
  -1 -10   3   11.21    0.56 
   0  10  -3    1.54    0.22 
   0 -10   3    1.11    0.18 
   0 -10   3    1.28    0.19 
  -1  10  -3   10.51    0.60 
   1 -10   3   10.56    0.53 
   1 -10   3   10.90    0.55 
  -2  10  -3    2.72    0.33 
   2 -10   3    3.41    0.30 
   2 -10   3    2.79    0.26 
  -3  10  -3   11.97    0.70 
   3 -10   3    9.93    0.58 
  -4  10  -3   11.52    0.74 
  -5  10  -3   11.56    0.76 
  -6  10  -3    1.60    0.37 
  -7  10  -3    5.78    0.62 
  -8  10  -3    0.26    0.30 
  -9  10  -3    0.97    0.38 
 -10  10  -3    0.73    0.39 
 -11  10  -3    0.86    0.45 
 -12  10  -3    0.38    0.41 
 -12  -9   3   -0.04    0.29 
 -11  -9   3    1.51    0.39 
 -10  -9   3    1.17    0.33 
  -9  -9   3    3.02    0.44 
  -8  -9   3    1.56    0.33 
  -7  -9   3   12.90    0.78 
  -6  -9   3    0.39    0.21 
  -6  -9   3    0.23    0.11 
   5   9  -3    5.69    0.39 
  -5  -9   3    7.25    0.50 
  -5  -9   3    7.23    0.35 
   4   9  -3    6.71    0.40 
  -4  -9   3    6.85    0.47 
  -4  -9   3    7.12    0.36 
   3   9  -3    3.40    0.26 
  -3  -9   3    3.31    0.22 
  -3  -9   3    2.62    0.29 
   2   9  -3   12.66    0.64 
  -2  -9   3   14.29    0.60 
  -2  -9   3   14.37    0.67 
   1   9  -3    0.70    0.14 
  -1  -9   3    0.67    0.13 
  -1  -9   3    0.51    0.12 
   0   9  -3    2.73    0.26 
   0  -9   3    2.56    0.23 
   0  -9   3    2.77    0.24 
  -1   9  -3    0.55    0.16 
   1  -9   3    0.50    0.14 
   1  -9   3    0.56    0.12 
  -2   9  -3   13.43    0.75 
   2  -9   3   15.41    0.66 
   2  -9   3   13.74    0.68 
  -3   9  -3    3.27    0.36 
   3  -9   3    3.23    0.31 
  -4   9  -3    6.03    0.53 
  -5   9  -3    7.16    0.61 
  -6   9  -3    0.41    0.24 
  -7   9  -3   12.82    0.88 
  -8   9  -3    1.52    0.38 
  -9   9  -3    2.80    0.50 
 -10   9  -3    0.68    0.37 
 -11   9  -3    0.78    0.40 
 -12   9  -3   -0.12    0.38 
 -12  -8   3    0.06    0.31 
 -11  -8   3    1.01    0.33 
 -10  -8   3    2.87    0.46 
  -9  -8   3    0.90    0.30 
  -8  -8   3    5.48    0.54 
  -7  -8   3    2.51    0.38 
  -7  -8   3    3.55    0.26 
  -6  -8   3   13.62    0.60 
  -6  -8   3   14.59    0.79 
   5   8  -3   11.44    0.58 
  -5  -8   3   11.42    0.67 
  -5  -8   3   12.56    0.53 
   4   8  -3    0.96    0.14 
  -4  -8   3    0.64    0.16 
  -4  -8   3    1.05    0.13 
   3   8  -3   11.76    0.55 
  -3  -8   3   11.09    0.59 
  -3  -8   3   11.88    0.50 
  -2  -8   3    2.61    0.25 
  -2  -8   3    2.87    0.20 
   1   8  -3    2.06    0.20 
  -1  -8   3    1.90    0.18 
  -1  -8   3    2.01    0.20 
   0   8  -3   20.97    0.93 
   0  -8   3   21.49    0.85 
   0  -8   3   20.35    0.87 
  -1   8  -3    1.82    0.24 
   1  -8   3    2.36    0.20 
   1  -8   3    2.69    0.23 
  -2   8  -3    3.42    0.33 
   2  -8   3    2.90    0.27 
   2  -8   3    3.41    0.23 
  -3   8  -3   11.54    0.67 
   3  -8   3   11.65    0.59 
  -4   8  -3    0.63    0.20 
  -5   8  -3   10.61    0.70 
  -6   8  -3   13.79    0.85 
  -7   8  -3    3.39    0.47 
  -8   8  -3    4.30    0.56 
  -9   8  -3    1.19    0.35 
 -10   8  -3    2.98    0.54 
 -11   8  -3    1.04    0.40 
 -12   8  -3    0.55    0.42 
 -13  -7   3    0.18    0.33 
 -12  -7   3    0.67    0.34 
 -11  -7   3    0.74    0.31 
 -10  -7   3    0.17    0.23 
  -9  -7   3    0.98    0.30 
  -8  -7   3   15.98    0.71 
  -8  -7   3   15.40    0.90 
  -7  -7   3    1.35    0.18 
  -7  -7   3    0.82    0.25 
   6   7  -3   10.12    0.51 
  -6  -7   3    9.15    0.61 
  -6  -7   3    9.79    0.47 
   5   7  -3    0.70    0.12 
  -5  -7   3    0.66    0.18 
  -5  -7   3    0.77    0.13 
   4   7  -3    0.00    0.06 
  -4  -7   3    0.07    0.08 
  -4  -7   3    0.10    0.10 
   3   7  -3    9.80    0.46 
  -3  -7   3    9.21    0.42 
  -3  -7   3    9.92    0.52 
   2   7  -3    5.71    0.31 
  -2  -7   3    5.70    0.35 
  -2  -7   3    5.37    0.28 
   1   7  -3   31.13    1.27 
  -1  -7   3   31.33    1.17 
  -1  -7   3   31.82    1.24 
   0   7  -3   19.55    0.85 
   0  -7   3   19.06    0.79 
   0  -7   3   18.98    0.77 
  -1   7  -3   32.40    1.38 
   1  -7   3   33.46    1.26 
   1  -7   3   32.10    1.25 
  -2   7  -3    6.27    0.41 
   2  -7   3    5.82    0.31 
   2  -7   3    5.57    0.34 
  -3   7  -3    7.73    0.50 
   3  -7   3    8.28    0.45 
  -4   7  -3   -0.06    0.09 
  -5   7  -3    0.46    0.20 
  -6   7  -3    9.52    0.69 
  -7   7  -3    1.39    0.32 
  -8   7  -3   16.77    1.05 
  -9   7  -3    1.04    0.35 
 -10   7  -3    0.39    0.33 
 -11   7  -3    1.11    0.42 
 -12   7  -3    1.13    0.44 
 -13   7  -3    0.31    0.45 
 -13  -6   3    0.96    0.39 
 -12  -6   3    0.69    0.31 
 -11  -6   3    3.11    0.48 
 -10  -6   3    2.48    0.41 
 -10  -6   3    2.31    0.31 
  -9  -6   3    2.06    0.27 
  -9  -6   3    1.99    0.37 
  -8  -6   3    4.53    0.49 
  -8  -6   3    5.61    0.36 
  -7  -6   3    2.47    0.34 
  -7  -6   3    2.00    0.22 
   6   6  -3    2.92    0.24 
  -6  -6   3    2.54    0.22 
  -6  -6   3    2.22    0.31 
   5   6  -3    1.70    0.17 
  -5  -6   3    1.53    0.24 
  -5  -6   3    1.86    0.17 
   4   6  -3    6.00    0.31 
  -4  -6   3    5.74    0.29 
  -4  -6   3    5.59    0.38 
   3   6  -3   62.83    2.36 
  -3  -6   3   63.25    2.20 
  -3  -6   3   59.96    2.37 
   2   6  -3   21.59    0.88 
  -2  -6   3   21.74    0.82 
  -2  -6   3   21.31    0.91 
  -1  -6   3   10.09    0.48 
  -1  -6   3   10.45    0.44 
   0   6  -3    2.49    0.21 
   0  -6   3    2.61    0.18 
  -1   6  -3    9.91    0.53 
   1  -6   3    9.87    0.44 
   1  -6   3   10.01    0.46 
  -2   6  -3   22.53    1.01 
   2  -6   3   21.86    0.90 
  -3   6  -3   58.78    2.38 
   3  -6   3   57.89    2.16 
  -4   6  -3    5.63    0.44 
   4  -6   3    5.85    0.37 
  -5   6  -3    1.58    0.27 
  -6   6  -3    2.60    0.39 
  -7   6  -3    1.89    0.37 
  -8   6  -3    6.44    0.64 
  -9   6  -3    1.72    0.38 
 -10   6  -3    2.87    0.50 
 -11   6  -3    3.09    0.53 
 -12   6  -3    0.89    0.40 
 -13   6  -3    0.45    0.43 
 -13  -5   3    0.06    0.31 
 -12  -5   3    1.49    0.39 
 -11  -5   3    0.36    0.22 
 -11  -5   3    0.33    0.26 
 -10  -5   3    6.70    0.46 
 -10  -5   3    5.49    0.55 
  -9  -5   3    0.12    0.15 
  -8  -5   3    8.79    0.48 
   7   5  -3    1.64    0.20 
  -7  -5   3    1.58    0.21 
   6   5  -3   11.97    0.59 
  -6  -5   3   13.34    0.58 
   5   5  -3   12.67    0.56 
  -5  -5   3   10.71    0.62 
  -5  -5   3   12.35    0.53 
   4   5  -3   68.54    2.49 
  -4  -5   3   63.13    2.52 
  -4  -5   3   65.03    2.34 
   3   5  -3   16.69    0.65 
  -3  -5   3   14.39    0.72 
  -3  -5   3   15.94    0.63 
   2   5  -3   83.85    3.14 
  -2  -5   3   85.33    2.94 
  -2  -5   3   83.05    3.10 
   1   5  -3   59.89    2.32 
  -1  -5   3   60.79    2.16 
  -1  -5   3   63.11    2.27 
   0   5  -3   13.43    0.61 
   0  -5   3   13.39    0.56 
   0  -5   3   13.39    0.54 
  -1   5  -3   61.57    2.38 
   1  -5   3   59.95    2.17 
  -2   5  -3   81.34    3.19 
   2  -5   3   82.36    2.95 
   2  -5   3   82.08    2.92 
  -3   5  -3   15.85    0.80 
   3  -5   3   16.26    0.71 
  -4   5  -3   64.38    2.60 
   4  -5   3   62.68    2.35 
  -5   5  -3   12.44    0.73 
  -6   5  -3   12.00    0.74 
  -7   5  -3    1.23    0.30 
  -8   5  -3    8.73    0.70 
  -9   5  -3    0.23    0.27 
 -10   5  -3    6.08    0.67 
 -11   5  -3    0.22    0.29 
 -12   5  -3    1.64    0.46 
 -13   5  -3    0.12    0.39 
 -13  -4   3    0.79    0.37 
 -12  -4   3    0.31    0.23 
 -11  -4   3    2.27    0.33 
 -10  -4   3    2.41    0.31 
  -9  -4   3    0.79    0.21 
   8   4  -3    1.76    0.23 
  -8  -4   3    1.61    0.22 
   7   4  -3    1.03    0.17 
  -7  -4   3    0.90    0.17 
   6   4  -3    1.09    0.15 
  -6  -4   3    0.99    0.15 
   5   4  -3    3.85    0.24 
  -5  -4   3    3.52    0.25 
   4   4  -3  103.46    3.76 
  -4  -4   3   97.86    3.53 
   3   4  -3   89.91    3.32 
  -3  -4   3   88.76    3.12 
   2   4  -3    2.33    0.14 
  -2  -4   3    2.48    0.21 
  -2  -4   3    2.58    0.15 
   1   4  -3  192.48    6.98 
  -1  -4   3  186.54    6.50 
  -1  -4   3  188.86    6.75 
   0   4  -3    0.07    0.05 
   0  -4   3    0.11    0.05 
   0  -4   3    0.03    0.05 
  -1   4  -3  189.43    6.57 
   1  -4   3  185.96    6.06 
   1  -4   3  152.48    6.20 
  -2   4  -3    2.56    0.25 
   2  -4   3    2.51    0.19 
  -3   4  -3   82.59    3.29 
   3  -4   3   84.99    3.00 
  -4   4  -3   92.88    3.67 
   4  -4   3   93.29    3.34 
  -5   4  -3    3.76    0.39 
  -6   4  -3    1.04    0.23 
  -7   4  -3    1.25    0.31 
  -8   4  -3    1.58    0.37 
  -9   4  -3    0.61    0.30 
 -10   4  -3    2.83    0.49 
 -11   4  -3    2.58    0.50 
 -12   4  -3    0.43    0.36 
 -13   4  -3    0.62    0.41 
 -13  -3   3    0.41    0.28 
 -12  -3   3   -0.04    0.22 
 -11  -3   3    1.61    0.30 
 -10  -3   3    0.65    0.21 
  -9  -3   3    4.26    0.37 
   8   3  -3    5.57    0.37 
  -8  -3   3    4.81    0.35 
   7   3  -3    4.99    0.32 
  -7  -3   3    5.10    0.34 
   6   3  -3   17.80    0.77 
  -6  -3   3   16.95    0.75 
   5   3  -3   22.34    0.91 
  -5  -3   3   21.92    0.89 
   4   3  -3   51.60    1.92 
  -4  -3   3   49.46    1.83 
   3   3  -3   12.39    0.50 
  -3  -3   3   12.64    0.52 
   2   3  -3   31.46    1.17 
  -2  -3   3   30.89    1.13 
   1   3  -3   59.66    2.20 
  -1  -3   3   58.88    2.06 
  -1  -3   3   57.31    2.16 
   0  -3   3   13.16    0.51 
  -1   3  -3   56.67    2.26 
   1  -3   3   58.23    2.07 
   1  -3   3   60.27    2.10 
  -2   3  -3   30.19    1.25 
   2  -3   3   29.17    1.11 
  -3   3  -3   12.17    0.63 
   3  -3   3   11.34    0.52 
  -4   3  -3   46.26    1.93 
   4  -3   3   47.09    1.73 
   4  -3   3   44.65    1.88 
  -5   3  -3   20.91    1.06 
   5  -3   3   21.70    1.01 
  -6   3  -3   16.73    0.92 
  -7   3  -3    5.10    0.50 
  -8   3  -3    5.00    0.54 
  -9   3  -3    4.24    0.55 
 -10   3  -3    0.70    0.34 
 -11   3  -3    2.50    0.50 
 -12   3  -3   -0.12    0.29 
 -13   3  -3    0.17    0.36 
 -14   3  -3    0.33    0.43 
 -14  -2   3   -0.45    0.28 
 -13  -2   3    0.32    0.28 
 -12  -2   3    1.69    0.33 
 -11  -2   3    1.18    0.29 
 -10  -2   3    2.35    0.33 
  -9  -2   3    7.35    0.50 
  -9  -2   3    8.02    0.51 
  -8  -2   3    1.87    0.25 
  -8  -2   3    1.90    0.25 
  -7  -2   3    6.94    0.42 
  -7  -2   3    6.83    0.42 
   6   2  -3    0.65    0.12 
  -6  -2   3    0.29    0.12 
   5   2  -3    0.73    0.11 
  -5  -2   3    0.67    0.13 
   4   2  -3   84.97    3.28 
  -4  -2   3   91.37    3.12 
   3   2  -3   75.91    2.85 
  -3  -2   3   77.67    2.71 
  -2  -2   3   18.85    0.72 
   1   2  -3    7.48    0.31 
  -1  -2   3    7.48    0.31 
   0  -2   3   98.79    3.43 
   0  -2   3   99.67    3.69 
   1  -2   3    7.11    0.32 
   1  -2   3    7.78    0.29 
   1  -2   3    7.61    0.37 
   2  -2   3   18.01    0.78 
   2  -2   3   17.64    0.70 
   3  -2   3   78.03    2.96 
   3  -2   3   75.05    2.72 
   4  -2   3   86.11    3.34 
   5  -2   3    0.57    0.16 
   6  -2   3    0.31    0.15 
   7  -2   3    7.49    0.52 
   8  -2   3    1.60    0.33 
  -9   2  -3    9.09    0.71 
 -10   2  -3    1.85    0.42 
 -11   2  -3    0.92    0.36 
 -12   2  -3    1.98    0.48 
 -13   2  -3    0.32    0.39 
 -14   2  -3   -0.01    0.38 
 -14  -1   3   -0.08    0.29 
 -13  -1   3    0.03    0.27 
 -12  -1   3    2.28    0.38 
 -11  -1   3    0.64    0.27 
 -10  -1   3    2.28    0.35 
  -9  -1   3    8.18    0.52 
  -9  -1   3    6.51    0.49 
  -8  -1   3    1.36    0.25 
  -8  -1   3    1.59    0.23 
  -7  -1   3    5.87    0.39 
  -7  -1   3    5.65    0.38 
  -6  -1   3    7.38    0.42 
  -6  -1   3    7.27    0.42 
  -5  -1   3    5.95    0.34 
  -5  -1   3    5.45    0.32 
  -4  -1   3   51.48    1.87 
  -4  -1   3   50.78    1.95 
  -3  -1   3   30.43    1.17 
  -3  -1   3   30.95    1.15 
  -2  -1   3  332.49   11.38 
  -1  -1   3  294.51   10.19 
  -1  -1   3  302.33   11.04 
   0  -1   3   40.23    1.43 
   0  -1   3   40.79    1.54 
   1  -1   3  290.74   10.61 
   1  -1   3  285.45    9.84 
   2  -1   3  333.11   12.01 
   2  -1   3  317.86   11.13 
   3  -1   3   29.78    1.11 
   3  -1   3   29.23    1.23 
   4  -1   3   47.77    1.94 
   5  -1   3    5.25    0.37 
   6  -1   3    5.80    0.42 
   7  -1   3    5.84    0.45 
   8  -1   3    1.75    0.33 
   9  -1   3    7.63    0.60 
  10  -1   3    2.35    0.43 
 -11   1  -3    0.80    0.34 
 -12   1  -3    2.93    0.55 
 -13   1  -3   -0.11    0.31 
 -14   1  -3   -0.29    0.36 
 -14   0   3    0.26    0.32 
 -13   0   3    0.14    0.29 
 -12   0   3    0.22    0.25 
 -11   0   3    1.02    0.29 
 -10   0   3    7.53    0.56 
 -10   0   3    8.18    0.56 
  -9   0   3    2.65    0.32 
  -9   0   3    3.01    0.36 
  -8   0   3    4.13    0.38 
  -8   0   3    4.19    0.36 
  -7   0   3    0.53    0.17 
  -7   0   3    0.52    0.14 
  -6   0   3    6.03    0.38 
  -6   0   3    6.83    0.40 
  -5   0   3    2.46    0.20 
  -5   0   3    2.71    0.24 
  -4   0   3    6.94    0.36 
  -4   0   3    7.65    0.38 
  -3   0   3  107.94    3.98 
  -3   0   3  106.32    3.76 
  -2   0   3  130.26    4.46 
  -2   0   3  127.03    4.74 
  -1   0   3   35.38    1.29 
  -1   0   3   33.02    1.23 
   0   0   3   -0.30    0.05 
   0   0   3   -0.39    0.03 
   1   0   3   32.54    1.27 
   1   0   3   32.43    1.15 
  -2   0  -3  127.84    4.55 
   2   0   3  128.03    4.43 
   2   0   3  129.12    4.80 
  -3   0  -3  109.34    3.86 
   3   0   3  107.99    3.77 
   3   0   3  107.46    4.11 
   4   0   3    6.00    0.38 
   5   0   3    2.55    0.27 
   6   0   3    6.74    0.46 
   7   0   3    0.38    0.15 
   8   0   3    4.11    0.45 
   9   0   3    2.66    0.41 
  10   0   3    8.82    0.69 
  11   0   3    1.54    0.36 
 -12   0  -3    0.18    0.35 
 -13   0  -3    0.56    0.37 
 -14   0  -3   -0.33    0.39 
 -14   1   3    0.03    0.34 
 -13   1   3   -0.14    0.27 
 -12   1   3    2.36    0.43 
 -11   1   3    0.95    0.28 
 -10   1   3    1.70    0.32 
 -10   1   3    2.73    0.38 
  -9   1   3    7.49    0.51 
  -9   1   3    7.68    0.54 
  -8   1   3    1.63    0.24 
  -8   1   3    1.71    0.28 
  -7   1   3    6.41    0.42 
  -7   1   3    5.64    0.40 
  -6   1   3    6.31    0.39 
  -6   1   3    6.36    0.40 
  -5   1   3    5.23    0.32 
  -5   1   3    4.92    0.33 
  -4   1   3   50.11    1.97 
  -4   1   3   51.04    1.88 
  -3   1   3   29.30    1.13 
  -3   1   3   27.88    1.10 
  -2   1   3  316.68   10.93 
  -2   1   3  320.79   11.71 
  -1   1   3  292.72   10.75 
  -1   1   3  293.10   10.02 
   0   1   3   41.43    1.60 
   0   1   3   42.97    1.48 
  -1  -1  -3  294.09   10.47 
   1   1   3  300.09   10.93 
  -2  -1  -3  328.93   11.40 
   2   1   3  317.50   11.91 
  -3  -1  -3   30.53    1.15 
   3   1   3   31.27    1.28 
  -4  -1  -3   52.80    1.88 
   4   1   3   48.27    2.03 
  -5  -1  -3    5.54    0.31 
   5   1   3    5.42    0.38 
   6   1   3    6.43    0.45 
   7   1   3    5.95    0.44 
   8   1   3    1.42    0.29 
   9   1   3    7.10    0.60 
  10   1   3    2.42    0.41 
 -11  -1  -3    0.94    0.28 
  11   1   3    0.88    0.32 
  12   1   3    1.55    0.39 
 -13  -1  -3    0.40    0.38 
 -14   2   3    0.15    0.34 
 -13   2   3   -0.12    0.29 
 -12   2   3    1.29    0.34 
 -11   2   3    0.80    0.30 
 -11   2   3    1.30    0.32 
 -10   2   3    2.84    0.38 
 -10   2   3    1.06    0.29 
  -9   2   3    7.33    0.52 
  -8   2   3    1.52    0.25 
  -7   2   3    7.14    0.46 
  -6   2   3    0.50    0.13 
  -5   2   3    0.77    0.15 
  -4   2   3   86.46    3.30 
  -3   2   3   76.52    2.90 
  -2   2   3   17.54    0.71 
  -2   2   3   18.08    0.73 
  -1   2   3    7.75    0.35 
  -1   2   3    7.54    0.33 
   0   2   3  102.58    3.82 
  -1  -2  -3    7.54    0.32 
   1   2   3    7.29    0.28 
   1   2   3    7.51    0.36 
  -2  -2  -3   18.17    0.72 
   2   2   3   19.46    0.68 
   2   2   3   18.59    0.80 
  -3  -2  -3   77.40    2.72 
   3   2   3   72.83    2.89 
  -4  -2  -3   84.25    3.04 
   4   2   3   82.62    3.23 
  -5  -2  -3    0.91    0.14 
   5   2   3    1.01    0.18 
  -6  -2  -3    0.65    0.14 
   6   2   3    0.42    0.15 
  -7  -2  -3    7.13    0.43 
   7   2   3    8.00    0.53 
  -8  -2  -3    1.67    0.24 
   8   2   3    1.83    0.31 
  -9  -2  -3    7.43    0.49 
   9   2   3    8.21    0.61 
 -10  -2  -3    2.51    0.33 
  10   2   3    2.14    0.39 
 -11  -2  -3    0.87    0.27 
  11   2   3    1.54    0.38 
  12   2   3    1.57    0.40 
  13   2   3    0.36    0.33 
 -14   3   3    0.76    0.41 
 -13   3   3    0.71    0.36 
 -12   3   3   -0.04    0.27 
 -11   3   3    1.99    0.37 
 -11   3   3    2.43    0.42 
 -10   3   3    1.22    0.29 
  -9   3   3    4.86    0.45 
  -8   3   3    5.67    0.43 
  -7   3   3    5.06    0.39 
  -6   3   3   17.38    0.84 
  -5   3   3   21.78    0.98 
  -4   3   3   47.60    1.89 
  -3   3   3   11.75    0.55 
  -2   3   3   29.62    1.18 
  -1   3   3   58.65    2.22 
  -1   3   3   58.11    2.07 
   0   3   3   13.05    0.57 
   0   3   3   13.34    0.50 
  -1  -3  -3   58.65    2.10 
   1   3   3   58.43    1.99 
   1   3   3   55.69    2.20 
  -2  -3  -3   29.31    1.14 
   2   3   3   31.50    1.07 
   2   3   3   30.18    1.23 
  -3  -3  -3   12.22    0.52 
   3   3   3   12.46    0.59 
  -4  -3  -3   49.72    1.86 
   4   3   3   49.12    1.98 
  -5  -3  -3   20.82    0.87 
   5   3   3   20.53    0.96 
  -6  -3  -3   17.25    0.75 
   6   3   3   15.18    0.81 
  -7  -3  -3    5.53    0.36 
   7   3   3    5.02    0.44 
  -8  -3  -3    5.92    0.39 
   8   3   3    4.43    0.45 
  -9  -3  -3    4.28    0.39 
   9   3   3    3.98    0.46 
 -10  -3  -3    0.62    0.22 
  10   3   3    1.33    0.35 
 -11  -3  -3    1.76    0.32 
  11   3   3    2.28    0.41 
  12   3   3    0.10    0.28 
  13   3   3    0.26    0.36 
 -13   4   3    0.78    0.42 
 -12   4   3    0.35    0.30 
 -12   4   3    0.31    0.29 
 -11   4   3    2.62    0.41 
 -10   4   3    3.45    0.43 
  -9   4   3    0.34    0.20 
  -8   4   3    1.64    0.28 
  -7   4   3    1.11    0.22 
  -6   4   3    0.87    0.19 
  -5   4   3    3.62    0.31 
  -4   4   3   99.97    3.83 
  -3   4   3   80.26    3.08 
  -2   4   3    2.50    0.21 
  -1   4   3  192.56    7.14 
   0   4   3    0.28    0.09 
  -1  -4  -3  191.92    6.97 
   1   4   3  197.33    7.29 
   1   4   3  199.45    6.72 
  -2  -4  -3    2.18    0.16 
   2   4   3    2.54    0.20 
  -3  -4  -3   85.61    3.14 
   3   4   3   87.47    3.32 
  -4  -4  -3   94.39    3.47 
   4   4   3   96.18    3.67 
  -5  -4  -3    3.87    0.27 
   5   4   3    3.79    0.32 
  -6  -4  -3    0.85    0.16 
   6   4   3    0.95    0.20 
  -7  -4  -3    1.01    0.19 
   7   4   3    1.41    0.24 
  -8  -4  -3    1.49    0.24 
   8   4   3    1.60    0.31 
  -9  -4  -3    0.60    0.20 
   9   4   3    0.67    0.26 
 -10  -4  -3    2.61    0.35 
  10   4   3    3.18    0.44 
 -11  -4  -3    2.52    0.37 
  11   4   3    2.30    0.44 
 -12  -4  -3    0.21    0.24 
  12   4   3    0.72    0.34 
 -13   5   3    0.15    0.33 
 -12   5   3    1.94    0.43 
 -11   5   3   -0.12    0.23 
 -10   5   3    5.42    0.54 
  -9   5   3    0.15    0.21 
  -8   5   3    8.75    0.61 
  -7   5   3    1.29    0.25 
  -6   5   3   11.12    0.63 
  -5   5   3   13.98    0.72 
  -4   5   3   63.04    2.50 
  -3   5   3   15.48    0.73 
  -2   5   3   86.99    3.33 
  -1   5   3   63.04    2.44 
   0  -5  -3   13.82    0.59 
   0   5   3   13.13    0.62 
  -1  -5  -3   62.90    2.30 
   1   5   3   61.20    2.42 
   1   5   3   63.31    2.16 
  -2  -5  -3   85.58    3.05 
   2   5   3   81.69    3.20 
  -3  -5  -3   16.93    0.72 
   3   5   3   17.07    0.78 
  -4  -5  -3   64.70    2.23 
  -4  -5  -3   63.61    2.41 
   4   5   3   65.47    2.56 
  -5  -5  -3   12.38    0.50 
  -5  -5  -3   13.95    0.62 
   5   5   3   11.67    0.65 
  -6  -5  -3   10.96    0.49 
  -6  -5  -3   12.82    0.61 
   6   5   3   11.37    0.65 
  -7  -5  -3    1.65    0.17 
  -7  -5  -3    1.50    0.22 
   7   5   3    1.13    0.23 
  -8  -5  -3    7.51    0.50 
   8   5   3    8.61    0.60 
  -9  -5  -3    0.30    0.18 
   9   5   3    0.28    0.22 
 -10  -5  -3    6.32    0.51 
  10   5   3    5.25    0.55 
 -11  -5  -3    0.11    0.20 
  11   5   3   -0.22    0.20 
 -12  -5  -3    1.53    0.34 
  12   5   3    1.60    0.42 
 -13   6   3    0.51    0.40 
 -12   6   3    1.80    0.41 
 -11   6   3    2.67    0.45 
 -10   6   3    2.13    0.39 
  -9   6   3    1.86    0.35 
  -8   6   3    4.68    0.46 
  -7   6   3    2.15    0.31 
  -6   6   3    3.26    0.35 
  -5   6   3    1.85    0.26 
  -4   6   3    5.72    0.40 
  -3   6   3   60.55    2.40 
  -2   6   3   21.85    0.96 
  -1   6   3   10.09    0.51 
   0  -6  -3    2.85    0.21 
   0   6   3    2.63    0.23 
  -1  -6  -3   10.16    0.48 
   1   6   3   10.10    0.52 
   1   6   3   10.57    0.39 
  -2  -6  -3   21.69    0.90 
   2   6   3   22.37    0.97 
  -3  -6  -3   58.79    2.23 
   3   6   3   60.15    2.35 
  -4  -6  -3    6.26    0.36 
   4   6   3    5.73    0.39 
  -5  -6  -3    2.07    0.13 
  -5  -6  -3    2.43    0.25 
   5   6   3    1.63    0.24 
  -6  -6  -3    3.30    0.31 
   6   6   3    2.73    0.31 
  -7  -6  -3    2.26    0.29 
   7   6   3    2.07    0.30 
  -8  -6  -3    5.35    0.41 
   8   6   3    4.57    0.46 
  -9  -6  -3    2.06    0.32 
   9   6   3    1.77    0.35 
 -10  -6  -3    2.02    0.33 
  10   6   3    2.53    0.41 
 -11  -6  -3    3.17    0.40 
  11   6   3    2.76    0.45 
 -12  -6  -3    1.00    0.31 
 -13   7   3   -0.22    0.40 
 -12   7   3    1.08    0.37 
 -11   7   3    0.80    0.32 
 -10   7   3    0.17    0.26 
  -9   7   3    0.88    0.30 
  -8   7   3   15.39    0.89 
  -7   7   3    1.66    0.33 
  -6   7   3   10.83    0.66 
  -5   7   3    0.70    0.19 
  -4   7   3   -0.18    0.12 
  -3   7   3    9.08    0.52 
  -2   7   3    5.81    0.38 
  -1   7   3   30.09    1.28 
   0  -7  -3   20.65    0.86 
   0   7   3   19.89    0.91 
  -1  -7  -3   32.23    1.26 
   1   7   3   31.65    1.34 
  -2  -7  -3    6.40    0.36 
   2   7   3    6.29    0.40 
  -3  -7  -3    9.27    0.47 
   3   7   3    9.35    0.52 
  -4  -7  -3    0.03    0.08 
   4   7   3   -0.09    0.09 
  -5  -7  -3    0.72    0.16 
   5   7   3    0.97    0.20 
  -6  -7  -3    8.95    0.53 
   6   7   3    9.90    0.59 
  -7  -7  -3    1.33    0.25 
   7   7   3    1.72    0.30 
  -8  -7  -3   15.70    0.81 
   8   7   3   15.42    0.89 
  -9  -7  -3    0.72    0.23 
   9   7   3    1.52    0.34 
 -10  -7  -3    0.20    0.21 
  10   7   3    0.04    0.20 
 -11  -7  -3    0.84    0.28 
  11   7   3    0.97    0.37 
 -12  -7  -3    0.94    0.31 
 -12   8   3    1.21    0.42 
 -11   8   3    1.62    0.41 
 -10   8   3    3.01    0.46 
  -9   8   3    1.20    0.33 
  -8   8   3    4.60    0.51 
  -7   8   3    3.56    0.43 
  -6   8   3   14.93    0.84 
  -5   8   3   11.14    0.67 
  -4   8   3    0.64    0.20 
  -3   8   3   12.00    0.66 
  -2   8   3    3.50    0.32 
  -1   8   3    2.27    0.26 
   0  -8  -3   20.02    0.89 
   0   8   3   21.52    0.95 
  -1  -8  -3    2.56    0.23 
   1   8   3    1.93    0.24 
  -2  -8  -3    3.22    0.25 
   2   8   3    2.99    0.29 
  -3  -8  -3   11.93    0.58 
   3   8   3   11.58    0.63 
  -4  -8  -3    1.00    0.18 
   4   8   3    0.70    0.19 
  -5  -8  -3   11.91    0.62 
   5   8   3   11.03    0.65 
  -6  -8  -3   15.95    0.78 
   6   8   3   15.06    0.84 
  -7  -8  -3    2.68    0.33 
   7   8   3    3.69    0.40 
  -8  -8  -3    4.86    0.45 
   8   8   3    4.78    0.48 
  -9  -8  -3    0.76    0.25 
   9   8   3    1.02    0.30 
 -10  -8  -3    3.13    0.41 
  10   8   3    3.33    0.48 
 -11  -8  -3    0.70    0.28 
 -12  -8  -3    0.32    0.28 
 -12   9   3   -0.21    0.31 
 -11   9   3    1.33    0.40 
 -10   9   3    1.28    0.36 
  -9   9   3    2.62    0.44 
  -8   9   3    1.60    0.34 
  -7   9   3   13.16    0.82 
  -6   9   3    0.40    0.21 
  -5   9   3    6.35    0.51 
  -4   9   3    6.61    0.49 
  -3   9   3    3.32    0.36 
  -2   9   3   15.43    0.79 
  -1   9   3    0.30    0.13 
   0  -9  -3    2.89    0.27 
   0   9   3    2.79    0.29 
  -1  -9  -3    0.33    0.13 
   1   9   3    0.36    0.14 
  -2  -9  -3   14.38    0.71 
   2   9   3   15.78    0.77 
  -3  -9  -3    3.20    0.30 
   3   9   3    3.72    0.34 
  -4  -9  -3    6.84    0.44 
   4   9   3    6.56    0.46 
  -5  -9  -3    7.06    0.45 
   5   9   3    6.50    0.49 
  -6  -9  -3    0.24    0.18 
   6   9   3    0.46    0.22 
  -7  -9  -3   13.22    0.74 
   7   9   3   14.18    0.82 
  -8  -9  -3    1.86    0.30 
   8   9   3    1.87    0.34 
  -9  -9  -3    2.74    0.38 
   9   9   3    3.23    0.44 
 -10  -9  -3    1.39    0.32 
  10   9   3    1.46    0.37 
 -11  -9  -3    1.03    0.32 
 -12  -9  -3   -0.04    0.26 
 -12  10   3    0.39    0.39 
 -11  10   3    1.42    0.41 
 -10  10   3    0.25    0.27 
  -9  10   3    0.43    0.29 
  -8  10   3    0.20    0.23 
  -7  10   3    5.27    0.52 
  -6  10   3    1.41    0.31 
  -5  10   3   11.93    0.75 
  -4  10   3   13.26    0.78 
  -3  10   3   11.16    0.67 
  -2  10   3    2.72    0.34 
  -1  10   3   10.50    0.63 
   0 -10  -3    1.38    0.23 
   0  10   3    1.11    0.23 
  -1 -10  -3   10.53    0.56 
   1  10   3    9.05    0.57 
  -2 -10  -3    2.43    0.27 
   2  10   3    2.20    0.29 
  -3 -10  -3   11.46    0.62 
   3  10   3   12.26    0.69 
  -4 -10  -3   11.57    0.65 
   4  10   3   13.48    0.73 
  -5 -10  -3   12.08    0.66 
   5  10   3   11.89    0.72 
  -6 -10  -3    1.53    0.27 
   6  10   3    1.58    0.31 
  -7 -10  -3    6.59    0.49 
   7  10   3    7.14    0.57 
  -8 -10  -3    0.22    0.20 
   8  10   3    0.08    0.21 
  -9 -10  -3    0.54    0.25 
   9  10   3    1.08    0.31 
 -10 -10  -3    0.12    0.23 
 -11 -10  -3    1.19    0.35 
 -12 -10  -3    0.24    0.28 
 -11  11   3    0.06    0.35 
 -10  11   3    0.39    0.32 
  -9  11   3   -0.18    0.25 
  -8  11   3    0.43    0.26 
  -7  11   3    0.94    0.29 
  -6  11   3   -0.24    0.17 
  -5  11   3    0.77    0.27 
  -4  11   3    8.57    0.62 
  -3  11   3    9.67    0.64 
  -2  11   3    3.28    0.39 
  -1  11   3    1.21    0.26 
   0 -11  -3    0.24    0.16 
   0  11   3   -0.28    0.13 
  -1 -11  -3    0.78    0.22 
   1  11   3    0.75    0.22 
  -2 -11  -3    2.87    0.31 
   2  11   3    3.26    0.36 
  -3 -11  -3    9.01    0.56 
   3  11   3    9.15    0.59 
  -4 -11  -3    8.02    0.53 
   4  11   3    8.97    0.59 
  -5 -11  -3    1.28    0.25 
   5  11   3    1.46    0.29 
  -6 -11  -3    0.01    0.16 
   6  11   3   -0.09    0.18 
  -7 -11  -3    0.55    0.21 
   7  11   3    0.97    0.31 
  -8 -11  -3    1.64    0.31 
   8  11   3    1.11    0.30 
  -9 -11  -3   -0.31    0.18 
   9  11   3    0.32    0.28 
 -10 -11  -3    0.10    0.25 
 -11 -11  -3    0.00    0.25 
 -10  12   3    0.00    0.32 
  -9  12   3   -0.12    0.27 
  -8  12   3    1.03    0.32 
  -7  12   3   -0.33    0.22 
  -6  12   3    1.41    0.35 
  -5  12   3    0.37    0.26 
  -4  12   3    3.17    0.42 
  -3  12   3    7.81    0.58 
  -2  12   3   21.76    1.10 
  -1  12   3    5.29    0.49 
   0 -12  -3   31.34    1.36 
   0  12   3   30.79    1.43 
  -1 -12  -3    5.38    0.45 
   1  12   3    5.56    0.48 
  -2 -12  -3   20.59    0.99 
   2  12   3   22.34    1.09 
  -3 -12  -3    8.87    0.57 
   3  12   3    8.73    0.59 
  -4 -12  -3    1.97    0.30 
   4  12   3    2.60    0.36 
  -5 -12  -3    0.10    0.17 
   5  12   3    0.12    0.18 
  -6 -12  -3    0.81    0.24 
   6  12   3    0.94    0.29 
  -7 -12  -3    0.27    0.21 
   7  12   3    0.12    0.22 
  -8 -12  -3    1.02    0.27 
   8  12   3    1.81    0.38 
  -9 -12  -3    0.31    0.26 
 -10 -12  -3    1.00    0.33 
 -10  13   3    0.01    0.37 
  -9  13   3    0.36    0.32 
  -8  13   3    0.53    0.35 
  -7  13   3    1.15    0.35 
  -6  13   3    0.45    0.27 
  -5  13   3    4.04    0.50 
  -4  13   3    0.58    0.27 
  -3  13   3    4.95    0.50 
  -2  13   3    2.70    0.39 
  -1  13   3    2.20    0.35 
   0  13   3    0.19    0.21 
  -1 -13  -3    1.89    0.31 
   1  13   3    2.68    0.38 
  -2 -13  -3    2.65    0.34 
   2  13   3    2.73    0.38 
  -3 -13  -3    4.64    0.43 
   3  13   3    5.58    0.50 
  -4 -13  -3    0.56    0.23 
   4  13   3    0.68    0.25 
  -5 -13  -3    3.39    0.41 
   5  13   3    3.66    0.45 
  -6 -13  -3    0.03    0.19 
   6  13   3    0.08    0.21 
  -7 -13  -3    1.09    0.29 
   7  13   3    1.84    0.38 
  -8 -13  -3    0.87    0.30 
   8  13   3   -0.11    0.28 
  -9 -13  -3    0.28    0.28 
 -10 -13  -3    0.56    0.34 
  -9  14   3   -0.20    0.35 
  -8  14   3    0.63    0.37 
  -7  14   3   -0.03    0.29 
  -6  14   3    0.12    0.27 
  -5  14   3    0.86    0.31 
  -4  14   3    0.42    0.27 
  -3  14   3    0.99    0.29 
  -2  14   3    7.75    0.60 
  -1  14   3    0.32    0.25 
   0  14   3    0.86    0.30 
  -1 -14  -3    0.09    0.19 
   1  14   3   -0.01    0.22 
  -2 -14  -3    7.74    0.55 
   2  14   3    7.94    0.61 
  -3 -14  -3    0.63    0.22 
   3  14   3    1.35    0.31 
  -4 -14  -3    0.28    0.22 
   4  14   3    0.30    0.24 
  -5 -14  -3    0.76    0.27 
   5  14   3    1.23    0.34 
  -6 -14  -3    0.17    0.22 
   6  14   3    0.02    0.22 
  -7 -14  -3    0.11    0.25 
   7  14   3    0.01    0.29 
  -8 -14  -3    0.43    0.30 
  -9 -14  -3   -0.06    0.26 
  -8  15   3    2.47    0.54 
  -7  15   3    0.14    0.35 
  -6  15   3    2.94    0.52 
  -5  15   3    0.24    0.25 
  -4  15   3    0.91    0.33 
  -3  15   3    1.19    0.32 
  -2  15   3    3.09    0.46 
  -1  15   3   -0.18    0.18 
   0  15   3    1.78    0.35 
  -1 -15  -3    0.35    0.21 
   1  15   3    0.28    0.23 
  -2 -15  -3    2.65    0.38 
   2  15   3    3.56    0.46 
  -3 -15  -3    1.32    0.32 
   3  15   3    1.96    0.37 
  -4 -15  -3    0.89    0.28 
   4  15   3    0.34    0.27 
  -5 -15  -3    0.12    0.24 
   5  15   3   -0.29    0.23 
  -6 -15  -3    3.63    0.49 
   6  15   3    2.93    0.48 
  -7 -15  -3    0.27    0.28 
  -8 -15  -3    2.35    0.46 
  -7  16   3    1.11    0.44 
  -6  16   3    0.33    0.33 
  -5  16   3    0.12    0.27 
  -4  16   3    2.36    0.46 
  -3  16   3    1.07    0.37 
  -2  16   3    2.62    0.45 
  -1  16   3    0.67    0.31 
   0  16   3    1.92    0.39 
   1  16   3   -0.05    0.24 
  -2 -16  -3    1.65    0.35 
   2  16   3    1.83    0.38 
  -3 -16  -3    0.81    0.30 
   3  16   3    0.80    0.32 
  -4 -16  -3    2.04    0.38 
   4  16   3    1.79    0.40 
  -5 -16  -3    0.06    0.25 
   5  16   3   -0.12    0.25 
  -6 -16  -3    0.12    0.30 
   6  16   3    0.23    0.35 
  -7 -16  -3    0.57    0.36 
  -5  17   3    1.11    0.42 
  -4  17   3   -0.13    0.26 
  -3  17   3    0.24    0.29 
  -2  17   3    0.40    0.30 
  -1  17   3    0.17    0.29 
   0  17   3    1.53    0.37 
   1  17   3    0.04    0.26 
  -2 -17  -3    0.25    0.26 
   2  17   3    0.52    0.31 
  -3 -17  -3    0.26    0.26 
   3  17   3    0.89    0.33 
  -4 -17  -3    0.02    0.27 
   4  17   3   -0.31    0.26 
  -5 -17  -3    1.06    0.36 
   5  17   3    2.15    0.48 
  -3  18   3    0.11    0.34 
  -2  18   3    0.40    0.31 
  -1  18   3   -0.20    0.27 
   0  18   3    0.33    0.34 
   1  18   3   -0.46    0.26 
  -2 -18  -3    0.55    0.30 
   2  18   3    0.53    0.34 
  -3 -18  -3    0.65    0.34 
   3  18   3    0.30    0.34 
  -3 -18   4    0.58    0.32 
  -2 -18   4   -0.06    0.26 
  -1 -18   4    0.64    0.32 
   0 -18   4    0.39    0.29 
  -1  18  -4    0.36    0.32 
  -2  18  -4   -0.24    0.28 
  -3  18  -4    0.35    0.34 
  -5 -17   4   -0.11    0.29 
  -4 -17   4    0.09    0.28 
  -3 -17   4    3.91    0.49 
  -2 -17   4    0.18    0.23 
  -1 -17   4    3.30    0.43 
   0  17  -4    0.40    0.29 
   0 -17   4    0.27    0.26 
  -1  17  -4    3.54    0.47 
  -2  17  -4   -0.13    0.26 
  -3  17  -4    2.83    0.48 
  -4  17  -4   -0.13    0.33 
  -5  17  -4    0.02    0.35 
  -7 -16   4    0.57    0.35 
  -6 -16   4    2.91    0.47 
  -5 -16   4    0.23    0.27 
  -4 -16   4    2.51    0.40 
  -3 -16   4    1.63    0.35 
  -2 -16   4    0.72    0.27 
  -1 -16   4    0.25    0.22 
   0  16  -4   -0.30    0.19 
   0 -16   4    0.01    0.21 
  -1  16  -4    0.11    0.24 
   1 -16   4    0.10    0.21 
  -2  16  -4    0.86    0.32 
  -3  16  -4    1.50    0.40 
  -4  16  -4    1.62    0.40 
  -5  16  -4   -0.37    0.27 
  -6  16  -4    2.73    0.56 
  -7  16  -4    0.20    0.37 
  -8 -15   4   -0.27    0.27 
  -7 -15   4    0.00    0.26 
  -6 -15   4    0.30    0.30 
  -5 -15   4    1.06    0.31 
  -4 -15   4    0.58    0.26 
  -3 -15   4    2.18    0.35 
  -2 -15   4    1.20    0.29 
   1  15  -4    0.95    0.27 
  -1 -15   4    0.42    0.22 
   0  15  -4   -0.09    0.19 
   0 -15   4    0.05    0.18 
  -1  15  -4    0.89    0.27 
   1 -15   4    0.88    0.24 
  -2  15  -4    1.49    0.34 
  -3  15  -4    2.68    0.43 
  -4  15  -4    0.83    0.31 
  -5  15  -4    0.94    0.34 
  -6  15  -4   -0.09    0.33 
  -7  15  -4   -0.28    0.28 
  -8  15  -4    0.04    0.34 
  -9 -14   4    0.36    0.32 
  -8 -14   4    0.19    0.28 
  -7 -14   4    0.14    0.26 
  -6 -14   4    0.33    0.27 
  -5 -14   4   -0.03    0.19 
  -4 -14   4    0.55    0.24 
  -3 -14   4    0.63    0.22 
   2  14  -4    1.01    0.27 
  -2 -14   4    0.84    0.23 
   1  14  -4    1.35    0.27 
  -1 -14   4    1.51    0.28 
   0  14  -4    0.84    0.26 
   0 -14   4    0.90    0.25 
   0 -14   4    0.83    0.22 
  -1  14  -4    1.49    0.31 
   1 -14   4    1.71    0.31 
   1 -14   4    1.59    0.28 
  -2  14  -4    0.87    0.27 
  -3  14  -4    0.33    0.24 
  -4  14  -4    0.91    0.29 
  -5  14  -4    0.29    0.25 
  -6  14  -4   -0.11    0.26 
  -7  14  -4    0.36    0.34 
  -8  14  -4   -0.12    0.34 
  -9  14  -4   -0.19    0.37 
 -10 -13   4   -0.06    0.30 
  -9 -13   4    0.09    0.28 
  -8 -13   4    1.48    0.38 
  -7 -13   4    0.56    0.27 
  -6 -13   4    1.04    0.30 
  -5 -13   4   -0.20    0.18 
  -4 -13   4    0.40    0.21 
  -3 -13   4    0.55    0.22 
   2  13  -4    3.77    0.37 
  -2 -13   4    3.51    0.37 
   1  13  -4    5.55    0.44 
  -1 -13   4    5.17    0.41 
  -1 -13   4    4.92    0.42 
   0  13  -4    5.32    0.45 
   0 -13   4    4.79    0.42 
   0 -13   4    4.97    0.40 
  -1  13  -4    5.13    0.47 
   1 -13   4    5.26    0.45 
   1 -13   4    5.16    0.42 
  -2  13  -4    3.30    0.42 
   2 -13   4    4.81    0.44 
  -3  13  -4    0.86    0.28 
  -4  13  -4    0.10    0.21 
  -5  13  -4    0.27    0.25 
  -6  13  -4    0.88    0.34 
  -7  13  -4    1.40    0.40 
  -8  13  -4    1.12    0.40 
  -9  13  -4    0.02    0.36 
 -10  13  -4    0.55    0.42 
 -10 -12   4    0.15    0.30 
  -9 -12   4    0.81    0.34 
  -8 -12   4    1.80    0.38 
  -7 -12   4    1.76    0.36 
  -6 -12   4    8.59    0.62 
  -5 -12   4    0.53    0.22 
  -4 -12   4    7.03    0.52 
   3  12  -4    2.45    0.25 
   2  12  -4   14.61    0.75 
  -2 -12   4   13.84    0.74 
  -2 -12   4   15.25    0.70 
   1  12  -4    0.98    0.21 
  -1 -12   4    0.63    0.19 
  -1 -12   4    1.12    0.21 
   0  12  -4   16.47    0.85 
   0 -12   4   15.70    0.80 
   0 -12   4   17.38    0.80 
  -1  12  -4    0.73    0.24 
   1 -12   4    0.43    0.21 
   1 -12   4    0.82    0.21 
  -2  12  -4   15.53    0.86 
   2 -12   4   13.54    0.76 
   2 -12   4   15.98    0.75 
  -3  12  -4    6.19    0.55 
   3 -12   4    6.06    0.50 
  -4  12  -4    8.08    0.64 
  -5  12  -4    0.61    0.28 
  -6  12  -4    6.46    0.65 
  -7  12  -4    1.78    0.41 
  -8  12  -4    1.83    0.43 
  -9  12  -4    1.00    0.42 
 -10  12  -4    0.38    0.41 
 -11 -11   4    0.28    0.32 
 -10 -11   4    0.60    0.33 
  -9 -11   4    0.25    0.29 
  -8 -11   4    3.52    0.48 
  -7 -11   4    0.24    0.24 
  -6 -11   4    0.84    0.25 
  -5 -11   4    0.88    0.26 
  -4 -11   4    6.54    0.49 
  -4 -11   4    6.67    0.38 
   3  11  -4    3.23    0.29 
  -3 -11   4    2.97    0.27 
  -3 -11   4    3.24    0.35 
   2  11  -4   24.14    1.12 
  -2 -11   4   26.16    1.05 
  -2 -11   4   26.68    1.14 
   1  11  -4    5.55    0.37 
  -1 -11   4    4.27    0.34 
  -1 -11   4    4.79    0.37 
   0  11  -4   26.33    1.16 
   0 -11   4   25.67    1.07 
   0 -11   4   23.65    1.07 
  -1  11  -4    4.46    0.41 
   1 -11   4    4.93    0.37 
   1 -11   4    4.19    0.31 
  -2  11  -4   27.77    1.30 
   2 -11   4   26.38    1.18 
   2 -11   4   27.49    1.15 
  -3  11  -4    2.48    0.38 
   3 -11   4    2.96    0.35 
  -4  11  -4    5.29    0.52 
  -5  11  -4    0.92    0.31 
  -6  11  -4    0.55    0.27 
  -7  11  -4    0.28    0.25 
  -8  11  -4    3.24    0.53 
  -9  11  -4    0.17    0.31 
 -10  11  -4    0.61    0.43 
 -11  11  -4    0.29    0.45 
 -11 -10   4   -0.42    0.24 
 -10 -10   4    1.81    0.40 
  -9 -10   4    0.73    0.30 
  -8 -10   4    2.20    0.39 
  -7 -10   4   -0.11    0.17 
  -6 -10   4    0.23    0.20 
  -5 -10   4    1.88    0.31 
  -5 -10   4    2.16    0.21 
   4  10  -4    0.26    0.13 
  -4 -10   4    0.24    0.21 
  -4 -10   4    0.36    0.13 
   3  10  -4   20.61    0.91 
  -3 -10   4   20.26    0.95 
  -3 -10   4   20.44    0.84 
  -2 -10   4   11.27    0.54 
  -2 -10   4   11.07    0.59 
   1  10  -4    0.05    0.09 
  -1 -10   4   -0.09    0.08 
  -1 -10   4   -0.33    0.08 
   0  10  -4    0.40    0.14 
   0 -10   4    0.39    0.13 
   0 -10   4    0.37    0.13 
  -1  10  -4    0.02    0.12 
   1 -10   4   -0.01    0.10 
   1 -10   4    0.10    0.09 
  -2  10  -4    9.81    0.64 
   2 -10   4   11.06    0.59 
   2 -10   4   11.35    0.55 
  -3  10  -4   19.76    1.04 
   3 -10   4   21.04    0.95 
  -4  10  -4    0.43    0.22 
   4 -10   4    0.16    0.18 
  -5  10  -4    2.21    0.39 
  -6  10  -4    0.80    0.29 
  -7  10  -4    0.18    0.22 
  -8  10  -4    1.56    0.40 
  -9  10  -4    1.07    0.39 
 -10  10  -4    1.91    0.50 
 -11  10  -4    0.13    0.41 
 -12  -9   4   -0.26    0.30 
 -11  -9   4    0.13    0.30 
 -10  -9   4    0.01    0.25 
  -9  -9   4    0.45    0.28 
  -8  -9   4    2.70    0.42 
  -7  -9   4    0.46    0.24 
  -6  -9   4    1.74    0.19 
  -6  -9   4    1.63    0.31 
  -5  -9   4    5.79    0.32 
  -5  -9   4    5.11    0.46 
   4   9  -4    6.91    0.38 
  -4  -9   4    7.04    0.36 
  -4  -9   4    6.56    0.47 
   3   9  -4    2.48    0.22 
  -3  -9   4    2.33    0.20 
  -3  -9   4    1.87    0.26 
   2   9  -4    4.81    0.31 
  -2  -9   4    4.33    0.32 
  -2  -9   4    4.58    0.29 
   1   9  -4    2.63    0.25 
  -1  -9   4    2.94    0.24 
  -1  -9   4    2.98    0.26 
   0   9  -4    3.77    0.30 
   0  -9   4    3.66    0.26 
   0  -9   4    3.83    0.27 
  -1   9  -4    3.17    0.30 
   1  -9   4    2.81    0.26 
   1  -9   4    3.01    0.23 
  -2   9  -4    4.48    0.37 
   2  -9   4    4.98    0.35 
   2  -9   4    4.95    0.31 
  -3   9  -4    2.56    0.34 
   3  -9   4    2.34    0.28 
  -4   9  -4    6.85    0.55 
   4  -9   4    6.45    0.45 
  -5   9  -4    7.17    0.58 
  -6   9  -4    1.69    0.35 
  -7   9  -4    0.82    0.30 
  -8   9  -4    2.76    0.49 
  -9   9  -4    0.28    0.32 
 -10   9  -4    0.42    0.31 
 -11   9  -4    0.43    0.37 
 -12   9  -4   -0.17    0.38 
 -12  -8   4   -0.07    0.31 
 -11  -8   4   -0.05    0.24 
 -10  -8   4    0.44    0.26 
  -9  -8   4    4.96    0.54 
  -8  -8   4    3.97    0.31 
  -8  -8   4    3.17    0.44 
  -7  -8   4   13.28    0.61 
  -7  -8   4   14.03    0.81 
  -6  -8   4    4.61    0.29 
  -6  -8   4    4.23    0.44 
   5   8  -4   15.02    0.68 
  -5  -8   4   15.13    0.64 
  -5  -8   4   14.43    0.80 
   4   8  -4   16.37    0.70 
  -4  -8   4   14.32    0.79 
  -4  -8   4   16.48    0.66 
   3   8  -4    2.47    0.20 
  -3  -8   4    2.70    0.29 
  -3  -8   4    2.84    0.21 
   2   8  -4   16.68    0.72 
  -2  -8   4   16.51    0.75 
  -2  -8   4   15.62    0.67 
  -1  -8   4   12.59    0.56 
  -1  -8   4   12.79    0.60 
   0   8  -4   -0.02    0.09 
   0  -8   4   -0.10    0.06 
   0  -8   4   -0.04    0.07 
  -1   8  -4   14.06    0.69 
   1  -8   4   13.24    0.58 
   1  -8   4   11.84    0.59 
  -2   8  -4   16.02    0.85 
   2  -8   4   17.91    0.77 
   2  -8   4   16.48    0.71 
  -3   8  -4    2.21    0.30 
   3  -8   4    2.57    0.27 
  -4   8  -4   15.47    0.85 
   4  -8   4   14.11    0.73 
  -5   8  -4   13.24    0.82 
  -6   8  -4    4.86    0.53 
  -7   8  -4   12.08    0.84 
  -8   8  -4    4.25    0.56 
  -9   8  -4    5.47    0.67 
 -10   8  -4    0.51    0.35 
 -11   8  -4    0.13    0.37 
 -12   8  -4   -0.12    0.38 
 -13  -7   4    0.22    0.33 
 -12  -7   4    0.75    0.37 
 -11  -7   4    0.53    0.32 
 -10  -7   4    4.17    0.52 
  -9  -7   4    0.12    0.15 
  -9  -7   4    0.26    0.25 
  -8  -7   4    1.24    0.31 
  -8  -7   4    1.41    0.21 
  -7  -7   4    3.28    0.42 
  -7  -7   4    4.43    0.30 
  -6  -7   4    3.08    0.24 
  -6  -7   4    2.90    0.37 
   5   7  -4    0.55    0.11 
  -5  -7   4    0.62    0.13 
  -5  -7   4    0.49    0.19 
   4   7  -4   11.90    0.53 
  -4  -7   4   13.43    0.66 
  -4  -7   4   10.96    0.51 
   3   7  -4    6.95    0.35 
  -3  -7   4    6.39    0.42 
  -3  -7   4    7.25    0.34 
   2   7  -4   17.68    0.75 
  -2  -7   4   17.63    0.80 
  -2  -7   4   17.72    0.71 
  -1  -7   4    5.00    0.30 
  -1  -7   4    4.94    0.28 
   0   7  -4    4.87    0.31 
   0  -7   4    4.52    0.27 
   0  -7   4    4.73    0.28 
  -1   7  -4    5.23    0.35 
   1  -7   4    4.92    0.30 
   1  -7   4    4.88    0.27 
  -2   7  -4   18.76    0.88 
   2  -7   4   17.03    0.77 
  -3   7  -4    7.10    0.48 
   3  -7   4    6.54    0.41 
  -4   7  -4   10.72    0.68 
   4  -7   4   12.12    0.61 
  -5   7  -4    0.27    0.21 
  -6   7  -4    2.75    0.41 
  -7   7  -4    3.53    0.49 
  -8   7  -4    1.30    0.38 
  -9   7  -4    0.11    0.29 
 -10   7  -4    5.49    0.69 
 -11   7  -4    0.58    0.37 
 -12   7  -4    0.86    0.44 
 -13   7  -4    0.31    0.44 
 -13  -6   4   -0.12    0.30 
 -12  -6   4    0.99    0.37 
 -11  -6   4    0.13    0.24 
 -10  -6   4    0.10    0.18 
 -10  -6   4    0.34    0.26 
  -9  -6   4   14.48    0.72 
  -9  -6   4   14.43    0.88 
  -8  -6   4    1.93    0.23 
  -8  -6   4    2.25    0.36 
  -7  -6   4    2.01    0.23 
  -7  -6   4    2.44    0.36 
  -6  -6   4    6.02    0.49 
  -6  -6   4    5.45    0.33 
   5   6  -4   27.53    1.09 
  -5  -6   4   26.40    1.21 
  -5  -6   4   27.14    1.06 
   4   6  -4    7.10    0.33 
  -4  -6   4    6.35    0.34 
  -4  -6   4    6.99    0.44 
   3   6  -4   14.40    0.60 
  -3  -6   4   13.99    0.69 
  -3  -6   4   14.05    0.58 
   2   6  -4   24.93    0.98 
  -2  -6   4   24.07    1.03 
  -2  -6   4   24.44    0.93 
   1   6  -4   68.76    2.59 
  -1  -6   4   68.10    2.53 
  -1  -6   4   67.10    2.41 
   0   6  -4   13.26    0.63 
   0  -6   4   13.40    0.57 
   0  -6   4   13.38    0.57 
  -1   6  -4   63.41    2.52 
   1  -6   4   64.64    2.31 
  -2   6  -4   23.15    1.07 
   2  -6   4   23.33    0.95 
   2  -6   4   23.52    0.91 
  -3   6  -4   13.14    0.72 
   3  -6   4   13.55    0.63 
  -4   6  -4    6.34    0.48 
   4  -6   4    7.06    0.42 
  -5   6  -4   25.42    1.25 
  -6   6  -4    4.44    0.48 
  -7   6  -4    1.78    0.36 
  -8   6  -4    1.55    0.40 
  -9   6  -4   16.04    1.05 
 -10   6  -4    0.36    0.31 
 -11   6  -4   -0.33    0.28 
 -12   6  -4    0.97    0.44 
 -13   6  -4    0.33    0.44 
 -13  -5   4    0.03    0.33 
 -12  -5   4    0.34    0.31 
 -11  -5   4    0.72    0.23 
 -10  -5   4    1.26    0.26 
  -9  -5   4    1.40    0.25 
  -8  -5   4   -0.01    0.12 
  -7  -5   4    0.61    0.16 
   6   5  -4    2.61    0.20 
  -6  -5   4    2.62    0.24 
   5   5  -4    8.28    0.38 
  -5  -5   4    7.65    0.40 
   4   5  -4   14.82    0.58 
  -4  -5   4   12.99    0.69 
  -4  -5   4   13.91    0.59 
   3   5  -4   33.79    1.26 
  -3  -5   4   32.09    1.34 
  -3  -5   4   32.40    1.22 
   2   5  -4    9.19    0.40 
  -2  -5   4    9.91    0.41 
  -2  -5   4    8.92    0.47 
   1   5  -4   46.88    1.79 
  -1  -5   4   47.09    1.76 
  -1  -5   4   45.62    1.67 
   0   5  -4    0.00    0.05 
   0  -5   4   -0.02    0.05 
   0  -5   4    0.00    0.05 
  -1   5  -4   45.75    1.81 
   1  -5   4   41.98    1.64 
   1  -5   4   46.88    1.64 
  -2   5  -4    8.38    0.50 
   2  -5   4    8.78    0.38 
   2  -5   4    9.05    0.44 
  -3   5  -4   31.92    1.43 
   3  -5   4   32.87    1.27 
  -4   5  -4   13.58    0.74 
   4  -5   4   12.62    0.63 
  -5   5  -4    7.21    0.54 
  -6   5  -4    2.15    0.36 
  -7   5  -4    0.31    0.25 
  -8   5  -4    0.28    0.25 
  -9   5  -4    0.84    0.35 
 -10   5  -4    1.45    0.39 
 -11   5  -4    0.45    0.34 
 -12   5  -4    0.32    0.33 
 -13   5  -4    0.27    0.41 
 -12  -4   4    0.90    0.26 
 -11  -4   4    1.36    0.28 
 -10  -4   4    0.41    0.21 
  -9  -4   4    5.69    0.41 
  -8  -4   4    2.45    0.27 
   7   4  -4    2.37    0.21 
  -7  -4   4    2.17    0.24 
   6   4  -4    0.20    0.08 
  -6  -4   4    0.18    0.12 
   5   4  -4   32.05    1.23 
  -5  -4   4   30.65    1.21 
   4   4  -4   14.10    0.56 
  -4  -4   4   13.41    0.58 
   3   4  -4   57.32    2.10 
  -3  -4   4   55.00    2.01 
   2   4  -4    0.49    0.06 
  -2  -4   4    0.45    0.11 
  -2  -4   4    0.61    0.09 
   1   4  -4   38.40    1.46 
  -1  -4   4   37.77    1.37 
  -1  -4   4   37.55    1.45 
   0  -4   4   21.88    0.83 
  -1   4  -4   38.05    1.56 
   1  -4   4   38.08    1.41 
   1  -4   4   38.90    1.41 
  -2   4  -4    0.61    0.15 
   2  -4   4    0.45    0.06 
   2  -4   4    0.31    0.10 
  -3   4  -4   51.56    2.11 
   3  -4   4   50.71    1.89 
  -4   4  -4   13.82    0.73 
   4  -4   4   11.91    0.60 
  -5   4  -4   29.32    1.38 
  -6   4  -4    0.24    0.16 
  -7   4  -4    2.21    0.39 
  -8   4  -4    3.04    0.47 
  -9   4  -4    5.29    0.63 
 -10   4  -4    0.78    0.34 
 -11   4  -4    0.82    0.38 
 -12   4  -4    1.38    0.46 
 -13   4  -4    0.82    0.44 
 -13  -3   4    0.41    0.30 
 -12  -3   4    0.93    0.28 
 -11  -3   4   -0.05    0.19 
 -10  -3   4    4.43    0.42 
  -9  -3   4    0.47    0.20 
  -8  -3   4    3.00    0.31 
  -7  -3   4    0.57    0.12 
  -7  -3   4    0.46    0.13 
  -6  -3   4    5.07    0.33 
  -6  -3   4    5.10    0.29 
  -5  -3   4   31.43    1.19 
  -5  -3   4   29.33    1.18 
  -4  -3   4    5.91    0.32 
  -3  -3   4    7.05    0.34 
  -2  -3   4  133.33    4.62 
   1   3  -4    4.77    0.24 
  -1  -3   4    4.84    0.24 
   0   3  -4    0.00    0.04 
   0  -3   4    0.03    0.04 
   0  -3   4    0.09    0.06 
  -1   3  -4    4.30    0.28 
   1  -3   4    4.53    0.20 
   1  -3   4    4.50    0.24 
   2  -3   4  122.23    4.62 
   2  -3   4  122.66    4.27 
   3  -3   4    6.18    0.35 
   3  -3   4    7.20    0.41 
   4  -3   4    5.28    0.37 
   4  -3   4    5.16    0.32 
   5  -3   4   27.74    1.26 
   6  -3   4    5.26    0.41 
   7  -3   4    0.27    0.21 
  -8   3  -4    3.17    0.46 
  -9   3  -4    0.66    0.32 
 -10   3  -4    4.82    0.61 
 -11   3  -4    0.32    0.29 
 -12   3  -4    0.56    0.37 
 -13   3  -4    0.36    0.35 
 -14  -2   4    0.20    0.33 
 -13  -2   4    0.42    0.28 
 -12  -2   4    0.41    0.25 
 -11  -2   4    1.27    0.28 
 -10  -2   4    0.80    0.24 
  -9  -2   4    2.82    0.33 
  -8  -2   4    2.69    0.26 
  -8  -2   4    2.74    0.30 
  -7  -2   4    6.83    0.41 
  -7  -2   4    6.46    0.39 
  -6  -2   4   12.07    0.57 
  -6  -2   4   12.75    0.60 
  -5  -2   4    2.52    0.17 
  -5  -2   4    3.22    0.25 
  -4  -2   4   19.25    0.76 
  -4  -2   4   19.96    0.80 
  -3  -2   4    5.67    0.30 
  -2  -2   4   46.03    1.65 
  -1  -2   4   38.24    1.35 
  -1  -2   4   37.10    1.42 
   0  -2   4   -0.01    0.05 
   0  -2   4   -0.01    0.05 
   1  -2   4   37.62    1.34 
   1  -2   4   37.44    1.47 
   1  -2   4   36.72    1.34 
   2  -2   4   42.61    1.73 
   2  -2   4   44.46    1.58 
   3  -2   4    4.93    0.29 
   3  -2   4    5.36    0.35 
   4  -2   4   19.06    0.79 
   4  -2   4   18.33    0.89 
   5  -2   4    2.62    0.29 
   6  -2   4   11.53    0.68 
   7  -2   4    6.29    0.50 
   8  -2   4    3.05    0.41 
   9  -2   4    2.62    0.41 
 -10   2  -4    1.15    0.37 
 -11   2  -4    1.06    0.41 
 -12   2  -4    0.18    0.35 
 -13   2  -4    0.60    0.42 
 -14   2  -4   -0.26    0.40 
 -14  -1   4    1.55    0.41 
 -13  -1   4    0.23    0.28 
 -12  -1   4    2.13    0.37 
 -11  -1   4    0.53    0.24 
 -10  -1   4    0.28    0.20 
  -9  -1   4   10.52    0.63 
  -8  -1   4    2.67    0.27 
  -8  -1   4    2.71    0.31 
  -7  -1   4    2.02    0.25 
  -7  -1   4    1.89    0.21 
  -6  -1   4    6.44    0.36 
  -6  -1   4    7.20    0.41 
  -5  -1   4   10.30    0.47 
  -5  -1   4   10.42    0.51 
  -4  -1   4  142.76    4.95 
  -4  -1   4  140.26    5.23 
  -3  -1   4   49.48    1.78 
  -3  -1   4   48.53    1.82 
  -2  -1   4  257.65    9.37 
  -2  -1   4  249.19    8.70 
  -1  -1   4   85.23    2.98 
  -1  -1   4   86.00    3.18 
   0  -1   4  248.25    8.89 
   0  -1   4  234.38    8.25 
   1  -1   4   89.54    3.24 
   1  -1   4   82.15    2.97 
   2  -1   4  243.51    8.78 
   2  -1   4  229.88    8.12 
  -3   1  -4   48.13    1.71 
   3  -1   4   47.58    1.73 
   3  -1   4   46.56    1.91 
   4  -1   4  135.38    4.79 
   4  -1   4  138.33    5.21 
   5  -1   4    9.55    0.56 
   6  -1   4    5.66    0.43 
   7  -1   4    2.23    0.32 
   8  -1   4    2.91    0.40 
   9  -1   4   11.80    0.80 
  10  -1   4    0.21    0.21 
  11  -1   4    0.74    0.33 
 -12   1  -4    2.64    0.55 
 -13   1  -4    0.01    0.38 
 -14   1  -4    1.07    0.51 
 -14   0   4    0.58    0.36 
 -13   0   4   -0.25    0.27 
 -12   0   4    0.42    0.25 
 -11   0   4   -0.13    0.18 
 -10   0   4    1.71    0.33 
  -9   0   4   12.29    0.68 
  -9   0   4   11.50    0.69 
  -8   0   4    2.14    0.26 
  -8   0   4    2.43    0.30 
  -7   0   4   12.74    0.64 
  -7   0   4   11.05    0.60 
  -6   0   4   20.93    0.93 
  -6   0   4   22.19    0.95 
  -5   0   4   16.11    0.71 
  -5   0   4   17.03    0.74 
  -4   0   4    1.71    0.13 
  -4   0   4    1.49    0.18 
  -3   0   4   90.05    3.13 
  -3   0   4   87.08    3.29 
  -2   0   4    1.20    0.12 
  -2   0   4    1.14    0.09 
  -1   0   4   30.60    1.14 
  -1   0   4   32.16    1.20 
   0   0   4  389.46   13.47 
   0   0   4  400.44   14.50 
   1   0   4   31.09    1.24 
   1   0   4   31.24    1.12 
  -2   0  -4    1.06    0.07 
   2   0   4    1.26    0.15 
   2   0   4    1.25    0.11 
  -3   0  -4   88.49    3.14 
   3   0   4   87.19    3.10 
   3   0   4   89.30    3.40 
  -4   0  -4    1.50    0.11 
   4   0   4    1.19    0.19 
   4   0   4    1.10    0.14 
  -5   0  -4   16.35    0.67 
   5   0   4   16.07    0.82 
   6   0   4   20.62    1.02 
   7   0   4   12.15    0.72 
   8   0   4    1.51    0.31 
   9   0   4   10.99    0.75 
  10   0   4    1.83    0.39 
  11   0   4   -0.10    0.21 
  12   0   4    0.04    0.30 
 -13   0  -4    0.46    0.39 
 -14   0  -4    0.43    0.47 
 -14   1   4    1.35    0.41 
 -13   1   4   -0.03    0.26 
 -12   1   4    1.83    0.37 
 -11   1   4    0.85    0.28 
 -10   1   4    0.10    0.19 
  -9   1   4   10.03    0.62 
  -9   1   4    8.49    0.55 
  -8   1   4    2.17    0.30 
  -8   1   4    3.10    0.30 
  -7   1   4    2.05    0.27 
  -7   1   4    2.24    0.25 
  -6   1   4    5.32    0.35 
  -6   1   4    5.88    0.39 
  -5   1   4   10.49    0.50 
  -5   1   4    9.72    0.51 
  -4   1   4  141.19    4.94 
  -4   1   4  139.38    5.22 
  -3   1   4   44.26    1.68 
  -3   1   4   46.74    1.74 
  -2   1   4  241.50    8.30 
  -2   1   4  240.73    8.87 
  -1   1   4   90.88    3.37 
  -1   1   4   89.82    3.15 
   0   1   4  240.98    8.93 
   0   1   4  243.76    8.29 
   1   1   4   86.83    3.15 
   1   1   4   80.23    2.88 
  -2  -1  -4  255.91    8.76 
   2   1   4  240.12    9.18 
  -3  -1  -4   47.48    1.69 
   3   1   4   45.54    1.86 
  -4  -1  -4  137.23    4.89 
   4   1   4  136.92    4.77 
   4   1   4  137.21    5.21 
  -5  -1  -4   10.01    0.46 
   5   1   4   10.40    0.58 
  -6  -1  -4    6.13    0.35 
   6   1   4    6.08    0.45 
  -7  -1  -4    2.02    0.22 
   7   1   4    1.72    0.27 
  -8  -1  -4    2.86    0.28 
   8   1   4    2.55    0.38 
  -9  -1  -4   10.49    0.58 
   9   1   4   11.26    0.75 
 -10  -1  -4    0.23    0.15 
  10   1   4    0.38    0.25 
  11   1   4    1.13    0.34 
  12   1   4    2.94    0.50 
  13   1   4    0.29    0.36 
 -14  -1  -4    0.50    0.49 
 -14   2   4   -0.20    0.33 
 -13   2   4    0.00    0.31 
 -12   2   4   -0.11    0.24 
 -11   2   4    0.47    0.26 
 -10   2   4    1.10    0.28 
 -10   2   4    1.28    0.28 
  -9   2   4    2.74    0.37 
  -9   2   4    3.65    0.36 
  -8   2   4    3.38    0.34 
  -8   2   4    2.70    0.35 
  -7   2   4    6.82    0.42 
  -7   2   4    5.61    0.45 
  -6   2   4   13.40    0.67 
  -6   2   4   14.16    0.69 
  -5   2   4    3.56    0.29 
  -5   2   4    2.82    0.24 
  -4   2   4   18.81    0.81 
  -4   2   4   18.87    0.81 
  -3   2   4    4.67    0.26 
  -3   2   4    4.63    0.28 
  -2   2   4   45.36    1.65 
  -2   2   4   45.37    1.74 
  -1   2   4   37.93    1.37 
  -1   2   4   37.47    1.46 
   0   2   4   -0.04    0.04 
   0   2   4    0.03    0.07 
   1   2   4   38.15    1.35 
   1   2   4   38.91    1.52 
  -2  -2  -4   49.12    1.74 
   2   2   4   45.70    1.87 
   2   2   4   47.71    1.67 
  -3  -2  -4    5.26    0.26 
   3   2   4    5.44    0.26 
   3   2   4    5.82    0.35 
  -4  -2  -4   19.10    0.75 
   4   2   4   18.28    0.87 
  -5  -2  -4    2.82    0.20 
   5   2   4    2.52    0.28 
  -6  -2  -4   12.69    0.59 
   6   2   4   12.69    0.71 
  -7  -2  -4    6.43    0.38 
   7   2   4    6.34    0.47 
  -8  -2  -4    3.37    0.30 
   8   2   4    2.84    0.39 
  -9  -2  -4    3.47    0.33 
   9   2   4    3.18    0.44 
 -10  -2  -4    1.50    0.27 
  10   2   4    1.40    0.34 
  11   2   4    0.76    0.30 
  12   2   4    0.03    0.29 
  13   2   4    0.44    0.34 
  14   2   4   -0.04    0.41 
 -13   3   4    0.63    0.35 
 -12   3   4    0.55    0.32 
 -11   3   4   -0.10    0.20 
 -10   3   4    6.07    0.55 
 -10   3   4    6.14    0.53 
  -9   3   4    0.66    0.20 
  -9   3   4    1.01    0.28 
  -8   3   4    2.52    0.34 
  -8   3   4    3.10    0.34 
  -7   3   4    0.23    0.13 
  -6   3   4    5.21    0.36 
  -5   3   4   30.96    1.30 
  -4   3   4    5.63    0.34 
  -4   3   4    5.80    0.36 
  -3   3   4    7.51    0.39 
  -3   3   4    7.40    0.39 
  -2   3   4  127.26    4.80 
  -2   3   4  129.89    4.49 
  -1   3   4    4.51    0.26 
  -1   3   4    4.52    0.23 
   0   3   4    0.00    0.06 
   0   3   4   -0.02    0.03 
  -1  -3  -4    4.86    0.25 
   1   3   4    5.22    0.29 
   1   3   4    4.86    0.21 
  -2  -3  -4  135.43    4.91 
   2   3   4  140.94    4.73 
   2   3   4  136.90    5.17 
  -3  -3  -4    7.41    0.34 
   3   3   4    6.70    0.41 
   3   3   4    7.30    0.31 
  -4  -3  -4    5.16    0.28 
   4   3   4    5.20    0.35 
  -5  -3  -4   31.05    1.22 
   5   3   4   30.87    1.36 
  -6  -3  -4    5.15    0.32 
   6   3   4    4.68    0.40 
  -7  -3  -4    0.20    0.11 
   7   3   4    0.18    0.15 
  -8  -3  -4    3.63    0.31 
   8   3   4    2.71    0.38 
  -9  -3  -4    0.43    0.15 
   9   3   4    0.27    0.23 
 -10  -3  -4    5.49    0.45 
  10   3   4    5.57    0.58 
 -11  -3  -4   -0.08    0.18 
  11   3   4    0.02    0.25 
  12   3   4    1.35    0.39 
  13   3   4   -0.14    0.31 
 -13   4   4    0.19    0.34 
 -12   4   4    0.88    0.35 
 -11   4   4    1.45    0.36 
 -11   4   4    1.00    0.32 
 -10   4   4    0.59    0.26 
 -10   4   4    0.76    0.27 
  -9   4   4    4.95    0.46 
  -8   4   4    3.57    0.36 
  -7   4   4    2.10    0.27 
  -6   4   4    0.12    0.13 
  -5   4   4   28.24    1.22 
  -4   4   4   12.06    0.60 
  -3   4   4   52.52    2.06 
  -2   4   4    0.61    0.11 
  -2   4   4    0.41    0.10 
  -1   4   4   34.65    1.32 
  -1   4   4   37.46    1.44 
   0   4   4   23.34    0.86 
   0   4   4   23.16    0.97 
  -1  -4  -4   37.42    1.47 
   1   4   4   38.84    1.56 
   1   4   4   40.54    1.37 
  -2  -4  -4    0.55    0.10 
   2   4   4    0.34    0.11 
   2   4   4    0.43    0.04 
  -3  -4  -4   55.46    2.03 
   3   4   4   54.05    2.17 
  -4  -4  -4   12.70    0.55 
   4   4   4   11.38    0.62 
  -5  -4  -4   30.39    1.23 
   5   4   4   31.67    1.37 
  -6  -4  -4    0.30    0.11 
   6   4   4    0.37    0.16 
  -7  -4  -4    2.12    0.24 
   7   4   4    1.68    0.28 
  -8  -4  -4    2.91    0.30 
   8   4   4    2.87    0.39 
  -9  -4  -4    5.38    0.41 
   9   4   4    6.16    0.56 
 -10  -4  -4    1.02    0.24 
  10   4   4    0.63    0.29 
 -11  -4  -4    1.46    0.30 
  11   4   4    1.66    0.38 
  12   4   4    0.82    0.34 
  13   4   4    1.15    0.45 
 -13   5   4    0.19    0.31 
 -12   5   4    0.28    0.31 
 -11   5   4    0.54    0.29 
 -11   5   4    0.40    0.27 
 -10   5   4    1.87    0.35 
  -9   5   4    0.63    0.24 
  -8   5   4    0.23    0.18 
  -7   5   4    0.91    0.22 
  -6   5   4    2.78    0.31 
  -5   5   4    8.11    0.49 
  -4   5   4   13.35    0.66 
  -3   5   4   32.75    1.36 
  -2   5   4    9.10    0.47 
  -1   5   4   46.53    1.84 
   0   5   4   -0.08    0.07 
   0   5   4    0.10    0.05 
  -1  -5  -4   48.39    1.84 
   1   5   4   48.77    1.95 
   1   5   4   49.55    1.70 
  -2  -5  -4    8.23    0.42 
   2   5   4    9.59    0.48 
  -3  -5  -4   32.76    1.26 
   3   5   4   31.68    1.36 
  -4  -5  -4   13.86    0.63 
   4   5   4   14.43    0.72 
  -5  -5  -4    8.35    0.42 
   5   5   4    6.85    0.47 
  -6  -5  -4    2.86    0.26 
   6   5   4    2.48    0.31 
  -7  -5  -4    0.66    0.15 
   7   5   4    0.41    0.21 
  -8  -5  -4    0.02    0.14 
   8   5   4    0.10    0.21 
  -9  -5  -4    1.09    0.25 
   9   5   4    1.42    0.32 
 -10  -5  -4    1.39    0.27 
  10   5   4    2.15    0.39 
 -11  -5  -4    0.42    0.23 
  11   5   4    0.96    0.33 
  12   5   4    0.89    0.36 
 -13   6   4    0.02    0.37 
 -12   6   4    0.51    0.34 
 -12   6   4    1.07    0.40 
 -11   6   4    0.10    0.27 
 -10   6   4    0.16    0.25 
  -9   6   4   16.09    0.92 
  -8   6   4    2.01    0.35 
  -7   6   4    2.59    0.34 
  -6   6   4    5.74    0.42 
  -5   6   4   25.07    1.14 
  -4   6   4    7.06    0.44 
  -3   6   4   13.77    0.68 
  -2   6   4   22.78    1.00 
  -1   6   4   67.53    2.63 
   0   6   4   13.51    0.65 
   0   6   4   13.49    0.54 
  -1  -6  -4   70.52    2.58 
   1   6   4   70.31    2.41 
   1   6   4   67.51    2.70 
  -2  -6  -4   24.26    0.99 
   2   6   4   24.01    1.06 
  -3  -6  -4   13.19    0.61 
   3   6   4   14.04    0.69 
  -4  -6  -4    6.42    0.37 
   4   6   4    6.77    0.44 
  -5  -6  -4   26.59    1.14 
   5   6   4   29.36    1.27 
  -6  -6  -4    5.75    0.38 
   6   6   4    6.77    0.47 
  -7  -6  -4    3.02    0.31 
   7   6   4    2.29    0.33 
  -8  -6  -4    1.70    0.28 
   8   6   4    1.60    0.32 
  -9  -6  -4   14.75    0.77 
   9   6   4   13.64    0.87 
 -10  -6  -4    0.20    0.19 
  10   6   4   -0.05    0.24 
 -11  -6  -4    0.57    0.24 
  11   6   4    0.01    0.26 
  12   6   4    1.05    0.39 
 -13   7   4   -0.16    0.35 
 -12   7   4    0.94    0.40 
 -12   7   4    0.12    0.31 
 -11   7   4    1.23    0.35 
 -10   7   4    4.80    0.53 
  -9   7   4    0.67    0.27 
  -8   7   4    1.53    0.31 
  -7   7   4    3.75    0.41 
  -6   7   4    2.70    0.34 
  -5   7   4    0.68    0.20 
  -4   7   4   10.88    0.61 
  -3   7   4    5.57    0.38 
  -2   7   4   17.76    0.84 
  -1   7   4    5.25    0.35 
   0   7   4    5.36    0.27 
   0   7   4    5.19    0.35 
  -1  -7  -4    5.01    0.31 
   1   7   4    5.16    0.35 
   1   7   4    4.80    0.22 
  -2  -7  -4   18.44    0.77 
   2   7   4   16.32    0.82 
  -3  -7  -4    6.97    0.38 
   3   7   4    6.43    0.43 
  -4  -7  -4   11.24    0.56 
   4   7   4   12.12    0.65 
  -5  -7  -4    0.90    0.16 
   5   7   4    0.45    0.17 
  -6  -7  -4    2.58    0.29 
   6   7   4    3.41    0.37 
  -7  -7  -4    4.01    0.36 
   7   7   4    3.92    0.43 
  -8  -7  -4    1.58    0.28 
   8   7   4    0.92    0.29 
  -9  -7  -4    0.40    0.22 
   9   7   4    0.21    0.25 
 -10  -7  -4    4.78    0.47 
  10   7   4    5.11    0.55 
 -11  -7  -4    0.92    0.28 
  11   7   4    1.52    0.38 
 -12  -7  -4    0.79    0.30 
 -12   8   4   -0.23    0.30 
 -11   8   4    0.03    0.27 
 -10   8   4    0.74    0.32 
  -9   8   4    4.05    0.48 
  -8   8   4    4.13    0.46 
  -7   8   4   12.99    0.78 
  -6   8   4    5.13    0.47 
  -5   8   4   15.35    0.82 
  -4   8   4   13.45    0.73 
  -3   8   4    3.16    0.32 
  -2   8   4   16.40    0.81 
  -1   8   4   12.50    0.65 
   0   8   4    0.04    0.10 
  -1  -8  -4   13.84    0.64 
   1   8   4   12.42    0.68 
   1   8   4   13.51    0.51 
  -2  -8  -4   15.31    0.71 
   2   8   4   15.98    0.78 
  -3  -8  -4    3.07    0.27 
   3   8   4    2.61    0.29 
  -4  -8  -4   15.13    0.73 
   4   8   4   16.77    0.83 
  -5  -8  -4   15.35    0.73 
   5   8   4   13.89    0.80 
  -6  -8  -4    3.80    0.35 
   6   8   4    4.21    0.43 
  -7  -8  -4   12.91    0.69 
   7   8   4   12.91    0.79 
  -8  -8  -4    3.11    0.35 
   8   8   4    3.01    0.41 
  -9  -8  -4    4.85    0.45 
   9   8   4    4.60    0.52 
 -10  -8  -4    0.32    0.23 
  10   8   4    0.36    0.28 
 -11  -8  -4    0.16    0.23 
  11   8   4    0.07    0.32 
 -12  -8  -4   -0.18    0.24 
 -12   9   4    0.59    0.38 
 -11   9   4    0.10    0.32 
 -10   9   4   -0.02    0.24 
  -9   9   4    0.41    0.26 
  -8   9   4    3.09    0.42 
  -7   9   4    0.13    0.23 
  -6   9   4    1.09    0.27 
  -5   9   4    5.38    0.47 
  -4   9   4    5.75    0.46 
  -3   9   4    2.35    0.31 
  -2   9   4    4.45    0.38 
  -1   9   4    2.44    0.28 
   0   9   4    3.38    0.32 
  -1  -9  -4    2.40    0.27 
   1   9   4    3.22    0.31 
   1   9   4    2.92    0.17 
  -2  -9  -4    5.08    0.35 
   2   9   4    4.55    0.37 
  -3  -9  -4    2.24    0.26 
   3   9   4    1.96    0.27 
  -4  -9  -4    7.74    0.47 
   4   9   4    6.91    0.51 
  -5  -9  -4    5.25    0.39 
   5   9   4    5.64    0.48 
  -6  -9  -4    0.92    0.23 
   6   9   4    1.42    0.29 
  -7  -9  -4    0.23    0.20 
   7   9   4    0.14    0.18 
  -8  -9  -4    3.35    0.38 
   8   9   4    3.00    0.42 
  -9  -9  -4    0.20    0.20 
   9   9   4    0.34    0.26 
 -10  -9  -4    0.01    0.20 
  10   9   4    0.22    0.29 
 -11  -9  -4    0.08    0.24 
 -12  -9  -4    0.22    0.27 
 -11  10   4   -0.20    0.30 
 -10  10   4    1.48    0.39 
  -9  10   4    0.69    0.31 
  -8  10   4    1.96    0.38 
  -7  10   4    0.10    0.21 
  -6  10   4    0.67    0.26 
  -5  10   4    2.43    0.36 
  -4  10   4    0.11    0.19 
  -3  10   4   20.33    1.02 
  -2  10   4   10.01    0.61 
  -1  10   4    0.01    0.14 
   0  10   4    0.40    0.17 
  -1 -10  -4    0.09    0.13 
   1  10   4    0.11    0.15 
  -2 -10  -4   11.70    0.61 
   2  10   4   10.68    0.66 
  -3 -10  -4   21.65    0.98 
   3  10   4   20.99    1.05 
  -4 -10  -4    0.48    0.18 
   4  10   4    0.14    0.19 
  -5 -10  -4    2.24    0.30 
   5  10   4    2.44    0.36 
  -6 -10  -4    0.37    0.19 
   6  10   4    0.69    0.23 
  -7 -10  -4   -0.02    0.16 
   7  10   4    0.08    0.21 
  -8 -10  -4    1.84    0.32 
   8  10   4    2.22    0.40 
  -9 -10  -4    0.99    0.27 
   9  10   4    0.25    0.28 
 -10 -10  -4    1.89    0.36 
  10  10   4    1.88    0.42 
 -11 -10  -4   -0.11    0.24 
 -11  11   4    0.40    0.36 
 -10  11   4    0.60    0.35 
  -9  11   4    0.24    0.26 
  -8  11   4    3.37    0.48 
  -7  11   4    0.17    0.23 
  -6  11   4    0.96    0.29 
  -5  11   4    0.86    0.26 
  -4  11   4    6.37    0.52 
  -3  11   4    2.44    0.35 
  -2  11   4   27.00    1.28 
  -1  11   4    5.07    0.45 
   0  11   4   25.86    1.22 
  -1 -11  -4    5.31    0.43 
   1  11   4    5.25    0.45 
  -2 -11  -4   26.96    1.19 
   2  11   4   26.96    1.28 
  -3 -11  -4    3.12    0.33 
   3  11   4    3.14    0.38 
  -4 -11  -4    5.66    0.43 
   4  11   4    6.34    0.51 
  -5 -11  -4    1.14    0.25 
   5  11   4    1.36    0.31 
  -6 -11  -4    0.94    0.22 
   6  11   4    1.14    0.29 
  -7 -11  -4   -0.07    0.16 
   7  11   4    0.32    0.25 
  -8 -11  -4    3.30    0.41 
   8  11   4    3.36    0.47 
  -9 -11  -4    0.33    0.24 
   9  11   4    0.48    0.29 
 -10 -11  -4    0.78    0.30 
 -11 -11  -4    0.77    0.33 
 -10  12   4   -0.40    0.31 
  -9  12   4    0.59    0.34 
  -8  12   4    2.01    0.40 
  -7  12   4    1.98    0.38 
  -6  12   4    8.87    0.67 
  -5  12   4    0.49    0.25 
  -4  12   4    6.14    0.54 
  -3  12   4    5.84    0.53 
  -2  12   4   15.57    0.89 
  -1  12   4    0.62    0.26 
   0  12   4   17.07    0.92 
  -1 -12  -4    0.67    0.22 
   1  12   4    0.87    0.25 
  -2 -12  -4   16.19    0.83 
   2  12   4   15.85    0.89 
  -3 -12  -4    6.24    0.47 
   3  12   4    6.76    0.53 
  -4 -12  -4    7.60    0.51 
   4  12   4    6.74    0.57 
  -5 -12  -4    0.81    0.23 
   5  12   4    0.72    0.25 
  -6 -12  -4    7.60    0.54 
   6  12   4    8.79    0.66 
  -7 -12  -4    2.16    0.34 
   7  12   4    2.38    0.41 
  -8 -12  -4    1.97    0.35 
   8  12   4    1.76    0.38 
  -9 -12  -4    0.78    0.28 
   9  12   4    0.47    0.35 
 -10 -12  -4    0.19    0.29 
 -10  13   4    0.51    0.38 
  -9  13   4    0.28    0.34 
  -8  13   4    1.41    0.40 
  -7  13   4    1.31    0.36 
  -6  13   4    0.55    0.28 
  -5  13   4    0.06    0.25 
  -4  13   4    0.43    0.27 
  -3  13   4    0.44    0.24 
  -2  13   4    3.13    0.41 
  -1  13   4    5.14    0.50 
   0  13   4    4.28    0.44 
  -1 -13  -4    4.72    0.44 
   1  13   4    4.61    0.47 
  -2 -13  -4    3.32    0.40 
   2  13   4    4.31    0.47 
  -3 -13  -4    0.58    0.23 
   3  13   4    0.56    0.25 
  -4 -13  -4    0.36    0.21 
   4  13   4    0.29    0.22 
  -5 -13  -4    0.05    0.18 
   5  13   4    0.32    0.26 
  -6 -13  -4    0.76    0.27 
   6  13   4    0.99    0.31 
  -7 -13  -4    1.79    0.34 
   7  13   4    1.39    0.37 
  -8 -13  -4    1.90    0.37 
   8  13   4    2.16    0.46 
  -9 -13  -4    0.49    0.28 
 -10 -13  -4    0.49    0.33 
  -9  14   4    0.70    0.39 
  -8  14   4   -0.10    0.32 
  -7  14   4    0.19    0.30 
  -6  14   4    0.32    0.28 
  -5  14   4    0.81    0.32 
  -4  14   4    0.33    0.27 
  -3  14   4    0.39    0.26 
  -2  14   4    1.01    0.29 
  -1  14   4    1.12    0.31 
   0  14   4    0.78    0.25 
  -1 -14  -4    1.80    0.32 
   1  14   4    1.37    0.33 
  -2 -14  -4    1.31    0.29 
   2  14   4    1.13    0.32 
  -3 -14  -4    0.43    0.22 
   3  14   4    0.61    0.26 
  -4 -14  -4    0.34    0.22 
   4  14   4    0.45    0.27 
  -5 -14  -4   -0.21    0.20 
   5  14   4   -0.13    0.22 
  -6 -14  -4   -0.06    0.21 
   6  14   4    0.53    0.28 
  -7 -14  -4    0.08    0.24 
   7  14   4   -0.25    0.27 
  -8 -14  -4   -0.21    0.24 
   8  14   4    0.43    0.36 
  -9 -14  -4   -0.13    0.27 
  -8  15   4    0.10    0.36 
  -7  15   4   -0.05    0.32 
  -6  15   4   -0.24    0.29 
  -5  15   4    0.88    0.35 
  -4  15   4    0.44    0.28 
  -3  15   4    2.56    0.42 
  -2  15   4    1.41    0.34 
  -1  15   4    0.37    0.27 
   0  15   4   -0.20    0.22 
   1  15   4    0.40    0.27 
  -2 -15  -4    0.99    0.29 
   2  15   4    1.46    0.36 
  -3 -15  -4    2.57    0.39 
   3  15   4    2.49    0.41 
  -4 -15  -4    0.65    0.28 
   4  15   4    0.07    0.22 
  -5 -15  -4    1.09    0.31 
   5  15   4    0.77    0.33 
  -6 -15  -4    0.38    0.29 
   6  15   4    0.06    0.26 
  -7 -15  -4    0.54    0.31 
   7  15   4   -0.14    0.31 
  -8 -15  -4   -0.28    0.29 
  -7  16   4    0.28    0.39 
  -6  16   4    2.62    0.52 
  -5  16   4    0.16    0.31 
  -4  16   4    2.19    0.45 
  -3  16   4    1.78    0.39 
  -2  16   4    0.25    0.25 
  -1  16   4   -0.09    0.21 
   0  16   4   -0.39    0.23 
   1  16   4   -0.22    0.20 
  -2 -16  -4    0.93    0.30 
   2  16   4    0.81    0.33 
  -3 -16  -4    1.65    0.37 
   3  16   4    2.37    0.43 
  -4 -16  -4    2.42    0.41 
   4  16   4    1.66    0.41 
  -5 -16  -4    0.31    0.29 
   5  16   4    0.25    0.31 
  -6 -16  -4    2.82    0.46 
   6  16   4    2.84    0.53 
  -7 -16  -4    0.46    0.33 
  -5  17   4    0.19    0.35 
  -4  17   4    0.35    0.35 
  -3  17   4    4.11    0.57 
  -2  17   4    0.26    0.30 
  -1  17   4    2.87    0.49 
   0  17   4    0.74    0.33 
   1  17   4    3.66    0.54 
   2  17   4    0.00    0.29 
  -3 -17  -4    3.58    0.52 
   3  17   4    4.42    0.57 
  -4 -17  -4    0.23    0.31 
   4  17   4    0.38    0.33 
  -5 -17  -4    0.32    0.33 
   5  17   4   -0.24    0.31 
  -3  18   4   -0.16    0.32 
  -2  18   4    0.28    0.30 
  -1  18   4    0.61    0.34 
   0  18   4    0.59    0.35 
   1  18   4   -0.04    0.33 
   2  18   4    0.19    0.32 
  -3 -18  -4    0.29    0.31 
   3  18   4    0.10    0.35 
  -2 -18   5   -0.04    0.27 
  -1 -18   5    0.13    0.30 
   0 -18   5    0.13    0.27 
  -2  18  -5   -0.12    0.33 
  -5 -17   5    1.23    0.37 
  -4 -17   5    0.34    0.30 
  -3 -17   5    0.12    0.27 
  -2 -17   5    0.22    0.24 
  -1 -17   5    0.29    0.26 
   0 -17   5    0.24    0.25 
  -1  17  -5   -0.26    0.26 
  -2  17  -5    0.20    0.27 
  -3  17  -5   -0.05    0.28 
  -4  17  -5    0.25    0.33 
  -5  17  -5    1.16    0.43 
  -6 -16   5    0.06    0.26 
  -5 -16   5    0.61    0.32 
  -4 -16   5    2.34    0.40 
  -3 -16   5    1.56    0.34 
  -2 -16   5    2.35    0.39 
  -1 -16   5    0.76    0.27 
   0 -16   5    3.63    0.41 
  -1  16  -5    0.70    0.29 
   1 -16   5    1.24    0.30 
  -2  16  -5    1.76    0.38 
  -3  16  -5    1.47    0.37 
  -4  16  -5    2.24    0.46 
  -5  16  -5    0.58    0.38 
  -6  16  -5    0.15    0.35 
  -8 -15   5    0.85    0.35 
  -7 -15   5    1.63    0.42 
  -6 -15   5    1.49    0.38 
  -5 -15   5    1.35    0.34 
  -4 -15   5    4.80    0.50 
  -3 -15   5    0.31    0.22 
  -2 -15   5    1.64    0.32 
  -1 -15   5    1.54    0.29 
   0  15  -5    3.87    0.42 
   0 -15   5    3.99    0.40 
  -1  15  -5    1.20    0.31 
   1 -15   5    1.11    0.27 
   1 -15   5    0.94    0.28 
  -2  15  -5    1.53    0.33 
   2 -15   5    1.81    0.35 
  -3  15  -5    0.36    0.29 
  -4  15  -5    4.02    0.54 
  -5  15  -5    0.71    0.35 
  -6  15  -5    0.87    0.39 
  -7  15  -5    0.89    0.40 
  -8  15  -5    0.41    0.40 
  -9 -14   5    0.58    0.35 
  -8 -14   5    0.53    0.33 
  -7 -14   5    0.60    0.31 
  -6 -14   5    0.11    0.25 
  -5 -14   5   -0.03    0.20 
  -4 -14   5    3.73    0.43 
  -3 -14   5    1.37    0.29 
  -2 -14   5    0.39    0.21 
   1  14  -5    0.34    0.20 
  -1 -14   5    0.41    0.19 
   0  14  -5   -0.13    0.19 
   0 -14   5   -0.03    0.18 
   0 -14   5    0.09    0.19 
  -1  14  -5    0.45    0.24 
   1 -14   5    0.56    0.22 
   1 -14   5   -0.20    0.19 
  -2  14  -5    0.16    0.25 
   2 -14   5    0.53    0.23 
  -3  14  -5    1.04    0.32 
  -4  14  -5    3.90    0.51 
  -5  14  -5   -0.07    0.26 
  -6  14  -5    0.49    0.33 
  -7  14  -5    0.20    0.34 
  -8  14  -5    0.62    0.42 
  -9  14  -5    0.64    0.42 
  -9 -13   5    0.07    0.29 
  -8 -13   5    0.60    0.30 
  -7 -13   5    2.86    0.45 
  -6 -13   5    0.63    0.26 
  -5 -13   5    2.76    0.40 
  -4 -13   5    0.24    0.20 
  -3 -13   5    7.57    0.53 
  -2 -13   5    3.72    0.35 
  -2 -13   5    3.30    0.36 
   1  13  -5    5.33    0.43 
  -1 -13   5    5.68    0.42 
  -1 -13   5    5.41    0.42 
   0  13  -5    2.17    0.33 
   0 -13   5    2.97    0.34 
   0 -13   5    2.44    0.30 
  -1  13  -5    5.44    0.48 
   1 -13   5    6.72    0.49 
   1 -13   5    5.41    0.43 
  -2  13  -5    3.60    0.43 
   2 -13   5    3.74    0.35 
   2 -13   5    3.75    0.41 
  -3  13  -5    7.69    0.59 
   3 -13   5    7.03    0.57 
  -4  13  -5    0.56    0.27 
  -5  13  -5    2.99    0.47 
  -6  13  -5    0.23    0.30 
  -7  13  -5    1.88    0.44 
  -8  13  -5   -0.10    0.27 
  -9  13  -5   -0.20    0.34 
 -10 -12   5    0.10    0.29 
  -9 -12   5    0.67    0.32 
  -8 -12   5    0.03    0.25 
  -7 -12   5    1.41    0.33 
  -6 -12   5    0.48    0.25 
  -5 -12   5    0.29    0.20 
  -4 -12   5    5.46    0.47 
  -3 -12   5    5.27    0.36 
  -3 -12   5    4.55    0.42 
  -2 -12   5    8.25    0.52 
  -2 -12   5    8.81    0.49 
   1  12  -5    5.27    0.39 
  -1 -12   5    5.85    0.41 
  -1 -12   5    5.02    0.40 
   0  12  -5   18.27    0.90 
   0 -12   5   17.19    0.82 
   0 -12   5   16.50    0.83 
  -1  12  -5    6.16    0.48 
   1 -12   5    6.56    0.45 
   1 -12   5    5.12    0.39 
  -2  12  -5    9.45    0.64 
   2 -12   5    9.03    0.58 
   2 -12   5    8.81    0.53 
  -3  12  -5    4.69    0.48 
   3 -12   5    5.13    0.46 
  -4  12  -5    4.68    0.52 
  -5  12  -5    0.50    0.28 
  -6  12  -5    1.16    0.35 
  -7  12  -5    0.88    0.35 
  -8  12  -5    0.60    0.35 
  -9  12  -5    0.94    0.45 
 -10  12  -5    0.62    0.48 
 -11 -11   5    0.03    0.31 
 -10 -11   5   -0.01    0.27 
  -9 -11   5    2.76    0.46 
  -8 -11   5    1.17    0.31 
  -7 -11   5    0.55    0.26 
  -6 -11   5    1.47    0.31 
  -5 -11   5    2.75    0.38 
  -4 -11   5    2.71    0.25 
  -4 -11   5    2.18    0.33 
  -3 -11   5    4.63    0.40 
  -3 -11   5    4.36    0.31 
   2  11  -5   12.98    0.67 
  -2 -11   5   13.88    0.71 
  -2 -11   5   14.31    0.66 
   1  11  -5    8.13    0.48 
  -1 -11   5    7.74    0.47 
  -1 -11   5    7.21    0.44 
   0  11  -5   23.60    1.04 
   0 -11   5   21.12    0.96 
   0 -11   5   21.83    0.97 
  -1  11  -5    7.51    0.52 
   1 -11   5    7.85    0.45 
   1 -11   5    8.04    0.50 
  -2  11  -5   15.60    0.84 
   2 -11   5   14.28    0.75 
   2 -11   5   14.02    0.69 
  -3  11  -5    4.00    0.45 
   3 -11   5    3.78    0.40 
  -4  11  -5    2.31    0.38 
   4 -11   5    2.69    0.36 
  -5  11  -5    2.11    0.39 
  -6  11  -5    2.02    0.40 
  -7  11  -5    0.76    0.33 
  -8  11  -5    1.72    0.43 
  -9  11  -5    4.14    0.65 
 -10  11  -5    0.35    0.43 
 -11  11  -5    0.57    0.47 
 -11 -10   5    0.59    0.34 
 -10 -10   5    0.51    0.34 
  -9 -10   5    1.82    0.39 
  -8 -10   5    0.09    0.23 
  -7 -10   5    0.51    0.25 
  -6 -10   5    0.76    0.16 
  -6 -10   5    0.29    0.19 
  -5 -10   5    2.33    0.23 
  -5 -10   5    3.01    0.38 
  -4 -10   5    7.69    0.41 
  -4 -10   5    7.57    0.52 
   3  10  -5   15.17    0.71 
  -3 -10   5   14.98    0.68 
  -3 -10   5   16.11    0.79 
   2  10  -5   11.22    0.56 
  -2 -10   5   10.09    0.57 
  -2 -10   5   10.92    0.53 
   1  10  -5    2.77    0.27 
  -1 -10   5    3.72    0.29 
  -1 -10   5    3.53    0.30 
   0  10  -5    0.62    0.17 
   0 -10   5    0.65    0.15 
   0 -10   5    0.78    0.17 
  -1  10  -5    3.83    0.35 
   1 -10   5    3.39    0.28 
   1 -10   5    3.59    0.32 
  -2  10  -5    9.01    0.62 
   2 -10   5   10.48    0.51 
   2 -10   5   10.42    0.58 
  -3  10  -5   16.70    0.92 
   3 -10   5   16.02    0.82 
  -4  10  -5    7.63    0.60 
   4 -10   5    8.64    0.56 
  -5  10  -5    2.25    0.39 
  -6  10  -5    0.68    0.29 
  -7  10  -5    0.54    0.29 
  -8  10  -5    0.21    0.30 
  -9  10  -5    1.52    0.43 
 -10  10  -5    0.27    0.40 
 -11  10  -5    0.72    0.47 
 -12  -9   5    0.27    0.33 
 -11  -9   5    0.26    0.31 
 -10  -9   5    0.43    0.29 
  -9  -9   5    0.62    0.27 
  -8  -9   5    1.37    0.33 
  -7  -9   5    2.44    0.24 
  -7  -9   5    2.25    0.38 
  -6  -9   5    3.19    0.40 
  -6  -9   5    3.42    0.27 
  -5  -9   5    0.55    0.13 
  -5  -9   5    0.36    0.20 
  -4  -9   5   16.59    0.84 
  -4  -9   5   15.96    0.69 
   3   9  -5    1.67    0.18 
  -3  -9   5    1.66    0.27 
  -3  -9   5    1.42    0.18 
   2   9  -5    0.91    0.15 
  -2  -9   5    0.87    0.16 
  -2  -9   5    0.58    0.16 
  -1  -9   5    3.63    0.27 
  -1  -9   5    3.89    0.28 
   0   9  -5    0.12    0.12 
   0  -9   5    0.10    0.09 
   0  -9   5    0.05    0.10 
  -1   9  -5    3.90    0.35 
   1  -9   5    3.96    0.32 
   1  -9   5    4.37    0.28 
  -2   9  -5    0.70    0.19 
   2  -9   5    0.16    0.08 
   2  -9   5    0.70    0.17 
  -3   9  -5    1.36    0.28 
   3  -9   5    1.62    0.26 
  -4   9  -5   17.92    0.97 
   4  -9   5   16.53    0.85 
  -5   9  -5    0.18    0.21 
   5  -9   5    0.29    0.21 
  -6   9  -5    2.28    0.41 
  -7   9  -5    2.81    0.47 
  -8   9  -5    1.65    0.42 
  -9   9  -5    0.56    0.35 
 -10   9  -5    0.92    0.43 
 -11   9  -5    0.35    0.38 
 -12   9  -5   -0.02    0.39 
 -12  -8   5    0.89    0.42 
 -11  -8   5    0.22    0.31 
 -10  -8   5    1.78    0.38 
  -9  -8   5    1.16    0.33 
  -8  -8   5    2.05    0.36 
  -8  -8   5    2.56    0.27 
  -7  -8   5    0.95    0.26 
  -7  -8   5    0.68    0.17 
  -6  -8   5    3.06    0.25 
  -6  -8   5    2.84    0.38 
  -5  -8   5    0.72    0.23 
  -5  -8   5    0.76    0.15 
   4   8  -5    6.53    0.34 
  -4  -8   5    5.95    0.34 
  -4  -8   5    6.36    0.46 
   3   8  -5   11.07    0.52 
  -3  -8   5   11.52    0.61 
  -3  -8   5   11.74    0.52 
   2   8  -5   25.51    1.04 
  -2  -8   5   24.60    1.08 
  -2  -8   5   25.44    0.99 
   1   8  -5   16.80    0.82 
  -1  -8   5   19.97    0.79 
  -1  -8   5   20.46    0.83 
   0   8  -5   16.15    0.73 
   0  -8   5   14.03    0.66 
   0  -8   5   15.34    0.67 
  -1   8  -5   19.19    0.94 
   1  -8   5   21.03    0.84 
   1  -8   5   20.03    0.86 
  -2   8  -5   25.26    1.09 
   2  -8   5   19.46    0.88 
   2  -8   5   23.45    0.96 
  -3   8  -5   12.29    0.70 
   3  -8   5   11.23    0.61 
  -4   8  -5    5.92    0.53 
   4  -8   5    6.36    0.45 
  -5   8  -5    0.24    0.21 
   5  -8   5    1.20    0.24 
  -6   8  -5    2.85    0.44 
  -7   8  -5    1.54    0.38 
  -8   8  -5    2.60    0.48 
  -9   8  -5    1.07    0.39 
 -10   8  -5    1.34    0.41 
 -11   8  -5    1.05    0.42 
 -12   8  -5    0.45    0.46 
 -12  -7   5    0.12    0.29 
 -11  -7   5   -0.06    0.24 
 -10  -7   5   -0.04    0.23 
  -9  -7   5    1.36    0.35 
  -9  -7   5    0.81    0.21 
  -8  -7   5   13.07    0.83 
  -8  -7   5   13.68    0.67 
  -7  -7   5    6.91    0.40 
  -7  -7   5    7.03    0.54 
  -6  -7   5    2.86    0.25 
  -6  -7   5    2.83    0.36 
  -5  -7   5    0.70    0.13 
  -5  -7   5    0.69    0.22 
   4   7  -5   33.52    1.29 
  -4  -7   5   33.41    1.26 
  -4  -7   5   31.60    1.40 
   3   7  -5    1.46    0.14 
  -3  -7   5    1.58    0.16 
  -3  -7   5    1.75    0.24 
   2   7  -5    2.75    0.19 
  -2  -7   5    2.49    0.25 
  -2  -7   5    2.52    0.20 
   1   7  -5   12.31    0.58 
  -1  -7   5   13.05    0.59 
  -1  -7   5   12.48    0.55 
   0   7  -5   19.01    0.87 
   0  -7   5   20.09    0.81 
   0  -7   5   19.52    0.80 
  -1   7  -5   11.30    0.62 
   1  -7   5   12.19    0.56 
  -2   7  -5    2.22    0.28 
   2  -7   5    2.80    0.25 
   2  -7   5    2.66    0.19 
  -3   7  -5    1.14    0.23 
   3  -7   5    1.74    0.22 
  -4   7  -5   33.10    1.53 
   4  -7   5   33.41    1.37 
  -5   7  -5    0.30    0.21 
   5  -7   5    0.29    0.17 
  -6   7  -5    2.74    0.43 
  -7   7  -5    5.88    0.62 
  -8   7  -5   14.59    1.00 
  -9   7  -5    0.61    0.35 
 -10   7  -5    0.41    0.32 
 -11   7  -5    0.11    0.34 
 -12   7  -5    0.39    0.39 
 -13  -6   5    0.66    0.39 
 -12  -6   5    0.65    0.36 
 -11  -6   5    0.64    0.31 
 -10  -6   5    3.22    0.47 
 -10  -6   5    2.88    0.34 
  -9  -6   5    0.94    0.31 
  -9  -6   5    1.16    0.23 
  -8  -6   5    5.69    0.54 
  -8  -6   5    5.96    0.40 
  -7  -6   5    1.37    0.21 
  -7  -6   5    1.43    0.29 
  -6  -6   5    1.77    0.30 
  -6  -6   5    1.63    0.20 
  -5  -6   5    0.85    0.20 
  -5  -6   5    1.24    0.17 
   4   6  -5   14.34    0.56 
  -4  -6   5   12.48    0.57 
  -4  -6   5   12.52    0.68 
   3   6  -5   63.74    2.35 
  -3  -6   5   62.89    2.42 
  -3  -6   5   61.10    2.24 
   2   6  -5   13.92    0.59 
  -2  -6   5   14.66    0.67 
  -2  -6   5   13.98    0.59 
   1   6  -5    7.89    0.40 
  -1  -6   5    7.91    0.42 
  -1  -6   5    8.87    0.39 
   0   6  -5    0.33    0.10 
   0  -6   5    0.72    0.12 
   0  -6   5    0.89    0.12 
  -1   6  -5    8.57    0.48 
   1  -6   5    7.54    0.36 
   1  -6   5    8.14    0.41 
  -2   6  -5   13.53    0.71 
   2  -6   5   13.59    0.62 
   2  -6   5   13.87    0.56 
  -3   6  -5   61.86    2.46 
   3  -6   5   57.16    2.21 
  -4   6  -5   12.17    0.73 
   4  -6   5   12.70    0.63 
  -5   6  -5    0.67    0.20 
   5  -6   5    1.22    0.23 
  -6   6  -5    1.66    0.33 
  -7   6  -5    1.24    0.33 
  -8   6  -5    5.76    0.64 
  -9   6  -5    1.07    0.35 
 -10   6  -5    2.20    0.49 
 -11   6  -5    1.11    0.42 
 -12   6  -5    0.46    0.40 
 -13   6  -5    1.01    0.53 
 -13  -5   5    0.42    0.36 
 -12  -5   5    0.80    0.32 
 -11  -5   5    0.35    0.22 
 -10  -5   5    0.04    0.19 
  -9  -5   5    0.13    0.17 
  -8  -5   5   10.65    0.58 
  -7  -5   5    5.50    0.36 
  -6  -5   5    1.15    0.17 
  -5  -5   5    4.96    0.31 
  -4  -5   5    3.08    0.22 
   3   5  -5   17.32    0.67 
  -3  -5   5   17.53    0.80 
  -3  -5   5   16.96    0.70 
   2   5  -5    5.71    0.26 
  -2  -5   5    5.29    0.29 
  -2  -5   5    5.52    0.34 
   1   5  -5   30.62    1.22 
  -1  -5   5   29.99    1.14 
  -1  -5   5   31.83    1.22 
   0  -5   5    9.35    0.42 
  -1   5  -5   32.10    1.35 
   1  -5   5   32.26    1.19 
   1  -5   5   31.10    1.21 
  -2   5  -5    4.89    0.37 
   2  -5   5    5.80    0.26 
   2  -5   5    5.75    0.32 
  -3   5  -5   15.60    0.84 
   3  -5   5   17.25    0.74 
  -4   5  -5    2.40    0.32 
   4  -5   5    2.26    0.25 
  -5   5  -5    4.10    0.44 
   5  -5   5    4.59    0.36 
  -6   5  -5    1.49    0.33 
  -7   5  -5    5.14    0.57 
  -8   5  -5   12.87    0.90 
  -9   5  -5    0.05    0.25 
 -10   5  -5   -0.11    0.25 
 -11   5  -5   -0.29    0.27 
 -12   5  -5    0.55    0.40 
 -13   5  -5    0.18    0.43 
 -13  -4   5    0.78    0.33 
 -12  -4   5    0.56    0.25 
 -11  -4   5   -0.13    0.17 
 -10  -4   5    0.60    0.23 
  -9  -4   5    3.79    0.36 
  -8  -4   5    1.14    0.22 
  -7  -4   5    3.20    0.30 
  -6  -4   5    7.27    0.42 
  -5  -4   5    9.93    0.49 
  -4  -4   5    2.29    0.20 
  -3  -4   5  148.15    5.15 
   2   4  -5   12.62    0.50 
  -2  -4   5   12.44    0.53 
   1   4  -5   59.53    2.27 
  -1  -4   5   59.99    2.23 
  -1  -4   5   60.02    2.13 
   0  -4   5   50.04    1.80 
  -1   4  -5   58.88    2.35 
   1  -4   5   58.76    2.14 
   1  -4   5   60.66    2.13 
  -2   4  -5   11.83    0.65 
   2  -4   5   12.83    0.56 
   2  -4   5   12.63    0.48 
  -3   4  -5  142.35    5.42 
   3  -4   5  139.90    4.95 
  -4   4  -5    2.08    0.30 
   4  -4   5    2.14    0.27 
   4  -4   5    1.71    0.21 
  -5   4  -5    8.60    0.61 
   5  -4   5   10.08    0.59 
   5  -4   5    8.75    0.50 
  -6   4  -5    6.06    0.56 
  -7   4  -5    3.62    0.48 
  -8   4  -5    1.16    0.32 
  -9   4  -5    3.45    0.54 
 -10   4  -5    0.36    0.35 
 -11   4  -5    0.18    0.28 
 -12   4  -5    0.19    0.34 
 -13   4  -5    1.80    0.56 
 -13  -3   5    0.34    0.28 
 -12  -3   5    0.55    0.26 
 -11  -3   5    0.07    0.20 
 -10  -3   5    0.38    0.19 
  -9  -3   5    1.16    0.25 
  -8  -3   5   11.85    0.63 
  -7  -3   5    0.27    0.13 
  -6  -3   5   16.30    0.75 
  -6  -3   5   16.88    0.69 
  -5  -3   5    5.45    0.34 
  -4  -3   5   62.77    2.27 
  -3  -3   5   16.37    0.67 
  -2  -3   5   96.90    3.39 
   1   3  -5   20.63    0.84 
  -1  -3   5   20.88    0.80 
   0  -3   5    0.14    0.06 
   0  -3   5    0.14    0.06 
   0  -3   5    0.09    0.07 
   1  -3   5   20.44    0.74 
   1  -3   5   19.44    0.85 
   1  -3   5   19.28    0.77 
   2  -3   5   93.67    3.60 
   2  -3   5   94.62    3.32 
   3  -3   5   15.56    0.77 
   3  -3   5   15.81    0.68 
   4  -3   5   62.04    2.51 
   4  -3   5   62.51    2.30 
   5  -3   5    5.69    0.42 
   5  -3   5    4.55    0.33 
   6  -3   5   15.39    0.84 
   7  -3   5    0.41    0.20 
   8  -3   5   12.98    0.83 
  -9   3  -5    1.51    0.40 
 -10   3  -5    0.79    0.35 
 -11   3  -5    0.00    0.30 
 -12   3  -5    0.15    0.33 
 -13   3  -5    0.19    0.43 
 -13  -2   5    0.93    0.32 
 -12  -2   5    0.62    0.28 
 -11  -2   5    1.10    0.29 
 -10  -2   5    1.30    0.27 
  -9  -2   5    2.17    0.31 
  -8  -2   5    0.60    0.20 
  -7  -2   5    2.37    0.20 
  -7  -2   5    2.48    0.28 
  -6  -2   5   12.05    0.59 
  -6  -2   5   11.35    0.51 
  -5  -2   5    2.52    0.14 
  -5  -2   5    2.31    0.23 
  -4  -2   5   41.74    1.57 
  -3  -2   5   70.90    2.53 
  -2  -2   5   98.89    3.46 
  -1  -2   5   37.52    1.46 
  -1  -2   5   39.34    1.39 
   0  -2   5    5.51    0.27 
   0  -2   5    5.94    0.30 
   1  -2   5   37.70    1.47 
   1  -2   5   35.92    1.33 
   2  -2   5   89.67    3.48 
   2  -2   5   92.28    3.20 
   3  -2   5   67.21    2.44 
   3  -2   5   68.74    2.68 
   4  -2   5   39.00    1.67 
   4  -2   5   40.23    1.51 
   5  -2   5    2.08    0.28 
   5  -2   5    2.67    0.24 
   6  -2   5   10.64    0.65 
   7  -2   5    1.98    0.34 
   8  -2   5    1.14    0.32 
   9  -2   5    1.37    0.33 
  10  -2   5    1.46    0.35 
 -11   2  -5    0.80    0.36 
 -12   2  -5    0.71    0.37 
 -13   2  -5    1.07    0.51 
 -13  -1   5    0.59    0.32 
 -12  -1   5    0.27    0.25 
 -11  -1   5    0.48    0.23 
 -10  -1   5    0.33    0.21 
  -9  -1   5    4.26    0.41 
  -8  -1   5   17.71    0.86 
  -7  -1   5    0.22    0.13 
  -7  -1   5    0.26    0.11 
  -6  -1   5   13.91    0.66 
  -6  -1   5   13.31    0.60 
  -5  -1   5   11.09    0.54 
  -5  -1   5   10.73    0.47 
  -4  -1   5   27.95    1.06 
  -4  -1   5   27.44    1.10 
  -3  -1   5    5.12    0.22 
  -3  -1   5    5.26    0.31 
  -2  -1   5   24.47    0.92 
  -2  -1   5   23.75    0.92 
  -1  -1   5    6.42    0.29 
  -1  -1   5    5.63    0.29 
   0  -1   5   21.72    0.88 
   0  -1   5   21.49    0.81 
   1  -1   5    5.89    0.28 
   1  -1   5    6.55    0.35 
   2  -1   5   22.87    0.99 
   2  -1   5   22.68    0.87 
   3  -1   5    5.16    0.35 
   3  -1   5    4.89    0.27 
  -4   1  -5   27.66    0.99 
   4  -1   5   26.29    1.20 
   4  -1   5   26.28    1.06 
  -5   1  -5   11.02    0.45 
   5  -1   5   10.22    0.61 
   5  -1   5   10.15    0.52 
  -6   1  -5   13.48    0.57 
   6  -1   5   12.71    0.74 
   7  -1   5    0.19    0.21 
   8  -1   5   17.18    0.98 
   9  -1   5    3.74    0.48 
  10  -1   5    0.47    0.29 
  11  -1   5    0.58    0.30 
 -12   1  -5    0.61    0.40 
  12  -1   5    0.22    0.27 
 -13   1  -5    0.59    0.43 
 -13   0   5   -0.27    0.26 
 -12   0   5    0.20    0.24 
 -11   0   5    1.60    0.33 
 -10   0   5    2.48    0.37 
  -9   0   5    0.40    0.21 
  -8   0   5    0.47    0.14 
  -8   0   5    0.49    0.21 
  -7   0   5    0.14    0.15 
  -7   0   5    0.16    0.11 
  -6   0   5    0.28    0.15 
  -6   0   5    0.30    0.10 
  -5   0   5    0.58    0.14 
  -5   0   5    0.78    0.11 
  -4   0   5    2.62    0.23 
  -4   0   5    2.30    0.16 
  -3   0   5   28.78    1.10 
  -3   0   5   28.31    1.11 
  -2   0   5    1.16    0.10 
  -2   0   5    1.47    0.14 
  -1   0   5    0.70    0.08 
  -1   0   5    0.45    0.09 
   0   0   5   -0.08    0.05 
   0   0   5   -0.02    0.04 
   1   0   5    0.38    0.10 
   1   0   5    0.74    0.08 
   2   0   5    1.14    0.11 
   2   0   5    0.98    0.15 
  -3   0  -5   27.73    0.98 
   3   0   5   25.95    1.16 
   3   0   5   26.17    1.01 
  -4   0  -5    2.47    0.14 
   4   0   5    2.42    0.20 
   4   0   5    2.44    0.27 
  -5   0  -5    0.70    0.10 
   5   0   5    0.65    0.13 
   5   0   5    0.51    0.15 
  -6   0  -5    0.22    0.09 
   6   0   5    0.24    0.13 
  -7   0  -5    0.04    0.09 
   7   0   5    0.08    0.18 
  -8   0  -5    0.73    0.16 
   8   0   5    0.64    0.25 
   9   0   5    0.53    0.27 
  10   0   5    2.36    0.42 
  11   0   5    1.50    0.40 
  12   0   5    0.38    0.31 
 -13   0  -5    0.34    0.37 
  13   0   5   -0.22    0.32 
 -13   1   5    0.28    0.32 
 -12   1   5    0.51    0.29 
 -11   1   5    0.13    0.23 
 -10   1   5    0.29    0.22 
  -9   1   5    4.09    0.43 
  -9   1   5    5.10    0.38 
  -8   1   5   17.46    0.86 
  -8   1   5   15.51    0.80 
  -7   1   5   -0.05    0.13 
  -7   1   5    0.02    0.11 
  -6   1   5   12.82    0.65 
  -6   1   5   12.61    0.61 
  -5   1   5   10.62    0.55 
  -5   1   5   10.97    0.51 
  -4   1   5   26.38    1.06 
  -4   1   5   26.42    1.06 
  -3   1   5    5.26    0.26 
  -3   1   5    4.45    0.29 
  -2   1   5   23.42    0.90 
  -2   1   5   22.96    0.92 
  -1   1   5    6.70    0.32 
  -1   1   5    6.39    0.31 
   0   1   5   23.37    0.86 
   0   1   5   23.13    0.95 
   1   1   5    6.58    0.35 
   1   1   5    6.22    0.27 
   2   1   5   22.41    0.84 
   2   1   5   22.79    0.97 
  -3  -1  -5    5.42    0.23 
   3   1   5    4.76    0.34 
   3   1   5    4.77    0.26 
  -4  -1  -5   25.46    0.99 
   4   1   5   27.45    1.02 
   4   1   5   26.34    1.17 
  -5  -1  -5   10.19    0.46 
   5   1   5   11.28    0.62 
  -6  -1  -5   12.53    0.54 
   6   1   5   10.80    0.67 
  -7  -1  -5    0.19    0.10 
   7   1   5    0.31    0.18 
  -8  -1  -5   16.14    0.74 
   8   1   5   15.24    0.92 
  -9  -1  -5    4.99    0.35 
   9   1   5    4.81    0.53 
  10   1   5    0.46    0.25 
  11   1   5    1.04    0.34 
  12   1   5    0.17    0.29 
  13   1   5    0.09    0.31 
 -13   2   5    0.64    0.34 
 -12   2   5    0.44    0.29 
 -11   2   5    0.70    0.27 
 -10   2   5    1.03    0.29 
  -9   2   5    1.63    0.32 
  -9   2   5    1.72    0.26 
  -8   2   5    0.72    0.17 
  -8   2   5    0.70    0.23 
  -7   2   5    1.89    0.23 
  -7   2   5    1.94    0.29 
  -6   2   5   11.80    0.60 
  -6   2   5   11.85    0.63 
  -5   2   5    2.62    0.26 
  -5   2   5    2.49    0.22 
  -4   2   5   38.62    1.55 
  -4   2   5   40.26    1.53 
  -3   2   5   66.70    2.56 
  -3   2   5   68.49    2.45 
  -2   2   5   94.88    3.57 
  -2   2   5   95.43    3.36 
  -1   2   5   40.93    1.56 
  -1   2   5   39.01    1.45 
   0   2   5    5.90    0.27 
   0   2   5    6.17    0.32 
   1   2   5   40.35    1.60 
  -2  -2  -5   99.04    3.52 
   2   2   5   97.25    3.74 
   2   2   5   98.29    3.40 
  -3  -2  -5   70.44    2.56 
   3   2   5   70.30    2.78 
   3   2   5   72.34    2.50 
  -4  -2  -5   38.86    1.46 
   4   2   5   38.21    1.64 
   4   2   5   40.33    1.44 
  -5  -2  -5    2.30    0.18 
   5   2   5    2.25    0.28 
  -6  -2  -5   11.28    0.53 
   6   2   5   11.54    0.67 
  -7  -2  -5    2.72    0.23 
   7   2   5    1.68    0.31 
  -8  -2  -5    0.96    0.18 
   8   2   5    0.92    0.28 
  -9  -2  -5    1.81    0.24 
   9   2   5    1.70    0.36 
  10   2   5    1.18    0.32 
  11   2   5    1.08    0.34 
  12   2   5    0.80    0.34 
  13   2   5    0.86    0.41 
 -13   3   5    0.61    0.36 
 -12   3   5    0.32    0.28 
 -11   3   5    0.22    0.22 
 -10   3   5    0.13    0.22 
 -10   3   5    0.22    0.22 
  -9   3   5    1.13    0.23 
  -9   3   5    1.78    0.32 
  -8   3   5   12.32    0.72 
  -8   3   5   12.10    0.67 
  -7   3   5    0.29    0.19 
  -7   3   5    0.47    0.16 
  -6   3   5   15.82    0.79 
  -6   3   5   16.49    0.78 
  -5   3   5    4.84    0.31 
  -5   3   5    4.67    0.34 
  -4   3   5   59.69    2.34 
  -4   3   5   61.07    2.25 
  -3   3   5   15.73    0.70 
  -3   3   5   16.15    0.70 
  -2   3   5   96.77    3.44 
  -2   3   5   97.99    3.67 
  -1   3   5   19.08    0.75 
  -1   3   5   19.19    0.81 
   0   3   5    0.28    0.09 
   1   3   5   20.83    0.90 
   1   3   5   21.05    0.76 
  -2  -3  -5   98.25    3.61 
   2   3   5  102.68    3.84 
   2   3   5  101.10    3.47 
  -3  -3  -5   15.91    0.64 
   3   3   5   15.42    0.60 
   3   3   5   15.39    0.75 
  -4  -3  -5   59.93    2.26 
   4   3   5   61.69    2.47 
   4   3   5   63.23    2.19 
  -5  -3  -5    4.88    0.29 
   5   3   5    5.42    0.40 
  -6  -3  -5   16.06    0.72 
   6   3   5   17.09    0.87 
  -7  -3  -5    0.52    0.14 
   7   3   5    0.30    0.20 
  -8  -3  -5   11.85    0.61 
   8   3   5   12.93    0.78 
  -9  -3  -5    1.48    0.23 
   9   3   5    1.38    0.32 
 -10  -3  -5    0.01    0.16 
  10   3   5    0.56    0.26 
  11   3   5    0.01    0.25 
  12   3   5    0.31    0.32 
  13   3   5    0.53    0.37 
 -13   4   5    1.09    0.42 
 -12   4   5    0.42    0.31 
 -11   4   5    0.46    0.27 
 -10   4   5    1.08    0.31 
 -10   4   5    0.78    0.27 
  -9   4   5    3.03    0.41 
  -9   4   5    4.28    0.42 
  -8   4   5    0.99    0.25 
  -8   4   5    1.52    0.26 
  -7   4   5    3.51    0.37 
  -7   4   5    3.30    0.33 
  -6   4   5    6.65    0.42 
  -6   4   5    6.10    0.43 
  -5   4   5    9.86    0.54 
  -5   4   5    9.95    0.53 
  -4   4   5    2.32    0.23 
  -4   4   5    2.39    0.25 
  -3   4   5  143.06    5.43 
  -3   4   5  147.12    5.11 
  -2   4   5   12.18    0.57 
  -2   4   5   11.82    0.54 
  -1   4   5   61.44    2.17 
  -1   4   5   59.87    2.35 
   0   4   5   50.72    2.03 
   0   4   5   52.84    1.84 
   1   4   5   64.54    2.51 
   1   4   5   64.51    2.24 
  -2  -4  -5   12.57    0.56 
   2   4   5   13.22    0.48 
   2   4   5   13.47    0.65 
  -3  -4  -5  146.32    5.36 
   3   4   5  152.67    5.15 
   3   4   5  150.34    5.67 
  -4  -4  -5    2.59    0.19 
   4   4   5    2.02    0.25 
  -5  -4  -5    9.42    0.46 
   5   4   5    9.81    0.58 
  -6  -4  -5    6.60    0.38 
   6   4   5    7.24    0.49 
  -7  -4  -5    3.93    0.31 
   7   4   5    3.38    0.40 
  -8  -4  -5    1.14    0.19 
   8   4   5    0.98    0.27 
  -9  -4  -5    3.96    0.36 
   9   4   5    3.53    0.47 
 -10  -4  -5    0.79    0.22 
  10   4   5    1.09    0.31 
  11   4   5    0.08    0.25 
  12   4   5    0.27    0.30 
  13   4   5    1.00    0.43 
 -13   5   5    0.78    0.38 
 -12   5   5    0.39    0.32 
 -11   5   5    0.31    0.27 
 -10   5   5    0.40    0.27 
 -10   5   5    0.59    0.26 
  -9   5   5    0.31    0.20 
  -9   5   5    0.28    0.21 
  -8   5   5   11.26    0.67 
  -7   5   5    5.43    0.41 
  -6   5   5    1.30    0.21 
  -5   5   5    4.25    0.32 
  -4   5   5    2.53    0.25 
  -4   5   5    2.43    0.26 
  -3   5   5   17.01    0.74 
  -3   5   5   16.26    0.76 
  -2   5   5    4.95    0.30 
  -2   5   5    5.46    0.33 
  -1   5   5   31.72    1.31 
   0   5   5   10.37    0.43 
   0   5   5   10.52    0.53 
  -1  -5  -5   30.34    1.26 
   1   5   5   33.49    1.16 
   1   5   5   33.66    1.36 
  -2  -5  -5    5.63    0.31 
   2   5   5    5.75    0.36 
   2   5   5    5.43    0.22 
  -3  -5  -5   16.57    0.70 
   3   5   5   16.40    0.80 
  -4  -5  -5    2.57    0.21 
   4   5   5    2.12    0.26 
  -5  -5  -5    4.47    0.29 
   5   5   5    4.54    0.39 
  -6  -5  -5    1.21    0.18 
   6   5   5    0.84    0.20 
  -7  -5  -5    5.49    0.36 
   7   5   5    5.34    0.49 
  -8  -5  -5   11.04    0.59 
   8   5   5    9.74    0.68 
  -9  -5  -5   -0.01    0.14 
   9   5   5    0.20    0.23 
 -10  -5  -5    0.48    0.20 
  10   5   5    0.28    0.25 
  11   5   5    0.34    0.29 
  12   5   5    0.30    0.33 
  13   5   5    0.79    0.44 
 -13   6   5    0.39    0.39 
 -12   6   5    0.00    0.29 
 -11   6   5    0.41    0.31 
 -11   6   5    1.53    0.35 
 -10   6   5    2.70    0.40 
 -10   6   5    2.58    0.42 
  -9   6   5    1.03    0.27 
  -8   6   5    6.04    0.49 
  -7   6   5    1.43    0.27 
  -6   6   5    1.63    0.26 
  -5   6   5    0.77    0.19 
  -4   6   5   13.39    0.69 
  -3   6   5   59.21    2.35 
  -2   6   5   14.65    0.70 
  -2   6   5   14.24    0.64 
  -1   6   5    7.33    0.44 
   0   6   5    0.72    0.15 
   0   6   5    0.84    0.10 
  -1  -6  -5    7.41    0.41 
   1   6   5    9.06    0.34 
   1   6   5    7.57    0.46 
  -2  -6  -5   13.78    0.60 
   2   6   5   12.39    0.65 
  -3  -6  -5   61.57    2.25 
   3   6   5   57.99    2.40 
  -4  -6  -5   11.88    0.57 
   4   6   5   12.79    0.68 
  -5  -6  -5    1.50    0.19 
   5   6   5    0.85    0.20 
  -6  -6  -5    1.94    0.23 
   6   6   5    2.09    0.32 
  -7  -6  -5    1.72    0.23 
   7   6   5    1.29    0.30 
  -8  -6  -5    5.82    0.42 
   8   6   5    5.84    0.54 
  -9  -6  -5    1.08    0.24 
   9   6   5    1.11    0.31 
 -10  -6  -5    3.07    0.37 
  10   6   5    3.24    0.48 
 -11  -6  -5    0.61    0.25 
  11   6   5    0.66    0.31 
  12   6   5    0.60    0.35 
 -12   7   5    0.16    0.35 
 -11   7   5    0.19    0.27 
 -11   7   5    0.24    0.28 
 -10   7   5    0.43    0.27 
 -10   7   5   -0.01    0.21 
  -9   7   5    1.48    0.33 
  -8   7   5   12.15    0.75 
  -7   7   5    7.32    0.53 
  -6   7   5    3.04    0.35 
  -5   7   5    0.59    0.19 
  -4   7   5   32.59    1.41 
  -3   7   5    1.50    0.22 
  -2   7   5    2.82    0.28 
  -2   7   5    2.45    0.23 
  -1   7   5   12.29    0.65 
  -1   7   5   13.19    0.56 
   0   7   5   19.24    0.75 
   0   7   5   20.04    0.91 
  -1  -7  -5   12.92    0.62 
   1   7   5   12.58    0.67 
   1   7   5   13.72    0.50 
  -2  -7  -5    2.73    0.24 
   2   7   5    2.97    0.29 
  -3  -7  -5    1.79    0.21 
   3   7   5    1.38    0.22 
  -4  -7  -5   32.47    1.34 
   4   7   5   34.21    1.48 
  -5  -7  -5    0.58    0.14 
   5   7   5    0.43    0.21 
  -6  -7  -5    2.61    0.28 
   6   7   5    3.00    0.37 
  -7  -7  -5    7.04    0.46 
   7   7   5    7.10    0.56 
  -8  -7  -5   12.96    0.69 
   8   7   5   13.24    0.83 
  -9  -7  -5    0.52    0.21 
   9   7   5    0.68    0.29 
 -10  -7  -5   -0.03    0.17 
  10   7   5    0.48    0.27 
 -11  -7  -5   -0.06    0.21 
  11   7   5   -0.14    0.26 
  12   7   5    0.01    0.34 
 -12   8   5    0.62    0.36 
 -11   8   5    0.62    0.31 
 -11   8   5    0.77    0.33 
 -10   8   5    1.18    0.34 
  -9   8   5    0.68    0.28 
  -8   8   5    2.92    0.40 
  -7   8   5    0.72    0.25 
  -6   8   5    2.66    0.34 
  -5   8   5    0.79    0.24 
  -4   8   5    6.44    0.46 
  -3   8   5   12.82    0.69 
  -2   8   5   25.70    1.16 
  -1   8   5   20.74    0.98 
  -1   8   5   20.97    0.85 
   0   8   5   14.55    0.76 
   0   8   5   15.83    0.62 
  -1  -8  -5   20.62    0.91 
   1   8   5   20.82    0.77 
   1   8   5   21.24    0.98 
  -2  -8  -5   25.99    1.11 
   2   8   5   27.07    1.20 
  -3  -8  -5   11.60    0.57 
   3   8   5   10.49    0.62 
  -4  -8  -5    6.70    0.41 
   4   8   5    6.33    0.48 
  -5  -8  -5    0.81    0.19 
   5   8   5    0.90    0.23 
  -6  -8  -5    3.09    0.31 
   6   8   5    3.28    0.40 
  -7  -8  -5    1.23    0.24 
   7   8   5    0.87    0.26 
  -8  -8  -5    2.38    0.32 
   8   8   5    2.50    0.39 
  -9  -8  -5    1.17    0.27 
   9   8   5    0.64    0.29 
 -10  -8  -5    1.56    0.31 
  10   8   5    1.50    0.37 
 -11  -8  -5    0.34    0.24 
  11   8   5    0.87    0.36 
  12   8   5    0.98    0.48 
 -12   9   5    0.12    0.35 
 -12   9   5   -0.16    0.32 
 -11   9   5    0.22    0.30 
 -11   9   5    0.54    0.31 
 -10   9   5    0.49    0.30 
  -9   9   5    0.55    0.29 
  -8   9   5    1.58    0.34 
  -7   9   5    2.33    0.36 
  -6   9   5    3.07    0.39 
  -5   9   5   -0.05    0.15 
  -4   9   5   18.40    0.94 
  -3   9   5    1.48    0.27 
  -2   9   5    0.17    0.17 
  -1   9   5    4.22    0.28 
  -1   9   5    4.09    0.37 
   0   9   5    0.11    0.08 
   0   9   5    0.02    0.13 
  -1  -9  -5    3.65    0.33 
   1   9   5    3.63    0.35 
  -2  -9  -5    0.51    0.18 
   2   9   5    1.07    0.24 
  -3  -9  -5    1.78    0.25 
   3   9   5    1.32    0.26 
  -4  -9  -5   15.53    0.77 
   4   9   5   16.88    0.88 
  -5  -9  -5    0.25    0.15 
   5   9   5    0.19    0.20 
  -6  -9  -5    3.36    0.35 
   6   9   5    4.54    0.47 
  -7  -9  -5    2.14    0.30 
   7   9   5    2.28    0.38 
  -8  -9  -5    1.78    0.30 
   8   9   5    1.85    0.36 
  -9  -9  -5    0.19    0.20 
   9   9   5    0.12    0.22 
 -10  -9  -5    0.27    0.23 
  10   9   5    0.66    0.33 
 -11  -9  -5    0.32    0.28 
  11   9   5    0.62    0.35 
 -11  10   5    0.64    0.36 
 -10  10   5   -0.12    0.25 
  -9  10   5    1.75    0.38 
  -8  10   5    0.60    0.28 
  -7  10   5    0.98    0.28 
  -6  10   5    0.63    0.27 
  -5  10   5    2.16    0.34 
  -4  10   5    8.24    0.58 
  -3  10   5   15.19    0.83 
  -2  10   5   10.61    0.65 
  -1  10   5    2.47    0.33 
   0  10   5    0.62    0.21 
  -1 -10  -5    3.37    0.33 
   1  10   5    3.28    0.36 
  -2 -10  -5   11.37    0.62 
   2  10   5   11.44    0.68 
  -3 -10  -5   16.15    0.79 
   3  10   5   16.55    0.89 
  -4 -10  -5    6.78    0.47 
   4  10   5    7.64    0.56 
  -5 -10  -5    2.95    0.33 
   5  10   5    2.50    0.38 
  -6 -10  -5    0.39    0.20 
   6  10   5    0.36    0.22 
  -7 -10  -5    0.91    0.23 
   7  10   5    0.81    0.28 
  -8 -10  -5    0.55    0.23 
   8  10   5    0.84    0.31 
  -9 -10  -5    1.80    0.32 
   9  10   5    2.28    0.43 
 -10 -10  -5    0.54    0.28 
  10  10   5    0.79    0.35 
 -11 -10  -5    0.61    0.29 
  11  10   5    0.52    0.44 
 -11  11   5    0.21    0.36 
 -10  11   5    0.61    0.35 
  -9  11   5    2.65    0.45 
  -8  11   5    1.09    0.36 
  -7  11   5    0.30    0.26 
  -6  11   5    1.24    0.29 
  -5  11   5    2.63    0.38 
  -4  11   5    2.63    0.38 
  -3  11   5    3.93    0.42 
  -2  11   5   13.92    0.80 
  -1  11   5    7.54    0.57 
   0  11   5   23.39    1.15 
  -1 -11  -5    8.92    0.54 
   1  11   5    7.46    0.57 
  -2 -11  -5   15.51    0.79 
   2  11   5   14.70    0.84 
  -3 -11  -5    4.84    0.41 
   3  11   5    4.30    0.45 
  -4 -11  -5    2.32    0.31 
   4  11   5    2.74    0.39 
  -5 -11  -5    2.03    0.30 
   5  11   5    2.61    0.40 
  -6 -11  -5    1.48    0.28 
   6  11   5    2.22    0.39 
  -7 -11  -5    0.56    0.22 
   7  11   5    0.80    0.30 
  -8 -11  -5    1.57    0.30 
   8  11   5    1.53    0.37 
  -9 -11  -5    2.72    0.40 
   9  11   5    3.75    0.52 
 -10 -11  -5    0.00    0.25 
  10  11   5    0.36    0.33 
 -11 -11  -5    0.11    0.29 
 -10  12   5    1.03    0.41 
  -9  12   5    0.66    0.36 
  -8  12   5    0.44    0.32 
  -7  12   5    1.28    0.35 
  -6  12   5    0.37    0.26 
  -5  12   5    0.06    0.22 
  -4  12   5    4.94    0.50 
  -3  12   5    5.11    0.50 
  -2  12   5    8.31    0.61 
  -1  12   5    5.15    0.49 
   0  12   5   17.76    0.97 
  -1 -12  -5    5.97    0.46 
   1  12   5    5.42    0.50 
  -2 -12  -5    9.07    0.59 
   2  12   5    9.00    0.64 
  -3 -12  -5    4.36    0.43 
   3  12   5    5.45    0.50 
  -4 -12  -5    5.09    0.43 
   4  12   5    4.98    0.50 
  -5 -12  -5   -0.17    0.16 
   5  12   5    0.10    0.21 
  -6 -12  -5    0.52    0.22 
   6  12   5    0.83    0.30 
  -7 -12  -5    1.76    0.32 
   7  12   5    1.51    0.37 
  -8 -12  -5   -0.08    0.21 
   8  12   5    0.67    0.32 
  -9 -12  -5    0.80    0.30 
   9  12   5    1.92    0.44 
 -10 -12  -5   -0.15    0.26 
  -9  13   5    0.17    0.33 
  -8  13   5    0.01    0.29 
  -7  13   5    2.07    0.40 
  -6  13   5    0.42    0.27 
  -5  13   5    2.31    0.39 
  -4  13   5    0.29    0.25 
  -3  13   5    7.57    0.61 
  -2  13   5    3.64    0.45 
  -1  13   5    4.81    0.49 
   0  13   5    2.69    0.39 
   1  13   5    5.07    0.50 
  -2 -13  -5    3.18    0.39 
   2  13   5    3.94    0.46 
  -3 -13  -5    7.34    0.53 
   3  13   5    7.40    0.59 
  -4 -13  -5   -0.21    0.17 
   4  13   5   -0.27    0.16 
  -5 -13  -5    3.05    0.39 
   5  13   5    4.27    0.51 
  -6 -13  -5    0.44    0.25 
   6  13   5    0.38    0.28 
  -7 -13  -5    3.23    0.42 
   7  13   5    2.20    0.45 
  -8 -13  -5    0.37    0.26 
   8  13   5   -0.09    0.28 
  -9 -13  -5    0.44    0.30 
   9  13   5    0.01    0.35 
  -9  14   5   -0.03    0.35 
  -8  14   5    0.35    0.33 
  -7  14   5    0.64    0.33 
  -6  14   5    0.03    0.30 
  -5  14   5   -0.17    0.23 
  -4  14   5    3.83    0.51 
  -3  14   5    1.64    0.36 
  -2  14   5    0.30    0.22 
  -1  14   5    0.39    0.26 
   0  14   5   -0.01    0.20 
   1  14   5    0.16    0.20 
  -2 -14  -5    0.28    0.21 
   2  14   5    0.27    0.23 
  -3 -14  -5    1.98    0.33 
   3  14   5    1.54    0.35 
  -4 -14  -5    3.64    0.43 
   4  14   5    3.15    0.46 
  -5 -14  -5   -0.05    0.22 
   5  14   5    0.12    0.26 
  -6 -14  -5    0.45    0.26 
   6  14   5   -0.02    0.27 
  -7 -14  -5    0.06    0.24 
   7  14   5    0.57    0.35 
  -8 -14  -5    0.64    0.31 
   8  14   5    0.94    0.37 
  -9 -14  -5    0.71    0.34 
  -8  15   5    0.25    0.35 
  -7  15   5    1.22    0.43 
  -6  15   5    1.11    0.38 
  -5  15   5    0.91    0.36 
  -4  15   5    3.56    0.53 
  -3  15   5   -0.07    0.23 
  -2  15   5    1.50    0.35 
  -1  15   5    0.89    0.30 
   0  15   5    3.70    0.48 
   1  15   5    0.74    0.29 
  -2 -15  -5    1.56    0.34 
   2  15   5    1.48    0.36 
  -3 -15  -5    0.09    0.23 
   3  15   5    0.29    0.24 
  -4 -15  -5    4.55    0.51 
   4  15   5    4.38    0.54 
  -5 -15  -5    0.79    0.31 
   5  15   5    2.22    0.44 
  -6 -15  -5    1.51    0.36 
   6  15   5    2.21    0.46 
  -7 -15  -5    1.61    0.39 
   7  15   5    1.11    0.41 
  -8 -15  -5    0.96    0.35 
   8  15   5    0.95    0.48 
  -6  16   5    0.10    0.37 
  -5  16   5    0.15    0.36 
  -4  16   5    1.65    0.44 
  -3  16   5    1.41    0.38 
  -2  16   5    2.10    0.44 
  -1  16   5    0.92    0.32 
   0  16   5    4.21    0.54 
   1  16   5    1.70    0.41 
   2  16   5    2.42    0.46 
  -3 -16  -5    2.18    0.40 
   3  16   5    1.30    0.35 
  -4 -16  -5    2.29    0.43 
   4  16   5    2.33    0.46 
  -5 -16  -5    0.15    0.28 
   5  16   5    0.49    0.34 
  -6 -16  -5   -0.20    0.29 
   6  16   5    0.66    0.36 
  -5  17   5    1.38    0.44 
  -4  17   5    0.56    0.34 
  -3  17   5    0.39    0.34 
  -2  17   5    0.09    0.27 
  -1  17   5    0.07    0.29 
   0  17   5    0.23    0.30 
   1  17   5   -0.23    0.25 
   2  17   5    0.03    0.29 
  -3 -17  -5   -0.08    0.26 
   3  17   5    0.01    0.29 
  -4 -17  -5    0.42    0.32 
   4  17   5    0.23    0.35 
  -5 -17  -5    0.60    0.37 
   5  17   5    1.01    0.42 
  -2  18   5    0.34    0.35 
  -1  18   5   -0.18    0.31 
   0  18   5    0.18    0.31 
   1  18   5    0.65    0.36 
   2  18   5    0.18    0.33 
  -1 -18   6    0.49    0.34 
  -4 -17   6    0.21    0.29 
  -3 -17   6    0.23    0.29 
  -2 -17   6    0.12    0.24 
  -1 -17   6    0.06    0.24 
   0 -17   6    0.08    0.27 
  -2  17  -6    0.16    0.32 
  -3  17  -6    0.48    0.36 
  -4  17  -6    0.16    0.34 
  -6 -16   6    1.13    0.38 
  -5 -16   6    0.61    0.30 
  -4 -16   6    0.72    0.31 
  -3 -16   6    0.12    0.26 
  -2 -16   6   -0.10    0.21 
  -1 -16   6    2.35    0.36 
   0 -16   6    0.33    0.23 
  -1  16  -6    2.22    0.40 
  -2  16  -6    0.46    0.29 
   2 -16   6    0.25    0.29 
  -3  16  -6    0.73    0.33 
  -4  16  -6    1.04    0.37 
  -5  16  -6    0.15    0.34 
  -6  16  -6    0.67    0.39 
  -7 -15   6    0.83    0.35 
  -6 -15   6    1.50    0.39 
  -5 -15   6    0.64    0.29 
  -4 -15   6    1.03    0.29 
  -3 -15   6    2.22    0.36 
  -2 -15   6    2.69    0.37 
  -1 -15   6    2.66    0.36 
   0 -15   6    0.43    0.21 
  -1  15  -6    2.36    0.37 
   1 -15   6    1.86    0.31 
   1 -15   6    2.38    0.39 
  -2  15  -6    3.17    0.44 
   2 -15   6    3.74    0.46 
  -3  15  -6    2.31    0.41 
  -4  15  -6    1.26    0.36 
  -5  15  -6    0.76    0.36 
  -6  15  -6    1.32    0.42 
  -7  15  -6    0.67    0.40 
  -8 -14   6    2.85    0.50 
  -7 -14   6    1.53    0.36 
  -6 -14   6    0.85    0.31 
  -5 -14   6    0.34    0.25 
  -4 -14   6    0.54    0.24 
  -3 -14   6    2.70    0.38 
  -2 -14   6    0.04    0.18 
  -1 -14   6    2.95    0.36 
  -1 -14   6    2.68    0.34 
   0  14  -6    3.81    0.43 
   0 -14   6    4.36    0.39 
   0 -14   6    4.35    0.43 
  -1  14  -6    3.02    0.39 
   1 -14   6    2.88    0.34 
   1 -14   6    3.62    0.41 
  -2  14  -6    0.08    0.21 
   2 -14   6    0.05    0.22 
  -3  14  -6    2.42    0.40 
   3 -14   6    2.79    0.43 
  -4  14  -6    0.70    0.31 
  -5  14  -6    0.42    0.30 
  -6  14  -6    0.81    0.35 
  -7  14  -6    0.95    0.41 
  -8  14  -6    1.91    0.50 
  -9 -13   6    0.04    0.29 
  -8 -13   6    0.11    0.27 
  -7 -13   6    0.85    0.34 
  -6 -13   6    0.00    0.23 
  -5 -13   6   -0.14    0.20 
  -4 -13   6    0.86    0.26 
  -3 -13   6    1.71    0.30 
  -2 -13   6    5.14    0.44 
  -2 -13   6    5.69    0.42 
   1  13  -6    0.29    0.20 
  -1 -13   6    0.44    0.19 
  -1 -13   6    0.75    0.22 
   0  13  -6    4.85    0.43 
   0 -13   6    4.73    0.42 
   0 -13   6    3.87    0.38 
  -1  13  -6    0.34    0.23 
   1 -13   6    0.00    0.19 
   1 -13   6    0.45    0.19 
  -2  13  -6    6.31    0.53 
   2 -13   6    5.16    0.40 
   2 -13   6    5.14    0.48 
  -3  13  -6    1.89    0.36 
   3 -13   6    2.23    0.36 
  -4  13  -6    1.28    0.35 
   4 -13   6    1.36    0.32 
  -5  13  -6    0.34    0.27 
  -6  13  -6   -0.07    0.28 
  -7  13  -6    0.94    0.37 
  -8  13  -6    0.32    0.35 
  -9  13  -6   -0.07    0.37 
 -10 -12   6   -0.13    0.32 
  -9 -12   6    0.75    0.36 
  -8 -12   6    2.19    0.43 
  -7 -12   6    0.20    0.25 
  -6 -12   6    2.87    0.42 
  -5 -12   6    0.15    0.23 
  -4 -12   6    3.47    0.40 
  -3 -12   6    1.00    0.24 
  -3 -12   6    0.71    0.20 
  -2 -12   6    2.47    0.29 
  -2 -12   6    2.42    0.31 
   1  12  -6    1.60    0.23 
  -1 -12   6    1.98    0.27 
  -1 -12   6    1.86    0.27 
   0  12  -6    5.81    0.45 
   0 -12   6    5.98    0.42 
   0 -12   6    6.04    0.44 
  -1  12  -6    2.02    0.32 
   1 -12   6    2.20    0.31 
   1 -12   6    2.14    0.26 
  -2  12  -6    1.87    0.34 
   2 -12   6    2.28    0.27 
   2 -12   6    2.54    0.35 
  -3  12  -6    0.83    0.27 
   3 -12   6    1.07    0.28 
  -4  12  -6    3.21    0.46 
   4 -12   6    4.12    0.45 
  -5  12  -6   -0.24    0.22 
  -6  12  -6    2.51    0.47 
  -7  12  -6   -0.21    0.30 
  -8  12  -6    1.87    0.50 
  -9  12  -6    0.58    0.41 
 -10  12  -6   -0.06    0.40 
 -10 -11   6    1.40    0.40 
  -9 -11   6    0.39    0.27 
  -8 -11   6    1.45    0.36 
  -7 -11   6    1.70    0.36 
  -6 -11   6    1.36    0.32 
  -5 -11   6    1.97    0.24 
  -5 -11   6    1.93    0.32 
  -4 -11   6    1.63    0.23 
  -4 -11   6    1.34    0.29 
  -3 -11   6    1.69    0.23 
  -3 -11   6    2.29    0.30 
   2  11  -6   21.99    0.97 
  -2 -11   6   21.28    0.94 
  -2 -11   6   21.80    1.00 
  -1 -11   6   10.26    0.56 
  -1 -11   6   10.86    0.58 
   0  11  -6    0.15    0.14 
   0 -11   6    0.15    0.13 
   0 -11   6    0.09    0.16 
  -1  11  -6    9.53    0.63 
   1 -11   6   11.05    0.55 
   1 -11   6   10.66    0.60 
  -2  11  -6   22.26    1.13 
   2 -11   6   22.95    0.96 
   2 -11   6   21.26    1.02 
  -3  11  -6    1.70    0.33 
   3 -11   6    2.39    0.33 
  -4  11  -6    0.70    0.27 
   4 -11   6    1.25    0.29 
  -5  11  -6    2.08    0.39 
   5 -11   6    2.11    0.36 
  -6  11  -6    0.86    0.33 
  -7  11  -6    1.52    0.42 
  -8  11  -6    1.18    0.41 
  -9  11  -6    0.06    0.35 
 -10  11  -6    1.68    0.53 
 -11 -10   6    0.28    0.34 
 -10 -10   6    1.16    0.37 
  -9 -10   6    1.97    0.41 
  -8 -10   6    0.36    0.26 
  -7 -10   6    2.15    0.37 
  -6 -10   6    1.14    0.29 
  -5 -10   6    1.38    0.29 
  -5 -10   6    1.40    0.20 
  -4 -10   6    8.54    0.57 
  -4 -10   6    8.31    0.44 
  -3 -10   6    2.62    0.25 
  -3 -10   6    2.66    0.33 
   2  10  -6   15.62    0.73 
  -2 -10   6   15.64    0.70 
  -2 -10   6   15.56    0.77 
   1  10  -6    0.28    0.12 
  -1 -10   6    0.40    0.15 
  -1 -10   6    0.77    0.16 
   0  10  -6   11.76    0.61 
   0 -10   6   11.64    0.56 
   0 -10   6    9.35    0.55 
  -1  10  -6    0.17    0.16 
   1 -10   6    0.55    0.14 
   1 -10   6    0.87    0.21 
  -2  10  -6   13.46    0.80 
   2 -10   6   15.91    0.76 
  -3  10  -6    2.22    0.36 
   3 -10   6    2.32    0.32 
  -4  10  -6    9.00    0.67 
   4 -10   6    8.61    0.56 
  -5  10  -6    1.65    0.35 
   5 -10   6    1.15    0.29 
  -6  10  -6    1.79    0.40 
  -7  10  -6    2.48    0.46 
  -8  10  -6   -0.12    0.27 
  -9  10  -6    2.81    0.54 
 -10  10  -6    1.58    0.51 
 -11  10  -6    0.25    0.41 
 -11  -9   6    0.51    0.35 
 -10  -9   6   -0.10    0.26 
  -9  -9   6    2.84    0.45 
  -8  -9   6    0.50    0.26 
  -7  -9   6    5.03    0.35 
  -7  -9   6    4.07    0.48 
  -6  -9   6    3.01    0.27 
  -6  -9   6    3.13    0.40 
  -5  -9   6    2.77    0.37 
  -5  -9   6    2.52    0.24 
  -4  -9   6    2.05    0.30 
  -4  -9   6    1.47    0.19 
  -3  -9   6    3.85    0.37 
  -3  -9   6    4.40    0.29 
   2   9  -6   12.62    0.60 
  -2  -9   6   12.22    0.64 
  -2  -9   6   12.71    0.58 
   1   9  -6   19.87    0.88 
  -1  -9   6   19.97    0.84 
  -1  -9   6   18.73    0.85 
   0   9  -6   15.77    0.78 
   0  -9   6   16.32    0.73 
   0  -9   6   16.50    0.72 
  -1   9  -6   20.92    0.95 
   1  -9   6   19.25    0.86 
   1  -9   6   18.69    0.82 
  -2   9  -6   12.88    0.72 
   2  -9   6   11.89    0.64 
   2  -9   6   12.36    0.57 
  -3   9  -6    4.24    0.44 
   3  -9   6    4.13    0.38 
  -4   9  -6    1.03    0.29 
   4  -9   6    1.78    0.29 
  -5   9  -6    3.16    0.45 
   5  -9   6    2.50    0.35 
  -6   9  -6    2.90    0.46 
  -7   9  -6    4.97    0.61 
  -8   9  -6    0.45    0.31 
  -9   9  -6    2.21    0.48 
 -10   9  -6    0.28    0.37 
 -11   9  -6    0.96    0.48 
 -12  -8   6   -0.37    0.31 
 -11  -8   6   -0.14    0.28 
 -10  -8   6    1.62    0.41 
  -9  -8   6    0.93    0.33 
  -9  -8   6    1.10    0.24 
  -8  -8   6    6.71    0.61 
  -8  -8   6    5.63    0.40 
  -7  -8   6    0.09    0.19 
  -7  -8   6    0.04    0.14 
  -6  -8   6    8.91    0.59 
  -6  -8   6    7.45    0.42 
  -5  -8   6    0.26    0.20 
  -5  -8   6    0.45    0.14 
  -4  -8   6    1.21    0.17 
  -4  -8   6    1.28    0.26 
   3   8  -6   14.20    0.64 
  -3  -8   6   14.04    0.64 
  -3  -8   6   17.02    0.77 
   2   8  -6    6.70    0.37 
  -2  -8   6    7.57    0.39 
  -2  -8   6    7.18    0.43 
   1   8  -6   17.25    0.76 
  -1  -8   6   17.60    0.77 
  -1  -8   6   16.04    0.72 
   0   8  -6    4.47    0.33 
   0  -8   6    4.80    0.29 
   0  -8   6    4.32    0.30 
  -1   8  -6   16.78    0.85 
   1  -8   6   17.79    0.77 
  -2   8  -6    6.04    0.47 
   2  -8   6    7.50    0.44 
   2  -8   6    7.36    0.36 
  -3   8  -6   13.56    0.79 
   3  -8   6   14.88    0.73 
  -4   8  -6    1.00    0.27 
   4  -8   6    0.97    0.22 
  -5   8  -6    0.33    0.23 
   5  -8   6    0.23    0.16 
  -6   8  -6    8.12    0.71 
  -7   8  -6    0.21    0.27 
  -8   8  -6    5.35    0.66 
  -9   8  -6    0.80    0.36 
 -10   8  -6    1.70    0.48 
 -11   8  -6    0.58    0.41 
 -12   8  -6    0.22    0.45 
 -12  -7   6    0.91    0.41 
 -11  -7   6   -0.10    0.25 
 -10  -7   6    3.01    0.48 
 -10  -7   6    2.68    0.34 
  -9  -7   6    0.84    0.28 
  -9  -7   6    0.78    0.22 
  -8  -7   6    0.88    0.20 
  -8  -7   6    0.46    0.23 
  -7  -7   6    5.19    0.36 
  -7  -7   6    4.63    0.49 
  -6  -7   6    1.08    0.18 
  -6  -7   6    0.90    0.25 
  -5  -7   6    2.84    0.36 
  -5  -7   6    3.54    0.26 
  -4  -7   6   20.26    0.95 
  -4  -7   6   19.11    0.81 
   3   7  -6    5.74    0.29 
  -3  -7   6    5.54    0.39 
  -3  -7   6    6.04    0.33 
   2   7  -6    7.63    0.37 
  -2  -7   6    7.51    0.44 
  -2  -7   6    7.01    0.37 
   1   7  -6   18.43    0.80 
  -1  -7   6   19.50    0.82 
  -1  -7   6   17.69    0.76 
   0  -7   6   30.11    1.19 
   0  -7   6   30.62    1.18 
  -1   7  -6   19.51    0.90 
   1  -7   6   19.09    0.77 
   1  -7   6   17.97    0.80 
  -2   7  -6    7.05    0.47 
   2  -7   6    7.09    0.34 
   2  -7   6    7.35    0.41 
  -3   7  -6    5.43    0.46 
   3  -7   6    5.82    0.39 
  -4   7  -6   19.17    1.04 
   4  -7   6   20.14    0.91 
  -5   7  -6    3.64    0.45 
   5  -7   6    3.66    0.37 
  -6   7  -6    0.90    0.31 
   6  -7   6    1.08    0.26 
  -7   7  -6    4.31    0.55 
  -8   7  -6    0.25    0.29 
  -9   7  -6    0.46    0.29 
 -10   7  -6    2.90    0.59 
 -11   7  -6    0.40    0.36 
 -12   7  -6    1.41    0.56 
 -13  -6   6    0.50    0.41 
 -12  -6   6    0.37    0.34 
 -11  -6   6    0.03    0.20 
 -11  -6   6    0.39    0.30 
 -10  -6   6    0.63    0.22 
  -9  -6   6    1.79    0.28 
  -8  -6   6    0.35    0.18 
  -7  -6   6    6.78    0.42 
  -6  -6   6    0.22    0.12 
  -5  -6   6    0.98    0.25 
  -5  -6   6    1.07    0.17 
  -4  -6   6    3.54    0.34 
  -4  -6   6    3.42    0.25 
   3   6  -6   13.87    0.55 
  -3  -6   6   13.51    0.60 
  -3  -6   6   13.64    0.69 
   2   6  -6    5.07    0.26 
  -2  -6   6    5.05    0.34 
  -2  -6   6    5.37    0.29 
   1   6  -6   14.95    0.65 
  -1  -6   6   14.35    0.62 
  -1  -6   6   14.95    0.67 
   0  -6   6    3.31    0.23 
  -1   6  -6   14.12    0.74 
   1  -6   6   15.56    0.67 
   1  -6   6   15.98    0.63 
  -2   6  -6    4.51    0.37 
   2  -6   6    5.11    0.32 
   2  -6   6    5.04    0.25 
  -3   6  -6   14.45    0.79 
   3  -6   6   13.81    0.66 
  -4   6  -6    3.41    0.40 
   4  -6   6    3.11    0.30 
  -5   6  -6    1.19    0.30 
   5  -6   6    1.02    0.21 
  -6   6  -6    0.28    0.25 
   6  -6   6    0.02    0.17 
  -7   6  -6    6.25    0.64 
  -8   6  -6    0.33    0.31 
  -9   6  -6    1.75    0.43 
 -10   6  -6   -0.19    0.28 
 -11   6  -6   -0.23    0.29 
 -12   6  -6    0.33    0.46 
 -13   6  -6   -0.14    0.45 
 -12  -5   6    0.61    0.28 
 -11  -5   6    0.99    0.27 
 -10  -5   6    1.11    0.25 
  -9  -5   6    0.12    0.18 
  -8  -5   6    0.68    0.19 
  -7  -5   6    5.96    0.39 
  -6  -5   6    2.75    0.26 
  -5  -5   6    9.63    0.48 
  -4  -5   6   13.51    0.60 
  -3  -5   6    2.40    0.20 
   2   5  -6   42.58    1.61 
  -2  -5   6   43.01    1.67 
  -2  -5   6   41.44    1.56 
   1   5  -6   10.52    0.48 
  -1  -5   6   10.39    0.46 
  -1  -5   6    9.85    0.49 
   0   5  -6    0.40    0.11 
   0  -5   6    0.45    0.10 
   0  -5   6    0.45    0.10 
   0  -5   6    0.18    0.06 
  -1   5  -6    9.72    0.55 
   1  -5   6   11.22    0.49 
   1  -5   6   10.26    0.44 
  -2   5  -6   41.87    1.73 
   2  -5   6   39.22    1.52 
   2  -5   6   40.42    1.48 
  -3   5  -6    2.26    0.30 
   3  -5   6    1.77    0.22 
  -4   5  -6   13.53    0.78 
   4  -5   6   13.01    0.64 
  -5   5  -6    9.16    0.65 
   5  -5   6    9.24    0.53 
  -6   5  -6    2.52    0.40 
   6  -5   6    2.55    0.32 
  -7   5  -6    5.42    0.59 
  -8   5  -6    0.36    0.29 
  -9   5  -6   -0.32    0.22 
 -10   5  -6    1.01    0.40 
 -11   5  -6    0.40    0.37 
 -12   5  -6    0.89    0.47 
 -13   5  -6    0.20    0.48 
 -13  -4   6    0.06    0.29 
 -12  -4   6    0.21    0.26 
 -11  -4   6    0.43    0.26 
 -10  -4   6    0.43    0.21 
  -9  -4   6    0.74    0.24 
  -8  -4   6    1.18    0.24 
  -7  -4   6    1.81    0.25 
  -6  -4   6    3.55    0.30 
  -5  -4   6   12.39    0.58 
  -4  -4   6   38.63    1.46 
  -3  -4   6   38.72    1.45 
   2   4  -6   24.73    0.97 
  -2  -4   6   25.76    0.98 
   1   4  -6    7.63    0.38 
  -1  -4   6    7.69    0.37 
   0   4  -6   29.46    1.26 
   0  -4   6   31.09    1.18 
   0  -4   6   30.79    1.15 
  -1   4  -6    8.28    0.47 
   1  -4   6    8.28    0.35 
   1  -4   6    7.72    0.39 
   2  -4   6   22.72    0.94 
   2  -4   6   24.20    0.86 
   2  -4   6   23.11    1.04 
   3  -4   6   36.10    1.54 
   3  -4   6   36.00    1.39 
   4  -4   6   36.93    1.44 
   4  -4   6   35.58    1.58 
   5  -4   6   11.96    0.62 
   5  -4   6   11.73    0.70 
   6  -4   6    3.53    0.42 
   6  -4   6    2.96    0.33 
  -7   4  -6    2.08    0.41 
   7  -4   6    1.88    0.36 
  -8   4  -6    0.42    0.32 
  -9   4  -6    0.52    0.29 
 -10   4  -6    0.26    0.34 
 -11   4  -6    0.37    0.34 
 -12   4  -6    0.37    0.38 
 -13   4  -6   -0.13    0.39 
 -13  -3   6    0.81    0.32 
 -12  -3   6    0.42    0.25 
 -11  -3   6    0.73    0.25 
 -10  -3   6   -0.14    0.17 
  -9  -3   6    2.37    0.31 
  -8  -3   6    3.37    0.34 
  -7  -3   6    0.99    0.22 
  -6  -3   6    0.85    0.17 
  -5  -3   6   11.01    0.54 
  -4  -3   6    4.63    0.29 
  -3  -3   6    8.90    0.43 
   2   3  -6  205.02    7.43 
  -2  -3   6  198.13    6.96 
  -1  -3   6   13.32    0.56 
   0  -3   6   71.40    2.77 
   0  -3   6   74.28    2.58 
   1  -3   6   13.42    0.63 
   1  -3   6   13.54    0.56 
   1  -3   6   13.30    0.53 
   2  -3   6  190.93    7.24 
   2  -3   6  195.97    6.71 
   3  -3   6    8.50    0.44 
   3  -3   6    9.54    0.54 
   4  -3   6    4.48    0.31 
   4  -3   6    4.85    0.38 
   5  -3   6    9.83    0.53 
   5  -3   6   10.43    0.63 
   6  -3   6    0.46    0.21 
   6  -3   6    0.67    0.17 
   7  -3   6    1.27    0.29 
   8  -3   6    3.89    0.49 
   9  -3   6    3.73    0.51 
 -10   3  -6    0.27    0.32 
 -11   3  -6    1.21    0.45 
 -12   3  -6    0.14    0.34 
 -13   3  -6    1.01    0.50 
 -13  -2   6    0.24    0.27 
 -12  -2   6    0.83    0.29 
 -11  -2   6   -0.20    0.17 
 -10  -2   6    2.05    0.33 
  -9  -2   6    1.40    0.27 
  -8  -2   6    1.88    0.28 
  -7  -2   6   27.91    1.18 
  -6  -2   6    1.22    0.11 
  -6  -2   6    0.91    0.18 
  -5  -2   6    8.32    0.46 
  -4  -2   6   76.49    2.76 
  -3  -2   6  115.68    4.07 
  -2  -2   6    0.97    0.13 
  -2  -2   6    0.79    0.07 
  -1  -2   6    6.12    0.31 
  -1  -2   6    6.16    0.30 
   0  -2   6   33.03    1.29 
   0  -2   6   31.16    1.18 
   1  -2   6    5.54    0.33 
   1  -2   6    5.28    0.27 
   2  -2   6    0.74    0.12 
   2  -2   6    0.67    0.15 
   3  -2   6  110.39    3.86 
   3  -2   6  108.20    4.20 
   4  -2   6   76.07    2.67 
   4  -2   6   70.50    2.92 
  -5   2  -6    7.95    0.31 
   5  -2   6    6.89    0.42 
   5  -2   6    7.71    0.52 
  -6   2  -6    1.40    0.12 
   6  -2   6    1.17    0.20 
   6  -2   6    0.62    0.23 
   7  -2   6   27.14    1.34 
   8  -2   6    1.70    0.37 
   9  -2   6    1.51    0.35 
  10  -2   6    2.63    0.44 
  11  -2   6   -0.52    0.19 
 -12   2  -6    2.05    0.55 
 -13   2  -6    0.00    0.43 
 -13  -1   6    0.08    0.27 
 -12  -1   6    0.69    0.28 
 -11  -1   6    1.31    0.32 
 -10  -1   6    0.81    0.24 
  -9  -1   6    0.85    0.23 
  -8  -1   6    1.05    0.24 
  -7  -1   6    1.36    0.23 
  -6  -1   6    4.95    0.36 
  -6  -1   6    5.16    0.27 
  -5  -1   6   18.59    0.82 
  -5  -1   6   19.03    0.75 
  -4  -1   6   17.70    0.72 
  -4  -1   6   19.95    0.80 
  -3  -1   6    3.00    0.23 
  -3  -1   6    2.91    0.15 
  -2  -1   6    0.03    0.04 
  -2  -1   6    0.01    0.06 
  -1  -1   6    2.88    0.18 
  -1  -1   6    2.65    0.18 
   0  -1   6  148.12    5.15 
   0  -1   6  150.12    5.55 
   1  -1   6    2.66    0.17 
   1  -1   6    2.89    0.22 
   2  -1   6    0.01    0.07 
   2  -1   6   -0.02    0.05 
   3  -1   6    2.96    0.21 
   3  -1   6    2.51    0.27 
   4  -1   6   17.87    0.76 
   4  -1   6   18.17    0.89 
  -5   1  -6   18.44    0.71 
   5  -1   6   19.20    0.95 
   5  -1   6   19.05    0.82 
  -6   1  -6    5.28    0.27 
   6  -1   6    5.27    0.47 
  -7   1  -6    1.61    0.16 
   7  -1   6    1.45    0.33 
   8  -1   6    0.74    0.28 
   9  -1   6    0.85    0.29 
  10  -1   6    0.92    0.31 
  11  -1   6    1.21    0.37 
  12  -1   6    1.34    0.41 
 -13   1  -6    0.25    0.43 
 -13   0   6    0.30    0.29 
 -12   0   6   -0.13    0.24 
 -11   0   6    0.17    0.22 
 -10   0   6    0.85    0.26 
  -9   0   6    0.56    0.23 
  -8   0   6    0.53    0.20 
  -7   0   6   42.28    1.73 
  -7   0   6   44.27    1.73 
  -6   0   6    4.45    0.26 
  -6   0   6    3.79    0.34 
  -5   0   6    0.09    0.07 
  -5   0   6    0.00    0.10 
  -4   0   6   22.92    0.93 
  -4   0   6   24.71    0.98 
  -3   0   6   94.46    3.37 
  -3   0   6   95.16    3.53 
  -2   0   6   35.97    1.35 
  -2   0   6   36.20    1.39 
  -1   0   6    2.85    0.18 
  -1   0   6    2.77    0.18 
   0   0   6  297.56   11.11 
   0   0   6  305.51   10.33 
   1   0   6    2.65    0.17 
   1   0   6    3.09    0.22 
   2   0   6   34.80    1.25 
   2   0   6   33.11    1.41 
   3   0   6   87.62    3.47 
   3   0   6   91.18    3.16 
  -4   0  -6   23.25    0.84 
   4   0   6   22.92    0.92 
   4   0   6   21.74    1.06 
  -5   0  -6    0.13    0.05 
   5   0   6    0.15    0.12 
   5   0   6    0.05    0.08 
  -6   0  -6    3.90    0.22 
   6   0   6    3.88    0.40 
  -7   0  -6   41.57    1.59 
   7   0   6   42.36    1.88 
   8   0   6    0.82    0.29 
   9   0   6    0.62    0.26 
  10   0   6    0.69    0.29 
  11   0   6    0.08    0.26 
  12   0   6    0.13    0.33 
  13   0   6    0.00    0.35 
 -13   1   6   -0.37    0.26 
 -12   1   6    1.04    0.32 
 -11   1   6    1.48    0.35 
 -10   1   6    0.47    0.21 
  -9   1   6    0.67    0.23 
  -8   1   6    0.51    0.22 
  -8   1   6    0.80    0.19 
  -7   1   6    1.50    0.27 
  -7   1   6    1.84    0.21 
  -6   1   6    5.15    0.37 
  -6   1   6    4.95    0.31 
  -5   1   6   18.54    0.79 
  -5   1   6   19.36    0.84 
  -4   1   6   16.43    0.75 
  -4   1   6   17.89    0.73 
  -3   1   6    2.62    0.22 
  -3   1   6    3.00    0.19 
  -2   1   6   -0.02    0.06 
  -2   1   6    0.01    0.06 
  -1   1   6    2.99    0.20 
  -1   1   6    3.01    0.19 
   0   1   6  157.16    5.79 
   0   1   6  153.69    5.36 
   1   1   6    2.62    0.16 
   1   1   6    2.82    0.22 
   2   1   6    0.04    0.08 
   2   1   6    0.07    0.05 
  -3  -1  -6    2.69    0.15 
   3   1   6    2.33    0.26 
   3   1   6    2.66    0.18 
  -4  -1  -6   18.35    0.69 
   4   1   6   17.81    0.74 
   4   1   6   17.46    0.87 
  -5  -1  -6   18.89    0.73 
   5   1   6   18.28    0.78 
   5   1   6   17.87    0.93 
  -6  -1  -6    4.71    0.27 
   6   1   6    4.22    0.42 
  -7  -1  -6    2.16    0.19 
   7   1   6    1.28    0.30 
  -8  -1  -6    1.01    0.16 
   8   1   6    1.06    0.30 
   9   1   6    0.76    0.29 
  10   1   6    1.63    0.37 
  11   1   6    1.33    0.37 
  12   1   6    0.68    0.35 
  13   1   6   -0.26    0.31 
 -13   2   6   -0.01    0.31 
 -12   2   6    0.96    0.36 
 -11   2   6   -0.14    0.21 
 -10   2   6    1.56    0.31 
  -9   2   6    2.24    0.35 
  -8   2   6    1.53    0.23 
  -8   2   6    1.52    0.30 
  -7   2   6   29.75    1.25 
  -7   2   6   26.48    1.19 
  -6   2   6    0.63    0.18 
  -6   2   6    1.13    0.17 
  -5   2   6    7.09    0.43 
  -5   2   6    7.16    0.39 
  -4   2   6   72.53    2.68 
  -4   2   6   74.00    2.79 
  -3   2   6  112.76    4.31 
  -3   2   6  117.68    4.08 
  -2   2   6    0.74    0.13 
  -2   2   6    0.93    0.13 
  -1   2   6    5.83    0.30 
  -1   2   6    6.09    0.33 
   0   2   6   33.46    1.38 
   0   2   6   35.28    1.25 
   1   2   6    6.39    0.36 
   1   2   6    5.81    0.27 
   2   2   6    0.78    0.16 
  -3  -2  -6  108.62    3.61 
   3   2   6   85.91    3.49 
   3   2   6  108.69    3.90 
  -4  -2  -6   75.61    2.56 
   4   2   6   65.66    2.50 
   4   2   6   69.77    2.81 
  -5  -2  -6    7.06    0.34 
   5   2   6    6.97    0.48 
  -6  -2  -6    1.18    0.14 
   6   2   6    1.27    0.25 
  -7  -2  -6   27.08    1.11 
   7   2   6   28.37    1.35 
  -8  -2  -6    1.63    0.20 
   8   2   6    1.48    0.33 
   9   2   6    1.90    0.37 
  10   2   6    1.77    0.37 
  11   2   6   -0.24    0.22 
  12   2   6    1.68    0.45 
  13   2   6   -0.31    0.32 
 -13   3   6    0.68    0.38 
 -12   3   6   -0.38    0.25 
 -11   3   6    1.30    0.35 
 -10   3   6    0.41    0.23 
  -9   3   6    3.13    0.42 
  -9   3   6    3.91    0.36 
  -8   3   6    3.46    0.41 
  -8   3   6    3.90    0.35 
  -7   3   6    1.52    0.22 
  -7   3   6    1.00    0.23 
  -6   3   6    0.99    0.17 
  -6   3   6    0.65    0.20 
  -5   3   6    9.29    0.53 
  -5   3   6   10.50    0.52 
  -4   3   6    4.57    0.30 
  -4   3   6    4.54    0.32 
  -3   3   6    8.83    0.45 
  -3   3   6    8.60    0.44 
  -2   3   6  197.38    7.43 
  -2   3   6  203.26    6.94 
  -1   3   6   14.26    0.65 
  -1   3   6   14.59    0.60 
   0   3   6   71.25    2.67 
   0   3   6   67.23    2.43 
   1   3   6   13.63    0.53 
   1   3   6   14.08    0.66 
  -2  -3  -6  195.08    7.11 
   2   3   6  196.74    6.86 
   2   3   6  209.01    7.50 
  -3  -3  -6    8.57    0.40 
   3   3   6    9.12    0.38 
   3   3   6    9.27    0.52 
  -4  -3  -6    5.11    0.27 
   4   3   6    4.44    0.36 
   4   3   6    4.86    0.26 
  -5  -3  -6    9.89    0.46 
   5   3   6    9.76    0.59 
  -6  -3  -6    0.73    0.13 
   6   3   6    0.59    0.19 
  -7  -3  -6    0.99    0.16 
   7   3   6    1.49    0.30 
  -8  -3  -6    4.43    0.32 
   8   3   6    4.31    0.48 
  -9  -3  -6    3.10    0.29 
   9   3   6    4.02    0.50 
  10   3   6    0.50    0.26 
  11   3   6    1.43    0.38 
  12   3   6   -0.07    0.30 
  13   3   6    0.84    0.41 
 -13   4   6   -0.47    0.28 
 -12   4   6   -0.06    0.26 
 -11   4   6    0.25    0.27 
 -10   4   6    0.31    0.25 
  -9   4   6    1.33    0.27 
  -9   4   6    1.02    0.29 
  -8   4   6    0.93    0.20 
  -8   4   6    1.08    0.28 
  -7   4   6    2.29    0.33 
  -7   4   6    2.78    0.29 
  -6   4   6    2.82    0.34 
  -6   4   6    4.19    0.31 
  -5   4   6   12.26    0.62 
  -5   4   6   12.46    0.64 
  -4   4   6   36.05    1.48 
  -4   4   6   36.55    1.45 
  -3   4   6   37.04    1.50 
  -3   4   6   36.92    1.43 
  -2   4   6   23.43    0.96 
  -2   4   6   24.80    1.03 
  -1   4   6    8.08    0.38 
  -1   4   6    7.92    0.43 
   0   4   6   16.92    0.66 
   1   4   6    8.33    0.45 
   1   4   6    7.76    0.33 
  -2  -4  -6   23.80    0.97 
   2   4   6   24.69    0.89 
   2   4   6   25.25    1.09 
  -3  -4  -6   36.36    1.41 
   3   4   6   36.63    1.57 
   3   4   6   38.26    1.33 
  -4  -4  -6   35.80    1.37 
   4   4   6   34.77    1.53 
   4   4   6   36.12    1.30 
  -5  -4  -6   12.09    0.55 
   5   4   6   12.29    0.69 
  -6  -4  -6    3.60    0.25 
   6   4   6    3.64    0.40 
  -7  -4  -6    2.08    0.22 
   7   4   6    2.24    0.35 
  -8  -4  -6    1.26    0.19 
   8   4   6    0.88    0.30 
  -9  -4  -6    1.43    0.24 
   9   4   6    0.86    0.28 
  10   4   6    0.23    0.26 
  11   4   6    0.63    0.29 
  12   4   6    0.04    0.28 
  13   4   6    0.27    0.37 
 -13   5   6    0.25    0.36 
 -12   5   6    0.41    0.35 
 -11   5   6    1.00    0.34 
 -10   5   6    1.09    0.29 
 -10   5   6    0.92    0.31 
  -9   5   6    0.22    0.20 
  -9   5   6   -0.10    0.18 
  -8   5   6    0.52    0.21 
  -8   5   6    0.68    0.23 
  -7   5   6    6.20    0.43 
  -7   5   6    5.42    0.48 
  -6   5   6    3.00    0.30 
  -6   5   6    2.62    0.32 
  -5   5   6    9.72    0.54 
  -5   5   6    9.15    0.54 
  -4   5   6   13.42    0.67 
  -4   5   6   14.16    0.68 
  -3   5   6    1.91    0.21 
  -3   5   6    1.55    0.20 
  -2   5   6   42.11    1.71 
  -2   5   6   42.18    1.58 
  -1   5   6   10.31    0.51 
  -1   5   6    8.66    0.42 
   0   5   6    0.15    0.10 
   0   5   6    0.37    0.08 
   1   5   6   10.98    0.43 
   1   5   6   10.35    0.56 
  -2  -5  -6   41.92    1.64 
   2   5   6   43.53    1.50 
   2   5   6   43.23    1.77 
  -3  -5  -6    1.96    0.19 
   3   5   6    1.62    0.24 
   3   5   6    2.24    0.13 
  -4  -5  -6   14.03    0.62 
   4   5   6   13.70    0.74 
  -5  -5  -6    8.61    0.44 
   5   5   6    8.80    0.56 
  -6  -5  -6    2.74    0.25 
   6   5   6    2.86    0.36 
  -7  -5  -6    5.57    0.35 
   7   5   6    5.40    0.50 
  -8  -5  -6    0.55    0.15 
   8   5   6    0.53    0.24 
  -9  -5  -6   -0.12    0.14 
   9   5   6   -0.12    0.19 
  10   5   6    0.95    0.33 
  11   5   6    0.84    0.33 
  12   5   6    0.93    0.38 
  13   5   6    0.50    0.40 
 -13   6   6    0.14    0.35 
 -12   6   6    0.79    0.40 
 -11   6   6    0.34    0.27 
 -10   6   6    0.08    0.23 
 -10   6   6   -0.24    0.19 
  -9   6   6    1.75    0.34 
  -9   6   6    2.11    0.34 
  -8   6   6    0.46    0.22 
  -8   6   6    0.09    0.21 
  -7   6   6    6.95    0.50 
  -7   6   6    7.55    0.55 
  -6   6   6    0.29    0.15 
  -6   6   6    0.37    0.19 
  -5   6   6    1.10    0.21 
  -5   6   6    1.01    0.19 
  -4   6   6    3.33    0.30 
  -4   6   6    3.29    0.30 
  -3   6   6   13.71    0.69 
  -3   6   6   14.62    0.67 
  -2   6   6    5.00    0.35 
  -2   6   6    5.18    0.31 
  -1   6   6   14.70    0.71 
   0   6   6    3.11    0.29 
   0   6   6    3.80    0.21 
   1   6   6   16.50    0.78 
   1   6   6   15.58    0.60 
  -2  -6  -6    4.96    0.31 
   2   6   6    4.95    0.21 
   2   6   6    5.18    0.37 
  -3  -6  -6   13.81    0.63 
   3   6   6   13.74    0.73 
  -4  -6  -6    3.28    0.25 
   4   6   6    3.73    0.36 
  -5  -6  -6    0.92    0.16 
   5   6   6    1.24    0.26 
  -6  -6  -6    0.27    0.11 
   6   6   6   -0.02    0.17 
  -7  -6  -6    6.29    0.41 
   7   6   6    7.41    0.57 
  -8  -6  -6    0.24    0.15 
   8   6   6    0.10    0.21 
  -9  -6  -6    1.58    0.26 
   9   6   6    2.38    0.41 
 -10  -6  -6    0.02    0.18 
  10   6   6   -0.09    0.22 
  11   6   6   -0.08    0.27 
  12   6   6    0.80    0.38 
  13   6   6    0.24    0.43 
 -12   7   6    1.44    0.41 
 -11   7   6    0.05    0.27 
 -11   7   6   -0.20    0.24 
 -10   7   6    2.71    0.45 
 -10   7   6    2.94    0.42 
  -9   7   6    0.58    0.26 
  -9   7   6    0.54    0.27 
  -8   7   6    0.40    0.23 
  -8   7   6    0.43    0.24 
  -7   7   6    4.92    0.46 
  -7   7   6    4.80    0.44 
  -6   7   6    1.38    0.26 
  -6   7   6    1.07    0.25 
  -5   7   6    3.46    0.35 
  -5   7   6    3.28    0.34 
  -4   7   6   20.62    0.92 
  -4   7   6   19.35    0.95 
  -3   7   6    6.05    0.38 
  -3   7   6    5.77    0.41 
  -2   7   6    7.76    0.47 
  -2   7   6    6.90    0.40 
  -1   7   6   18.02    0.75 
  -1   7   6   18.77    0.87 
   0   7   6   32.79    1.41 
   0   7   6   32.64    1.21 
   1   7   6   20.68    0.75 
   1   7   6   19.88    0.96 
  -2  -7  -6    7.13    0.40 
   2   7   6    7.01    0.45 
  -3  -7  -6    6.41    0.38 
   3   7   6    5.87    0.43 
  -4  -7  -6   19.12    0.85 
   4   7   6   19.75    0.99 
  -5  -7  -6    3.19    0.27 
   5   7   6    2.90    0.36 
  -6  -7  -6    1.15    0.21 
   6   7   6    1.51    0.30 
  -7  -7  -6    4.79    0.36 
   7   7   6    5.08    0.50 
   8   7   6    0.71    0.27 
  -9  -7  -6    1.03    0.23 
   9   7   6    0.64    0.30 
 -10  -7  -6    3.05    0.36 
  10   7   6    2.84    0.48 
  11   7   6   -0.34    0.26 
  12   7   6    0.91    0.43 
 -12   8   6    0.09    0.33 
 -11   8   6    0.07    0.29 
 -11   8   6   -0.10    0.28 
 -10   8   6    1.94    0.37 
 -10   8   6    1.96    0.41 
  -9   8   6    1.28    0.32 
  -9   8   6    0.69    0.25 
  -8   8   6    5.32    0.50 
  -8   8   6    5.05    0.50 
  -7   8   6    0.01    0.20 
  -7   8   6   -0.05    0.20 
  -6   8   6   10.48    0.65 
  -6   8   6    9.77    0.63 
  -5   8   6    0.33    0.20 
  -5   8   6    0.23    0.18 
  -4   8   6    1.11    0.23 
  -4   8   6    0.83    0.18 
  -3   8   6   13.08    0.72 
  -3   8   6   14.00    0.67 
  -2   8   6    7.50    0.49 
  -2   8   6    6.19    0.38 
  -1   8   6   16.48    0.83 
  -1   8   6   16.70    0.70 
   0   8   6    4.69    0.26 
   0   8   6    4.64    0.39 
   1   8   6   18.14    0.88 
   1   8   6   17.17    0.65 
  -2  -8  -6    7.00    0.41 
   2   8   6    5.43    0.43 
  -3  -8  -6   12.67    0.64 
   3   8   6   14.68    0.77 
  -4  -8  -6    1.45    0.22 
   4   8   6    1.01    0.25 
  -5  -8  -6    0.40    0.17 
   5   8   6    0.20    0.20 
  -6  -8  -6    9.27    0.54 
   6   8   6    9.66    0.67 
  -7  -8  -6    0.25    0.18 
   7   8   6    0.40    0.24 
  -8  -8  -6    5.02    0.42 
   8   8   6    5.03    0.54 
  -9  -8  -6    1.35    0.27 
   9   8   6    1.49    0.37 
 -10  -8  -6    1.80    0.31 
  10   8   6    1.17    0.38 
  11   8   6    0.43    0.34 
  12   8   6   -0.42    0.35 
 -11   9   6    0.67    0.35 
 -11   9   6    0.67    0.35 
 -10   9   6    0.18    0.25 
 -10   9   6    0.08    0.27 
  -9   9   6    2.34    0.41 
  -9   9   6    2.43    0.40 
  -8   9   6    0.76    0.28 
  -8   9   6    0.52    0.26 
  -7   9   6    5.31    0.51 
  -6   9   6    3.91    0.43 
  -5   9   6    2.29    0.34 
  -4   9   6    1.83    0.25 
  -4   9   6    1.98    0.31 
  -3   9   6    3.86    0.39 
  -3   9   6    3.87    0.33 
  -2   9   6   13.24    0.73 
  -1   9   6   20.54    0.84 
  -1   9   6   19.95    0.99 
   0   9   6   16.59    0.86 
   0   9   6   16.97    0.68 
   1   9   6   21.75    1.07 
  -2  -9  -6   13.35    0.67 
   2   9   6   12.42    0.73 
  -3  -9  -6    3.73    0.33 
   3   9   6    4.23    0.41 
  -4  -9  -6    1.88    0.26 
   4   9   6    1.07    0.27 
  -5  -9  -6    2.84    0.30 
   5   9   6    1.68    0.32 
  -6  -9  -6    3.26    0.33 
   6   9   6    2.30    0.38 
  -7  -9  -6    5.13    0.42 
   7   9   6    4.58    0.51 
  -8  -9  -6    0.72    0.23 
   8   9   6    0.78    0.29 
  -9  -9  -6    2.76    0.36 
   9   9   6    2.85    0.47 
 -10  -9  -6    0.25    0.23 
  10   9   6   -0.13    0.27 
  11   9   6    1.00    0.41 
 -11  10   6    0.60    0.36 
 -11  10   6    0.57    0.36 
 -10  10   6    1.32    0.38 
 -10  10   6    0.98    0.36 
  -9  10   6    2.56    0.43 
  -9  10   6    3.15    0.48 
  -8  10   6    0.31    0.26 
  -7  10   6    2.40    0.39 
  -6  10   6    1.62    0.32 
  -5  10   6    1.23    0.27 
  -4  10   6    9.10    0.62 
  -3  10   6    2.05    0.25 
  -3  10   6    3.10    0.36 
  -2  10   6   10.52    0.54 
  -1  10   6    0.93    0.25 
  -1  10   6    0.71    0.15 
   0  10   6   11.19    0.67 
   1  10   6    0.12    0.17 
  -2 -10  -6   16.74    0.83 
   2  10   6   16.81    0.89 
  -3 -10  -6    2.20    0.29 
   3  10   6    2.18    0.34 
  -4 -10  -6    7.81    0.49 
   4  10   6    7.48    0.58 
  -5 -10  -6    1.60    0.26 
   5  10   6    1.55    0.32 
  -6 -10  -6    1.40    0.26 
   6  10   6    1.58    0.33 
  -7 -10  -6    1.74    0.29 
   7  10   6    2.72    0.41 
  -8 -10  -6    0.08    0.20 
   8  10   6    0.03    0.23 
  -9 -10  -6    2.63    0.37 
   9  10   6    1.74    0.41 
 -10 -10  -6    0.99    0.29 
  10  10   6    0.42    0.33 
 -11 -10  -6    0.43    0.30 
  11  10   6    1.27    0.46 
 -10  11   6    1.77    0.45 
 -10  11   6    1.84    0.45 
  -9  11   6   -0.08    0.26 
  -9  11   6    0.30    0.32 
  -8  11   6    1.48    0.35 
  -7  11   6    1.53    0.33 
  -6  11   6    1.44    0.32 
  -5  11   6    2.26    0.37 
  -4  11   6    1.76    0.33 
  -3  11   6    1.88    0.33 
  -3  11   6    2.25    0.27 
  -2  11   6   21.70    0.94 
  -2  11   6   21.18    1.09 
  -1  11   6    9.97    0.66 
   0  11   6   -0.07    0.20 
   1  11   6   10.54    0.68 
  -2 -11  -6   25.64    1.15 
   2  11   6   24.18    1.22 
  -3 -11  -6    2.23    0.32 
   3  11   6    2.40    0.37 
  -4 -11  -6    1.50    0.26 
   4  11   6    1.39    0.32 
  -5 -11  -6    1.93    0.30 
   5  11   6    2.49    0.40 
  -6 -11  -6    0.77    0.22 
   6  11   6    1.34    0.33 
  -7 -11  -6    1.62    0.30 
   7  11   6    2.08    0.41 
  -8 -11  -6    1.53    0.31 
   8  11   6    1.24    0.38 
  -9 -11  -6    0.21    0.23 
   9  11   6    0.17    0.28 
 -10 -11  -6    1.00    0.31 
  10  11   6    1.78    0.47 
 -10  12   6    0.07    0.31 
 -10  12   6   -0.11    0.32 
  -9  12   6   -0.14    0.27 
  -9  12   6    0.26    0.30 
  -8  12   6    1.65    0.40 
  -7  12   6   -0.16    0.22 
  -6  12   6    2.53    0.40 
  -5  12   6    0.57    0.27 
  -4  12   6    3.49    0.45 
  -3  12   6    1.04    0.28 
  -3  12   6    0.71    0.20 
  -2  12   6    2.53    0.38 
  -1  12   6    1.89    0.34 
   0  12   6    5.03    0.48 
   1  12   6    1.82    0.33 
  -2 -12  -6    2.28    0.32 
   2  12   6    2.06    0.35 
  -3 -12  -6    0.90    0.24 
   3  12   6    0.71    0.26 
  -4 -12  -6    4.19    0.42 
   4  12   6    4.09    0.49 
  -5 -12  -6    0.34    0.21 
   5  12   6   -0.06    0.20 
  -6 -12  -6    2.62    0.37 
   6  12   6    2.05    0.42 
  -7 -12  -6    0.08    0.21 
   7  12   6    0.07    0.25 
  -8 -12  -6    1.88    0.35 
   8  12   6    2.13    0.44 
  -9 -12  -6    0.44    0.28 
   9  12   6    0.20    0.32 
 -10 -12  -6    0.31    0.29 
  10  12   6    0.06    0.38 
  -9  13   6    0.02    0.31 
  -9  13   6    0.05    0.34 
  -8  13   6    0.69    0.35 
  -7  13   6    0.75    0.32 
  -6  13   6    0.16    0.27 
  -5  13   6    0.08    0.22 
  -4  13   6    1.72    0.36 
  -3  13   6    2.04    0.38 
  -2  13   6    5.99    0.57 
  -1  13   6    0.34    0.23 
   0  13   6    3.62    0.44 
   1  13   6    0.26    0.24 
  -2 -13  -6    5.47    0.50 
   2  13   6    5.60    0.54 
  -3 -13  -6    2.13    0.33 
   3  13   6    2.38    0.38 
  -4 -13  -6    1.44    0.31 
   4  13   6    1.20    0.32 
  -5 -13  -6    0.11    0.20 
   5  13   6    0.00    0.22 
  -6 -13  -6    0.28    0.23 
   6  13   6    0.04    0.25 
  -7 -13  -6    1.25    0.32 
   7  13   6    1.55    0.41 
  -8 -13  -6    0.49    0.29 
   8  13   6    0.41    0.35 
  -9 -13  -6    0.14    0.27 
   9  13   6    0.11    0.37 
  -8  14   6    1.84    0.45 
  -7  14   6    1.15    0.40 
  -6  14   6    0.90    0.36 
  -5  14   6    0.49    0.29 
  -4  14   6    0.64    0.33 
  -3  14   6    2.52    0.43 
  -2  14   6   -0.12    0.19 
  -1  14   6    3.37    0.47 
   0  14   6    4.99    0.54 
   1  14   6    3.62    0.48 
   2  14   6   -0.24    0.18 
  -3 -14  -6    2.38    0.38 
   3  14   6    3.01    0.45 
  -4 -14  -6    0.73    0.27 
   4  14   6    0.69    0.31 
  -5 -14  -6    1.06    0.30 
   5  14   6    0.18    0.28 
  -6 -14  -6    0.92    0.29 
   6  14   6    0.74    0.36 
  -7 -14  -6    1.32    0.34 
   7  14   6    1.24    0.41 
  -8 -14  -6    2.13    0.43 
   8  14   6    2.34    0.51 
  -7  15   6    0.36    0.35 
  -6  15   6    2.66    0.51 
  -5  15   6    0.48    0.31 
  -4  15   6    0.75    0.34 
  -3  15   6    2.26    0.43 
  -2  15   6    3.08    0.46 
  -1  15   6    2.23    0.42 
   0  15   6   -0.01    0.24 
   1  15   6    2.59    0.46 
   2  15   6    3.18    0.48 
  -3 -15  -6    1.81    0.36 
   3  15   6    2.47    0.43 
  -4 -15  -6    0.78    0.31 
   4  15   6    0.57    0.30 
  -5 -15  -6    0.87    0.33 
   5  15   6    0.67    0.35 
  -6 -15  -6    0.99    0.35 
   6  15   6    1.70    0.47 
  -7 -15  -6    0.34    0.32 
   7  15   6    0.32    0.37 
  -6  16   6    0.73    0.42 
  -5  16   6    0.70    0.38 
  -4  16   6    1.39    0.44 
  -3  16   6    0.01    0.30 
  -2  16   6   -0.10    0.23 
  -1  16   6    1.59    0.40 
   0  16   6   -0.26    0.24 
   1  16   6    1.80    0.42 
   2  16   6    0.36    0.27 
  -3 -16  -6    0.22    0.29 
   3  16   6    0.13    0.30 
  -4 -16  -6    1.46    0.38 
   4  16   6    1.32    0.41 
  -5 -16  -6    0.16    0.31 
   5  16   6    0.70    0.37 
  -6 -16  -6    0.57    0.35 
   6  16   6    0.79    0.41 
  -4  17   6    0.28    0.37 
  -3  17   6    0.81    0.37 
  -2  17   6    0.30    0.31 
  -1  17   6    0.19    0.29 
   0  17   6    0.05    0.26 
   1  17   6    0.21    0.31 
   2  17   6    0.43    0.34 
   3  17   6    0.73    0.36 
  -4 -17  -6    0.10    0.32 
   4  17   6   -0.15    0.28 
  -1  18   6   -0.05    0.36 
   0  18   6    0.01    0.34 
   1  18   6   -0.10    0.33 
  -4 -17   7    0.51    0.31 
  -3 -17   7    0.25    0.28 
  -2 -17   7    0.33    0.29 
  -1 -17   7    0.36    0.30 
  -3  17  -7    0.35    0.39 
  -4  17  -7    0.56    0.39 
  -5 -16   7    0.45    0.33 
  -4 -16   7    0.14    0.26 
  -3 -16   7    2.24    0.39 
  -2 -16   7    1.41    0.33 
  -1 -16   7    0.03    0.20 
  -2  16  -7    1.06    0.39 
   2 -16   7    1.73    0.42 
  -3  16  -7    2.08    0.43 
  -4  16  -7    0.06    0.32 
  -5  16  -7    0.51    0.38 
  -7 -15   7    1.30    0.40 
  -6 -15   7    0.42    0.31 
  -5 -15   7    0.98    0.33 
  -4 -15   7    0.81    0.28 
  -3 -15   7   -0.07    0.21 
  -2 -15   7    2.12    0.34 
  -1 -15   7    1.94    0.32 
   0 -15   7    1.45    0.29 
   0 -15   7    1.21    0.31 
   1 -15   7    2.45    0.40 
  -2  15  -7    2.00    0.38 
   2 -15   7    2.10    0.38 
  -3  15  -7   -0.22    0.24 
   3 -15   7   -0.04    0.26 
  -4  15  -7    0.05    0.29 
  -5  15  -7    0.73    0.38 
  -6  15  -7    0.20    0.36 
  -7  15  -7    2.05    0.55 
  -8 -14   7   -0.06    0.30 
  -7 -14   7    0.39    0.32 
  -6 -14   7    1.89    0.39 
  -5 -14   7    0.33    0.26 
  -4 -14   7   -0.09    0.21 
  -3 -14   7    1.23    0.29 
  -2 -14   7    1.84    0.30 
  -1 -14   7    0.30    0.22 
  -1 -14   7    0.18    0.18 
   0 -14   7    0.01    0.17 
   0 -14   7    0.43    0.24 
  -1  14  -7    0.27    0.23 
   1 -14   7    0.06    0.21 
  -2  14  -7    1.95    0.36 
   2 -14   7    1.68    0.35 
  -3  14  -7    0.97    0.31 
   3 -14   7    1.40    0.33 
  -4  14  -7   -0.44    0.21 
   4 -14   7    0.56    0.29 
  -5  14  -7    0.41    0.33 
  -6  14  -7    1.52    0.46 
  -7  14  -7    0.23    0.34 
  -8  14  -7   -0.10    0.39 
  -9 -13   7   -0.19    0.31 
  -8 -13   7    0.00    0.30 
  -7 -13   7    0.53    0.32 
  -6 -13   7    0.97    0.31 
  -5 -13   7    0.15    0.22 
  -4 -13   7    0.75    0.26 
  -3 -13   7    0.69    0.23 
  -3 -13   7    0.84    0.25 
  -2 -13   7    7.86    0.50 
  -2 -13   7    7.16    0.51 
  -1 -13   7    1.59    0.27 
  -1 -13   7    1.51    0.29 
   0  13  -7    3.60    0.39 
   0 -13   7    3.44    0.35 
   0 -13   7    3.79    0.40 
  -1  13  -7    1.78    0.33 
   1 -13   7    1.27    0.25 
   1 -13   7    1.23    0.28 
  -2  13  -7    6.61    0.58 
   2 -13   7    8.22    0.57 
  -3  13  -7    0.55    0.27 
   3 -13   7    0.73    0.26 
  -4  13  -7    1.26    0.36 
   4 -13   7    1.04    0.30 
  -5  13  -7    0.43    0.29 
  -6  13  -7    0.84    0.37 
  -7  13  -7    0.11    0.35 
  -8  13  -7    0.34    0.40 
  -9  13  -7    0.00    0.42 
 -10 -12   7   -0.15    0.29 
  -9 -12   7    0.73    0.35 
  -8 -12   7    0.41    0.29 
  -7 -12   7    2.22    0.42 
  -6 -12   7    0.70    0.27 
  -5 -12   7    1.10    0.30 
  -4 -12   7    2.40    0.29 
  -4 -12   7    2.61    0.37 
  -3 -12   7    4.23    0.41 
  -3 -12   7    4.23    0.37 
  -2 -12   7    2.16    0.28 
  -2 -12   7    2.10    0.30 
  -1 -12   7    2.13    0.28 
  -1 -12   7    2.43    0.31 
   0  12  -7    0.05    0.18 
   0 -12   7    0.03    0.16 
   0 -12   7    0.02    0.18 
  -1  12  -7    2.54    0.35 
   1 -12   7    2.76    0.30 
   1 -12   7    2.71    0.35 
  -2  12  -7    3.06    0.39 
   2 -12   7    2.64    0.37 
  -3  12  -7    4.28    0.50 
   3 -12   7    4.86    0.47 
  -4  12  -7    0.99    0.32 
   4 -12   7    1.52    0.31 
  -5  12  -7    1.26    0.37 
   5 -12   7    1.20    0.34 
  -6  12  -7    0.38    0.33 
  -7  12  -7    2.63    0.53 
  -8  12  -7    0.29    0.33 
  -9  12  -7    1.33    0.50 
 -10  12  -7    0.05    0.42 
 -10 -11   7    0.70    0.38 
  -9 -11   7    1.55    0.40 
  -8 -11   7   -0.05    0.22 
  -7 -11   7    4.56    0.52 
  -6 -11   7    3.14    0.43 
  -5 -11   7    2.80    0.28 
  -5 -11   7    2.96    0.41 
  -4 -11   7    3.34    0.31 
  -4 -11   7    4.46    0.45 
  -3 -11   7    2.13    0.31 
  -3 -11   7    2.21    0.26 
  -2 -11   7    6.04    0.41 
  -2 -11   7    5.57    0.42 
   1  11  -7   12.39    0.66 
  -1 -11   7   13.23    0.67 
  -1 -11   7   12.78    0.66 
   0  11  -7    3.49    0.33 
   0 -11   7    4.08    0.36 
   0 -11   7    3.46    0.31 
  -1  11  -7   12.66    0.73 
   1 -11   7   12.81    0.62 
   1 -11   7   12.10    0.68 
  -2  11  -7    5.49    0.50 
   2 -11   7    6.05    0.47 
   2 -11   7    4.67    0.33 
  -3  11  -7    1.55    0.33 
   3 -11   7    1.61    0.31 
  -4  11  -7    3.60    0.47 
   4 -11   7    3.53    0.42 
  -5  11  -7    3.02    0.46 
   5 -11   7    2.86    0.40 
  -6  11  -7    2.38    0.46 
  -7  11  -7    4.43    0.63 
  -8  11  -7   -0.01    0.32 
  -9  11  -7    1.88    0.48 
 -10  11  -7    1.19    0.52 
 -11 -10   7    0.33    0.37 
 -10 -10   7    0.02    0.28 
  -9 -10   7    0.51    0.31 
  -8 -10   7    0.20    0.27 
  -7 -10   7    0.02    0.15 
  -7 -10   7    0.33    0.23 
  -6 -10   7    3.69    0.45 
  -6 -10   7    3.18    0.30 
  -5 -10   7    0.57    0.23 
  -5 -10   7    1.06    0.19 
  -4 -10   7    1.21    0.20 
  -4 -10   7    1.61    0.29 
  -3 -10   7   -0.02    0.13 
  -3 -10   7    0.25    0.18 
  -2 -10   7    3.25    0.33 
  -2 -10   7    3.00    0.29 
   1  10  -7    6.60    0.42 
  -1 -10   7    7.04    0.42 
  -1 -10   7    7.29    0.45 
   0  10  -7    0.42    0.17 
   0 -10   7    0.44    0.14 
   0 -10   7    0.35    0.16 
  -1  10  -7    7.77    0.52 
   1 -10   7    7.33    0.48 
  -2  10  -7    3.29    0.39 
   2 -10   7    3.01    0.25 
   2 -10   7    2.59    0.32 
  -3  10  -7   -0.07    0.19 
   3 -10   7    0.02    0.18 
  -4  10  -7    0.87    0.29 
   4 -10   7    0.99    0.26 
  -5  10  -7    0.98    0.30 
   5 -10   7    0.92    0.26 
  -6  10  -7    3.45    0.51 
  -7  10  -7    0.13    0.30 
  -8  10  -7    0.02    0.30 
  -9  10  -7    0.29    0.37 
 -10  10  -7    0.48    0.40 
 -11  10  -7    0.81    0.52 
 -11  -9   7    0.07    0.31 
 -10  -9   7    0.03    0.24 
  -9  -9   7    0.57    0.28 
  -8  -9   7    0.73    0.26 
  -8  -9   7    1.00    0.22 
  -7  -9   7    2.11    0.38 
  -7  -9   7    1.51    0.24 
  -6  -9   7    0.21    0.19 
  -6  -9   7    0.19    0.15 
  -5  -9   7    2.74    0.26 
  -5  -9   7    2.85    0.38 
  -4  -9   7    1.05    0.19 
  -4  -9   7    1.16    0.26 
  -3  -9   7    1.08    0.18 
  -3  -9   7    1.45    0.25 
   2   9  -7    7.65    0.41 
  -2  -9   7    7.75    0.46 
  -2  -9   7    6.83    0.41 
   1   9  -7    6.33    0.39 
  -1  -9   7    6.63    0.39 
  -1  -9   7    6.17    0.38 
   0  -9   7   15.20    0.72 
   0  -9   7   15.04    0.68 
  -1   9  -7    5.86    0.44 
   1  -9   7    6.39    0.42 
  -2   9  -7    8.76    0.56 
   2  -9   7    7.97    0.41 
   2  -9   7    7.53    0.49 
  -3   9  -7    1.34    0.30 
   3  -9   7    1.15    0.24 
  -4   9  -7    1.12    0.29 
   4  -9   7    1.09    0.25 
  -5   9  -7    3.03    0.46 
   5  -9   7    3.17    0.38 
  -6   9  -7    0.30    0.24 
   6  -9   7   -0.16    0.16 
  -7   9  -7    1.66    0.42 
  -8   9  -7    1.10    0.37 
  -9   9  -7    0.29    0.33 
 -10   9  -7    0.32    0.36 
 -11   9  -7    0.27    0.44 
 -12  -8   7    0.50    0.39 
 -11  -8   7    0.77    0.41 
 -10  -8   7    0.60    0.30 
  -9  -8   7    0.60    0.29 
  -9  -8   7    0.33    0.19 
  -8  -8   7    0.97    0.30 
  -8  -8   7    0.71    0.19 
  -7  -8   7    0.51    0.17 
  -7  -8   7    0.50    0.22 
  -6  -8   7    5.17    0.35 
  -6  -8   7    5.97    0.53 
  -5  -8   7    1.89    0.22 
  -5  -8   7    2.33    0.35 
  -4  -8   7    2.05    0.21 
  -4  -8   7    1.97    0.31 
  -3  -8   7    4.15    0.29 
  -3  -8   7    4.50    0.38 
   2   8  -7   25.19    0.99 
  -2  -8   7   23.79    1.05 
  -2  -8   7   22.46    0.97 
   1   8  -7    2.79    0.23 
  -1  -8   7    2.34    0.24 
  -1  -8   7    2.12    0.23 
   0  -8   7    2.15    0.24 
   0  -8   7    2.19    0.21 
  -1   8  -7    2.31    0.28 
   1  -8   7    2.38    0.20 
   1  -8   7    2.24    0.25 
  -2   8  -7   22.75    1.11 
   2  -8   7   24.04    0.92 
   2  -8   7   21.57    0.99 
  -3   8  -7    4.01    0.42 
   3  -8   7    3.79    0.35 
  -4   8  -7    1.88    0.36 
   4  -8   7    2.22    0.30 
  -5   8  -7    2.37    0.40 
   5  -8   7    2.60    0.35 
  -6   8  -7    4.93    0.58 
   6  -8   7    6.90    0.53 
  -7   8  -7    0.53    0.31 
  -8   8  -7    1.22    0.39 
  -9   8  -7    0.11    0.34 
 -10   8  -7    0.50    0.41 
 -11   8  -7    0.31    0.46 
 -12   8  -7    0.32    0.49 
 -12  -7   7    0.24    0.34 
 -11  -7   7    0.38    0.34 
 -10  -7   7    0.44    0.21 
 -10  -7   7    0.72    0.32 
  -9  -7   7    1.66    0.26 
  -9  -7   7    2.18    0.41 
  -8  -7   7    3.87    0.34 
  -8  -7   7    4.07    0.49 
  -7  -7   7    0.75    0.25 
  -7  -7   7    0.90    0.20 
  -6  -7   7    9.51    0.63 
  -6  -7   7    9.02    0.49 
  -5  -7   7    4.79    0.34 
  -5  -7   7    6.43    0.47 
  -4  -7   7   12.25    0.57 
  -4  -7   7   12.10    0.69 
  -3  -7   7    2.24    0.27 
  -3  -7   7    2.52    0.22 
   2   7  -7   27.17    1.08 
  -2  -7   7   27.03    1.06 
  -2  -7   7   26.13    1.14 
   1   7  -7   33.80    1.40 
  -1  -7   7   34.16    1.33 
  -1  -7   7   36.14    1.39 
   0   7  -7    0.42    0.12 
   0  -7   7    0.58    0.14 
  -1   7  -7   35.45    1.52 
   1  -7   7   34.15    1.37 
   1  -7   7   36.00    1.34 
  -2   7  -7   24.78    1.23 
   2  -7   7   27.33    1.03 
   2  -7   7   27.60    1.11 
  -3   7  -7    1.63    0.27 
   3  -7   7    1.61    0.23 
  -4   7  -7   12.55    0.79 
   4  -7   7   12.51    0.67 
  -5   7  -7    5.45    0.56 
   5  -7   7    6.25    0.46 
  -6   7  -7    9.97    0.75 
   6  -7   7    9.44    0.61 
  -7   7  -7    0.83    0.31 
  -8   7  -7    4.92    0.64 
  -9   7  -7    1.95    0.48 
 -10   7  -7    0.48    0.39 
 -11   7  -7    0.67    0.45 
 -12   7  -7    0.16    0.44 
 -12  -6   7    0.35    0.36 
 -11  -6   7    0.83    0.28 
 -10  -6   7    0.90    0.26 
  -9  -6   7    0.69    0.22 
  -8  -6   7    0.29    0.17 
  -7  -6   7    2.18    0.27 
  -6  -6   7    7.01    0.42 
  -5  -6   7    6.74    0.39 
  -4  -6   7    3.99    0.37 
  -4  -6   7    4.22    0.28 
   3   6  -7    4.84    0.22 
  -3  -6   7    4.42    0.34 
  -3  -6   7    5.14    0.30 
   2   6  -7   15.58    0.65 
  -2  -6   7   14.93    0.73 
  -2  -6   7   16.20    0.67 
   1   6  -7   43.29    1.69 
  -1  -6   7   42.02    1.59 
  -1  -6   7   42.28    1.66 
   0   6  -7    0.11    0.10 
   0  -6   7    0.16    0.11 
   0  -6   7    0.06    0.07 
  -1   6  -7   41.03    1.75 
   1  -6   7   41.48    1.58 
   1  -6   7   42.57    1.56 
  -2   6  -7   16.95    0.86 
   2  -6   7   15.94    0.74 
   2  -6   7   16.92    0.66 
  -3   6  -7    4.70    0.43 
   3  -6   7    4.57    0.33 
  -4   6  -7    4.41    0.46 
   4  -6   7    4.29    0.37 
  -5   6  -7    8.48    0.63 
   5  -6   7    6.67    0.47 
  -6   6  -7    5.87    0.61 
   6  -6   7    6.35    0.47 
  -7   6  -7    2.49    0.46 
  -8   6  -7    0.56    0.33 
  -9   6  -7    0.69    0.34 
 -10   6  -7    1.02    0.42 
 -11   6  -7    0.42    0.43 
 -12   6  -7    0.33    0.43 
 -12  -5   7    0.31    0.28 
 -11  -5   7    1.96    0.34 
 -10  -5   7   -0.10    0.17 
  -9  -5   7    0.34    0.19 
  -8  -5   7    0.92    0.21 
  -7  -5   7    1.48    0.24 
  -6  -5   7    4.77    0.35 
  -5  -5   7    7.84    0.43 
  -4  -5   7    2.55    0.23 
  -3  -5   7   11.90    0.54 
   2   5  -7    9.73    0.42 
  -2  -5   7    9.11    0.44 
   1   5  -7   37.92    1.51 
  -1  -5   7   38.21    1.49 
  -1  -5   7   37.46    1.42 
   0   5  -7   15.52    0.72 
   0  -5   7   15.46    0.65 
   0  -5   7   14.84    0.65 
  -1   5  -7   35.69    1.56 
   1  -5   7   37.23    1.40 
   1  -5   7   37.17    1.37 
  -2   5  -7   10.27    0.60 
   2  -5   7    9.59    0.50 
   2  -5   7   10.39    0.41 
  -3   5  -7   10.91    0.65 
   3  -5   7   10.15    0.53 
  -4   5  -7    2.67    0.37 
   4  -5   7    2.56    0.27 
  -5   5  -7    6.51    0.60 
   5  -5   7    7.17    0.46 
  -6   5  -7    3.94    0.51 
   6  -5   7    4.14    0.39 
  -7   5  -7    1.08    0.36 
  -8   5  -7    0.96    0.35 
  -9   5  -7   -0.10    0.28 
 -10   5  -7    0.68    0.37 
 -11   5  -7    1.45    0.49 
 -12   5  -7    0.35    0.43 
 -13   5  -7   -0.01    0.44 
 -13  -4   7    0.51    0.34 
 -12  -4   7    0.10    0.26 
 -11  -4   7    0.31    0.24 
 -10  -4   7    3.08    0.39 
  -9  -4   7    0.48    0.22 
  -8  -4   7    4.57    0.39 
  -7  -4   7    4.16    0.35 
  -6  -4   7   13.29    0.65 
  -5  -4   7    4.05    0.30 
  -4  -4   7    7.85    0.42 
  -3  -4   7   14.40    0.63 
   2   4  -7   11.45    0.48 
  -2  -4   7   11.35    0.51 
   1   4  -7   43.01    1.69 
  -1  -4   7   42.77    1.58 
   0   4  -7    7.21    0.41 
   0  -4   7    7.12    0.36 
   0  -4   7    6.61    0.35 
   1  -4   7   41.51    1.54 
   1  -4   7   42.11    1.52 
   1  -4   7   40.20    1.67 
   2  -4   7   10.63    0.58 
   2  -4   7   11.31    0.43 
   2  -4   7   11.16    0.53 
   3  -4   7   13.71    0.63 
   3  -4   7   13.34    0.71 
   4  -4   7    8.36    0.47 
   4  -4   7    9.21    0.57 
   5  -4   7    3.97    0.40 
   5  -4   7    3.59    0.33 
   6  -4   7   13.61    0.72 
   6  -4   7   13.27    0.80 
   7  -4   7    4.36    0.49 
   8  -4   7    4.41    0.52 
  -9   4  -7    0.52    0.32 
 -10   4  -7    3.36    0.59 
 -11   4  -7    0.10    0.34 
 -12   4  -7    0.67    0.45 
 -13   4  -7   -0.01    0.43 
 -13  -3   7    0.82    0.36 
 -12  -3   7    0.01    0.24 
 -11  -3   7    0.83    0.26 
 -10  -3   7    0.55    0.24 
  -9  -3   7    0.02    0.18 
  -8  -3   7    1.54    0.27 
  -7  -3   7    0.65    0.20 
  -6  -3   7    2.77    0.29 
  -5  -3   7   19.13    0.83 
  -4  -3   7    5.24    0.33 
  -3  -3   7   13.85    0.61 
   2   3  -7   29.92    1.16 
  -2  -3   7   30.04    1.15 
  -1  -3   7   27.79    1.05 
  -1  -3   7   27.10    1.09 
   0  -3   7   36.65    1.36 
   0  -3   7   36.62    1.47 
   1  -3   7   27.45    1.01 
   1  -3   7   25.71    1.13 
   1  -3   7   26.44    1.03 
   2  -3   7   29.17    1.27 
   2  -3   7   29.60    1.14 
   3  -3   7   13.03    0.69 
   3  -3   7   12.31    0.58 
   4  -3   7    4.21    0.39 
   4  -3   7    4.24    0.30 
   5  -3   7   17.21    0.91 
   5  -3   7   17.20    0.80 
   6  -3   7    3.62    0.42 
   6  -3   7    2.79    0.31 
   7  -3   7    0.13    0.23 
   8  -3   7    1.30    0.32 
   9  -3   7    0.68    0.27 
  10  -3   7    0.31    0.29 
 -11   3  -7    1.87    0.50 
 -12   3  -7    0.33    0.38 
 -13   3  -7    0.07    0.46 
 -13  -2   7    0.41    0.30 
 -12  -2   7    0.20    0.25 
 -11  -2   7    1.64    0.33 
 -10  -2   7    2.97    0.38 
  -9  -2   7    1.42    0.28 
  -8  -2   7    1.56    0.27 
  -7  -2   7    7.11    0.47 
  -6  -2   7    9.06    0.53 
  -5  -2   7    2.23    0.25 
  -4  -2   7   13.40    0.62 
  -3  -2   7   38.56    1.46 
  -2  -2   7    3.05    0.18 
  -2  -2   7    3.07    0.22 
  -1  -2   7   18.53    0.75 
  -1  -2   7   18.98    0.78 
   0  -2   7   24.48    0.93 
   0  -2   7   23.77    1.01 
   1  -2   7   18.75    0.83 
   1  -2   7   18.09    0.73 
   2  -2   7    3.14    0.28 
   2  -2   7    2.79    0.20 
   3  -2   7   40.13    1.48 
   3  -2   7   37.75    1.65 
   4  -2   7   11.71    0.68 
   4  -2   7   12.60    0.59 
   5  -2   7    2.15    0.31 
   5  -2   7    2.23    0.24 
   6  -2   7    9.84    0.66 
   6  -2   7    9.78    0.55 
   7  -2   7    7.44    0.63 
   8  -2   7    1.41    0.33 
   9  -2   7    1.09    0.32 
  10  -2   7    3.10    0.49 
  11  -2   7    2.13    0.44 
 -12   2  -7    0.17    0.33 
 -13   2  -7    0.95    0.51 
 -13  -1   7    0.29    0.32 
 -12  -1   7    0.46    0.27 
 -11  -1   7   -0.34    0.19 
 -10  -1   7    0.78    0.26 
  -9  -1   7    0.71    0.21 
  -8  -1   7    9.97    0.60 
  -7  -1   7    3.23    0.34 
  -6  -1   7   17.28    0.81 
  -5  -1   7    2.15    0.26 
  -5  -1   7    2.82    0.16 
  -4  -1   7   14.66    0.65 
  -4  -1   7   13.22    0.55 
  -3  -1   7   16.99    0.73 
  -3  -1   7   17.24    0.68 
  -2  -1   7   52.56    2.03 
  -2  -1   7   54.68    1.95 
  -1  -1   7    2.26    0.17 
  -1  -1   7    1.83    0.16 
   0  -1   7   76.38    2.97 
   0  -1   7   79.57    2.76 
   1  -1   7    2.27    0.17 
   1  -1   7    2.61    0.23 
   2  -1   7   52.17    1.91 
   2  -1   7   53.62    2.13 
   3  -1   7   17.89    0.86 
   3  -1   7   17.11    0.72 
   4  -1   7   12.59    0.58 
   4  -1   7   12.11    0.69 
   5  -1   7    2.63    0.26 
   5  -1   7    2.35    0.32 
   6  -1   7   18.48    1.01 
   6  -1   7   19.22    0.86 
   7  -1   7    3.00    0.42 
   8  -1   7    9.85    0.72 
   9  -1   7    0.29    0.23 
  10  -1   7    0.94    0.32 
  11  -1   7    0.24    0.31 
  12  -1   7    0.59    0.37 
 -13   1  -7    0.19    0.44 
 -13   0   7   -0.05    0.29 
 -12   0   7    0.22    0.26 
 -11   0   7    0.75    0.29 
 -10   0   7    0.70    0.25 
  -9   0   7    2.11    0.33 
  -8   0   7    0.34    0.21 
  -7   0   7    0.40    0.18 
  -6   0   7   45.71    1.78 
  -6   0   7   46.30    1.81 
  -5   0   7   17.19    0.72 
  -5   0   7   17.71    0.80 
  -4   0   7   65.60    2.50 
  -4   0   7   67.71    2.45 
  -3   0   7    5.49    0.27 
  -3   0   7    5.16    0.32 
  -2   0   7   13.60    0.60 
  -2   0   7   14.11    0.60 
  -1   0   7    5.65    0.30 
  -1   0   7    6.03    0.31 
   0   0   7   -0.03    0.05 
   0   0   7    0.13    0.08 
   1   0   7    5.94    0.29 
   1   0   7    5.44    0.34 
   2   0   7   12.22    0.63 
   2   0   7   12.51    0.52 
   3   0   7    4.70    0.27 
   3   0   7    4.90    0.36 
   4   0   7   63.31    2.30 
   4   0   7   62.93    2.57 
  -5   0  -7   16.84    0.65 
   5   0   7   16.39    0.89 
   5   0   7   17.53    0.76 
  -6   0  -7   44.83    1.63 
   6   0   7   44.14    1.72 
   6   0   7   44.40    1.96 
   7   0   7    0.17    0.21 
   8   0   7    0.91    0.29 
   9   0   7    2.22    0.41 
  10   0   7    1.32    0.35 
  11   0   7    0.76    0.33 
  12   0   7    0.02    0.27 
  13   0   7    0.40    0.38 
 -13   1   7    0.49    0.35 
 -12   1   7    0.43    0.30 
 -11   1   7    0.01    0.22 
 -10   1   7    0.70    0.26 
  -9   1   7    0.35    0.19 
  -8   1   7    9.10    0.58 
  -7   1   7    3.43    0.27 
  -7   1   7    2.72    0.33 
  -6   1   7   18.15    0.78 
  -6   1   7   17.94    0.86 
  -5   1   7    2.32    0.26 
  -5   1   7    2.66    0.20 
  -4   1   7   13.13    0.57 
  -4   1   7   12.07    0.60 
  -3   1   7   17.10    0.75 
  -3   1   7   17.67    0.74 
  -2   1   7   51.95    1.92 
  -2   1   7   52.76    2.01 
  -1   1   7    2.23    0.18 
  -1   1   7    2.44    0.19 
   0   1   7   81.11    2.88 
   0   1   7   83.06    3.14 
   1   1   7    1.92    0.20 
   1   1   7    2.20    0.15 
   2   1   7   50.55    2.06 
   2   1   7   52.13    1.84 
   3   1   7   17.42    0.84 
   3   1   7   17.15    0.70 
  -4  -1  -7   12.15    0.50 
   4   1   7   12.59    0.56 
   4   1   7   12.96    0.70 
  -5  -1  -7    2.52    0.16 
   5   1   7    2.50    0.23 
   5   1   7    2.45    0.32 
  -6  -1  -7   18.06    0.72 
   6   1   7   17.83    0.97 
  -7  -1  -7    2.94    0.21 
   7   1   7    3.27    0.42 
   8   1   7    8.57    0.65 
   9   1   7    1.16    0.32 
  10   1   7    1.05    0.33 
  11   1   7   -0.15    0.28 
  12   1   7    0.60    0.37 
  13   1   7   -0.30    0.36 
 -13   2   7    0.38    0.34 
 -12   2   7    0.44    0.29 
 -11   2   7    1.11    0.31 
 -10   2   7    2.70    0.41 
  -9   2   7    1.60    0.30 
  -8   2   7    1.57    0.30 
  -7   2   7    6.99    0.42 
  -7   2   7    7.23    0.50 
  -6   2   7    9.80    0.58 
  -6   2   7   10.28    0.52 
  -5   2   7    2.26    0.20 
  -5   2   7    1.73    0.24 
  -4   2   7   12.66    0.63 
  -4   2   7   13.64    0.61 
  -3   2   7   39.26    1.54 
  -3   2   7   38.63    1.49 
  -2   2   7    3.02    0.23 
  -2   2   7    3.04    0.23 
  -1   2   7   18.19    0.75 
  -1   2   7   19.29    0.81 
   0   2   7   24.94    0.93 
   0   2   7   24.33    1.04 
   1   2   7   19.05    0.86 
   1   2   7   18.80    0.72 
   2   2   7    1.87    0.14 
   2   2   7    2.91    0.26 
  -4  -2  -7   12.64    0.53 
   4   2   7   13.42    0.71 
  -5  -2  -7    2.05    0.16 
   5   2   7    1.77    0.27 
  -6  -2  -7    9.43    0.44 
   6   2   7   10.43    0.66 
  -7  -2  -7    8.22    0.40 
   7   2   7    6.92    0.57 
   8   2   7    1.60    0.33 
   9   2   7    2.40    0.42 
  10   2   7    2.99    0.47 
  11   2   7    1.53    0.42 
  12   2   7    0.43    0.35 
  13   2   7    0.31    0.40 
 -13   3   7    0.72    0.38 
 -12   3   7    0.08    0.28 
 -11   3   7    0.62    0.30 
 -10   3   7    0.15    0.25 
  -9   3   7    0.16    0.21 
  -8   3   7    1.68    0.24 
  -8   3   7    1.62    0.31 
  -7   3   7    0.58    0.22 
  -7   3   7    0.64    0.17 
  -6   3   7    3.64    0.28 
  -6   3   7    3.11    0.34 
  -5   3   7   18.19    0.84 
  -5   3   7   17.71    0.80 
  -4   3   7    4.49    0.32 
  -4   3   7    4.34    0.30 
  -3   3   7   13.32    0.61 
  -3   3   7   12.92    0.61 
  -2   3   7   30.82    1.25 
  -2   3   7   29.79    1.17 
  -1   3   7   28.28    1.18 
  -1   3   7   28.35    1.08 
   0   3   7   39.66    1.61 
   0   3   7   40.13    1.45 
   1   3   7   29.03    1.24 
   2   3   7   29.86    1.27 
   2   3   7   28.98    1.07 
  -3  -3  -7   13.47    0.56 
   3   3   7   13.61    0.70 
   3   3   7   12.58    0.53 
  -4  -3  -7    4.31    0.25 
   4   3   7    4.77    0.26 
   4   3   7    5.32    0.40 
  -5  -3  -7   18.31    0.74 
   5   3   7   17.54    0.74 
   5   3   7   17.26    0.91 
  -6  -3  -7    3.32    0.23 
   6   3   7    2.69    0.36 
  -7  -3  -7    0.30    0.12 
   7   3   7    0.40    0.22 
  -8  -3  -7    1.82    0.20 
   8   3   7    1.63    0.35 
   9   3   7    0.10    0.20 
  10   3   7    0.10    0.25 
  11   3   7    1.13    0.38 
  12   3   7    0.06    0.29 
  13   3   7    1.14    0.47 
 -13   4   7    0.32    0.37 
 -12   4   7    0.22    0.32 
 -11   4   7    0.25    0.27 
 -10   4   7    2.84    0.43 
  -9   4   7    0.20    0.19 
  -9   4   7    0.34    0.21 
  -8   4   7    3.77    0.44 
  -8   4   7    4.61    0.37 
  -7   4   7    5.03    0.36 
  -7   4   7    4.55    0.44 
  -6   4   7   13.42    0.73 
  -6   4   7   13.56    0.68 
  -5   4   7    3.92    0.34 
  -5   4   7    3.91    0.30 
  -4   4   7    8.68    0.48 
  -4   4   7    8.33    0.46 
  -3   4   7   13.62    0.65 
  -3   4   7   13.51    0.63 
  -2   4   7   11.67    0.53 
  -2   4   7   10.88    0.56 
  -1   4   7   43.06    1.75 
  -1   4   7   43.78    1.60 
   0   4   7    7.42    0.43 
   1   4   7   43.11    1.54 
   1   4   7   43.15    1.77 
   2   4   7   11.26    0.45 
   2   4   7   11.82    0.62 
  -3  -4  -7   14.39    0.61 
   3   4   7   13.97    0.56 
   3   4   7   13.82    0.73 
  -4  -4  -7    8.34    0.40 
   4   4   7    7.80    0.52 
   4   4   7    8.37    0.38 
  -5  -4  -7    3.89    0.25 
   5   4   7    3.31    0.37 
  -6  -4  -7   12.79    0.59 
   6   4   7   13.25    0.77 
  -7  -4  -7    5.09    0.32 
   7   4   7    4.93    0.49 
  -8  -4  -7    3.75    0.28 
   8   4   7    4.40    0.51 
   9   4   7    0.20    0.25 
  10   4   7    2.16    0.43 
  11   4   7    0.52    0.30 
  12   4   7    0.45    0.34 
  13   4   7    0.30    0.41 
 -13   5   7    0.37    0.36 
 -12   5   7   -0.32    0.29 
 -11   5   7    1.68    0.42 
 -10   5   7   -0.02    0.22 
  -9   5   7    0.14    0.21 
  -9   5   7   -0.07    0.18 
  -8   5   7    1.42    0.27 
  -8   5   7    1.00    0.27 
  -7   5   7    1.31    0.29 
  -7   5   7    1.51    0.24 
  -6   5   7    3.77    0.39 
  -6   5   7    4.01    0.34 
  -5   5   7    6.19    0.43 
  -5   5   7    6.88    0.42 
  -4   5   7    2.41    0.25 
  -4   5   7    2.24    0.25 
  -3   5   7   11.09    0.59 
  -3   5   7   11.48    0.56 
  -2   5   7    9.06    0.51 
  -2   5   7   10.21    0.48 
  -1   5   7   37.24    1.40 
  -1   5   7   37.71    1.55 
   0   5   7   14.78    0.73 
   0   5   7   15.36    0.61 
   1   5   7   37.89    1.60 
   1   5   7   38.78    1.38 
   2   5   7    9.65    0.55 
   2   5   7    9.37    0.38 
  -3  -5  -7   10.82    0.53 
   3   5   7   11.57    0.64 
   3   5   7   11.65    0.45 
  -4  -5  -7    2.53    0.22 
   4   5   7    2.69    0.32 
   4   5   7    2.55    0.17 
  -5  -5  -7    7.72    0.40 
   5   5   7    7.27    0.53 
  -6  -5  -7    4.02    0.27 
   6   5   7    3.50    0.42 
  -7  -5  -7    1.49    0.19 
   7   5   7    1.06    0.31 
  -8  -5  -7    1.12    0.19 
   8   5   7    1.19    0.32 
   9   5   7    0.20    0.20 
  10   5   7    0.00    0.26 
  11   5   7    1.74    0.42 
  12   5   7    0.22    0.34 
  13   5   7    0.06    0.38 
 -12   6   7    0.18    0.32 
 -11   6   7    0.44    0.31 
 -10   6   7    1.08    0.30 
  -9   6   7    0.69    0.25 
  -9   6   7    0.84    0.28 
  -8   6   7    0.32    0.20 
  -8   6   7    0.46    0.21 
  -7   6   7    2.37    0.32 
  -7   6   7    1.62    0.31 
  -6   6   7    5.47    0.41 
  -6   6   7    5.74    0.47 
  -5   6   7    7.84    0.52 
  -5   6   7    7.75    0.48 
  -4   6   7    4.33    0.34 
  -4   6   7    4.48    0.35 
  -3   6   7    4.75    0.35 
  -3   6   7    4.85    0.33 
  -2   6   7   16.15    0.71 
  -2   6   7   16.07    0.78 
  -1   6   7   41.66    1.72 
   0   6   7    0.33    0.09 
   0   6   7    0.20    0.14 
   1   6   7   44.06    1.86 
   1   6   7   45.87    1.60 
   2   6   7   15.95    0.60 
   2   6   7   16.93    0.83 
  -3  -6  -7    5.33    0.33 
   3   6   7    4.81    0.39 
   3   6   7    5.06    0.23 
  -4  -6  -7    4.44    0.29 
   4   6   7    4.58    0.43 
  -5  -6  -7    7.48    0.41 
   5   6   7    7.48    0.55 
  -6  -6  -7    6.52    0.39 
   6   6   7    7.52    0.56 
  -7  -6  -7    1.49    0.21 
   7   6   7    2.12    0.37 
  -8  -6  -7    0.09    0.14 
   8   6   7    0.35    0.23 
  -9  -6  -7    0.85    0.22 
   9   6   7    0.50    0.29 
  10   6   7    1.28    0.38 
  11   6   7    1.47    0.39 
  12   6   7   -0.02    0.33 
 -12   7   7    0.20    0.34 
 -11   7   7    0.19    0.29 
 -10   7   7    0.30    0.24 
 -10   7   7    0.63    0.29 
  -9   7   7    2.45    0.41 
  -9   7   7    1.27    0.29 
  -8   7   7    3.75    0.45 
  -8   7   7    4.40    0.44 
  -7   7   7    0.58    0.23 
  -7   7   7    0.87    0.25 
  -6   7   7    9.05    0.60 
  -6   7   7    9.23    0.58 
  -5   7   7    6.34    0.46 
  -5   7   7    5.58    0.44 
  -4   7   7   13.33    0.72 
  -4   7   7   14.27    0.70 
  -3   7   7    2.15    0.27 
  -3   7   7    1.88    0.23 
  -2   7   7   26.97    1.09 
  -2   7   7   27.03    1.21 
  -1   7   7   34.87    1.31 
  -1   7   7   33.83    1.47 
   0   7   7    0.66    0.11 
   0   7   7    0.64    0.17 
   1   7   7   36.23    1.57 
   1   7   7   36.50    1.31 
  -2  -7  -7   26.62    1.13 
   2   7   7   28.13    1.25 
   2   7   7   27.16    0.97 
  -3  -7  -7    2.26    0.24 
   3   7   7    1.82    0.29 
  -4  -7  -7   13.55    0.63 
   4   7   7   11.59    0.73 
  -5  -7  -7    5.48    0.36 
   5   7   7    6.01    0.52 
  -6  -7  -7    8.91    0.51 
   6   7   7   10.01    0.66 
  -7  -7  -7    1.03    0.20 
   7   7   7    0.82    0.26 
  -8  -7  -7    4.31    0.37 
   8   7   7    4.12    0.50 
  -9  -7  -7    2.43    0.31 
   9   7   7    2.19    0.41 
  10   7   7    0.88    0.34 
  11   7   7    0.43    0.36 
  12   7   7   -0.06    0.35 
 -12   8   7    0.04    0.36 
 -11   8   7    1.60    0.41 
 -10   8   7    1.04    0.33 
 -10   8   7    0.84    0.32 
  -9   8   7    0.38    0.24 
  -9   8   7    0.36    0.27 
  -8   8   7    0.45    0.25 
  -8   8   7    0.26    0.23 
  -7   8   7    0.54    0.23 
  -7   8   7    0.72    0.25 
  -6   8   7    5.34    0.48 
  -6   8   7    7.03    0.50 
  -5   8   7    2.33    0.32 
  -5   8   7    2.31    0.32 
  -4   8   7    2.28    0.27 
  -4   8   7    2.31    0.31 
  -3   8   7    5.12    0.35 
  -3   8   7    4.03    0.39 
  -2   8   7   24.39    1.10 
  -2   8   7   22.26    0.96 
  -1   8   7    1.91    0.28 
  -1   8   7    2.33    0.21 
   0   8   7    2.60    0.31 
   0   8   7    2.41    0.19 
   1   8   7    2.37    0.16 
   1   8   7    2.64    0.32 
  -2  -8  -7   24.48    1.05 
   2   8   7   23.60    1.15 
  -3  -8  -7    3.79    0.33 
   3   8   7    3.74    0.40 
  -4  -8  -7    2.11    0.25 
   4   8   7    2.27    0.34 
  -5  -8  -7    2.22    0.27 
   5   8   7    2.29    0.36 
  -6  -8  -7    5.67    0.40 
   6   8   7    6.35    0.56 
  -7  -8  -7    0.25    0.17 
   7   8   7    0.50    0.25 
  -8  -8  -7    0.78    0.22 
   8   8   7    1.07    0.30 
  -9  -8  -7    0.67    0.23 
   9   8   7    0.38    0.28 
  10   8   7    0.20    0.30 
  11   8   7    0.16    0.35 
  12   8   7    0.40    0.40 
 -11   9   7    0.25    0.31 
 -10   9   7    0.09    0.29 
 -10   9   7   -0.18    0.26 
  -9   9   7    0.37    0.26 
  -9   9   7    0.43    0.26 
  -8   9   7    0.56    0.26 
  -8   9   7    0.36    0.25 
  -7   9   7    1.39    0.31 
  -7   9   7    1.55    0.31 
  -6   9   7   -0.23    0.17 
  -6   9   7    0.32    0.21 
  -5   9   7    2.57    0.35 
  -5   9   7    3.43    0.37 
  -4   9   7    1.06    0.26 
  -4   9   7    0.88    0.23 
  -3   9   7    1.04    0.26 
  -3   9   7    1.56    0.23 
  -2   9   7    7.97    0.55 
  -1   9   7    6.74    0.37 
  -1   9   7    7.31    0.50 
   0   9   7   16.63    0.87 
   0   9   7   16.74    0.68 
   1   9   7    6.55    0.50 
  -2  -9  -7    7.90    0.48 
   2   9   7    7.06    0.52 
  -3  -9  -7    1.45    0.24 
   3   9   7    0.97    0.26 
  -4  -9  -7    1.24    0.23 
   4   9   7    1.55    0.32 
  -5  -9  -7    3.47    0.34 
   5   9   7    3.29    0.44 
  -6  -9  -7    0.05    0.16 
   6   9   7    0.19    0.20 
  -7  -9  -7    1.18    0.25 
   7   9   7    1.79    0.37 
  -8  -9  -7    0.55    0.21 
   8   9   7   -0.06    0.22 
  -9  -9  -7    0.38    0.22 
   9   9   7    0.17    0.24 
 -10  -9  -7    0.14    0.22 
  10   9   7    0.45    0.33 
  11   9   7    0.42    0.38 
 -11  10   7    0.48    0.38 
 -11  10   7    0.39    0.33 
 -10  10   7    0.16    0.29 
 -10  10   7    0.11    0.28 
  -9  10   7    0.02    0.26 
  -9  10   7    0.37    0.26 
  -8  10   7    0.36    0.26 
  -8  10   7    0.58    0.27 
  -7  10   7    0.24    0.22 
  -7  10   7    0.19    0.22 
  -6  10   7    4.13    0.44 
  -6  10   7    4.28    0.46 
  -5  10   7    1.25    0.29 
  -5  10   7    1.29    0.28 
  -4  10   7    1.20    0.28 
  -4  10   7    1.05    0.25 
  -3  10   7   -0.09    0.10 
  -3  10   7   -0.04    0.19 
  -2  10   7    2.72    0.35 
  -2  10   7    2.54    0.26 
  -1  10   7    6.73    0.53 
  -1  10   7    7.09    0.39 
   0  10   7    0.49    0.22 
   1  10   7    6.49    0.52 
  -2 -10  -7    3.12    0.33 
   2  10   7    3.11    0.38 
  -3 -10  -7   -0.07    0.16 
   3  10   7    0.00    0.18 
  -4 -10  -7    1.50    0.26 
   4  10   7    1.11    0.30 
  -5 -10  -7    0.58    0.21 
   5  10   7    0.69    0.27 
  -6 -10  -7    3.58    0.38 
   6  10   7    3.96    0.50 
  -7 -10  -7    0.79    0.24 
   7  10   7    0.26    0.26 
  -8 -10  -7    0.25    0.22 
   8  10   7    0.76    0.34 
  -9 -10  -7    0.44    0.24 
   9  10   7    0.85    0.36 
 -10 -10  -7    0.62    0.27 
  10  10   7    0.07    0.31 
  11  10   7    0.48    0.42 
 -10  11   7    1.19    0.40 
 -10  11   7    0.71    0.34 
  -9  11   7    1.97    0.42 
  -9  11   7    1.90    0.40 
  -8  11   7   -0.38    0.21 
  -8  11   7    0.01    0.25 
  -7  11   7    3.73    0.45 
  -7  11   7    2.84    0.43 
  -6  11   7    3.40    0.44 
  -6  11   7    3.61    0.43 
  -5  11   7    2.03    0.34 
  -5  11   7    2.36    0.37 
  -4  11   7    3.67    0.38 
  -4  11   7    3.31    0.41 
  -3  11   7    1.97    0.25 
  -3  11   7    2.81    0.39 
  -2  11   7    5.85    0.52 
  -1  11   7   11.86    0.74 
   0  11   7    3.54    0.43 
   1  11   7   12.49    0.78 
   2  11   7    6.11    0.53 
  -3 -11  -7    2.32    0.32 
   3  11   7    1.67    0.32 
  -4 -11  -7    4.20    0.40 
   4  11   7    3.59    0.47 
  -5 -11  -7    2.92    0.34 
   5  11   7    2.56    0.42 
  -6 -11  -7    3.59    0.39 
   6  11   7    3.63    0.49 
  -7 -11  -7    3.66    0.41 
   7  11   7    4.16    0.54 
  -8 -11  -7    0.31    0.23 
   8  11   7    0.03    0.27 
  -9 -11  -7    2.06    0.36 
   9  11   7    1.71    0.45 
 -10 -11  -7    1.21    0.34 
  10  11   7    1.03    0.42 
 -10  12   7    0.34    0.37 
  -9  12   7    0.81    0.36 
  -9  12   7    0.96    0.36 
  -8  12   7    0.04    0.28 
  -8  12   7    0.03    0.24 
  -7  12   7    1.53    0.34 
  -7  12   7    2.01    0.39 
  -6  12   7    0.67    0.26 
  -6  12   7    0.61    0.26 
  -5  12   7    0.97    0.32 
  -5  12   7    1.20    0.30 
  -4  12   7    1.86    0.37 
  -4  12   7    1.57    0.30 
  -3  12   7    4.92    0.52 
  -2  12   7    2.47    0.38 
  -1  12   7    2.52    0.39 
   0  12   7   -0.20    0.18 
   1  12   7    2.88    0.41 
   2  12   7    1.88    0.34 
  -3 -12  -7    4.44    0.44 
   3  12   7    4.60    0.51 
  -4 -12  -7    2.00    0.33 
   4  12   7    2.04    0.39 
  -5 -12  -7    1.29    0.29 
   5  12   7    1.25    0.32 
  -6 -12  -7    0.41    0.22 
   6  12   7    0.62    0.28 
  -7 -12  -7    2.41    0.36 
   7  12   7    2.20    0.45 
  -8 -12  -7    0.39    0.27 
   8  12   7   -0.23    0.28 
  -9 -12  -7    1.03    0.32 
   9  12   7    1.18    0.41 
 -10 -12  -7    0.23    0.30 
  10  12   7   -0.27    0.36 
  -9  13   7    0.10    0.31 
  -9  13   7    0.16    0.32 
  -8  13   7    0.46    0.33 
  -8  13   7    0.56    0.33 
  -7  13   7    0.39    0.28 
  -7  13   7    0.71    0.33 
  -6  13   7    1.04    0.35 
  -6  13   7    0.62    0.30 
  -5  13   7   -0.01    0.26 
  -4  13   7    0.64    0.28 
  -3  13   7    0.78    0.29 
  -2  13   7    7.48    0.63 
  -1  13   7    1.24    0.32 
   0  13   7    3.51    0.46 
   1  13   7    1.36    0.33 
   2  13   7    7.28    0.63 
  -3 -13  -7    0.79    0.25 
   3  13   7    0.59    0.29 
  -4 -13  -7    0.82    0.27 
   4  13   7    0.75    0.29 
  -5 -13  -7    0.35    0.24 
   5  13   7    0.01    0.28 
  -6 -13  -7    0.80    0.27 
   6  13   7    1.82    0.43 
  -7 -13  -7    0.38    0.26 
   7  13   7    1.32    0.40 
  -8 -13  -7    0.21    0.28 
   8  13   7    0.13    0.35 
  -9 -13  -7    0.15    0.29 
   9  13   7    0.50    0.39 
  -8  14   7    0.29    0.33 
  -8  14   7    0.52    0.35 
  -7  14   7    0.46    0.37 
  -7  14   7   -0.06    0.32 
  -6  14   7    1.43    0.41 
  -5  14   7    0.23    0.27 
  -4  14   7    0.33    0.29 
  -3  14   7    1.11    0.35 
  -2  14   7    1.24    0.33 
  -1  14   7   -0.09    0.22 
   0  14   7    0.24    0.25 
   1  14   7   -0.03    0.22 
   2  14   7    1.51    0.37 
  -3 -14  -7    1.40    0.31 
   3  14   7    1.65    0.37 
  -4 -14  -7   -0.03    0.20 
   4  14   7   -0.22    0.23 
  -5 -14  -7    0.23    0.24 
   5  14   7    0.39    0.29 
  -6 -14  -7    1.23    0.33 
   6  14   7    1.14    0.41 
  -7 -14  -7    0.26    0.30 
   7  14   7    0.31    0.37 
  -8 -14  -7    0.57    0.31 
   8  14   7    0.08    0.39 
  -7  15   7    1.31    0.45 
  -6  15   7    0.06    0.31 
  -5  15   7    1.16    0.42 
  -4  15   7    0.65    0.36 
  -3  15   7   -0.23    0.29 
  -2  15   7    1.52    0.38 
  -1  15   7    1.49    0.37 
   0  15   7    1.18    0.33 
   1  15   7    1.88    0.40 
   2  15   7    1.37    0.38 
   3  15   7    0.27    0.29 
  -4 -15  -7    0.56    0.29 
   4  15   7    0.56    0.33 
  -5 -15  -7    1.47    0.36 
   5  15   7    1.34    0.41 
  -6 -15  -7    0.40    0.30 
   6  15   7    0.43    0.37 
  -7 -15  -7    1.12    0.35 
   7  15   7    1.60    0.49 
  -5  16   7    0.87    0.42 
  -4  16   7    0.77    0.40 
  -3  16   7    2.08    0.48 
  -2  16   7    0.91    0.34 
  -1  16   7    0.05    0.27 
   0  16   7    0.63    0.31 
   1  16   7    0.05    0.28 
   2  16   7    1.37    0.41 
   3  16   7    2.71    0.51 
  -4 -16  -7    0.82    0.33 
   4  16   7    0.41    0.34 
  -5 -16  -7    0.68    0.35 
   5  16   7    1.07    0.40 
  -4  17   7    0.55    0.39 
  -3  17   7    0.52    0.38 
  -2  17   7    0.71    0.37 
  -1  17   7    0.55    0.35 
   0  17   7   -0.15    0.27 
   1  17   7    0.36    0.30 
   2  17   7    0.57    0.36 
   3  17   7    0.53    0.37 
   4  17   7    0.66    0.42 
  -3 -17   8    0.18    0.29 
  -5 -16   8    0.56    0.34 
  -4 -16   8    0.25    0.30 
  -3 -16   8    2.03    0.38 
  -2 -16   8    0.00    0.25 
   1 -16   8    4.18    0.52 
   2 -16   8   -0.12    0.29 
  -3  16  -8    2.17    0.48 
   3 -16   8    1.86    0.45 
  -4  16  -8    0.26    0.33 
  -5  16  -8    0.40    0.40 
  -6 -15   8    0.96    0.35 
  -5 -15   8    0.22    0.29 
  -4 -15   8    2.61    0.41 
  -3 -15   8    0.27    0.23 
  -2 -15   8    0.93    0.27 
  -1 -15   8    0.44    0.24 
   0 -15   8    0.61    0.29 
   1 -15   8    0.04    0.25 
  -2  15  -8    0.99    0.35 
   2 -15   8    0.96    0.32 
  -3  15  -8   -0.08    0.25 
   3 -15   8   -0.09    0.25 
  -4  15  -8    1.06    0.38 
   4 -15   8    2.54    0.45 
  -5  15  -8    0.73    0.38 
  -6  15  -8    0.13    0.38 
  -7 -14   8    2.03    0.45 
  -6 -14   8    0.38    0.31 
  -5 -14   8    0.30    0.26 
  -4 -14   8   -0.20    0.20 
  -3 -14   8    0.66    0.24 
  -2 -14   8    0.82    0.25 
  -2 -14   8    1.48    0.30 
  -1 -14   8    1.49    0.30 
  -1 -14   8    0.94    0.23 
   0 -14   8    1.08    0.29 
   1 -14   8    0.99    0.30 
  -2  14  -8    0.82    0.29 
   2 -14   8    1.08    0.31 
  -3  14  -8    0.50    0.28 
   3 -14   8    0.78    0.32 
  -4  14  -8   -0.01    0.28 
   4 -14   8   -0.12    0.25 
  -5  14  -8    0.36    0.35 
  -6  14  -8    0.39    0.36 
  -7  14  -8    1.61    0.47 
  -8 -13   8    0.95    0.38 
  -7 -13   8    0.76    0.35 
  -6 -13   8    1.88    0.40 
  -5 -13   8    0.09    0.22 
  -4 -13   8    0.68    0.24 
  -3 -13   8   -0.02    0.18 
  -3 -13   8    0.13    0.21 
  -2 -13   8    1.74    0.29 
  -2 -13   8    1.66    0.29 
  -1 -13   8    0.64    0.21 
  -1 -13   8    0.51    0.22 
   0 -13   8    0.65    0.24 
   0 -13   8    0.50    0.21 
  -1  13  -8    0.34    0.25 
   1 -13   8    0.31    0.21 
  -2  13  -8    1.26    0.32 
   2 -13   8    2.55    0.39 
  -3  13  -8    0.15    0.24 
   3 -13   8    0.16    0.22 
  -4  13  -8    0.58    0.31 
   4 -13   8    0.78    0.30 
  -5  13  -8    0.03    0.27 
   5 -13   8   -0.02    0.24 
  -6  13  -8    1.67    0.44 
  -7  13  -8    0.59    0.41 
  -8  13  -8    0.43    0.44 
  -9 -12   8    0.09    0.30 
  -8 -12   8    1.55    0.40 
  -7 -12   8    0.71    0.32 
  -6 -12   8    0.12    0.25 
  -5 -12   8    1.68    0.35 
  -4 -12   8    3.99    0.36 
  -4 -12   8    3.76    0.44 
  -3 -12   8    3.23    0.33 
  -3 -12   8    3.15    0.36 
  -2 -12   8    1.62    0.28 
  -2 -12   8    1.47    0.28 
  -1 -12   8    6.06    0.43 
  -1 -12   8    4.75    0.41 
   0 -12   8   20.29    0.92 
   0 -12   8   20.01    0.96 
  -1  12  -8    5.41    0.48 
   1 -12   8    5.18    0.46 
  -2  12  -8    1.94    0.37 
   2 -12   8    1.57    0.31 
  -3  12  -8    2.72    0.42 
   3 -12   8    2.80    0.38 
  -4  12  -8    3.61    0.50 
   4 -12   8    3.77    0.45 
  -5  12  -8    0.51    0.28 
   5 -12   8    1.18    0.31 
  -6  12  -8    0.10    0.27 
  -7  12  -8   -0.02    0.33 
  -8  12  -8    0.77    0.38 
  -9  12  -8    0.48    0.45 
 -10 -11   8    0.26    0.34 
  -9 -11   8    0.01    0.25 
  -8 -11   8    2.69    0.48 
  -7 -11   8    2.19    0.39 
  -6 -11   8    1.77    0.34 
  -6 -11   8    2.09    0.27 
  -5 -11   8    2.92    0.30 
  -5 -11   8    2.28    0.37 
  -4 -11   8    0.36    0.18 
  -4 -11   8    1.05    0.27 
  -3 -11   8    2.58    0.29 
  -3 -11   8    2.47    0.34 
  -2 -11   8    3.59    0.34 
  -2 -11   8    3.67    0.35 
  -1 -11   8    2.31    0.30 
  -1 -11   8    2.60    0.29 
   0 -11   8    9.59    0.56 
   0 -11   8    9.14    0.51 
  -1  11  -8    2.33    0.34 
   1 -11   8    2.90    0.35 
  -2  11  -8    3.12    0.39 
   2 -11   8    2.94    0.37 
  -3  11  -8    2.74    0.42 
   3 -11   8    2.98    0.38 
  -4  11  -8    0.92    0.29 
   4 -11   8    0.59    0.24 
  -5  11  -8    2.32    0.42 
   5 -11   8    2.51    0.39 
  -6  11  -8    2.54    0.48 
   6 -11   8    1.70    0.36 
  -7  11  -8    2.71    0.52 
  -8  11  -8    2.37    0.53 
  -9  11  -8    0.07    0.39 
 -10  11  -8   -0.10    0.40 
 -10 -10   8    0.28    0.32 
  -9 -10   8   -0.06    0.24 
  -8 -10   8    1.25    0.34 
  -7 -10   8    0.80    0.20 
  -7 -10   8    1.52    0.33 
  -6 -10   8    1.10    0.29 
  -6 -10   8    0.58    0.19 
  -5 -10   8    0.36    0.17 
  -5 -10   8    0.31    0.21 
  -4 -10   8    6.79    0.49 
  -4 -10   8    6.36    0.41 
  -3 -10   8    2.57    0.34 
  -3 -10   8    3.33    0.30 
  -2 -10   8    6.50    0.45 
  -2 -10   8    5.98    0.41 
  -1 -10   8   10.03    0.56 
  -1 -10   8   10.10    0.54 
   0 -10   8   12.15    0.63 
   0 -10   8   11.26    0.58 
  -1  10  -8   11.52    0.64 
   1 -10   8    9.92    0.59 
   1 -10   8   10.05    0.52 
  -2  10  -8    5.23    0.49 
   2 -10   8    6.05    0.45 
  -3  10  -8    3.93    0.46 
   3 -10   8    3.57    0.39 
  -4  10  -8    7.45    0.60 
   4 -10   8    7.07    0.52 
  -5  10  -8   -0.26    0.22 
   5 -10   8    0.25    0.22 
  -6  10  -8    0.90    0.35 
   6 -10   8    1.16    0.29 
  -7  10  -8    1.21    0.40 
  -8  10  -8    1.42    0.42 
  -9  10  -8    0.17    0.33 
 -10  10  -8    0.46    0.41 
 -11  -9   8    1.38    0.44 
 -10  -9   8    0.33    0.30 
  -9  -9   8    1.03    0.34 
  -8  -9   8    1.50    0.25 
  -8  -9   8    1.80    0.39 
  -7  -9   8    0.75    0.19 
  -7  -9   8    0.65    0.23 
  -6  -9   8    0.45    0.21 
  -6  -9   8    0.75    0.18 
  -5  -9   8    0.30    0.21 
  -5  -9   8    0.28    0.14 
  -4  -9   8    6.84    0.41 
  -4  -9   8    7.17    0.52 
  -3  -9   8    4.77    0.41 
  -3  -9   8    4.39    0.32 
  -2  -9   8    1.38    0.21 
  -2  -9   8    0.92    0.20 
   1   9  -8    0.66    0.17 
  -1  -9   8    0.91    0.18 
  -1  -9   8    0.97    0.20 
   0   9  -8   -0.03    0.10 
   0  -9   8    0.15    0.11 
   0  -9   8    0.19    0.16 
  -1   9  -8    1.11    0.23 
   1  -9   8    1.18    0.23 
   1  -9   8    1.22    0.17 
  -2   9  -8    1.39    0.26 
   2  -9   8    1.54    0.17 
   2  -9   8    1.05    0.24 
  -3   9  -8    4.78    0.49 
   3  -9   8    4.97    0.43 
  -4   9  -8    4.96    0.54 
   4  -9   8    6.68    0.49 
  -5   9  -8    0.29    0.26 
   5  -9   8    0.01    0.16 
  -6   9  -8    0.71    0.30 
   6  -9   8    1.08    0.27 
  -7   9  -8    0.92    0.35 
  -8   9  -8    0.88    0.38 
  -9   9  -8    0.96    0.44 
 -10   9  -8    0.42    0.41 
 -11   9  -8    0.54    0.50 
 -11  -8   8   -0.06    0.29 
 -10  -8   8    0.83    0.30 
  -9  -8   8    0.76    0.29 
  -9  -8   8    0.73    0.22 
  -8  -8   8    0.52    0.27 
  -8  -8   8    0.72    0.21 
  -7  -8   8    2.03    0.26 
  -7  -8   8    2.68    0.39 
  -6  -8   8    0.26    0.15 
  -6  -8   8    0.52    0.21 
  -5  -8   8    1.74    0.22 
  -5  -8   8    2.55    0.36 
  -4  -8   8    2.24    0.24 
  -4  -8   8    2.31    0.33 
  -3  -8   8    2.59    0.32 
  -3  -8   8    2.34    0.25 
  -2  -8   8   28.26    1.21 
  -2  -8   8   27.82    1.13 
   1   8  -8   19.40    0.88 
  -1  -8   8   19.11    0.85 
  -1  -8   8   20.66    0.88 
   0   8  -8   16.53    0.81 
   0  -8   8   16.79    0.76 
  -1   8  -8   19.42    0.96 
   1  -8   8   19.61    0.81 
   1  -8   8   19.97    0.88 
  -2   8  -8   29.56    1.33 
   2  -8   8   27.83    1.09 
   2  -8   8   26.87    1.17 
  -3   8  -8    2.85    0.39 
   3  -8   8    2.23    0.30 
  -4   8  -8    2.66    0.40 
   4  -8   8    2.37    0.33 
  -5   8  -8    2.38    0.40 
   5  -8   8    1.69    0.31 
  -6   8  -8    0.49    0.28 
   6  -8   8    0.27    0.20 
  -7   8  -8    2.34    0.46 
  -8   8  -8    0.50    0.30 
  -9   8  -8    1.20    0.44 
 -10   8  -8    0.87    0.44 
 -11   8  -8    0.37    0.45 
 -12  -7   8    0.17    0.33 
 -11  -7   8    0.78    0.36 
 -11  -7   8    0.85    0.30 
 -10  -7   8    0.10    0.26 
 -10  -7   8    0.49    0.23 
  -9  -7   8    0.72    0.23 
  -9  -7   8    0.65    0.32 
  -8  -7   8    0.19    0.22 
  -8  -7   8    0.33    0.19 
  -7  -7   8    2.51    0.28 
  -7  -7   8    2.11    0.38 
  -6  -7   8    0.10    0.18 
  -6  -7   8    0.29    0.16 
  -5  -7   8    4.36    0.32 
  -5  -7   8    4.50    0.44 
  -4  -7   8    2.93    0.35 
  -4  -7   8    3.36    0.28 
  -3  -7   8   14.63    0.72 
  -3  -7   8   12.85    0.62 
   2   7  -8    4.57    0.27 
  -2  -7   8    4.53    0.30 
  -2  -7   8    4.62    0.33 
   1   7  -8   10.21    0.51 
  -1  -7   8   10.82    0.53 
  -1  -7   8    9.55    0.50 
   0   7  -8   17.81    0.86 
   0  -7   8   19.84    0.82 
   0  -7   8   17.97    0.78 
  -1   7  -8    9.98    0.58 
   1  -7   8   10.47    0.45 
   1  -7   8    8.30    0.50 
  -2   7  -8    4.55    0.42 
   2  -7   8    4.56    0.25 
   2  -7   8    4.86    0.36 
  -3   7  -8   14.87    0.85 
   3  -7   8   15.55    0.75 
  -4   7  -8    2.35    0.39 
   4  -7   8    2.80    0.33 
  -5   7  -8    4.02    0.51 
   5  -7   8    4.15    0.41 
  -6   7  -8   -0.08    0.21 
   6  -7   8    0.31    0.18 
  -7   7  -8    3.17    0.49 
   7  -7   8    2.30    0.37 
  -8   7  -8    0.16    0.28 
  -9   7  -8    0.26    0.29 
 -10   7  -8   -0.02    0.32 
 -11   7  -8    1.52    0.57 
 -12   7  -8    0.06    0.46 
 -12  -6   8    0.23    0.28 
 -11  -6   8    0.13    0.22 
 -10  -6   8    0.06    0.18 
  -9  -6   8    0.26    0.19 
  -8  -6   8    1.06    0.23 
  -7  -6   8    0.43    0.18 
  -6  -6   8    7.38    0.44 
  -5  -6   8    0.34    0.15 
  -4  -6   8    0.32    0.13 
  -3  -6   8    4.89    0.31 
  -3  -6   8    4.93    0.36 
   2   6  -8   10.26    0.47 
  -2  -6   8   10.21    0.55 
  -2  -6   8   11.28    0.52 
   1   6  -8   18.74    0.81 
  -1  -6   8   17.95    0.81 
  -1  -6   8   18.34    0.78 
   0   6  -8   34.94    1.46 
   0  -6   8   35.14    1.35 
   0  -6   8   34.23    1.34 
  -1   6  -8   18.01    0.88 
   1  -6   8   18.35    0.72 
   1  -6   8   17.04    0.77 
  -2   6  -8   11.39    0.66 
   2  -6   8   10.70    0.55 
   2  -6   8   11.10    0.46 
  -3   6  -8    4.98    0.46 
   3  -6   8    4.92    0.36 
  -4   6  -8    0.35    0.21 
   4  -6   8    0.37    0.17 
  -5   6  -8    0.46    0.23 
   5  -6   8    0.28    0.18 
  -6   6  -8    6.36    0.63 
   6  -6   8    6.48    0.48 
  -7   6  -8    0.35    0.28 
   7  -6   8    0.51    0.23 
  -8   6  -8    0.94    0.35 
  -9   6  -8   -0.04    0.30 
 -10   6  -8   -0.21    0.26 
 -11   6  -8    0.01    0.39 
 -12   6  -8    0.09    0.46 
 -12  -5   8    0.70    0.31 
 -11  -5   8    0.86    0.27 
 -10  -5   8    1.55    0.30 
  -9  -5   8    2.73    0.34 
  -8  -5   8    2.91    0.33 
  -7  -5   8    2.39    0.30 
  -6  -5   8   12.50    0.63 
  -5  -5   8   18.82    0.83 
  -4  -5   8    0.95    0.17 
  -3  -5   8   14.15    0.63 
   2   5  -8    7.70    0.36 
  -2  -5   8    7.76    0.40 
   1   5  -8    1.53    0.17 
  -1  -5   8    1.38    0.18 
  -1  -5   8    1.74    0.18 
   0   5  -8   59.67    2.32 
   0  -5   8   56.51    2.12 
   0  -5   8   57.80    2.16 
  -1   5  -8    1.70    0.24 
   1  -5   8    1.73    0.20 
   1  -5   8    1.52    0.14 
  -2   5  -8    8.24    0.54 
   2  -5   8    7.57    0.43 
   2  -5   8    8.29    0.34 
  -3   5  -8   13.19    0.77 
   3  -5   8   13.17    0.63 
  -4   5  -8    1.02    0.24 
   4  -5   8    0.64    0.20 
   4  -5   8    0.97    0.20 
  -5   5  -8   19.26    1.11 
   5  -5   8   19.71    0.93 
   5  -5   8   20.00    1.04 
  -6   5  -8   11.44    0.83 
   6  -5   8   12.36    0.70 
  -7   5  -8    2.24    0.43 
   7  -5   8    3.42    0.39 
  -8   5  -8    1.79    0.42 
  -9   5  -8    2.64    0.52 
 -10   5  -8    1.82    0.48 
 -11   5  -8    0.77    0.46 
 -12   5  -8    0.88    0.54 
 -12  -4   8    1.95    0.40 
 -11  -4   8    0.94    0.29 
 -10  -4   8    3.67    0.41 
  -9  -4   8    0.51    0.22 
  -8  -4   8    1.95    0.28 
  -7  -4   8    3.07    0.32 
  -6  -4   8   13.12    0.65 
  -5  -4   8    1.65    0.22 
  -4  -4   8   10.81    0.54 
  -3  -4   8    2.09    0.21 
   2   4  -8    5.93    0.29 
  -2  -4   8    5.24    0.32 
   1   4  -8    3.55    0.25 
  -1  -4   8    3.70    0.25 
   0  -4   8   67.86    2.67 
   0  -4   8   69.96    2.55 
   0  -4   8   69.11    2.48 
   1  -4   8    3.72    0.29 
   1  -4   8    3.42    0.24 
   1  -4   8    3.64    0.20 
   2  -4   8    5.47    0.39 
   2  -4   8    5.34    0.33 
   2  -4   8    5.85    0.24 
   3  -4   8    2.64    0.30 
   3  -4   8    2.03    0.22 
   4  -4   8    9.34    0.60 
   4  -4   8    9.29    0.51 
   5  -4   8    1.81    0.26 
   5  -4   8    1.43    0.29 
   6  -4   8   13.99    0.75 
   6  -4   8   13.80    0.85 
   7  -4   8    2.85    0.36 
   7  -4   8    2.82    0.43 
   8  -4   8    2.35    0.43 
  -9   4  -8    1.25    0.42 
   9  -4   8    0.45    0.28 
 -10   4  -8    3.30    0.60 
 -11   4  -8    0.63    0.43 
 -12   4  -8    1.33    0.52 
 -13  -3   8   -0.36    0.28 
 -12  -3   8    0.98    0.35 
 -11  -3   8    0.20    0.25 
 -10  -3   8    0.28    0.24 
  -9  -3   8    1.06    0.26 
  -8  -3   8    1.68    0.29 
  -7  -3   8   17.65    0.85 
  -6  -3   8    0.99    0.21 
  -5  -3   8    8.72    0.49 
  -4  -3   8   30.31    1.21 
  -3  -3   8    1.38    0.18 
  -2  -3   8   10.32    0.45 
  -2  -3   8   10.49    0.49 
  -1  -3   8    3.75    0.25 
  -1  -3   8    3.84    0.24 
   0  -3   8    0.81    0.12 
   0  -3   8    1.03    0.15 
   1  -3   8    3.92    0.24 
   1  -3   8    3.44    0.28 
   2  -3   8   10.46    0.56 
   2  -3   8    9.48    0.47 
   3  -3   8    1.21    0.22 
   3  -3   8    0.95    0.16 
   4  -3   8   29.37    1.36 
   4  -3   8   29.79    1.21 
   5  -3   8    9.79    0.51 
   5  -3   8    7.06    0.55 
   6  -3   8    0.59    0.20 
   6  -3   8    0.45    0.24 
   7  -3   8   14.01    0.91 
   7  -3   8   16.30    0.82 
   8  -3   8    1.77    0.37 
   9  -3   8    0.45    0.26 
  10  -3   8    0.35    0.27 
 -11   3  -8    0.17    0.39 
 -12   3  -8    0.47    0.44 
 -13   3  -8    0.68    0.50 
 -13  -2   8   -0.01    0.31 
 -12  -2   8    0.54    0.28 
 -11  -2   8   -0.01    0.20 
 -10  -2   8    0.25    0.21 
  -9  -2   8   -0.03    0.17 
  -8  -2   8    0.02    0.17 
  -7  -2   8   13.94    0.73 
  -6  -2   8    4.20    0.36 
  -5  -2   8    4.05    0.33 
  -4  -2   8    8.41    0.46 
  -3  -2   8    1.06    0.17 
  -2  -2   8    3.37    0.20 
  -2  -2   8    3.40    0.23 
  -1  -2   8    1.08    0.14 
  -1  -2   8    1.04    0.13 
   0  -2   8    8.28    0.39 
   0  -2   8    7.77    0.43 
   1  -2   8    1.21    0.18 
   1  -2   8    1.03    0.14 
   2  -2   8    3.38    0.23 
   2  -2   8    3.55    0.31 
   3  -2   8    1.28    0.22 
   3  -2   8    1.46    0.18 
   4  -2   8    8.53    0.47 
   4  -2   8    9.31    0.57 
   5  -2   8    4.07    0.33 
   5  -2   8    3.88    0.42 
   6  -2   8    4.09    0.45 
   6  -2   8    3.99    0.35 
   7  -2   8   13.03    0.71 
   7  -2   8   12.94    0.83 
   8  -2   8   -0.13    0.20 
   9  -2   8   -0.06    0.24 
  10  -2   8    0.36    0.28 
  11  -2   8    0.25    0.30 
  12  -2   8   -0.03    0.34 
 -13   2  -8    0.09    0.51 
 -13  -1   8   -0.07    0.30 
 -12  -1   8    0.09    0.25 
 -11  -1   8    0.46    0.26 
 -10  -1   8    0.27    0.22 
  -9  -1   8    0.71    0.24 
  -8  -1   8   -0.15    0.16 
  -7  -1   8    6.65    0.47 
  -6  -1   8    4.45    0.39 
  -5  -1   8   68.47    2.55 
  -4  -1   8   18.50    0.79 
  -4  -1   8   17.22    0.70 
  -3  -1   8   12.92    0.54 
  -3  -1   8   12.62    0.59 
  -2  -1   8   30.95    1.23 
  -2  -1   8   31.59    1.21 
  -1  -1   8    9.32    0.45 
  -1  -1   8    9.42    0.44 
   0  -1   8   51.21    1.87 
   0  -1   8   52.17    2.03 
   1  -1   8    9.78    0.50 
   1  -1   8    8.52    0.41 
   2  -1   8   30.28    1.33 
   2  -1   8   31.32    1.18 
   3  -1   8   12.96    0.70 
   3  -1   8   12.79    0.58 
   4  -1   8   18.09    0.77 
   4  -1   8   16.80    0.89 
   5  -1   8   62.39    2.67 
   5  -1   8   66.32    2.41 
   6  -1   8    3.72    0.33 
   6  -1   8    3.13    0.42 
   7  -1   8    5.50    0.55 
   8  -1   8    0.24    0.23 
   9  -1   8    1.48    0.36 
  10  -1   8    0.64    0.33 
  11  -1   8    1.02    0.35 
  12  -1   8    0.21    0.29 
  13  -1   8    0.21    0.40 
 -13   0   8    0.81    0.37 
 -12   0   8    0.51    0.29 
 -11   0   8    0.12    0.24 
 -10   0   8    0.15    0.23 
  -9   0   8    0.18    0.19 
  -8   0   8    8.14    0.55 
  -7   0   8   12.94    0.71 
  -6   0   8    1.66    0.26 
  -5   0   8   36.17    1.41 
  -5   0   8   36.00    1.45 
  -4   0   8   15.50    0.71 
  -4   0   8   15.36    0.65 
  -3   0   8    1.97    0.21 
  -3   0   8    2.11    0.16 
  -2   0   8   20.22    0.82 
  -2   0   8   19.35    0.82 
  -1   0   8    0.84    0.13 
  -1   0   8    1.26    0.15 
   0   0   8   57.82    2.01 
   0   0   8   53.42    2.18 
   1   0   8    1.62    0.20 
   1   0   8    1.19    0.13 
   2   0   8   18.75    0.73 
   2   0   8   17.51    0.86 
   3   0   8    2.16    0.19 
   3   0   8    1.68    0.24 
   4   0   8   15.16    0.81 
   4   0   8   14.69    0.66 
   5   0   8   35.05    1.36 
   5   0   8   33.08    1.55 
   6   0   8    1.39    0.30 
   6   0   8    1.51    0.23 
   7   0   8   11.66    0.77 
   8   0   8    7.02    0.64 
   9   0   8   -0.17    0.21 
  10   0   8    0.40    0.28 
  11   0   8    0.09    0.27 
  12   0   8    0.76    0.40 
  13   0   8    0.32    0.38 
 -13   1   8    0.48    0.35 
 -12   1   8    0.13    0.28 
 -11   1   8    0.31    0.24 
 -10   1   8   -0.05    0.22 
  -9   1   8    1.42    0.30 
  -8   1   8   -0.08    0.14 
  -7   1   8    6.46    0.48 
  -6   1   8    3.73    0.26 
  -6   1   8    3.73    0.36 
  -5   1   8   65.83    2.50 
  -5   1   8   64.91    2.46 
  -4   1   8   18.25    0.77 
  -4   1   8   17.80    0.81 
  -3   1   8   12.85    0.62 
  -3   1   8   14.30    0.61 
  -2   1   8   32.55    1.29 
  -2   1   8   31.40    1.23 
  -1   1   8    9.24    0.47 
  -1   1   8    9.78    0.45 
   0   1   8   52.73    2.10 
   0   1   8   53.83    1.92 
   1   1   8    9.00    0.49 
   1   1   8    8.66    0.39 
   2   1   8   30.20    1.31 
   2   1   8   30.11    1.13 
   3   1   8   13.26    0.71 
   3   1   8   13.40    0.57 
   4   1   8   17.65    0.73 
   4   1   8   15.94    0.86 
  -5  -1  -8   65.09    2.32 
   5   1   8   60.76    2.65 
   5   1   8   66.06    2.36 
   6   1   8    3.02    0.39 
   6   1   8    3.23    0.29 
   7   1   8    4.80    0.50 
   8   1   8    0.03    0.23 
   9   1   8    1.52    0.35 
  10   1   8    0.18    0.29 
  11   1   8    1.26    0.38 
  12   1   8    0.51    0.36 
  13   1   8   -0.10    0.35 
 -13   2   8   -0.05    0.34 
 -12   2   8    0.25    0.30 
 -11   2   8   -0.17    0.24 
 -10   2   8   -0.04    0.21 
  -9   2   8   -0.10    0.18 
  -8   2   8    0.08    0.17 
  -7   2   8   11.83    0.68 
  -7   2   8   12.07    0.60 
  -6   2   8    4.45    0.39 
  -6   2   8    4.57    0.31 
  -5   2   8    3.80    0.27 
  -5   2   8    3.01    0.31 
  -4   2   8    8.84    0.49 
  -4   2   8    8.77    0.45 
  -3   2   8    1.73    0.18 
  -3   2   8    1.11    0.17 
  -2   2   8    3.12    0.24 
  -2   2   8    3.43    0.24 
  -1   2   8    1.00    0.14 
  -1   2   8    1.02    0.16 
   0   2   8    7.43    0.36 
   0   2   8    7.77    0.43 
   1   2   8    0.84    0.11 
   1   2   8    0.87    0.17 
   2   2   8    3.32    0.20 
   2   2   8    3.92    0.33 
   3   2   8    1.56    0.15 
   3   2   8    1.55    0.24 
  -4  -2  -8    9.48    0.41 
   4   2   8    8.86    0.57 
  -5  -2  -8    3.70    0.22 
   5   2   8    3.02    0.37 
  -6  -2  -8    3.85    0.23 
   6   2   8    3.57    0.43 
   7   2   8   12.71    0.82 
   8   2   8    0.15    0.20 
   9   2   8   -0.25    0.20 
  10   2   8    0.20    0.26 
  11   2   8    0.00    0.28 
  12   2   8    0.62    0.39 
  13   2   8    0.57    0.43 
 -13   3   8   -0.03    0.33 
 -12   3   8    0.74    0.33 
 -11   3   8    0.10    0.25 
 -10   3   8   -0.10    0.22 
  -9   3   8    1.21    0.31 
  -8   3   8    1.34    0.30 
  -7   3   8   15.65    0.76 
  -7   3   8   15.86    0.83 
  -6   3   8    0.88    0.23 
  -6   3   8    1.04    0.19 
  -5   3   8    9.95    0.51 
  -5   3   8    8.70    0.55 
  -4   3   8   28.60    1.18 
  -4   3   8   28.34    1.19 
  -3   3   8    0.97    0.17 
  -3   3   8    1.29    0.17 
  -2   3   8   10.19    0.53 
  -2   3   8   10.83    0.51 
  -1   3   8    4.01    0.28 
  -1   3   8    3.41    0.23 
   0   3   8    0.82    0.12 
   0   3   8    0.98    0.17 
   1   3   8    3.02    0.19 
   1   3   8    3.93    0.30 
   2   3   8    5.67    0.27 
   3   3   8    1.00    0.20 
   3   3   8    1.21    0.13 
  -4  -3  -8   29.60    1.13 
   4   3   8   28.49    1.11 
   4   3   8   29.04    1.34 
  -5  -3  -8    9.04    0.43 
   5   3   8    8.68    0.60 
   5   3   8    9.80    0.46 
  -6  -3  -8    0.80    0.13 
   6   3   8    1.12    0.28 
   7   3   8   14.79    0.90 
   8   3   8    1.21    0.31 
   9   3   8    0.71    0.28 
  10   3   8   -0.19    0.24 
  11   3   8    0.33    0.31 
  12   3   8    0.63    0.37 
  13   3   8    0.47    0.43 
 -12   4   8    1.18    0.38 
 -11   4   8    0.07    0.25 
 -10   4   8    3.71    0.48 
  -9   4   8    0.78    0.26 
  -8   4   8    2.06    0.27 
  -8   4   8    1.39    0.29 
  -7   4   8    2.92    0.38 
  -7   4   8    3.55    0.31 
  -6   4   8   14.12    0.76 
  -6   4   8   14.04    0.70 
  -5   4   8    1.38    0.20 
  -5   4   8    0.94    0.21 
  -4   4   8    9.62    0.53 
  -4   4   8   10.23    0.54 
  -3   4   8    2.48    0.24 
  -3   4   8    1.95    0.22 
  -2   4   8    6.69    0.37 
  -2   4   8    6.30    0.39 
  -1   4   8    4.06    0.30 
  -1   4   8    3.72    0.25 
   0   4   8   72.73    2.76 
   0   4   8   68.04    2.49 
   1   4   8    4.17    0.32 
   1   4   8    3.71    0.22 
   2   4   8    5.48    0.27 
   2   4   8    5.74    0.40 
   3   4   8    2.47    0.30 
   3   4   8    2.44    0.17 
  -4  -4  -8    9.21    0.47 
   4   4   8   10.46    0.45 
   4   4   8   10.09    0.62 
  -5  -4  -8    1.14    0.15 
   5   4   8    1.40    0.16 
   5   4   8    1.35    0.28 
  -6  -4  -8   13.15    0.59 
   6   4   8   12.09    0.77 
  -7  -4  -8    3.01    0.25 
   7   4   8    3.31    0.43 
   8   4   8    1.47    0.34 
   9   4   8    0.31    0.25 
  10   4   8    4.31    0.58 
  11   4   8    0.45    0.32 
  12   4   8    1.85    0.47 
 -12   5   8    0.66    0.36 
 -11   5   8    0.81    0.36 
 -10   5   8    2.17    0.41 
  -9   5   8    3.21    0.43 
  -8   5   8    2.04    0.30 
  -8   5   8    2.04    0.35 
  -7   5   8    2.84    0.30 
  -7   5   8    2.10    0.33 
  -6   5   8   10.97    0.61 
  -6   5   8   11.88    0.68 
  -5   5   8   19.24    0.89 
  -5   5   8   17.14    0.85 
  -4   5   8    1.31    0.20 
  -4   5   8    1.06    0.20 
  -3   5   8   14.88    0.67 
  -3   5   8   13.03    0.68 
  -2   5   8    8.10    0.42 
  -2   5   8    7.72    0.46 
  -1   5   8    1.46    0.17 
  -1   5   8    1.31    0.21 
   0   5   8   33.96    1.26 
   1   5   8    1.85    0.25 
   1   5   8    1.56    0.14 
   2   5   8    7.58    0.33 
   2   5   8    7.51    0.49 
  -3  -5  -8   14.42    0.65 
   3   5   8   13.92    0.57 
   3   5   8   15.23    0.79 
  -4  -5  -8    1.20    0.17 
   4   5   8    1.16    0.13 
   4   5   8    0.89    0.23 
  -5  -5  -8   17.41    0.75 
   5   5   8   17.24    0.94 
  -6  -5  -8   11.50    0.55 
   6   5   8   10.87    0.72 
  -7  -5  -8    2.86    0.25 
   7   5   8    2.82    0.41 
   8   5   8    1.78    0.37 
   9   5   8    3.11    0.49 
  10   5   8    1.85    0.43 
  11   5   8    0.58    0.35 
  12   5   8    0.77    0.38 
 -12   6   8   -0.50    0.30 
 -11   6   8    0.27    0.30 
 -10   6   8    0.07    0.23 
  -9   6   8    0.52    0.24 
  -9   6   8    0.77    0.29 
  -8   6   8    1.41    0.27 
  -8   6   8    0.96    0.28 
  -7   6   8    0.67    0.21 
  -7   6   8    0.61    0.22 
  -6   6   8    6.59    0.46 
  -6   6   8    6.62    0.49 
  -5   6   8    0.23    0.18 
  -5   6   8    0.15    0.14 
  -4   6   8    0.41    0.15 
  -4   6   8    0.34    0.15 
  -3   6   8    4.80    0.34 
  -3   6   8    5.25    0.37 
  -2   6   8    9.78    0.51 
  -2   6   8   11.12    0.59 
  -1   6   8   12.23    0.55 
   0   6   8   38.09    1.37 
   0   6   8   35.79    1.57 
   1   6   8   18.51    0.92 
   1   6   8   19.35    0.73 
   2   6   8    9.67    0.59 
   2   6   8    9.98    0.40 
  -3  -6  -8    4.63    0.31 
   3   6   8    4.41    0.41 
   3   6   8    4.61    0.23 
  -4  -6  -8    0.65    0.15 
   4   6   8    0.37    0.20 
  -5  -6  -8    0.39    0.13 
   5   6   8    0.09    0.17 
  -6  -6  -8    7.14    0.40 
   6   6   8    6.23    0.57 
  -7  -6  -8    0.52    0.16 
   7   6   8    0.64    0.26 
  -8  -6  -8    1.16    0.22 
   8   6   8    1.30    0.33 
   9   6   8    0.85    0.31 
  10   6   8   -0.07    0.27 
  11   6   8    0.31    0.30 
  12   6   8    0.17    0.38 
 -12   7   8    0.08    0.34 
 -11   7   8    0.59    0.32 
 -10   7   8    0.02    0.25 
  -9   7   8    0.54    0.25 
  -9   7   8    0.47    0.28 
  -8   7   8    0.55    0.23 
  -8   7   8    0.32    0.23 
  -7   7   8    2.03    0.36 
  -7   7   8    2.46    0.33 
  -6   7   8    0.08    0.20 
  -6   7   8    0.27    0.19 
  -5   7   8    4.31    0.38 
  -5   7   8    4.23    0.40 
  -4   7   8    2.52    0.29 
  -4   7   8    2.83    0.32 
  -3   7   8   15.52    0.69 
  -3   7   8   12.83    0.73 
  -2   7   8    4.12    0.37 
  -2   7   8    4.46    0.31 
  -1   7   8    7.28    0.38 
   0   7   8   19.78    0.79 
   0   7   8   20.33    0.98 
   1   7   8    9.75    0.60 
   1   7   8   10.58    0.43 
   2   7   8    4.37    0.41 
  -3  -7  -8   15.18    0.70 
   3   7   8   13.84    0.81 
  -4  -7  -8    3.24    0.29 
   4   7   8    2.91    0.38 
  -5  -7  -8    4.39    0.33 
   5   7   8    4.06    0.45 
  -6  -7  -8   -0.26    0.12 
   6   7   8    0.41    0.21 
  -7  -7  -8    2.88    0.30 
   7   7   8    3.20    0.45 
  -8  -7  -8    0.34    0.18 
   8   7   8    0.27    0.26 
   9   7   8    0.47    0.29 
  10   7   8    0.60    0.34 
  11   7   8    0.44    0.38 
  12   7   8   -0.17    0.38 
 -11   8   8    0.15    0.33 
 -10   8   8    0.50    0.32 
  -9   8   8    0.73    0.30 
  -9   8   8    0.82    0.28 
  -8   8   8    0.44    0.24 
  -8   8   8    0.64    0.28 
  -7   8   8    1.32    0.30 
  -7   8   8    1.89    0.32 
  -6   8   8    0.40    0.21 
  -6   8   8    0.56    0.23 
  -5   8   8    1.37    0.27 
  -5   8   8    1.56    0.27 
  -4   8   8    2.54    0.30 
  -4   8   8    2.07    0.31 
  -3   8   8    2.16    0.31 
  -3   8   8    2.30    0.25 
  -2   8   8   28.48    1.18 
  -2   8   8   30.71    1.35 
  -1   8   8   20.99    0.85 
  -1   8   8   20.19    1.01 
   0   8   8   18.70    0.73 
   0   8   8   16.55    0.90 
   1   8   8   20.98    1.04 
   2   8   8   30.19    1.40 
  -3  -8  -8    2.53    0.28 
   3   8   8    2.98    0.39 
  -4  -8  -8    2.20    0.28 
   4   8   8    2.28    0.36 
  -5  -8  -8    2.49    0.28 
   5   8   8    2.17    0.36 
  -6  -8  -8    0.47    0.18 
   6   8   8    0.47    0.23 
  -7  -8  -8    1.99    0.28 
   7   8   8    2.22    0.40 
  -8  -8  -8    0.24    0.18 
   8   8   8    0.16    0.24 
   9   8   8    0.02    0.28 
  10   8   8    1.35    0.42 
  11   8   8    0.12    0.37 
 -11   9   8    1.23    0.41 
 -10   9   8    0.49    0.30 
 -10   9   8    0.37    0.29 
  -9   9   8    0.93    0.33 
  -9   9   8    1.60    0.35 
  -8   9   8    1.89    0.37 
  -8   9   8    2.07    0.36 
  -7   9   8    1.28    0.30 
  -7   9   8    0.80    0.27 
  -6   9   8    0.78    0.25 
  -6   9   8    0.21    0.20 
  -5   9   8    0.33    0.22 
  -5   9   8    0.36    0.22 
  -4   9   8    6.34    0.46 
  -4   9   8    7.04    0.52 
  -3   9   8    5.29    0.46 
  -3   9   8    4.63    0.35 
  -2   9   8    1.68    0.29 
  -1   9   8    1.20    0.17 
  -1   9   8    1.21    0.27 
   0   9   8    0.39    0.23 
   1   9   8    1.10    0.27 
   2   9   8    1.65    0.31 
  -3  -9  -8    5.29    0.39 
   3   9   8    4.40    0.46 
  -4  -9  -8    6.85    0.45 
   4   9   8    5.83    0.55 
  -5  -9  -8    0.12    0.16 
   5   9   8    0.05    0.19 
  -6  -9  -8    0.81    0.21 
   6   9   8    0.36    0.24 
  -7  -9  -8    0.79    0.23 
   7   9   8    1.28    0.34 
  -8  -9  -8    2.25    0.32 
   8   9   8    1.96    0.43 
  -9  -9  -8    1.42    0.29 
   9   9   8    1.17    0.37 
  10   9   8   -0.28    0.31 
  11   9   8    1.49    0.52 
 -10  10   8    0.77    0.36 
 -10  10   8    0.63    0.34 
  -9  10   8   -0.31    0.23 
  -9  10   8   -0.09    0.25 
  -8  10   8    1.27    0.33 
  -8  10   8    1.70    0.37 
  -7  10   8    1.06    0.28 
  -7  10   8    0.84    0.28 
  -6  10   8    0.79    0.26 
  -6  10   8    1.02    0.29 
  -5  10   8    0.53    0.22 
  -5  10   8    0.30    0.23 
  -4  10   8    7.03    0.56 
  -4  10   8    6.74    0.48 
  -3  10   8    2.80    0.38 
  -3  10   8    2.83    0.29 
  -2  10   8    6.01    0.38 
  -2  10   8    6.22    0.52 
  -1  10   8   12.72    0.77 
   0  10   8   10.69    0.69 
   1  10   8   11.38    0.71 
   2  10   8    5.11    0.49 
  -3 -10  -8    3.15    0.35 
   3  10   8    2.99    0.41 
  -4 -10  -8    7.49    0.50 
   4  10   8    6.36    0.59 
  -5 -10  -8    0.30    0.20 
   5  10   8    0.68    0.28 
  -6 -10  -8    1.09    0.25 
   6  10   8    0.81    0.29 
  -7 -10  -8    0.87    0.24 
   7  10   8    1.39    0.36 
  -8 -10  -8    1.34    0.28 
   8  10   8    1.12    0.35 
  -9 -10  -8   -0.19    0.20 
   9  10   8    0.26    0.31 
  10  10   8    0.41    0.36 
 -10  11   8    0.31    0.33 
 -10  11   8    0.42    0.33 
  -9  11   8   -0.03    0.28 
  -9  11   8    0.41    0.30 
  -8  11   8    2.06    0.39 
  -8  11   8    2.99    0.46 
  -7  11   8    2.56    0.40 
  -7  11   8    2.90    0.43 
  -6  11   8    1.67    0.33 
  -6  11   8    2.31    0.39 
  -5  11   8    2.33    0.34 
  -5  11   8    2.88    0.41 
  -4  11   8    0.95    0.25 
  -4  11   8    1.05    0.30 
  -3  11   8    2.60    0.31 
  -3  11   8    2.66    0.38 
  -2  11   8    2.63    0.37 
  -1  11   8    2.83    0.39 
   0  11   8   10.15    0.69 
   1  11   8    2.33    0.37 
   2  11   8    3.32    0.42 
  -3 -11  -8    2.92    0.35 
   3  11   8    2.61    0.40 
  -4 -11  -8    0.79    0.23 
   4  11   8    0.65    0.28 
  -5 -11  -8    3.12    0.38 
   5  11   8    3.20    0.47 
  -6 -11  -8    1.94    0.32 
   6  11   8    2.70    0.46 
  -7 -11  -8    2.18    0.34 
   7  11   8    3.44    0.52 
  -8 -11  -8    2.78    0.39 
   8  11   8    3.01    0.54 
  -9 -11  -8    0.71    0.29 
   9  11   8    0.40    0.36 
  10  11   8   -0.02    0.38 
  -9  12   8    0.08    0.33 
  -9  12   8    0.23    0.31 
  -8  12   8    0.89    0.33 
  -8  12   8    0.69    0.33 
  -7  12   8    0.13    0.26 
  -7  12   8    0.59    0.29 
  -6  12   8    0.55    0.28 
  -6  12   8    0.08    0.20 
  -5  12   8    0.72    0.25 
  -5  12   8    1.02    0.31 
  -4  12   8    3.36    0.47 
  -3  12   8    2.39    0.39 
  -2  12   8    2.10    0.37 
  -1  12   8    5.10    0.52 
   0  12   8   19.91    1.09 
   1  12   8    5.33    0.53 
   2  12   8    1.61    0.36 
   3  12   8    3.14    0.45 
  -4 -12  -8    3.99    0.44 
   4  12   8    4.07    0.52 
  -5 -12  -8    1.03    0.29 
   5  12   8    1.48    0.37 
  -6 -12  -8    0.04    0.22 
   6  12   8    0.69    0.30 
  -7 -12  -8    0.30    0.25 
   7  12   8    0.35    0.31 
  -8 -12  -8    0.62    0.27 
   8  12   8    0.47    0.34 
  -9 -12  -8    0.55    0.29 
   9  12   8    0.48    0.37 
  -8  13   8    0.70    0.34 
  -8  13   8    0.98    0.40 
  -7  13   8   -0.06    0.30 
  -7  13   8    0.25    0.27 
  -6  13   8    1.86    0.39 
  -6  13   8    2.32    0.44 
  -5  13   8    0.22    0.27 
  -4  13   8    0.92    0.34 
  -3  13   8    0.30    0.25 
  -2  13   8    1.47    0.35 
  -1  13   8    0.56    0.28 
   0  13   8    0.21    0.25 
   1  13   8    0.42    0.24 
   2  13   8    1.65    0.35 
   3  13   8   -0.08    0.20 
  -4 -13  -8    0.98    0.28 
   4  13   8    0.80    0.29 
  -5 -13  -8   -0.20    0.20 
   5  13   8    0.26    0.27 
  -6 -13  -8    2.35    0.38 
   6  13   8    1.72    0.44 
  -7 -13  -8    0.28    0.28 
   7  13   8    0.34    0.35 
  -8 -13  -8    1.12    0.35 
   8  13   8    0.82    0.43 
  -7  14   8    0.73    0.38 
  -6  14   8    0.71    0.37 
  -5  14   8    0.14    0.28 
  -4  14   8   -0.06    0.26 
  -3  14   8    0.44    0.31 
  -2  14   8    1.57    0.37 
  -1  14   8    0.89    0.31 
   0  14   8    1.57    0.38 
   1  14   8    1.46    0.36 
   2  14   8    1.28    0.34 
   3  14   8    1.13    0.35 
  -4 -14  -8   -0.12    0.20 
   4  14   8   -0.03    0.26 
  -5 -14  -8    0.12    0.24 
   5  14   8    0.41    0.33 
  -6 -14  -8    0.27    0.26 
   6  14   8    0.95    0.40 
  -7 -14  -8    1.83    0.41 
   7  14   8    1.88    0.51 
  -6  15   8    0.56    0.42 
  -5  15   8    0.51    0.35 
  -4  15   8    1.98    0.45 
  -3  15   8   -0.18    0.25 
  -2  15   8    1.08    0.39 
  -1  15   8    0.25    0.29 
   0  15   8    0.33    0.33 
   1  15   8    0.15    0.26 
   2  15   8    1.38    0.36 
   3  15   8    0.50    0.32 
   4  15   8    2.50    0.50 
  -5 -15  -8    0.93    0.35 
   5  15   8    0.75    0.37 
  -6 -15  -8    0.71    0.35 
   6  15   8    1.07    0.42 
  -5  16   8    0.92    0.44 
  -4  16   8    0.04    0.33 
  -3  16   8    1.28    0.44 
  -2  16   8   -0.09    0.33 
  -1  16   8    1.37    0.40 
   0  16   8    0.44    0.30 
   1  16   8    2.61    0.49 
   2  16   8   -0.27    0.24 
   3  16   8    2.27    0.48 
   4  16   8    0.00    0.33 
  -5 -16  -8    0.28    0.31 
   5  16   8    0.89    0.44 
  -2  17   8    0.18    0.37 
  -1  17   8    0.12    0.30 
   0  17   8    0.11    0.32 
   1  17   8    0.24    0.35 
   2  17   8   -0.02    0.29 
  -4 -16   9    0.40    0.29 
  -3 -16   9    0.85    0.33 
   1 -16   9   -0.08    0.28 
   2 -16   9    0.49    0.35 
   3 -16   9    1.30    0.42 
  -4  16  -9    0.50    0.40 
   4 -16   9    0.64    0.38 
  -6 -15   9    0.33    0.32 
  -5 -15   9   -0.33    0.26 
  -4 -15   9    0.39    0.27 
  -3 -15   9    1.05    0.30 
  -2 -15   9    0.67    0.29 
  -1 -15   9    1.98    0.38 
   0 -15   9    0.55    0.28 
   1 -15   9    1.64    0.36 
   2 -15   9    0.51    0.29 
  -3  15  -9    0.54    0.38 
   3 -15   9    1.12    0.39 
  -4  15  -9   -0.21    0.29 
   4 -15   9    0.55    0.35 
  -5  15  -9   -0.31    0.33 
  -6  15  -9    0.27    0.44 
  -7 -14   9    1.21    0.41 
  -6 -14   9    0.28    0.30 
  -5 -14   9    3.04    0.45 
  -4 -14   9    2.40    0.39 
  -3 -14   9    0.52    0.25 
  -2 -14   9    0.37    0.22 
  -2 -14   9    0.19    0.20 
  -1 -14   9    0.52    0.24 
   0 -14   9    0.73    0.25 
   1 -14   9    0.75    0.27 
   2 -14   9    0.23    0.25 
  -3  14  -9    0.58    0.31 
   3 -14   9    0.75    0.30 
  -4  14  -9    1.71    0.45 
   4 -14   9    2.44    0.45 
  -5  14  -9    2.87    0.55 
   5 -14   9    3.51    0.53 
  -6  14  -9    0.68    0.41 
  -7  14  -9    1.41    0.50 
  -8 -13   9    0.39    0.35 
  -7 -13   9    0.56    0.33 
  -6 -13   9    1.76    0.38 
  -5 -13   9    0.16    0.24 
  -4 -13   9    2.97    0.39 
  -4 -13   9    3.36    0.37 
  -3 -13   9    0.89    0.26 
  -3 -13   9    0.72    0.24 
  -2 -13   9    1.53    0.29 
  -2 -13   9    0.77    0.23 
  -1 -13   9    0.39    0.21 
  -1 -13   9    0.61    0.23 
   0 -13   9    0.71    0.25 
   1 -13   9    0.25    0.22 
  -2  13  -9    1.18    0.33 
   2 -13   9    1.25    0.31 
  -3  13  -9    1.00    0.33 
   3 -13   9    0.38    0.26 
  -4  13  -9    3.44    0.48 
   4 -13   9    2.73    0.43 
  -5  13  -9   -0.35    0.25 
   5 -13   9   -0.40    0.22 
  -6  13  -9    1.65    0.47 
  -7  13  -9    0.00    0.37 
  -8  13  -9   -0.39    0.38 
  -9 -12   9    1.32    0.42 
  -8 -12   9    0.33    0.31 
  -7 -12   9    1.74    0.40 
  -6 -12   9    0.28    0.27 
  -5 -12   9    1.86    0.35 
  -5 -12   9    2.15    0.29 
  -4 -12   9    1.90    0.28 
  -4 -12   9    1.17    0.29 
  -3 -12   9    0.74    0.21 
  -3 -12   9    0.49    0.21 
  -2 -12   9    0.14    0.18 
  -2 -12   9    0.44    0.21 
  -1 -12   9    0.59    0.21 
  -1 -12   9    0.13    0.17 
   0 -12   9    2.79    0.35 
  -1  12  -9    0.45    0.25 
   1 -12   9    0.41    0.21 
  -2  12  -9    0.25    0.24 
   2 -12   9    0.09    0.19 
  -3  12  -9    0.73    0.29 
   3 -12   9    0.30    0.22 
  -4  12  -9    1.59    0.39 
   4 -12   9    1.46    0.32 
  -5  12  -9    0.99    0.37 
   5 -12   9    1.90    0.38 
  -6  12  -9    0.49    0.32 
   6 -12   9    0.16    0.28 
  -7  12  -9    0.86    0.42 
  -8  12  -9    0.15    0.38 
  -9  12  -9    1.42    0.55 
  -9 -11   9    0.66    0.35 
  -8 -11   9    0.45    0.31 
  -7 -11   9    0.23    0.26 
  -6 -11   9   -0.09    0.22 
  -6 -11   9    0.13    0.16 
  -5 -11   9    0.25    0.18 
  -5 -11   9    0.33    0.25 
  -4 -11   9    0.13    0.17 
  -4 -11   9    0.24    0.19 
  -3 -11   9    1.96    0.27 
  -3 -11   9    2.06    0.32 
  -2 -11   9    0.46    0.19 
  -2 -11   9    0.72    0.21 
  -1 -11   9    0.86    0.21 
  -1 -11   9    0.60    0.21 
   0 -11   9    3.05    0.30 
   0 -11   9    3.34    0.36 
  -1  11  -9    0.34    0.22 
   1 -11   9    0.70    0.23 
  -2  11  -9    0.48    0.25 
   2 -11   9    0.61    0.23 
  -3  11  -9    1.59    0.36 
   3 -11   9    2.26    0.35 
  -4  11  -9    0.10    0.26 
   4 -11   9    0.07    0.18 
  -5  11  -9    0.15    0.30 
   5 -11   9    0.26    0.24 
  -6  11  -9   -0.01    0.28 
   6 -11   9    0.21    0.25 
  -7  11  -9    0.37    0.34 
  -8  11  -9    0.43    0.36 
  -9  11  -9    0.27    0.38 
 -10 -10   9    0.39    0.35 
  -9 -10   9   -0.17    0.25 
  -8 -10   9    1.18    0.34 
  -8 -10   9    1.98    0.29 
  -7 -10   9    0.20    0.23 
  -7 -10   9    0.40    0.18 
  -6 -10   9    1.58    0.33 
  -6 -10   9    1.07    0.21 
  -5 -10   9    0.49    0.23 
  -5 -10   9    0.25    0.17 
  -4 -10   9    2.04    0.33 
  -4 -10   9    2.00    0.26 
  -3 -10   9    0.45    0.18 
  -3 -10   9    0.25    0.20 
  -2 -10   9    4.47    0.37 
  -2 -10   9    5.24    0.42 
  -1 -10   9    2.90    0.29 
  -1 -10   9    3.19    0.32 
   0  10  -9    1.00    0.21 
   0 -10   9    0.83    0.23 
   0 -10   9    0.31    0.10 
  -1  10  -9    3.42    0.36 
   1 -10   9    3.17    0.35 
  -2  10  -9    4.18    0.46 
   2 -10   9    5.65    0.46 
  -3  10  -9    0.57    0.25 
   3 -10   9    0.88    0.26 
  -4  10  -9    1.90    0.38 
   4 -10   9    1.40    0.30 
  -5  10  -9    0.20    0.23 
   5 -10   9    0.07    0.17 
  -6  10  -9    1.30    0.37 
   6 -10   9    1.79    0.35 
  -7  10  -9    0.70    0.36 
  -8  10  -9    1.39    0.46 
  -9  10  -9   -0.17    0.36 
 -10  10  -9    1.07    0.54 
 -11  -9   9    1.02    0.41 
 -10  -9   9    1.08    0.37 
  -9  -9   9    0.05    0.26 
  -9  -9   9    0.36    0.21 
  -8  -9   9    1.33    0.24 
  -8  -9   9    0.92    0.33 
  -7  -9   9    0.60    0.20 
  -7  -9   9    0.73    0.28 
  -6  -9   9    0.17    0.19 
  -6  -9   9    0.25    0.16 
  -5  -9   9    2.12    0.25 
  -5  -9   9    2.08    0.34 
  -4  -9   9    5.47    0.38 
  -4  -9   9    6.15    0.50 
  -3  -9   9    1.91    0.30 
  -3  -9   9    2.31    0.26 
  -2  -9   9    8.27    0.47 
  -2  -9   9    7.04    0.48 
  -1  -9   9   15.66    0.74 
  -1  -9   9   15.56    0.74 
   0   9  -9   53.31    2.22 
   0  -9   9   55.95    2.09 
  -1   9  -9   16.90    0.88 
   1  -9   9   17.68    0.83 
   1  -9   9   16.69    0.74 
  -2   9  -9    7.39    0.56 
   2  -9   9    8.00    0.50 
  -3   9  -9    1.64    0.34 
   3  -9   9    1.89    0.29 
  -4   9  -9    6.33    0.59 
   4  -9   9    5.18    0.47 
  -5   9  -9    2.35    0.43 
   5  -9   9    3.11    0.39 
  -6   9  -9    0.05    0.28 
   6  -9   9   -0.11    0.15 
  -7   9  -9    0.83    0.37 
   7  -9   9    0.52    0.26 
  -8   9  -9    0.95    0.41 
  -9   9  -9   -0.25    0.34 
 -10   9  -9    0.91    0.46 
 -11   9  -9    0.67    0.49 
 -11  -8   9   -0.11    0.32 
 -10  -8   9    0.90    0.34 
 -10  -8   9    1.02    0.27 
  -9  -8   9    0.23    0.28 
  -9  -8   9   -0.02    0.18 
  -8  -8   9   -0.08    0.23 
  -8  -8   9   -0.12    0.15 
  -7  -8   9    0.22    0.23 
  -7  -8   9    0.45    0.19 
  -6  -8   9    1.25    0.22 
  -6  -8   9    2.01    0.35 
  -5  -8   9    4.36    0.46 
  -5  -8   9    4.20    0.34 
  -4  -8   9   18.00    0.91 
  -4  -8   9   16.53    0.77 
  -3  -8   9    6.90    0.48 
  -3  -8   9    6.77    0.41 
  -2  -8   9   17.11    0.78 
  -2  -8   9   17.79    0.84 
   1   8  -9    1.82    0.22 
  -1  -8   9    1.69    0.23 
  -1  -8   9    1.58    0.23 
   0   8  -9    3.80    0.34 
   0  -8   9    3.38    0.31 
   0  -8   9    3.48    0.27 
  -1   8  -9    1.66    0.27 
   1  -8   9    1.81    0.18 
   1  -8   9    1.88    0.27 
  -2   8  -9   18.76    0.96 
   2  -8   9   17.15    0.84 
  -3   8  -9    7.63    0.59 
   3  -8   9    6.95    0.48 
  -4   8  -9   18.74    1.07 
   4  -8   9   18.93    0.93 
  -5   8  -9    4.84    0.56 
   5  -8   9    5.20    0.47 
  -6   8  -9    2.38    0.44 
   6  -8   9    1.34    0.30 
  -7   8  -9    0.96    0.35 
   7  -8   9    0.31    0.22 
  -8   8  -9    0.10    0.27 
  -9   8  -9   -0.23    0.32 
 -10   8  -9    0.39    0.42 
 -11   8  -9    0.70    0.49 
 -11  -7   9    0.05    0.24 
 -11  -7   9   -0.22    0.26 
 -10  -7   9    0.41    0.24 
 -10  -7   9    0.32    0.30 
  -9  -7   9    0.78    0.29 
  -9  -7   9    0.55    0.21 
  -8  -7   9    0.45    0.26 
  -8  -7   9    0.20    0.18 
  -7  -7   9   -0.14    0.14 
  -7  -7   9    0.21    0.21 
  -6  -7   9    2.01    0.26 
  -6  -7   9    2.18    0.36 
  -5  -7   9    0.84    0.19 
  -5  -7   9    1.43    0.28 
  -4  -7   9    3.48    0.39 
  -4  -7   9    3.92    0.32 
  -3  -7   9    1.03    0.21 
  -3  -7   9    1.24    0.20 
  -2  -7   9    3.93    0.33 
  -2  -7   9    3.20    0.28 
   1   7  -9   43.43    1.67 
  -1  -7   9   42.01    1.59 
  -1  -7   9   37.78    1.62 
   0   7  -9    4.06    0.33 
   0  -7   9    4.27    0.33 
   0  -7   9    4.50    0.29 
  -1   7  -9   40.93    1.80 
   1  -7   9   42.48    1.65 
   1  -7   9   43.13    1.60 
  -2   7  -9    3.58    0.38 
   2  -7   9    3.35    0.32 
  -3   7  -9    1.08    0.24 
   3  -7   9    0.78    0.20 
  -4   7  -9    3.64    0.47 
   4  -7   9    3.40    0.36 
  -5   7  -9    0.91    0.29 
   5  -7   9    1.03    0.26 
  -6   7  -9    1.87    0.42 
   6  -7   9    1.97    0.33 
  -7   7  -9    0.11    0.26 
   7  -7   9    0.14    0.19 
  -8   7  -9    0.47    0.33 
  -9   7  -9    0.70    0.41 
 -10   7  -9   -0.19    0.32 
 -11   7  -9    0.19    0.40 
 -12  -6   9    0.11    0.28 
 -11  -6   9   -0.16    0.21 
 -10  -6   9    0.21    0.21 
  -9  -6   9    0.16    0.20 
  -8  -6   9    0.96    0.23 
  -7  -6   9    0.90    0.22 
  -6  -6   9    0.48    0.17 
  -5  -6   9    1.70    0.24 
  -4  -6   9    2.58    0.26 
  -3  -6   9    7.81    0.43 
  -3  -6   9    6.75    0.46 
  -2  -6   9    1.51    0.22 
  -2  -6   9    1.47    0.20 
   1   6  -9    0.25    0.11 
  -1  -6   9    0.11    0.12 
  -1  -6   9    0.16    0.08 
   0   6  -9    0.02    0.11 
   0  -6   9   -0.09    0.10 
   0  -6   9   -0.09    0.07 
  -1   6  -9    0.27    0.15 
   1  -6   9    0.29    0.14 
   1  -6   9    0.39    0.09 
  -2   6  -9    1.57    0.26 
   2  -6   9    1.37    0.22 
  -3   6  -9    6.79    0.53 
   3  -6   9    7.61    0.46 
  -4   6  -9    2.60    0.40 
   4  -6   9    2.65    0.32 
  -5   6  -9    1.30    0.33 
   5  -6   9    1.38    0.27 
  -6   6  -9    0.15    0.28 
   6  -6   9    0.70    0.22 
  -7   6  -9    0.73    0.32 
   7  -6   9    0.86    0.24 
  -8   6  -9    1.22    0.36 
  -9   6  -9    0.82    0.37 
 -10   6  -9    0.24    0.35 
 -11   6  -9    0.14    0.45 
 -12   6  -9   -0.10    0.46 
 -12  -5   9   -0.01    0.27 
 -11  -5   9    0.44    0.25 
 -10  -5   9    2.07    0.34 
  -9  -5   9    0.84    0.25 
  -8  -5   9    3.89    0.38 
  -7  -5   9    3.32    0.34 
  -6  -5   9    4.15    0.36 
  -5  -5   9    5.07    0.36 
  -4  -5   9    7.80    0.45 
  -3  -5   9   13.68    0.64 
   2   5  -9    7.70    0.37 
  -2  -5   9    8.02    0.42 
   1   5  -9   29.13    1.20 
  -1  -5   9   28.00    1.13 
   0   5  -9    6.22    0.41 
   0  -5   9    6.28    0.34 
   0  -5   9    5.93    0.35 
  -1   5  -9   28.17    1.28 
   1  -5   9   28.63    1.08 
   1  -5   9   26.93    1.12 
   2  -5   9    5.49    0.39 
   2  -5   9    7.29    0.48 
   2  -5   9    8.14    0.31 
   3  -5   9   13.26    0.76 
   3  -5   9   15.14    0.70 
   4  -5   9    7.68    0.56 
   4  -5   9    7.78    0.48 
   5  -5   9    4.18    0.47 
   5  -5   9    4.34    0.39 
   6  -5   9    3.69    0.48 
   6  -5   9    4.05    0.40 
  -7   5  -9    3.23    0.52 
   7  -5   9    3.55    0.40 
  -8   5  -9    3.40    0.56 
  -9   5  -9    0.86    0.39 
 -10   5  -9    1.85    0.54 
 -11   5  -9    0.03    0.44 
 -12   5  -9    0.45    0.48 
 -12  -4   9    0.35    0.30 
 -11  -4   9    0.39    0.25 
 -10  -4   9    0.68    0.24 
  -9  -4   9    1.74    0.31 
  -8  -4   9    5.31    0.44 
  -7  -4   9    2.86    0.33 
  -6  -4   9   14.57    0.73 
  -5  -4   9    1.04    0.20 
  -4  -4   9   17.62    0.79 
  -3  -4   9    3.17    0.27 
   2   4  -9    1.69    0.15 
  -2  -4   9    1.44    0.19 
  -1  -4   9    0.95    0.15 
   0  -4   9    7.96    0.44 
   0  -4   9    7.93    0.41 
   1  -4   9    0.79    0.15 
   1  -4   9    0.96    0.19 
   1  -4   9    1.04    0.11 
   2  -4   9    1.53    0.19 
   2  -4   9    1.52    0.10 
   2  -4   9    2.00    0.26 
   3  -4   9    2.92    0.33 
   3  -4   9    3.07    0.27 
   4  -4   9   16.19    0.87 
   4  -4   9   15.19    0.74 
   5  -4   9    0.91    0.22 
   5  -4   9    0.68    0.24 
   6  -4   9   12.31    0.79 
   6  -4   9   11.66    0.68 
   7  -4   9    2.99    0.37 
   7  -4   9    2.68    0.43 
   8  -4   9    5.79    0.61 
   9  -4   9    2.07    0.44 
 -10   4  -9    0.33    0.38 
 -11   4  -9    0.60    0.46 
 -12   4  -9   -0.71    0.43 
 -12  -3   9    0.04    0.28 
 -11  -3   9    0.42    0.24 
 -10  -3   9    0.75    0.26 
  -9  -3   9    4.89    0.46 
  -8  -3   9    0.52    0.20 
  -7  -3   9    0.03    0.17 
  -6  -3   9    0.76    0.21 
  -5  -3   9   15.64    0.74 
  -4  -3   9    1.43    0.22 
  -3  -3   9    4.59    0.31 
  -2  -3   9    3.01    0.19 
  -2  -3   9    2.91    0.24 
  -1  -3   9    6.57    0.36 
  -1  -3   9    7.27    0.38 
   0  -3   9    7.16    0.41 
   0  -3   9    7.08    0.37 
   1  -3   9    6.27    0.36 
   1  -3   9    7.50    0.43 
   2  -3   9    2.61    0.23 
   2  -3   9    2.96    0.30 
   3  -3   9    3.76    0.37 
   3  -3   9    4.41    0.29 
   4  -3   9    0.99    0.23 
   4  -3   9    1.40    0.20 
   5  -3   9   14.43    0.74 
   5  -3   9   15.69    0.88 
   6  -3   9    0.55    0.26 
   6  -3   9    0.54    0.20 
   7  -3   9   -0.02    0.22 
   7  -3   9    0.09    0.18 
   8  -3   9   -0.07    0.19 
   9  -3   9    5.02    0.61 
  10  -3   9    1.19    0.36 
  11  -3   9    0.53    0.37 
 -12   3  -9    0.80    0.49 
 -12  -2   9    1.57    0.40 
 -11  -2   9    0.72    0.31 
 -10  -2   9    0.32    0.26 
  -9  -2   9    3.23    0.41 
  -8  -2   9    4.60    0.44 
  -7  -2   9    1.38    0.26 
  -6  -2   9   11.69    0.63 
  -5  -2   9    2.16    0.27 
  -4  -2   9    3.78    0.31 
  -3  -2   9   10.38    0.44 
  -3  -2   9    9.91    0.51 
  -2  -2   9    0.97    0.13 
  -2  -2   9    1.14    0.16 
  -1  -2   9    2.07    0.20 
  -1  -2   9    2.25    0.20 
   0  -2   9    0.20    0.09 
   0  -2   9    0.24    0.11 
   1  -2   9    1.97    0.24 
   1  -2   9    2.25    0.20 
   2  -2   9    0.94    0.15 
   2  -2   9    1.11    0.21 
   3  -2   9    9.21    0.56 
   3  -2   9    8.32    0.44 
   4  -2   9    4.37    0.42 
   4  -2   9    4.45    0.31 
   5  -2   9    1.73    0.24 
   5  -2   9    1.92    0.33 
   6  -2   9   11.65    0.64 
   6  -2   9   10.52    0.72 
   7  -2   9    1.75    0.30 
   7  -2   9    1.38    0.32 
   8  -2   9    5.42    0.59 
   9  -2   9    2.18    0.44 
  10  -2   9    0.03    0.23 
  11  -2   9    0.43    0.30 
  12  -2   9    1.18    0.45 
 -12  -1   9    0.38    0.30 
 -11  -1   9    0.37    0.26 
 -10  -1   9    0.79    0.27 
  -9  -1   9    4.37    0.46 
  -8  -1   9    0.44    0.23 
  -7  -1   9    0.62    0.23 
  -6  -1   9    4.12    0.38 
  -5  -1   9    3.18    0.32 
  -4  -1   9    0.41    0.08 
  -4  -1   9    0.33    0.15 
  -3  -1   9    3.35    0.27 
  -3  -1   9    3.52    0.21 
  -2  -1   9    4.12    0.27 
  -2  -1   9    4.15    0.25 
  -1  -1   9   20.64    0.88 
  -1  -1   9   20.02    0.83 
   0  -1   9    4.58    0.30 
   0  -1   9    4.31    0.26 
   1  -1   9   20.52    0.93 
   1  -1   9   20.18    0.82 
   2  -1   9    3.81    0.25 
   2  -1   9    3.91    0.34 
   3  -1   9    3.58    0.25 
   3  -1   9    3.43    0.35 
   4  -1   9    0.56    0.17 
   4  -1   9    0.49    0.12 
   5  -1   9    2.78    0.38 
   5  -1   9    3.13    0.29 
   6  -1   9    4.56    0.49 
   6  -1   9    3.56    0.34 
   7  -1   9    0.33    0.24 
   7  -1   9    0.48    0.20 
   8  -1   9    0.39    0.25 
   9  -1   9    3.72    0.53 
  10  -1   9    0.90    0.36 
  11  -1   9    0.47    0.33 
  12  -1   9    0.32    0.32 
  13  -1   9    0.93    0.49 
 -12   0   9    0.81    0.33 
 -11   0   9    0.36    0.24 
 -10   0   9    0.53    0.27 
  -9   0   9    2.23    0.36 
  -8   0   9    3.74    0.41 
  -7   0   9    0.46    0.19 
  -6   0   9   50.78    2.01 
  -5   0   9    0.27    0.18 
  -4   0   9    5.19    0.36 
  -4   0   9    5.00    0.28 
  -3   0   9    9.83    0.46 
  -3   0   9    9.25    0.49 
  -2   0   9    2.84    0.24 
  -2   0   9    3.01    0.22 
  -1   0   9   25.08    1.07 
  -1   0   9   25.68    1.00 
   0   0   9    0.07    0.07 
   0   0   9    0.01    0.09 
   1   0   9   23.49    0.92 
   1   0   9   23.86    1.06 
   2   0   9    2.90    0.29 
   2   0   9    2.58    0.20 
   3   0   9    9.27    0.44 
   3   0   9    8.11    0.53 
   4   0   9    5.23    0.45 
   4   0   9    5.09    0.32 
   5   0   9    0.23    0.19 
   5   0   9    0.16    0.12 
   6   0   9   48.57    1.88 
   6   0   9   48.09    2.14 
   7   0   9    0.66    0.22 
   7   0   9    0.66    0.28 
   8   0   9    3.90    0.51 
   9   0   9    2.28    0.42 
  10   0   9    0.36    0.26 
  11   0   9    0.53    0.35 
  12   0   9    0.70    0.38 
  13   0   9    0.13    0.36 
 -12   1   9    0.08    0.30 
 -11   1   9    0.73    0.33 
 -10   1   9    1.06    0.32 
  -9   1   9    3.05    0.41 
  -8   1   9    0.27    0.19 
  -7   1   9    0.30    0.19 
  -6   1   9    3.60    0.37 
  -5   1   9    3.25    0.25 
  -5   1   9    3.15    0.34 
  -4   1   9    0.48    0.16 
  -4   1   9    0.34    0.12 
  -3   1   9    3.47    0.24 
  -3   1   9    3.58    0.27 
  -2   1   9    4.34    0.29 
  -2   1   9    4.43    0.29 
  -1   1   9   21.81    0.88 
  -1   1   9   22.00    0.96 
   0   1   9    4.57    0.32 
   0   1   9    4.73    0.27 
   1   1   9   20.39    0.80 
   1   1   9   19.99    0.93 
   2   1   9    4.41    0.35 
   2   1   9    4.36    0.26 
   3   1   9    3.11    0.32 
   3   1   9    3.18    0.22 
   4   1   9    0.44    0.12 
   4   1   9    0.51    0.19 
   5   1   9    1.80    0.31 
   5   1   9    3.10    0.26 
   6   1   9    4.53    0.35 
   6   1   9    4.39    0.48 
   7   1   9    0.42    0.22 
   8   1   9    0.53    0.26 
   9   1   9    2.42    0.43 
  10   1   9    0.96    0.34 
  11   1   9    0.57    0.31 
  12   1   9    0.46    0.37 
  13   1   9    0.54    0.46 
 -12   2   9    1.66    0.43 
 -11   2   9    0.39    0.30 
 -10   2   9    0.16    0.24 
  -9   2   9    2.49    0.40 
  -8   2   9    4.36    0.45 
  -7   2   9    1.19    0.27 
  -6   2   9   11.81    0.59 
  -6   2   9   11.56    0.66 
  -5   2   9    1.58    0.25 
  -5   2   9    2.27    0.22 
  -4   2   9    4.70    0.35 
  -4   2   9    4.73    0.31 
  -3   2   9    9.80    0.50 
  -3   2   9   10.10    0.51 
  -2   2   9    0.87    0.15 
  -2   2   9    0.61    0.14 
  -1   2   9    2.10    0.23 
  -1   2   9    2.30    0.20 
   0   2   9    0.42    0.13 
   0   2   9    0.40    0.10 
   1   2   9    1.99    0.16 
   1   2   9    1.95    0.24 
   2   2   9    0.86    0.12 
   2   2   9    1.18    0.21 
   3   2   9    9.48    0.44 
   3   2   9    8.90    0.56 
   4   2   9    4.24    0.27 
   4   2   9    4.93    0.43 
   5   2   9    1.64    0.19 
   5   2   9    1.70    0.31 
   6   2   9    5.68    0.36 
   7   2   9    1.26    0.31 
   8   2   9    4.45    0.54 
   9   2   9    2.35    0.44 
  10   2   9   -0.01    0.24 
  11   2   9    0.15    0.34 
  12   2   9    0.84    0.42 
 -12   3   9   -0.21    0.31 
 -11   3   9    0.90    0.36 
 -10   3   9    0.92    0.33 
  -9   3   9    4.67    0.51 
  -8   3   9    0.41    0.23 
  -7   3   9    0.37    0.19 
  -6   3   9    0.35    0.21 
  -6   3   9    0.72    0.17 
  -5   3   9   15.25    0.77 
  -5   3   9   14.94    0.72 
  -4   3   9    1.45    0.20 
  -4   3   9    1.44    0.22 
  -3   3   9    4.81    0.33 
  -3   3   9    5.10    0.34 
  -2   3   9    2.56    0.23 
  -2   3   9    2.83    0.26 
  -1   3   9    7.82    0.45 
  -1   3   9    7.47    0.39 
   0   3   9    7.15    0.44 
   0   3   9    6.74    0.35 
   1   3   9    7.27    0.34 
   1   3   9    6.87    0.45 
   2   3   9    3.02    0.31 
   3   3   9    3.53    0.23 
   3   3   9    5.19    0.41 
   4   3   9    1.13    0.24 
   4   3   9    1.10    0.15 
  -5  -3  -9   14.04    0.63 
   5   3   9   15.07    0.66 
   5   3   9   15.84    0.87 
   6   3   9    0.69    0.16 
   6   3   9    0.54    0.24 
   7   3   9    0.02    0.19 
   8   3   9    0.13    0.19 
   9   3   9    4.97    0.59 
  10   3   9    0.63    0.33 
  11   3   9    0.57    0.35 
  12   3   9    0.07    0.35 
 -12   4   9    0.14    0.31 
 -11   4   9    0.38    0.31 
 -10   4   9    0.33    0.23 
  -9   4   9    2.20    0.37 
  -8   4   9    5.31    0.50 
  -7   4   9    3.71    0.33 
  -7   4   9    2.57    0.37 
  -6   4   9   12.56    0.72 
  -6   4   9   12.61    0.66 
  -5   4   9    0.78    0.22 
  -5   4   9    1.08    0.20 
  -4   4   9   16.53    0.78 
  -4   4   9   16.05    0.78 
  -3   4   9    3.39    0.30 
  -3   4   9    3.75    0.31 
  -2   4   9    1.74    0.23 
  -2   4   9    1.46    0.19 
  -1   4   9    0.83    0.14 
  -1   4   9    0.75    0.17 
   0   4   9    9.59    0.44 
   0   4   9    9.36    0.54 
   1   4   9    0.81    0.19 
   2   4   9    1.35    0.13 
   2   4   9    1.31    0.24 
   3   4   9    3.22    0.36 
   3   4   9    2.99    0.20 
   4   4   9   16.78    0.90 
   4   4   9   16.17    0.68 
  -5  -4  -9    1.37    0.17 
   5   4   9    1.01    0.15 
   5   4   9    0.35    0.21 
  -6  -4  -9   12.17    0.56 
   6   4   9   11.42    0.76 
   7   4   9    2.90    0.43 
   8   4   9    5.82    0.61 
   9   4   9    2.40    0.44 
  10   4   9    0.26    0.30 
  11   4   9    0.39    0.34 
  12   4   9    0.30    0.35 
 -12   5   9   -0.22    0.27 
 -11   5   9    0.69    0.33 
 -10   5   9    0.81    0.31 
  -9   5   9    0.65    0.27 
  -8   5   9    3.21    0.42 
  -7   5   9    3.78    0.42 
  -7   5   9    3.39    0.34 
  -6   5   9    4.15    0.41 
  -6   5   9    4.27    0.36 
  -5   5   9    4.50    0.38 
  -5   5   9    4.80    0.41 
  -4   5   9    7.27    0.47 
  -4   5   9    8.14    0.48 
  -3   5   9   15.29    0.72 
  -3   5   9   15.59    0.76 
  -2   5   9    8.41    0.50 
  -2   5   9    7.53    0.43 
  -1   5   9   28.34    1.10 
  -1   5   9   28.11    1.24 
   0   5   9    6.88    0.45 
   1   5   9   29.35    1.09 
   1   5   9   28.56    1.30 
   2   5   9    7.22    0.50 
   2   5   9    7.89    0.35 
   3   5   9   16.61    0.86 
   3   5   9   15.17    0.62 
  -4  -5  -9    8.29    0.44 
   4   5   9    8.03    0.39 
   4   5   9    8.77    0.59 
  -5  -5  -9    5.19    0.32 
   5   5   9    4.04    0.46 
  -6  -5  -9    4.36    0.30 
   6   5   9    4.51    0.49 
   7   5   9    3.02    0.44 
   8   5   9    3.68    0.49 
   9   5   9    1.18    0.36 
  10   5   9    1.85    0.45 
  11   5   9    0.71    0.38 
  12   5   9    0.10    0.32 
 -12   6   9    0.19    0.36 
 -11   6   9    0.63    0.33 
 -10   6   9    0.51    0.27 
  -9   6   9    0.96    0.30 
  -8   6   9    1.02    0.27 
  -8   6   9    1.39    0.28 
  -7   6   9    0.99    0.24 
  -7   6   9    0.52    0.24 
  -6   6   9    0.46    0.20 
  -6   6   9    0.67    0.21 
  -5   6   9    1.54    0.27 
  -5   6   9    1.44    0.25 
  -4   6   9    2.81    0.30 
  -4   6   9    2.46    0.30 
  -3   6   9    7.75    0.45 
  -3   6   9    7.67    0.49 
  -2   6   9    1.48    0.20 
  -2   6   9    1.83    0.25 
  -1   6   9    0.12    0.10 
  -1   6   9    0.07    0.13 
   0   6   9    0.02    0.08 
   0   6   9   -0.01    0.12 
   1   6   9    0.23    0.08 
   1   6   9    0.04    0.14 
   2   6   9    1.75    0.29 
   2   6   9    1.32    0.12 
   3   6   9    7.62    0.55 
  -4  -6  -9    2.95    0.26 
   4   6   9    2.44    0.36 
  -5  -6  -9    1.74    0.22 
   5   6   9    1.67    0.32 
  -6  -6  -9    0.36    0.14 
   6   6   9    0.54    0.24 
  -7  -6  -9    0.65    0.17 
   7   6   9    0.78    0.27 
   8   6   9    1.45    0.35 
   9   6   9    0.37    0.27 
  10   6   9    0.41    0.32 
  11   6   9    0.71    0.37 
  12   6   9    0.41    0.44 
 -11   7   9    0.46    0.34 
 -10   7   9   -0.05    0.24 
  -9   7   9    0.50    0.29 
  -8   7   9    0.50    0.23 
  -8   7   9   -0.01    0.21 
  -7   7   9    0.14    0.20 
  -7   7   9    0.17    0.20 
  -6   7   9    2.09    0.31 
  -6   7   9    2.24    0.34 
  -5   7   9    0.98    0.24 
  -5   7   9    0.90    0.24 
  -4   7   9    3.33    0.35 
  -4   7   9    2.78    0.32 
  -3   7   9    1.47    0.21 
  -3   7   9    0.93    0.23 
  -2   7   9    4.56    0.32 
  -2   7   9    4.23    0.39 
  -1   7   9   44.74    1.90 
   0   7   9    4.43    0.27 
   0   7   9    4.05    0.39 
   1   7   9   45.18    1.94 
   1   7   9   45.63    1.64 
   2   7   9    4.02    0.41 
   3   7   9    0.78    0.23 
  -4  -7  -9    3.65    0.32 
   4   7   9    3.20    0.42 
  -5  -7  -9    0.95    0.21 
   5   7   9    1.05    0.29 
  -6  -7  -9    2.18    0.26 
   6   7   9    2.34    0.39 
  -7  -7  -9   -0.03    0.14 
   7   7   9    0.03    0.19 
   8   7   9    0.17    0.23 
   9   7   9    0.38    0.28 
  10   7   9    0.21    0.32 
  11   7   9   -0.16    0.34 
 -11   8   9    0.41    0.36 
 -10   8   9    0.18    0.30 
  -9   8   9    0.04    0.25 
  -9   8   9    0.02    0.24 
  -8   8   9   -0.03    0.20 
  -8   8   9   -0.21    0.20 
  -7   8   9    0.31    0.22 
  -7   8   9    0.44    0.24 
  -6   8   9    1.63    0.30 
  -6   8   9    1.15    0.28 
  -5   8   9    4.34    0.41 
  -5   8   9    4.39    0.44 
  -4   8   9   18.60    0.89 
  -4   8   9   19.08    0.96 
  -3   8   9    6.93    0.44 
  -3   8   9    7.29    0.51 
  -2   8   9   18.43    0.81 
  -2   8   9   18.72    0.95 
  -1   8   9    1.92    0.32 
  -1   8   9    2.04    0.21 
   0   8   9    3.53    0.25 
   0   8   9    3.44    0.38 
   1   8   9    1.37    0.28 
   2   8   9   18.53    0.99 
   3   8   9    7.48    0.57 
  -4  -8  -9   18.01    0.87 
   4   8   9   19.60    1.05 
  -5  -8  -9    4.42    0.37 
   5   8   9    4.30    0.50 
  -6  -8  -9    1.69    0.25 
   6   8   9    1.20    0.33 
  -7  -8  -9    0.31    0.18 
   7   8   9    0.40    0.27 
   8   8   9   -0.04    0.22 
   9   8   9    0.34    0.31 
  10   8   9    0.38    0.34 
  11   8   9    0.28    0.38 
 -10   9   9    1.28    0.40 
  -9   9   9    0.00    0.24 
  -9   9   9    0.06    0.25 
  -8   9   9    1.38    0.33 
  -8   9   9    1.30    0.34 
  -7   9   9    0.73    0.26 
  -7   9   9    0.18    0.23 
  -6   9   9   -0.04    0.18 
  -6   9   9    0.15    0.21 
  -5   9   9    1.48    0.27 
  -5   9   9    2.50    0.37 
  -4   9   9    6.72    0.47 
  -4   9   9    7.01    0.53 
  -3   9   9    2.79    0.35 
  -3   9   9    1.94    0.25 
  -2   9   9    8.38    0.58 
  -1   9   9   17.69    0.77 
  -1   9   9   18.13    0.96 
   0   9   9   54.55    2.31 
   1   9   9   16.50    0.92 
   2   9   9    8.57    0.61 
   3   9   9    1.96    0.36 
  -4  -9  -9    6.42    0.45 
   4   9   9    5.84    0.56 
  -5  -9  -9    2.25    0.30 
   5   9   9    1.83    0.37 
  -6  -9  -9   -0.25    0.15 
   6   9   9    0.07    0.22 
  -7  -9  -9    0.90    0.23 
   7   9   9    1.81    0.41 
  -8  -9  -9    1.03    0.25 
   8   9   9    1.32    0.36 
   9   9   9    0.33    0.32 
  10   9   9    0.31    0.37 
  11   9   9    0.17    0.42 
 -10  10   9    0.42    0.34 
  -9  10   9    0.29    0.29 
  -9  10   9    0.08    0.28 
  -8  10   9    0.66    0.28 
  -8  10   9    0.96    0.31 
  -7  10   9    0.15    0.25 
  -7  10   9   -0.17    0.19 
  -6  10   9    1.40    0.32 
  -6  10   9    1.71    0.32 
  -5  10   9    0.00    0.19 
  -5  10   9    0.00    0.21 
  -4  10   9    2.38    0.36 
  -4  10   9    1.38    0.27 
  -3  10   9    0.63    0.24 
  -3  10   9    0.63    0.22 
  -2  10   9    4.50    0.45 
  -1  10   9    3.04    0.39 
   0  10   9    1.01    0.28 
   1  10   9    2.93    0.39 
   2  10   9    5.52    0.52 
   3  10   9    0.20    0.22 
  -4 -10  -9    1.48    0.27 
   4  10   9    2.13    0.37 
  -5 -10  -9    0.15    0.19 
   5  10   9    0.19    0.24 
  -6 -10  -9    1.28    0.28 
   6  10   9    1.58    0.40 
  -7 -10  -9    0.38    0.21 
   7  10   9    0.13    0.23 
  -8 -10  -9    2.12    0.32 
   8  10   9    2.07    0.46 
   9  10   9   -0.07    0.30 
  10  10   9    0.67    0.42 
  -9  11   9    0.25    0.30 
  -9  11   9    0.38    0.32 
  -8  11   9   -0.01    0.27 
  -8  11   9    0.40    0.28 
  -7  11   9    0.51    0.30 
  -7  11   9    0.10    0.26 
  -6  11   9    0.02    0.22 
  -6  11   9    0.14    0.23 
  -5  11   9    0.26    0.25 
  -5  11   9    0.08    0.20 
  -4  11   9    0.23    0.19 
  -4  11   9    0.02    0.22 
  -3  11   9    2.00    0.34 
  -2  11   9    0.18    0.20 
  -1  11   9    0.66    0.26 
   0  11   9    3.89    0.46 
   1  11   9    0.32    0.23 
   2  11   9    0.23    0.23 
   3  11   9    2.11    0.38 
  -4 -11  -9   -0.16    0.18 
   4  11   9    0.45    0.26 
  -5 -11  -9    0.27    0.22 
   5  11   9    0.04    0.23 
  -6 -11  -9    0.33    0.23 
   6  11   9   -0.18    0.24 
  -7 -11  -9    0.07    0.20 
   7  11   9   -0.08    0.29 
  -8 -11  -9    0.38    0.26 
   8  11   9    0.69    0.36 
   9  11   9   -0.10    0.34 
  -9  12   9    1.45    0.41 
  -9  12   9    1.44    0.41 
  -8  12   9    0.22    0.31 
  -8  12   9    0.61    0.35 
  -7  12   9    0.49    0.33 
  -7  12   9    1.41    0.34 
  -6  12   9    0.44    0.31 
  -6  12   9    0.36    0.25 
  -5  12   9    1.54    0.38 
  -5  12   9    1.94    0.35 
  -4  12   9    1.36    0.33 
  -3  12   9    0.46    0.25 
  -2  12   9   -0.14    0.21 
  -1  12   9    0.00    0.22 
   0  12   9    2.78    0.44 
   1  12   9    0.22    0.24 
   2  12   9    0.48    0.24 
   3  12   9    0.56    0.27 
   4  12   9    1.35    0.36 
  -5 -12  -9    2.41    0.37 
   5  12   9    1.49    0.40 
  -6 -12  -9    0.45    0.25 
   6  12   9    0.32    0.30 
  -7 -12  -9    0.72    0.28 
   7  12   9    1.75    0.44 
  -8 -12  -9    0.99    0.32 
   8  12   9    0.17    0.34 
   9  12   9    2.04    0.53 
  -8  13   9    0.01    0.32 
  -8  13   9   -0.24    0.28 
  -7  13   9    0.37    0.32 
  -7  13   9    0.71    0.36 
  -6  13   9    2.20    0.44 
  -5  13   9   -0.07    0.27 
  -4  13   9    3.65    0.49 
  -3  13   9    0.71    0.32 
  -2  13   9    1.42    0.34 
  -1  13   9    0.53    0.27 
   0  13   9    0.79    0.30 
   1  13   9    0.55    0.28 
   2  13   9    1.68    0.37 
   3  13   9    0.70    0.29 
   4  13   9    3.20    0.51 
  -5 -13  -9   -0.04    0.22 
   5  13   9   -0.28    0.26 
  -6 -13  -9    1.72    0.35 
   6  13   9    1.52    0.45 
  -7 -13  -9    0.56    0.30 
   7  13   9    0.27    0.35 
  -8 -13  -9   -0.06    0.29 
   8  13   9   -0.27    0.36 
  -7  14   9    1.99    0.50 
  -6  14   9    0.77    0.40 
  -5  14   9    2.57    0.48 
  -4  14   9    1.76    0.41 
  -3  14   9    0.52    0.31 
  -2  14   9    0.73    0.31 
  -1  14   9    1.25    0.35 
   0  14   9    0.78    0.32 
   1  14   9    1.27    0.34 
   2  14   9    0.12    0.26 
   3  14   9    0.65    0.32 
   4  14   9    1.79    0.44 
  -5 -14  -9    2.38    0.41 
   5  14   9    2.91    0.52 
  -6 -14  -9    0.31    0.31 
   6  14   9    0.71    0.38 
  -7 -14  -9    2.01    0.43 
   7  14   9    1.92    0.51 
  -6  15   9    0.59    0.43 
  -5  15   9    0.02    0.35 
  -4  15   9    0.32    0.36 
  -3  15   9    1.06    0.40 
  -2  15   9    0.92    0.38 
  -1  15   9    1.59    0.43 
   0  15   9    0.61    0.32 
   1  15   9    1.18    0.37 
   2  15   9    0.52    0.30 
   3  15   9    1.52    0.41 
   4  15   9    0.65    0.37 
   5  15   9   -0.05    0.29 
  -6 -15  -9    0.36    0.33 
   6  15   9    0.27    0.38 
  -4  16   9    0.31    0.40 
  -3  16   9    0.64    0.39 
  -2  16   9   -0.52    0.30 
  -1  16   9    0.06    0.32 
   0  16   9   -0.21    0.29 
   1  16   9    0.06    0.30 
   2  16   9    0.28    0.35 
   3  16   9    0.85    0.41 
   4  16   9    0.00    0.35 
   0  17   9    0.59    0.36 
   0 -16  10    0.76    0.37 
   1 -16  10    0.67    0.34 
   2 -16  10    0.36    0.36 
   3 -16  10    1.08    0.43 
  -5 -15  10    1.18    0.37 
  -4 -15  10    1.77    0.39 
  -1 -15  10    0.31    0.26 
   0 -15  10    0.05    0.27 
   1 -15  10   -0.17    0.26 
   2 -15  10    0.33    0.31 
   3 -15  10    0.75    0.38 
  -4  15 -10    1.60    0.49 
   4 -15  10    2.32    0.48 
  -5  15 -10    1.15    0.47 
   5 -15  10    0.78    0.40 
  -6 -14  10    0.98    0.37 
  -5 -14  10    0.56    0.29 
  -4 -14  10    0.50    0.27 
  -3 -14  10    0.07    0.24 
  -3 -14  10    0.45    0.26 
  -2 -14  10    0.18    0.22 
  -1 -14  10   -0.13    0.22 
   0 -14  10    1.17    0.30 
   1 -14  10    0.03    0.24 
   2 -14  10   -0.03    0.24 
   3 -14  10    0.10    0.26 
  -4  14 -10    0.14    0.33 
   4 -14  10    0.82    0.35 
  -5  14 -10    0.36    0.36 
   5 -14  10    0.63    0.35 
  -6  14 -10    1.32    0.47 
  -7 -13  10    0.64    0.35 
  -6 -13  10    1.70    0.40 
  -5 -13  10    2.18    0.41 
  -4 -13  10    0.37    0.23 
  -4 -13  10    0.38    0.21 
  -3 -13  10    0.53    0.22 
  -3 -13  10    0.24    0.20 
  -2 -13  10    0.25    0.22 
  -2 -13  10   -0.06    0.18 
  -1 -13  10    0.89    0.25 
   0 -13  10    0.78    0.26 
   1 -13  10    1.06    0.29 
   2 -13  10    0.02    0.22 
  -3  13 -10    0.30    0.32 
   3 -13  10    0.27    0.26 
  -4  13 -10    0.62    0.33 
   4 -13  10    0.37    0.27 
  -5  13 -10    1.61    0.45 
   5 -13  10    2.53    0.46 
  -6  13 -10    1.33    0.46 
   6 -13  10    1.16    0.41 
  -7  13 -10    0.81    0.46 
  -8 -12  10    0.15    0.32 
  -7 -12  10    0.53    0.29 
  -6 -12  10    0.65    0.30 
  -5 -12  10    0.96    0.29 
  -5 -12  10    0.75    0.24 
  -4 -12  10    1.86    0.35 
  -4 -12  10    1.45    0.27 
  -3 -12  10    0.80    0.24 
  -3 -12  10    1.57    0.29 
  -2 -12  10    0.55    0.22 
  -2 -12  10    0.69    0.23 
  -1 -12  10    2.09    0.33 
   0 -12  10    1.36    0.29 
   1 -12  10    2.65    0.37 
  -2  12 -10    0.63    0.29 
   2 -12  10    0.89    0.27 
  -3  12 -10    1.34    0.35 
   3 -12  10    1.73    0.35 
  -4  12 -10    1.46    0.40 
   4 -12  10    1.75    0.36 
  -5  12 -10    0.82    0.34 
   5 -12  10    0.66    0.31 
  -6  12 -10    0.22    0.34 
   6 -12  10    0.24    0.29 
  -7  12 -10    0.20    0.36 
  -8  12 -10   -0.44    0.39 
  -9 -11  10    0.60    0.36 
  -8 -11  10    0.44    0.29 
  -7 -11  10    0.09    0.20 
  -7 -11  10    0.32    0.29 
  -6 -11  10    0.40    0.19 
  -6 -11  10    0.61    0.25 
  -5 -11  10    0.83    0.22 
  -5 -11  10    0.92    0.27 
  -4 -11  10    0.65    0.24 
  -4 -11  10    0.27    0.18 
  -3 -11  10    0.07    0.21 
  -3 -11  10    0.23    0.18 
  -2 -11  10    0.93    0.23 
  -2 -11  10    1.22    0.25 
  -1 -11  10    1.97    0.29 
  -1 -11  10    1.95    0.30 
   0 -11  10   -0.10    0.16 
   1 -11  10    1.55    0.30 
  -2  11 -10    1.05    0.31 
   2 -11  10    0.78    0.26 
  -3  11 -10    0.52    0.27 
   3 -11  10    0.08    0.17 
  -4  11 -10    0.25    0.27 
   4 -11  10    0.22    0.22 
  -5  11 -10    1.18    0.37 
   5 -11  10    1.37    0.32 
  -6  11 -10    0.17    0.31 
   6 -11  10    0.59    0.29 
  -7  11 -10    0.53    0.38 
   7 -11  10    0.01    0.26 
  -8  11 -10    0.08    0.38 
  -9  11 -10    0.04    0.46 
 -10 -10  10    0.91    0.41 
  -9 -10  10    0.41    0.32 
  -8 -10  10    1.03    0.35 
  -8 -10  10    0.23    0.21 
  -7 -10  10    0.31    0.25 
  -7 -10  10   -0.04    0.17 
  -6 -10  10    0.37    0.25 
  -6 -10  10    0.67    0.20 
  -5 -10  10    3.56    0.44 
  -5 -10  10    3.57    0.34 
  -4 -10  10    0.21    0.20 
  -4 -10  10    0.73    0.20 
  -3 -10  10    2.23    0.28 
  -3 -10  10    2.32    0.33 
  -2 -10  10   -0.13    0.17 
  -2 -10  10    0.20    0.17 
  -1 -10  10   14.86    0.73 
  -1 -10  10   14.41    0.73 
   0 -10  10    4.56    0.41 
  -1  10 -10   13.24    0.80 
   1 -10  10   16.11    0.78 
  -2  10 -10   -0.17    0.20 
   2 -10  10   -0.04    0.16 
  -3  10 -10    2.10    0.39 
   3 -10  10    2.30    0.34 
  -4  10 -10   -0.07    0.23 
   4 -10  10    0.02    0.21 
  -5  10 -10    3.35    0.53 
   5 -10  10    3.58    0.45 
  -6  10 -10   -0.04    0.29 
   6 -10  10    0.23    0.22 
  -7  10 -10    0.23    0.31 
   7 -10  10    0.06    0.23 
  -8  10 -10    0.55    0.41 
  -9  10 -10    0.25    0.36 
 -10  10 -10    0.74    0.51 
 -10  -9  10    0.28    0.34 
  -9  -9  10    0.55    0.22 
  -9  -9  10    1.48    0.42 
  -8  -9  10   -0.23    0.22 
  -8  -9  10    0.51    0.19 
  -7  -9  10    0.45    0.19 
  -7  -9  10    0.39    0.26 
  -6  -9  10   -0.15    0.17 
  -6  -9  10   -0.07    0.14 
  -5  -9  10    0.53    0.18 
  -5  -9  10    0.40    0.20 
  -4  -9  10    3.30    0.32 
  -4  -9  10    2.95    0.38 
  -3  -9  10    5.20    0.44 
  -3  -9  10    3.99    0.35 
  -2  -9  10    3.59    0.33 
  -2  -9  10    3.35    0.34 
  -1  -9  10    0.51    0.15 
  -1  -9  10    0.34    0.19 
   0  -9  10    1.13    0.24 
   0  -9  10    1.13    0.19 
  -1   9 -10    0.62    0.19 
   1  -9  10    0.41    0.19 
  -2   9 -10    2.86    0.40 
   2  -9  10    3.18    0.36 
  -3   9 -10    5.01    0.52 
   3  -9  10    5.19    0.46 
  -4   9 -10    2.71    0.44 
   4  -9  10    3.15    0.38 
  -5   9 -10    0.44    0.27 
   5  -9  10    0.63    0.23 
  -6   9 -10   -0.14    0.26 
   6  -9  10   -0.42    0.16 
  -7   9 -10    0.49    0.35 
   7  -9  10    0.28    0.23 
  -8   9 -10   -0.26    0.28 
  -9   9 -10    0.66    0.41 
 -10   9 -10    0.63    0.49 
 -11  -8  10    0.03    0.33 
 -10  -8  10    0.23    0.23 
 -10  -8  10    0.54    0.33 
  -9  -8  10    0.78    0.33 
  -9  -8  10    0.75    0.23 
  -8  -8  10    0.76    0.23 
  -8  -8  10    0.76    0.30 
  -7  -8  10    1.23    0.24 
  -7  -8  10    1.04    0.30 
  -6  -8  10    1.38    0.24 
  -6  -8  10    1.31    0.31 
  -5  -8  10    2.56    0.28 
  -5  -8  10    2.96    0.40 
  -4  -8  10    1.30    0.23 
  -4  -8  10    1.62    0.31 
  -3  -8  10    1.53    0.23 
  -3  -8  10    1.46    0.27 
  -2  -8  10   19.31    0.90 
  -2  -8  10   18.55    0.85 
  -1  -8  10    4.43    0.32 
   0   8 -10   57.77    2.36 
   0  -8  10   59.26    2.21 
   0  -8  10   57.84    2.21 
  -1   8 -10    6.04    0.48 
   1  -8  10    8.98    0.51 
  -2   8 -10   19.77    1.01 
   2  -8  10   17.77    0.87 
  -3   8 -10    1.76    0.36 
   3  -8  10    1.20    0.25 
  -4   8 -10    1.68    0.38 
   4  -8  10    1.52    0.29 
  -5   8 -10    3.15    0.48 
   5  -8  10    3.36    0.40 
  -6   8 -10    1.20    0.36 
   6  -8  10    1.00    0.27 
  -7   8 -10    0.91    0.39 
   7  -8  10    1.35    0.30 
  -8   8 -10    0.70    0.40 
  -9   8 -10    0.89    0.42 
 -10   8 -10    0.13    0.37 
 -11   8 -10    0.05    0.44 
 -11  -7  10    0.09    0.33 
 -11  -7  10    0.06    0.25 
 -10  -7  10   -0.19    0.27 
 -10  -7  10    0.21    0.22 
  -9  -7  10    0.21    0.18 
  -8  -7  10    0.75    0.22 
  -7  -7  10    1.02    0.21 
  -6  -7  10    0.75    0.20 
  -6  -7  10    0.98    0.29 
  -5  -7  10    0.79    0.25 
  -5  -7  10    1.12    0.22 
  -4  -7  10    4.03    0.33 
  -4  -7  10    4.32    0.42 
  -3  -7  10   11.89    0.58 
  -3  -7  10   10.65    0.64 
  -2  -7  10    0.43    0.16 
  -2  -7  10    0.45    0.15 
  -1  -7  10    4.17    0.33 
   0   7 -10    1.75    0.25 
   0  -7  10    1.35    0.19 
   0  -7  10    2.10    0.25 
  -1   7 -10    3.07    0.35 
   1  -7  10    4.69    0.36 
  -2   7 -10    0.25    0.17 
   2  -7  10    0.67    0.20 
  -3   7 -10   12.05    0.78 
   3  -7  10   11.31    0.64 
  -4   7 -10    4.30    0.52 
   4  -7  10    3.50    0.38 
  -5   7 -10    0.95    0.31 
   5  -7  10    0.64    0.22 
  -6   7 -10    0.85    0.32 
   6  -7  10    1.00    0.26 
  -7   7 -10    0.93    0.36 
   7  -7  10    0.59    0.23 
  -8   7 -10    0.92    0.38 
  -9   7 -10    0.05    0.31 
 -10   7 -10    0.52    0.44 
 -11   7 -10   -0.04    0.45 
 -11  -6  10   -0.19    0.21 
 -10  -6  10   -0.11    0.19 
  -9  -6  10    1.41    0.28 
  -8  -6  10    0.25    0.18 
  -7  -6  10   -0.11    0.14 
  -6  -6  10    3.65    0.33 
  -5  -6  10    4.33    0.35 
  -4  -6  10    7.40    0.45 
  -3  -6  10    0.40    0.14 
  -2  -6  10    7.57    0.46 
  -2  -6  10    7.46    0.43 
   1   6 -10    9.48    0.50 
  -1  -6  10    9.11    0.49 
   0   6 -10   23.56    1.08 
   0  -6  10   24.04    1.00 
   0  -6  10   23.00    0.97 
  -1   6 -10    6.44    0.50 
   1  -6  10    8.46    0.47 
   1  -6  10    8.99    0.40 
  -2   6 -10    7.09    0.52 
   2  -6  10    6.74    0.44 
  -3   6 -10    0.80    0.24 
   3  -6  10    0.40    0.18 
  -4   6 -10    6.64    0.61 
   4  -6  10    7.12    0.49 
  -5   6 -10    4.39    0.55 
   5  -6  10    4.59    0.43 
  -6   6 -10    3.97    0.54 
   6  -6  10    3.80    0.40 
  -7   6 -10    0.37    0.30 
   7  -6  10   -0.01    0.16 
  -8   6 -10    0.29    0.30 
  -9   6 -10    2.54    0.56 
 -10   6 -10   -0.14    0.34 
 -11   6 -10    0.15    0.46 
 -12  -5  10    0.01    0.25 
 -11  -5  10    0.71    0.28 
 -10  -5  10    0.59    0.25 
  -9  -5  10    0.42    0.22 
  -8  -5  10    0.90    0.23 
  -7  -5  10    3.84    0.37 
  -6  -5  10    4.14    0.37 
  -5  -5  10    1.95    0.25 
  -4  -5  10    2.80    0.28 
  -3  -5  10   -0.13    0.12 
  -2  -5  10    6.71    0.39 
   1   5 -10    5.40    0.35 
  -1  -5  10    5.31    0.35 
   0   5 -10    1.07    0.20 
   0  -5  10    1.43    0.20 
   0  -5  10    1.11    0.16 
  -1   5 -10    5.06    0.41 
   1  -5  10    5.15    0.36 
   1  -5  10    5.55    0.29 
   2  -5  10    6.99    0.43 
   2  -5  10    6.53    0.47 
   3  -5  10    0.22    0.15 
   3  -5  10    0.09    0.16 
   4  -5  10    3.05    0.39 
   4  -5  10    2.21    0.29 
   5  -5  10    2.42    0.39 
   5  -5  10    2.00    0.31 
   6  -5  10    3.58    0.47 
   6  -5  10    3.61    0.40 
   7  -5  10    4.81    0.57 
   7  -5  10    5.26    0.49 
  -8   5 -10    0.70    0.35 
  -9   5 -10    0.00    0.32 
 -10   5 -10    0.47    0.43 
 -11   5 -10    0.54    0.50 
 -12   5 -10    0.24    0.46 
 -12  -4  10    0.98    0.36 
 -11  -4  10    0.29    0.26 
 -10  -4  10    1.64    0.32 
  -9  -4  10    0.37    0.23 
  -8  -4  10    2.32    0.33 
  -7  -4  10    4.35    0.40 
  -6  -4  10    4.72    0.40 
  -5  -4  10   15.48    0.75 
  -4  -4  10    8.88    0.50 
  -3  -4  10    5.36    0.36 
   2   4 -10    8.88    0.45 
  -2  -4  10    9.20    0.47 
  -1  -4  10    2.07    0.20 
  -1  -4  10    1.60    0.20 
   0  -4  10   15.45    0.72 
   0  -4  10   14.11    0.66 
   1  -4  10    1.88    0.24 
   1  -4  10    1.88    0.16 
   1  -4  10    1.62    0.21 
   2  -4  10    9.17    0.49 
   2  -4  10    8.32    0.54 
   3  -4  10    5.32    0.45 
   3  -4  10    5.25    0.37 
   4  -4  10    7.65    0.49 
   4  -4  10    8.48    0.58 
   5  -4  10   13.96    0.74 
   5  -4  10   14.87    0.87 
   6  -4  10    5.36    0.46 
   6  -4  10    4.69    0.52 
   7  -4  10    3.45    0.40 
   7  -4  10    4.13    0.52 
   8  -4  10    2.01    0.40 
   9  -4  10    0.68    0.36 
 -10   4 -10    1.25    0.47 
  10  -4  10    1.42    0.42 
 -11   4 -10    0.55    0.49 
 -12   4 -10    1.69    0.65 
 -12  -3  10    1.41    0.37 
 -11  -3  10    0.05    0.26 
 -10  -3  10    1.19    0.31 
  -9  -3  10    1.06    0.26 
  -8  -3  10    1.15    0.27 
  -7  -3  10   12.92    0.70 
  -6  -3  10    1.79    0.28 
  -5  -3  10   32.60    1.34 
  -4  -3  10    0.54    0.18 
  -3  -3  10    2.73    0.27 
  -2  -3  10    4.88    0.33 
  -2  -3  10    6.21    0.32 
  -1  -3  10    1.77    0.20 
  -1  -3  10    2.34    0.21 
   0  -3  10    2.75    0.26 
   0  -3  10    2.38    0.22 
   1  -3  10    2.30    0.22 
   1  -3  10    2.11    0.26 
   2  -3  10    5.06    0.39 
   2  -3  10    5.48    0.33 
   3  -3  10    2.34    0.30 
   3  -3  10    1.75    0.23 
   4  -3  10    0.31    0.19 
   4  -3  10    0.36    0.16 
   5  -3  10   27.92    1.21 
   5  -3  10   28.30    1.38 
   6  -3  10    1.31    0.32 
   6  -3  10    2.22    0.31 
   7  -3  10   11.30    0.81 
   7  -3  10   12.14    0.70 
   8  -3  10    1.14    0.34 
   9  -3  10    1.15    0.36 
  10  -3  10    1.55    0.40 
  11  -3  10    0.10    0.35 
 -12   3 -10    1.55    0.58 
 -12  -2  10   -0.17    0.29 
 -11  -2  10    0.11    0.27 
 -10  -2  10    0.63    0.28 
  -9  -2  10    3.12    0.41 
  -8  -2  10    0.12    0.19 
  -7  -2  10    0.34    0.20 
  -6  -2  10   15.23    0.76 
  -5  -2  10    4.20    0.37 
  -4  -2  10    6.62    0.43 
  -3  -2  10    0.13    0.13 
  -2  -2  10    7.44    0.38 
  -2  -2  10    6.96    0.40 
  -1  -2  10   11.22    0.53 
  -1  -2  10   11.03    0.55 
   0  -2  10   15.46    0.66 
   0  -2  10   14.44    0.72 
   1  -2  10   11.21    0.53 
   1  -2  10   11.17    0.61 
   2  -2  10    7.85    0.50 
   2  -2  10    7.52    0.41 
   3  -2  10    0.31    0.11 
   3  -2  10    0.56    0.18 
   4  -2  10    5.03    0.35 
   4  -2  10    5.20    0.47 
   5  -2  10    4.07    0.35 
   5  -2  10    3.54    0.44 
   6  -2  10   14.98    0.78 
   6  -2  10   14.84    0.90 
   7  -2  10    0.32    0.20 
   7  -2  10    0.05    0.22 
   8  -2  10    0.24    0.24 
   9  -2  10    3.47    0.53 
  10  -2  10   -0.04    0.28 
  11  -2  10    0.46    0.35 
  12  -2  10    0.41    0.39 
 -12  -1  10   -0.20    0.29 
 -11  -1  10   -0.08    0.27 
 -10  -1  10    2.04    0.39 
  -9  -1  10    1.69    0.35 
  -8  -1  10    0.01    0.19 
  -7  -1  10    3.68    0.39 
  -6  -1  10    2.63    0.33 
  -5  -1  10   25.00    1.09 
  -4  -1  10   13.54    0.67 
  -3  -1  10    4.60    0.27 
  -3  -1  10    4.37    0.31 
  -2  -1  10    3.37    0.24 
  -2  -1  10    3.47    0.25 
  -1  -1  10    6.49    0.36 
  -1  -1  10    5.88    0.36 
   0  -1  10   13.12    0.58 
   0  -1  10   12.53    0.64 
   1  -1  10    5.56    0.40 
   1  -1  10    6.64    0.35 
   2  -1  10    2.75    0.23 
   2  -1  10    3.58    0.34 
   3  -1  10    4.82    0.42 
   3  -1  10    4.73    0.31 
   4  -1  10   12.86    0.61 
   4  -1  10   11.31    0.71 
   5  -1  10   23.70    1.02 
   5  -1  10   22.80    1.20 
   6  -1  10    3.88    0.37 
   6  -1  10    3.21    0.44 
   7  -1  10    4.37    0.53 
   7  -1  10    4.17    0.39 
   8  -1  10   -0.07    0.21 
   9  -1  10    1.99    0.44 
  10  -1  10    1.50    0.38 
  11  -1  10   -0.18    0.30 
  12  -1  10    0.43    0.38 
 -12   0  10    0.43    0.33 
 -11   0  10   -0.07    0.24 
 -10   0  10   -0.43    0.19 
  -9   0  10    2.16    0.38 
  -8   0  10    2.59    0.38 
  -7   0  10    2.87    0.37 
  -6   0  10    0.94    0.24 
  -5   0  10    1.56    0.26 
  -4   0  10    0.14    0.15 
  -4   0  10    0.00    0.08 
  -3   0  10    0.23    0.12 
  -3   0  10    0.33    0.10 
  -2   0  10    2.81    0.25 
  -2   0  10    2.41    0.22 
  -1   0  10    4.64    0.32 
  -1   0  10    4.63    0.29 
   0   0  10   27.90    1.22 
   0   0  10   28.81    1.11 
   1   0  10    4.48    0.28 
   1   0  10    5.30    0.37 
   2   0  10    2.97    0.23 
   2   0  10    2.01    0.26 
   3   0  10    0.18    0.14 
   3   0  10    0.24    0.10 
   4   0  10    0.02    0.09 
   4   0  10   -0.23    0.12 
   5   0  10    1.70    0.33 
   5   0  10    1.07    0.20 
   6   0  10    0.84    0.29 
   6   0  10    0.97    0.21 
   7   0  10    2.77    0.32 
   7   0  10    2.78    0.43 
   8   0  10    2.30    0.44 
   9   0  10    1.79    0.40 
  10   0  10   -0.22    0.24 
  11   0  10   -0.22    0.25 
  12   0  10    0.02    0.36 
 -12   1  10    0.63    0.34 
 -11   1  10   -0.13    0.25 
 -10   1  10    2.31    0.39 
  -9   1  10    1.54    0.34 
  -8   1  10    0.02    0.20 
  -7   1  10    3.66    0.41 
  -6   1  10    2.87    0.35 
  -5   1  10   26.25    1.15 
  -4   1  10   13.88    0.70 
  -4   1  10   13.92    0.64 
  -3   1  10    4.98    0.34 
  -3   1  10    5.05    0.32 
  -2   1  10    4.07    0.29 
  -2   1  10    3.61    0.29 
  -1   1  10    5.94    0.38 
  -1   1  10    6.72    0.36 
   0   1  10   13.04    0.67 
   0   1  10   13.62    0.59 
   1   1  10    6.74    0.44 
   1   1  10    6.79    0.35 
   2   1  10    3.67    0.24 
   2   1  10    3.11    0.32 
   3   1  10    5.12    0.40 
   3   1  10    4.68    0.29 
   4   1  10   12.90    0.61 
   4   1  10   14.19    0.79 
   5   1  10   24.82    1.23 
   5   1  10   23.67    1.01 
   6   1  10    4.23    0.34 
   6   1  10    3.39    0.45 
   7   1  10    3.40    0.35 
   7   1  10    3.88    0.49 
   8   1  10   -0.29    0.19 
   9   1  10    1.43    0.37 
  10   1  10    2.11    0.46 
  11   1  10    0.43    0.36 
  12   1  10    0.61    0.43 
 -12   2  10    0.40    0.35 
 -11   2  10    1.06    0.36 
 -10   2  10    0.09    0.25 
  -9   2  10    3.36    0.44 
  -8   2  10    0.45    0.23 
  -7   2  10    0.52    0.22 
  -6   2  10   15.26    0.80 
  -5   2  10    3.54    0.28 
  -5   2  10    3.07    0.35 
  -4   2  10    6.41    0.44 
  -4   2  10    6.41    0.38 
  -3   2  10    0.60    0.15 
  -3   2  10    0.25    0.13 
  -2   2  10    7.77    0.44 
  -2   2  10    7.43    0.42 
  -1   2  10   11.53    0.54 
  -1   2  10   11.64    0.60 
   0   2  10   15.89    0.66 
   0   2  10   14.61    0.75 
   1   2  10   10.60    0.49 
   1   2  10   11.30    0.62 
   2   2  10    8.03    0.50 
   2   2  10    6.90    0.36 
   3   2  10    0.18    0.14 
   3   2  10    0.26    0.10 
   4   2  10    6.34    0.36 
   4   2  10    6.18    0.49 
   5   2  10    4.04    0.45 
   5   2  10    3.88    0.29 
   6   2  10   15.34    0.91 
   6   2  10   13.98    0.69 
   7   2  10   -0.02    0.11 
   7   2  10    0.29    0.26 
   8   2  10    0.46    0.27 
   9   2  10    3.21    0.50 
  10   2  10    0.13    0.28 
  11   2  10    0.29    0.33 
  12   2  10   -0.07    0.36 
 -12   3  10    1.53    0.45 
 -11   3  10    0.14    0.31 
 -10   3  10    1.12    0.35 
  -9   3  10    1.03    0.31 
  -8   3  10    1.50    0.31 
  -7   3  10   12.41    0.74 
  -6   3  10    1.81    0.23 
  -6   3  10    1.89    0.32 
  -5   3  10   31.90    1.33 
  -5   3  10   30.23    1.32 
  -4   3  10    0.40    0.18 
  -4   3  10    0.39    0.15 
  -3   3  10    2.89    0.27 
  -3   3  10    2.30    0.26 
  -2   3  10    5.75    0.36 
  -2   3  10    6.47    0.40 
  -1   3  10    2.52    0.27 
  -1   3  10    2.32    0.22 
   0   3  10    2.90    0.22 
   0   3  10    2.98    0.30 
   1   3  10    2.29    0.19 
   1   3  10    2.41    0.29 
   2   3  10    6.24    0.32 
   2   3  10    5.69    0.43 
   3   3  10    1.68    0.28 
   4   3  10    0.52    0.21 
   4   3  10    0.39    0.12 
   5   3  10   29.45    1.17 
   5   3  10   29.33    1.43 
   6   3  10    2.05    0.36 
   6   3  10    1.79    0.22 
   7   3  10   11.18    0.79 
   8   3  10    1.29    0.35 
   9   3  10    0.83    0.32 
  10   3  10    0.71    0.34 
  11   3  10    0.34    0.35 
  12   3  10    1.90    0.52 
 -12   4  10    1.92    0.46 
 -11   4  10    0.33    0.33 
 -10   4  10    1.53    0.35 
  -9   4  10    0.95    0.30 
  -8   4  10    2.10    0.37 
  -7   4  10    3.01    0.38 
  -6   4  10    3.76    0.40 
  -6   4  10    4.68    0.36 
  -5   4  10   14.63    0.77 
  -5   4  10   15.52    0.76 
  -4   4  10    8.88    0.52 
  -4   4  10    9.78    0.56 
  -3   4  10    5.69    0.38 
  -3   4  10    4.70    0.34 
  -2   4  10    9.89    0.55 
  -2   4  10    9.60    0.49 
  -1   4  10    1.61    0.19 
  -1   4  10    1.79    0.24 
   0   4  10   16.71    0.83 
   0   4  10   16.20    0.68 
   1   4  10    1.96    0.26 
   1   4  10    1.19    0.14 
   2   4  10    9.35    0.43 
   2   4  10    9.50    0.60 
   3   4  10    4.71    0.44 
   3   4  10    5.10    0.28 
   4   4  10    8.99    0.43 
   4   4  10    8.69    0.62 
   5   4  10   15.24    0.67 
   5   4  10   14.93    0.88 
   6   4  10    4.69    0.51 
   7   4  10    3.44    0.47 
   8   4  10    1.63    0.37 
   9   4  10    0.34    0.27 
  10   4  10    1.37    0.40 
  11   4  10    0.14    0.31 
  12   4  10    1.03    0.46 
 -12   5  10   -0.11    0.33 
 -11   5  10    1.14    0.37 
 -10   5  10    0.31    0.30 
  -9   5  10    0.71    0.29 
  -8   5  10    0.57    0.26 
  -7   5  10    4.47    0.46 
  -7   5  10    5.18    0.43 
  -6   5  10    3.97    0.42 
  -6   5  10    4.71    0.39 
  -5   5  10    2.45    0.28 
  -5   5  10    1.96    0.29 
  -4   5  10    3.24    0.31 
  -4   5  10    2.41    0.30 
  -3   5  10   -0.08    0.13 
  -3   5  10    0.33    0.14 
  -2   5  10    7.79    0.43 
  -2   5  10    7.91    0.49 
  -1   5  10    5.51    0.34 
  -1   5  10    5.56    0.40 
   0   5  10    1.06    0.15 
   0   5  10    1.51    0.25 
   1   5  10    5.87    0.31 
   1   5  10    5.18    0.42 
   2   5  10    6.25    0.49 
   2   5  10    6.41    0.32 
   3   5  10    0.21    0.09 
   3   5  10   -0.10    0.15 
   4   5  10    2.15    0.34 
   5   5  10    1.84    0.36 
   6   5  10    4.71    0.52 
   7   5  10    4.44    0.54 
   8   5  10    0.87    0.30 
   9   5  10    0.97    0.33 
  10   5  10    0.74    0.38 
  11   5  10    0.47    0.37 
  12   5  10    0.48    0.43 
 -11   6  10    0.64    0.33 
 -10   6  10   -0.04    0.26 
  -9   6  10    0.79    0.30 
  -8   6  10    0.35    0.24 
  -7   6  10   -0.09    0.18 
  -7   6  10    0.06    0.18 
  -6   6  10    3.87    0.39 
  -6   6  10    4.44    0.44 
  -5   6  10    4.54    0.41 
  -5   6  10    4.61    0.40 
  -4   6  10    7.23    0.50 
  -4   6  10    7.53    0.49 
  -3   6  10    0.57    0.17 
  -3   6  10    0.77    0.20 
  -2   6  10    7.89    0.43 
  -2   6  10    7.18    0.49 
  -1   6  10    9.95    0.47 
  -1   6  10    7.43    0.54 
   0   6  10   23.38    1.08 
   0   6  10   20.80    0.87 
   1   6  10    8.96    0.43 
   1   6  10   10.32    0.63 
   2   6  10    8.46    0.58 
   2   6  10    7.32    0.35 
   3   6  10    0.47    0.23 
   4   6  10    6.41    0.56 
  -5  -6 -10    4.11    0.30 
   5   6  10    3.98    0.48 
  -6  -6 -10    4.32    0.31 
   6   6  10    3.69    0.49 
   7   6  10    0.15    0.24 
   8   6  10    0.14    0.21 
   9   6  10    0.95    0.36 
  10   6  10    0.18    0.33 
  11   6  10    0.31    0.39 
 -11   7  10    0.02    0.32 
 -10   7  10   -0.11    0.28 
  -9   7  10   -0.25    0.22 
  -8   7  10    1.18    0.29 
  -8   7  10    0.96    0.30 
  -7   7  10    1.11    0.27 
  -7   7  10    0.76    0.26 
  -6   7  10    0.66    0.25 
  -6   7  10    1.12    0.25 
  -5   7  10    0.89    0.24 
  -5   7  10    0.89    0.25 
  -4   7  10    4.14    0.40 
  -4   7  10    3.59    0.36 
  -3   7  10   10.67    0.59 
  -3   7  10   12.33    0.69 
  -2   7  10    0.75    0.23 
  -2   7  10    0.81    0.17 
  -1   7  10    4.40    0.42 
   0   7  10    1.68    0.29 
   0   7  10    1.40    0.17 
   1   7  10    4.52    0.26 
   1   7  10    4.25    0.44 
   2   7  10    0.07    0.19 
   3   7  10   11.67    0.76 
   4   7  10    3.58    0.47 
  -5  -7 -10    1.00    0.21 
   5   7  10    0.79    0.29 
  -6  -7 -10    1.07    0.23 
   6   7  10    1.16    0.30 
   7   7  10    1.15    0.32 
   8   7  10    0.83    0.31 
   9   7  10    0.21    0.32 
  10   7  10    0.01    0.30 
  11   7  10    0.07    0.39 
 -11   8  10    0.42    0.36 
 -10   8  10    0.88    0.36 
  -9   8  10    0.22    0.26 
  -8   8  10    0.31    0.26 
  -8   8  10    0.26    0.23 
  -7   8  10    0.69    0.26 
  -7   8  10    1.10    0.28 
  -6   8  10    1.16    0.29 
  -6   8  10    1.34    0.29 
  -5   8  10    2.38    0.34 
  -5   8  10    3.54    0.39 
  -4   8  10    1.65    0.30 
  -4   8  10    1.56    0.27 
  -3   8  10    1.33    0.29 
  -3   8  10    1.61    0.25 
  -2   8  10   21.32    0.92 
  -2   8  10   21.53    1.07 
  -1   8  10    8.61    0.59 
  -1   8  10    9.32    0.47 
   0   8  10   59.43    2.48 
   1   8  10    8.95    0.63 
   2   8  10   19.62    1.05 
   3   8  10    1.63    0.34 
   4   8  10    1.19    0.31 
  -5  -8 -10    2.85    0.32 
   5   8  10    3.69    0.47 
  -6  -8 -10    1.50    0.26 
   6   8  10    1.71    0.37 
   7   8  10    1.12    0.33 
   8   8  10    0.89    0.33 
   9   8  10    0.84    0.35 
  10   8  10    0.33    0.35 
  11   8  10    0.02    0.41 
 -10   9  10    0.48    0.34 
  -9   9  10    0.60    0.33 
  -8   9  10    0.22    0.24 
  -8   9  10    0.13    0.24 
  -7   9  10    0.27    0.24 
  -7   9  10    0.43    0.26 
  -6   9  10    0.17    0.21 
  -6   9  10    0.11    0.22 
  -5   9  10    0.31    0.21 
  -5   9  10    0.52    0.25 
  -4   9  10    3.22    0.35 
  -4   9  10    2.61    0.38 
  -3   9  10    5.54    0.48 
  -3   9  10    4.35    0.38 
  -2   9  10    3.90    0.42 
  -1   9  10    1.07    0.28 
   0   9  10    0.48    0.26 
   1   9  10    0.73    0.25 
   2   9  10    3.68    0.45 
   3   9  10    5.21    0.54 
   4   9  10    3.33    0.47 
  -5  -9 -10    0.32    0.19 
   5   9  10    0.51    0.26 
  -6  -9 -10   -0.04    0.17 
   6   9  10    0.08    0.23 
  -7  -9 -10    1.04    0.26 
   7   9  10    0.44    0.27 
   8   9  10   -0.19    0.24 
   9   9  10    0.72    0.37 
  10   9  10    0.02    0.38 
 -10  10  10    0.46    0.37 
  -9  10  10   -0.18    0.30 
  -9  10  10    0.00    0.28 
  -8  10  10    0.06    0.25 
  -8  10  10    0.21    0.27 
  -7  10  10    0.15    0.25 
  -7  10  10    0.02    0.24 
  -6  10  10    0.58    0.24 
  -6  10  10    0.66    0.28 
  -5  10  10    2.94    0.37 
  -5  10  10    3.35    0.42 
  -4  10  10    0.41    0.21 
  -4  10  10    0.21    0.22 
  -3  10  10    2.26    0.30 
  -3  10  10    2.36    0.35 
  -2  10  10    0.35    0.21 
  -1  10  10   17.65    0.98 
   0  10  10    4.59    0.48 
   1  10  10   17.25    0.97 
   2  10  10   -0.25    0.20 
   3  10  10    2.57    0.42 
   4  10  10    0.44    0.26 
  -5 -10 -10    3.52    0.38 
   5  10  10    3.20    0.49 
  -6 -10 -10    0.68    0.24 
   6  10  10    0.74    0.32 
  -7 -10 -10    0.06    0.22 
   7  10  10    0.00    0.28 
   8  10  10    0.52    0.33 
   9  10  10    0.13    0.37 
  10  10  10    0.47    0.43 
  -9  11  10    0.75    0.39 
  -9  11  10    0.93    0.35 
  -8  11  10    0.63    0.33 
  -8  11  10    1.24    0.35 
  -7  11  10    0.09    0.24 
  -7  11  10    0.26    0.30 
  -6  11  10    0.17    0.21 
  -6  11  10    0.37    0.29 
  -5  11  10    1.36    0.33 
  -5  11  10    1.36    0.30 
  -4  11  10    0.07    0.21 
  -3  11  10   -0.05    0.20 
  -2  11  10    1.18    0.32 
  -1  11  10    1.32    0.32 
   0  11  10    0.06    0.19 
   1  11  10    2.36    0.40 
   2  11  10    1.08    0.31 
   3  11  10    0.24    0.23 
   4  11  10    0.74    0.30 
  -5 -11 -10    1.35    0.29 
   5  11  10    1.37    0.37 
  -6 -11 -10    0.32    0.23 
   6  11  10    0.60    0.31 
  -7 -11 -10    0.32    0.25 
   7  11  10    0.16    0.29 
   8  11  10    0.87    0.38 
   9  11  10    0.40    0.38 
  -8  12  10    0.65    0.33 
  -8  12  10    0.07    0.33 
  -7  12  10    1.04    0.39 
  -7  12  10    0.61    0.32 
  -6  12  10    0.30    0.31 
  -6  12  10    0.23    0.28 
  -5  12  10    1.13    0.35 
  -4  12  10    1.77    0.37 
  -3  12  10    1.76    0.37 
  -2  12  10    0.65    0.29 
  -1  12  10    2.40    0.43 
   0  12  10    1.98    0.39 
   1  12  10    1.76    0.37 
   2  12  10    0.90    0.31 
   3  12  10    1.32    0.34 
   4  12  10    2.33    0.46 
   5  12  10    1.27    0.39 
  -6 -12 -10    0.43    0.27 
   6  12  10    0.37    0.33 
  -7 -12 -10    0.42    0.27 
   7  12  10    0.72    0.37 
   8  12  10    0.20    0.35 
  -7  13  10    0.31    0.33 
  -6  13  10    1.69    0.43 
  -5  13  10    1.79    0.41 
  -4  13  10    0.43    0.31 
  -3  13  10   -0.19    0.24 
  -2  13  10   -0.10    0.25 
  -1  13  10    1.36    0.35 
   0  13  10    0.88    0.30 
   1  13  10    1.04    0.34 
   2  13  10    0.13    0.26 
   3  13  10    0.36    0.30 
   4  13  10    0.36    0.29 
   5  13  10    2.64    0.51 
  -6 -13 -10    1.53    0.36 
   6  13  10    1.94    0.46 
  -7 -13 -10    0.97    0.34 
   7  13  10    1.51    0.46 
  -6  14  10    1.28    0.42 
  -5  14  10    0.38    0.33 
  -4  14  10    0.65    0.38 
  -3  14  10    0.83    0.34 
  -2  14  10    0.26    0.31 
  -1  14  10   -0.25    0.27 
   0  14  10    1.46    0.38 
   1  14  10    0.27    0.29 
   2  14  10    0.57    0.29 
   3  14  10   -0.35    0.23 
   4  14  10    0.91    0.36 
   5  14  10    0.36    0.36 
  -6 -14 -10    0.66    0.34 
   6  14  10    1.72    0.48 
  -5  15  10    1.32    0.45 
  -4  15  10    1.25    0.44 
  -3  15  10    0.48    0.37 
  -2  15  10   -0.12    0.30 
  -1  15  10    0.08    0.34 
   0  15  10    0.38    0.35 
   1  15  10    0.01    0.27 
   2  15  10   -0.04    0.25 
   3  15  10    0.22    0.33 
   4  15  10    2.45    0.54 
   5  15  10    1.22    0.48 
  -3  16  10    0.52    0.42 
  -2  16  10   -0.42    0.33 
  -1  16  10    0.95    0.39 
   0  16  10    0.23    0.31 
   1  16  10    0.17    0.35 
   2  16  10    0.41    0.33 
   3  16  10    1.00    0.44 
  -2 -15  11    0.56    0.33 
  -1 -15  11   -0.04    0.26 
   0 -15  11   -0.11    0.27 
   1 -15  11    0.34    0.30 
   2 -15  11    0.45    0.33 
   3 -15  11    0.23    0.32 
   4 -15  11   -0.47    0.29 
  -5 -14  11    0.34    0.30 
  -4 -14  11    0.22    0.30 
  -3 -14  11    0.25    0.28 
  -2 -14  11    1.38    0.32 
  -1 -14  11    0.10    0.24 
   0 -14  11    0.12    0.26 
   1 -14  11   -0.13    0.23 
   2 -14  11    0.83    0.33 
   3 -14  11    0.17    0.30 
   4 -14  11    0.31    0.31 
  -5  14 -11   -0.11    0.37 
   5 -14  11    0.74    0.37 
  -7 -13  11    0.24    0.31 
  -6 -13  11    0.12    0.32 
  -5 -13  11    0.66    0.30 
  -4 -13  11   -0.13    0.22 
  -4 -13  11    0.48    0.24 
  -3 -13  11    1.65    0.31 
  -2 -13  11    1.40    0.31 
  -1 -13  11    0.38    0.23 
   0 -13  11    0.36    0.25 
   1 -13  11    0.27    0.24 
   2 -13  11    1.05    0.31 
   3 -13  11    1.63    0.36 
  -4  13 -11    0.00    0.32 
   4 -13  11    0.04    0.27 
  -5  13 -11    0.02    0.35 
   5 -13  11    0.56    0.34 
  -6  13 -11    0.68    0.46 
   6 -13  11    0.62    0.38 
  -7  13 -11    0.04    0.41 
  -8 -12  11    0.22    0.32 
  -7 -12  11    0.29    0.30 
  -6 -12  11    1.16    0.27 
  -6 -12  11    1.10    0.35 
  -5 -12  11    0.66    0.24 
  -5 -12  11    0.86    0.30 
  -4 -12  11    1.30    0.31 
  -4 -12  11    0.70    0.25 
  -3 -12  11    0.64    0.23 
  -3 -12  11    0.29    0.22 
  -2 -12  11    4.32    0.43 
  -1 -12  11    0.02    0.19 
   0 -12  11    1.04    0.27 
   1 -12  11   -0.14    0.19 
   2 -12  11    3.89    0.46 
  -3  12 -11    0.41    0.33 
   3 -12  11    0.21    0.26 
  -4  12 -11    0.46    0.34 
   4 -12  11    0.94    0.33 
  -5  12 -11    1.12    0.41 
   5 -12  11    1.01    0.35 
  -6  12 -11    0.53    0.40 
   6 -12  11    2.35    0.46 
  -7  12 -11   -0.26    0.37 
   7 -12  11    0.00    0.28 
  -8  12 -11    0.30    0.47 
  -8 -11  11    0.40    0.31 
  -7 -11  11    0.52    0.31 
  -7 -11  11    0.17    0.23 
  -6 -11  11    0.52    0.20 
  -6 -11  11    0.27    0.26 
  -5 -11  11    1.70    0.35 
  -5 -11  11    1.41    0.26 
  -4 -11  11    3.86    0.45 
  -4 -11  11    4.91    0.41 
  -3 -11  11    1.23    0.29 
  -3 -11  11    1.22    0.26 
  -2 -11  11    4.93    0.43 
  -2 -11  11    4.81    0.43 
  -1 -11  11    0.64    0.23 
   0 -11  11    0.29    0.20 
   1 -11  11    0.82    0.24 
   2 -11  11    5.48    0.49 
  -3  11 -11    0.95    0.33 
   3 -11  11    1.07    0.28 
  -4  11 -11    3.81    0.54 
   4 -11  11    4.82    0.51 
  -5  11 -11    0.84    0.36 
   5 -11  11    1.55    0.37 
  -6  11 -11    0.35    0.35 
   6 -11  11    0.48    0.30 
  -7  11 -11    0.29    0.39 
   7 -11  11    0.47    0.35 
  -8  11 -11    0.46    0.46 
  -9 -10  11    0.49    0.35 
  -8 -10  11    0.95    0.36 
  -8 -10  11    0.96    0.25 
  -7 -10  11    0.89    0.22 
  -7 -10  11    0.66    0.30 
  -6 -10  11    1.90    0.39 
  -6 -10  11    1.91    0.29 
  -5 -10  11    0.41    0.23 
  -5 -10  11    0.36    0.19 
  -4 -10  11    2.38    0.36 
  -4 -10  11    1.94    0.28 
  -3 -10  11    1.31    0.25 
  -3 -10  11    1.38    0.28 
  -2 -10  11    1.16    0.26 
  -2 -10  11    1.63    0.26 
  -1 -10  11    2.13    0.29 
   0 -10  11    1.31    0.26 
   1 -10  11    2.56    0.34 
  -2  10 -11    1.72    0.35 
   2 -10  11    1.52    0.29 
  -3  10 -11    0.87    0.31 
   3 -10  11    1.54    0.30 
  -4  10 -11    2.47    0.44 
   4 -10  11    1.91    0.34 
  -5  10 -11    0.16    0.30 
   5 -10  11    0.63    0.27 
  -6  10 -11    1.93    0.46 
   6 -10  11    1.98    0.39 
  -7  10 -11    0.99    0.43 
   7 -10  11    1.17    0.35 
  -8  10 -11    1.85    0.52 
  -9  10 -11    0.35    0.39 
 -10  -9  11    0.58    0.40 
  -9  -9  11    0.52    0.26 
  -9  -9  11   -0.01    0.32 
  -8  -9  11    0.64    0.23 
  -8  -9  11    0.43    0.29 
  -7  -9  11    0.31    0.25 
  -7  -9  11    0.75    0.22 
  -6  -9  11    0.60    0.26 
  -6  -9  11    0.20    0.17 
  -5  -9  11    1.88    0.33 
  -5  -9  11    1.96    0.28 
  -4  -9  11    2.51    0.29 
  -4  -9  11    2.22    0.35 
  -3  -9  11    0.03    0.19 
  -3  -9  11    0.32    0.17 
  -2  -9  11    1.89    0.27 
  -2  -9  11    1.87    0.28 
  -1  -9  11   11.13    0.61 
   0  -9  11    7.62    0.50 
   1  -9  11   10.19    0.60 
  -2   9 -11    1.48    0.35 
   2  -9  11    2.39    0.33 
  -3   9 -11   -0.01    0.23 
   3  -9  11    0.34    0.20 
  -4   9 -11    2.40    0.44 
   4  -9  11    2.38    0.36 
  -5   9 -11    2.17    0.46 
   5  -9  11    2.67    0.40 
  -6   9 -11    0.59    0.34 
   6  -9  11    0.40    0.24 
  -7   9 -11    0.56    0.36 
   7  -9  11    0.54    0.27 
  -8   9 -11    0.48    0.38 
  -9   9 -11    0.44    0.40 
 -10   9 -11    0.05    0.44 
 -10  -8  11    0.74    0.27 
 -10  -8  11    0.81    0.38 
  -9  -8  11    0.74    0.32 
  -9  -8  11    0.66    0.24 
  -8  -8  11    0.60    0.22 
  -8  -8  11    0.27    0.26 
  -7  -8  11    0.04    0.16 
  -7  -8  11    0.51    0.24 
  -6  -8  11    2.07    0.38 
  -6  -8  11    1.46    0.25 
  -5  -8  11    0.99    0.22 
  -5  -8  11    1.00    0.26 
  -4  -8  11    1.39    0.29 
  -4  -8  11    1.34    0.23 
  -3  -8  11    7.02    0.50 
  -3  -8  11    6.67    0.44 
  -2  -8  11    5.19    0.40 
  -2  -8  11    5.51    0.39 
  -1  -8  11    2.42    0.29 
  -1  -8  11    1.13    0.18 
   0  -8  11   -0.06    0.14 
   1  -8  11    2.30    0.30 
  -2   8 -11    5.43    0.53 
   2  -8  11    5.33    0.44 
  -3   8 -11    8.00    0.64 
   3  -8  11    6.56    0.50 
  -4   8 -11    0.69    0.33 
   4  -8  11    1.65    0.30 
  -5   8 -11    0.88    0.33 
   5  -8  11    0.83    0.26 
  -6   8 -11    1.10    0.39 
   6  -8  11    1.45    0.32 
  -7   8 -11    0.18    0.31 
   7  -8  11   -0.02    0.20 
  -8   8 -11    0.42    0.36 
   8  -8  11    0.46    0.28 
  -9   8 -11    0.68    0.41 
 -10   8 -11    0.54    0.46 
 -11  -7  11    1.01    0.33 
 -11  -7  11    0.57    0.41 
 -10  -7  11    0.21    0.32 
 -10  -7  11   -0.30    0.19 
  -9  -7  11   -0.02    0.19 
  -8  -7  11    0.94    0.24 
  -7  -7  11    0.00    0.18 
  -6  -7  11    2.09    0.29 
  -5  -7  11    0.65    0.25 
  -5  -7  11    0.91    0.21 
  -4  -7  11    2.10    0.27 
  -4  -7  11    2.88    0.37 
  -3  -7  11    1.92    0.26 
  -3  -7  11    2.60    0.33 
  -2  -7  11    0.76    0.18 
  -2  -7  11    0.90    0.20 
  -1  -7  11    6.71    0.42 
  -1  -7  11    7.70    0.46 
   0   7 -11    9.76    0.59 
   0  -7  11    9.93    0.55 
   1  -7  11    6.97    0.45 
  -2   7 -11    1.05    0.24 
   2  -7  11    1.00    0.22 
  -3   7 -11    1.90    0.39 
   3  -7  11    2.09    0.30 
  -4   7 -11    2.62    0.43 
   4  -7  11    2.86    0.36 
  -5   7 -11    0.79    0.32 
   5  -7  11    0.64    0.23 
  -6   7 -11    2.33    0.47 
   6  -7  11    2.18    0.36 
  -7   7 -11    0.03    0.29 
   7  -7  11    0.31    0.21 
  -8   7 -11    1.24    0.42 
   8  -7  11    1.35    0.34 
  -9   7 -11    0.21    0.34 
 -10   7 -11    0.74    0.43 
 -11   7 -11    0.80    0.50 
 -11  -6  11    0.20    0.27 
 -10  -6  11    0.39    0.25 
  -9  -6  11   -0.14    0.19 
  -8  -6  11    0.12    0.18 
  -7  -6  11    2.36    0.31 
  -6  -6  11    0.60    0.21 
  -5  -6  11    1.07    0.22 
  -4  -6  11    1.91    0.26 
  -3  -6  11    3.55    0.32 
  -2  -6  11    8.59    0.48 
  -2  -6  11    7.49    0.47 
  -1  -6  11    2.86    0.27 
  -1  -6  11    2.46    0.28 
   0   6 -11    4.80    0.39 
   0  -6  11    4.54    0.36 
   0  -6  11    4.29    0.30 
   1  -6  11    2.36    0.28 
  -2   6 -11    8.02    0.58 
   2  -6  11    8.19    0.50 
  -3   6 -11    3.53    0.46 
   3  -6  11    3.76    0.36 
  -4   6 -11    1.69    0.39 
   4  -6  11    1.85    0.30 
  -5   6 -11    0.75    0.33 
   5  -6  11    0.92    0.24 
  -6   6 -11    0.85    0.31 
   6  -6  11    0.87    0.27 
  -7   6 -11    2.16    0.45 
   7  -6  11    2.31    0.38 
  -8   6 -11    0.59    0.33 
   8  -6  11   -0.27    0.16 
  -9   6 -11    0.43    0.39 
 -10   6 -11    0.92    0.48 
 -11   6 -11    0.58    0.49 
 -11  -5  11    0.14    0.26 
 -10  -5  11    1.14    0.32 
  -9  -5  11    1.35    0.30 
  -8  -5  11    1.03    0.25 
  -7  -5  11    0.32    0.18 
  -6  -5  11    0.24    0.19 
  -5  -5  11    9.85    0.56 
  -4  -5  11    7.32    0.46 
  -3  -5  11   18.03    0.82 
  -2  -5  11    5.19    0.36 
  -1  -5  11   20.68    0.89 
   0   5 -11    0.11    0.15 
   0  -5  11    0.46    0.12 
   0  -5  11    0.19    0.15 
   1  -5  11   22.44    1.04 
   1  -5  11   21.07    0.94 
   2  -5  11    4.59    0.37 
   2  -5  11    5.31    0.42 
   3  -5  11   14.89    0.85 
   3  -5  11   15.80    0.77 
   4  -5  11    7.16    0.59 
   4  -5  11    7.73    0.49 
   5  -5  11    9.64    0.59 
   5  -5  11    9.49    0.69 
   6  -5  11   -0.03    0.22 
   6  -5  11    0.10    0.18 
   7  -5  11   -0.02    0.25 
   7  -5  11    0.34    0.21 
  -8   5 -11    0.83    0.38 
   8  -5  11    0.94    0.34 
   8  -5  11    0.71    0.27 
  -9   5 -11    1.12    0.46 
 -10   5 -11    1.78    0.58 
 -11   5 -11    0.27    0.43 
 -11  -4  11    0.49    0.29 
 -10  -4  11    0.51    0.26 
  -9  -4  11    0.30    0.24 
  -8  -4  11    1.02    0.27 
  -7  -4  11    0.37    0.20 
  -6  -4  11    6.37    0.45 
  -5  -4  11    0.15    0.16 
  -4  -4  11    3.40    0.33 
  -3  -4  11   15.47    0.73 
  -2  -4  11    0.39    0.15 
  -1  -4  11   21.50    0.91 
  -1  -4  11   19.44    0.87 
   0  -4  11    0.69    0.17 
   0  -4  11    1.33    0.22 
   1  -4  11   20.67    1.01 
   1  -4  11   22.59    0.94 
   2  -4  11    0.15    0.14 
   2  -4  11    0.38    0.16 
   3  -4  11   14.80    0.83 
   3  -4  11   15.31    0.74 
   4  -4  11    3.03    0.33 
   4  -4  11    3.00    0.40 
   5  -4  11    0.18    0.18 
   5  -4  11   -0.10    0.21 
   6  -4  11    6.43    0.61 
   6  -4  11    5.31    0.47 
   7  -4  11    0.42    0.22 
   7  -4  11    1.10    0.32 
   8  -4  11    0.88    0.28 
   8  -4  11    0.89    0.34 
   9  -4  11    0.38    0.30 
  10  -4  11    0.02    0.35 
 -11   4 -11   -0.30    0.39 
 -11  -3  11    0.37    0.31 
 -10  -3  11    1.92    0.36 
  -9  -3  11    0.51    0.24 
  -8  -3  11    2.57    0.35 
  -7  -3  11    1.02    0.25 
  -6  -3  11    1.83    0.28 
  -5  -3  11    0.17    0.18 
  -4  -3  11    3.10    0.30 
  -3  -3  11    0.26    0.15 
  -2  -3  11    0.94    0.18 
  -1  -3  11    0.34    0.14 
  -1  -3  11    0.64    0.15 
   0  -3  11    0.31    0.13 
   0  -3  11    0.43    0.15 
   1  -3  11    0.48    0.16 
   1  -3  11    0.39    0.15 
   2  -3  11    0.80    0.18 
   2  -3  11    0.77    0.19 
   3  -3  11    0.32    0.17 
   3  -3  11    0.28    0.16 
   4  -3  11    3.91    0.43 
   4  -3  11    3.38    0.33 
   5  -3  11   -0.13    0.18 
   5  -3  11   -0.04    0.15 
   6  -3  11    1.81    0.30 
   6  -3  11    1.97    0.37 
   7  -3  11    0.48    0.28 
   7  -3  11    0.92    0.25 
   8  -3  11    2.47    0.46 
   8  -3  11    2.42    0.37 
   9  -3  11    0.76    0.32 
  10  -3  11    3.21    0.58 
  11  -3  11    1.01    0.45 
 -12   3 -11    0.58    0.54 
 -12  -2  11    0.71    0.37 
 -11  -2  11    1.11    0.34 
 -10  -2  11    1.19    0.33 
  -9  -2  11    1.44    0.32 
  -8  -2  11    1.73    0.32 
  -7  -2  11    0.39    0.19 
  -6  -2  11    5.84    0.44 
  -5  -2  11    1.22    0.25 
  -4  -2  11    1.86    0.26 
  -3  -2  11    4.37    0.34 
  -2  -2  11    1.06    0.16 
  -2  -2  11    0.88    0.18 
  -1  -2  11    0.06    0.11 
  -1  -2  11    0.18    0.13 
   0  -2  11    3.17    0.30 
   0  -2  11    3.36    0.27 
   1  -2  11    0.10    0.10 
   1  -2  11    0.16    0.13 
   2  -2  11    1.01    0.18 
   2  -2  11    0.74    0.18 
   3  -2  11    4.17    0.41 
   3  -2  11    4.52    0.34 
   4  -2  11    1.52    0.31 
   4  -2  11    2.51    0.27 
   5  -2  11    1.09    0.23 
   5  -2  11    1.30    0.31 
   6  -2  11    5.45    0.57 
   6  -2  11    5.73    0.45 
   7  -2  11    0.52    0.21 
   7  -2  11    0.45    0.27 
   8  -2  11    1.53    0.31 
   8  -2  11    0.84    0.32 
   9  -2  11    0.42    0.30 
  10  -2  11    0.63    0.38 
  11  -2  11    0.97    0.42 
  12  -2  11    1.51    0.50 
 -12  -1  11    0.07    0.31 
 -11  -1  11    0.45    0.33 
 -10  -1  11    1.54    0.36 
  -9  -1  11    1.52    0.33 
  -8  -1  11    4.95    0.48 
  -7  -1  11    2.93    0.36 
  -6  -1  11    9.30    0.58 
  -5  -1  11   14.64    0.74 
  -4  -1  11   14.71    0.73 
  -3  -1  11    7.86    0.47 
  -2  -1  11    5.11    0.34 
  -2  -1  11    4.00    0.29 
  -1  -1  11   11.04    0.55 
  -1  -1  11    9.58    0.50 
   0  -1  11    1.59    0.22 
   0  -1  11    1.60    0.19 
   1  -1  11   11.39    0.63 
   1  -1  11   11.09    0.53 
   2  -1  11    4.67    0.40 
   2  -1  11    4.58    0.30 
   3  -1  11    8.03    0.44 
   3  -1  11    7.72    0.54 
   4  -1  11   12.68    0.78 
   4  -1  11   12.51    0.63 
   5  -1  11   17.86    0.83 
   5  -1  11   16.08    0.97 
   6  -1  11    8.13    0.53 
   6  -1  11    8.50    0.65 
   7  -1  11    2.79    0.35 
   7  -1  11    3.11    0.48 
   8  -1  11    5.07    0.48 
   8  -1  11    4.91    0.60 
   9  -1  11    0.93    0.35 
  10  -1  11    2.23    0.47 
  11  -1  11    0.33    0.37 
  12  -1  11    0.32    0.39 
 -12   0  11   -0.40    0.32 
 -11   0  11    4.85    0.60 
 -10   0  11    0.62    0.32 
  -9   0  11    2.47    0.42 
  -8   0  11    0.57    0.25 
  -7   0  11    1.17    0.27 
  -6   0  11    8.97    0.56 
  -5   0  11    0.01    0.18 
  -4   0  11   56.66    2.17 
  -3   0  11   16.97    0.77 
  -3   0  11   17.82    0.80 
  -2   0  11    2.34    0.23 
  -2   0  11    2.01    0.23 
  -1   0  11   11.53    0.55 
  -1   0  11   11.71    0.60 
   0   0  11   -0.02    0.10 
   0   0  11   -0.08    0.07 
   1   0  11   12.08    0.55 
   1   0  11   11.33    0.64 
   2   0  11    2.55    0.22 
   2   0  11    2.00    0.28 
   3   0  11   16.69    0.88 
   3   0  11   15.67    0.71 
   4   0  11   50.53    1.95 
   4   0  11   53.25    2.24 
   5   0  11    0.05    0.14 
   5   0  11   -0.46    0.17 
   6   0  11    8.94    0.55 
   6   0  11    9.20    0.69 
   7   0  11    0.84    0.29 
   7   0  11    0.70    0.22 
   8   0  11    0.40    0.29 
   9   0  11    2.13    0.46 
  10   0  11    0.06    0.29 
  11   0  11    4.52    0.68 
  12   0  11    0.21    0.41 
 -12   1  11    0.51    0.39 
 -11   1  11    0.15    0.31 
 -10   1  11    1.45    0.40 
  -9   1  11    1.43    0.31 
  -8   1  11    5.45    0.53 
  -7   1  11    2.05    0.32 
  -6   1  11    8.49    0.57 
  -5   1  11   18.53    0.89 
  -4   1  11   13.78    0.66 
  -4   1  11   14.09    0.71 
  -3   1  11    8.20    0.46 
  -3   1  11    8.93    0.50 
  -2   1  11    4.52    0.33 
  -2   1  11    5.14    0.34 
  -1   1  11   11.30    0.54 
  -1   1  11   11.00    0.59 
   0   1  11    1.65    0.23 
   0   1  11    1.73    0.19 
   1   1  11   10.85    0.63 
   1   1  11   11.83    0.53 
   2   1  11    5.16    0.40 
   2   1  11    4.63    0.30 
   3   1  11    7.65    0.40 
   3   1  11    6.35    0.49 
   4   1  11   11.86    0.77 
   4   1  11   13.92    0.63 
   5   1  11   15.66    0.75 
   5   1  11   17.44    0.97 
   6   1  11    8.11    0.50 
   6   1  11    8.11    0.65 
   7   1  11    3.18    0.34 
   7   1  11    2.76    0.45 
   8   1  11    4.14    0.57 
   9   1  11    1.15    0.35 
  10   1  11    1.92    0.47 
  11   1  11   -0.13    0.28 
  12   1  11    0.26    0.40 
 -12   2  11    0.86    0.39 
 -11   2  11    0.50    0.35 
 -10   2  11    0.78    0.34 
  -9   2  11    0.65    0.28 
  -8   2  11    1.38    0.29 
  -7   2  11    0.56    0.25 
  -6   2  11    4.66    0.45 
  -5   2  11    1.41    0.26 
  -4   2  11    2.58    0.31 
  -4   2  11    2.34    0.25 
  -3   2  11    4.80    0.34 
  -3   2  11    4.41    0.35 
  -2   2  11    1.19    0.19 
  -2   2  11    0.84    0.18 
  -1   2  11    0.18    0.10 
  -1   2  11    0.19    0.13 
   0   2  11    4.08    0.36 
   0   2  11    4.19    0.28 
   1   2  11    0.31    0.15 
   1   2  11    0.12    0.09 
   2   2  11    0.95    0.21 
   2   2  11    1.11    0.15 
   3   2  11    4.08    0.42 
   3   2  11    4.39    0.28 
   4   2  11    1.74    0.31 
   4   2  11    1.83    0.20 
   5   2  11    1.90    0.35 
   5   2  11    1.22    0.19 
   6   2  11    5.28    0.55 
   6   2  11    5.04    0.36 
   7   2  11    0.55    0.20 
   7   2  11    0.51    0.27 
   8   2  11    1.36    0.36 
   9   2  11    1.22    0.36 
  10   2  11    0.25    0.30 
  11   2  11    0.74    0.38 
  12   2  11    0.83    0.45 
 -11   3  11    0.14    0.33 
 -10   3  11    1.86    0.39 
  -9   3  11    0.57    0.26 
  -8   3  11    2.47    0.38 
  -7   3  11    1.04    0.27 
  -6   3  11    1.94    0.32 
  -5   3  11    0.39    0.16 
  -5   3  11    0.13    0.18 
  -4   3  11    3.38    0.30 
  -4   3  11    2.89    0.33 
  -3   3  11    0.07    0.13 
  -3   3  11    0.73    0.19 
  -2   3  11    0.67    0.19 
  -2   3  11    0.91    0.17 
  -1   3  11    0.54    0.17 
  -1   3  11    0.49    0.13 
   0   3  11    0.47    0.12 
   0   3  11    0.57    0.18 
   1   3  11    0.54    0.12 
   1   3  11    0.48    0.18 
   2   3  11    0.77    0.22 
   2   3  11    0.77    0.13 
   3   3  11    0.26    0.09 
   3   3  11    0.06    0.16 
   4   3  11    3.08    0.40 
   5   3  11    0.11    0.21 
   5   3  11    0.21    0.11 
   6   3  11    2.17    0.40 
   7   3  11    1.22    0.34 
   8   3  11    3.02    0.49 
   9   3  11    0.67    0.32 
  10   3  11    2.52    0.51 
  11   3  11    0.47    0.37 
  12   3  11    0.96    0.45 
 -11   4  11    0.44    0.31 
 -10   4  11   -0.07    0.23 
  -9   4  11    0.24    0.25 
  -8   4  11    0.63    0.26 
  -7   4  11    0.51    0.24 
  -6   4  11    5.35    0.47 
  -5   4  11    0.60    0.17 
  -5   4  11    0.08    0.18 
  -4   4  11    3.74    0.34 
  -4   4  11    3.50    0.35 
  -3   4  11   15.81    0.76 
  -3   4  11   16.46    0.81 
  -2   4  11    0.45    0.17 
  -2   4  11    0.36    0.14 
  -1   4  11   22.79    1.09 
  -1   4  11   24.31    0.97 
   0   4  11    0.79    0.15 
   0   4  11    1.34    0.25 
   1   4  11   23.62    0.90 
   1   4  11   20.62    1.08 
   2   4  11    0.29    0.20 
   2   4  11    0.06    0.05 
   3   4  11   15.54    0.65 
   3   4  11   14.53    0.85 
   4   4  11    2.98    0.40 
   4   4  11    2.86    0.23 
   5   4  11    0.08    0.21 
   6   4  11    6.28    0.60 
   7   4  11    0.20    0.24 
   8   4  11    0.50    0.26 
   9   4  11    0.08    0.30 
  10   4  11    0.48    0.35 
  11   4  11   -0.15    0.33 
 -11   5  11    0.46    0.34 
 -10   5  11    0.99    0.36 
  -9   5  11    0.80    0.31 
  -8   5  11    1.47    0.33 
  -7   5  11    0.13    0.21 
  -6   5  11    0.13    0.18 
  -6   5  11    0.54    0.23 
  -5   5  11   11.39    0.65 
  -5   5  11   10.66    0.63 
  -4   5  11    7.15    0.49 
  -4   5  11    8.22    0.51 
  -3   5  11   17.54    0.87 
  -3   5  11   17.02    0.81 
  -2   5  11    5.39    0.36 
  -2   5  11    5.81    0.42 
  -1   5  11   22.69    1.10 
  -1   5  11   24.19    0.97 
   0   5  11    0.35    0.21 
   0   5  11    0.36    0.12 
   1   5  11   10.20    0.46 
   2   5  11    5.27    0.49 
   2   5  11    5.06    0.29 
   3   5  11   14.58    0.63 
   3   5  11   16.09    0.89 
   4   5  11    6.68    0.58 
   5   5  11   11.21    0.77 
   6   5  11    0.07    0.20 
   7   5  11    0.21    0.21 
   8   5  11    1.34    0.36 
   9   5  11    1.54    0.41 
  10   5  11    1.50    0.44 
  11   5  11   -0.17    0.35 
 -11   6  11    0.70    0.36 
 -10   6  11    0.79    0.36 
  -9   6  11   -0.03    0.23 
  -8   6  11   -0.16    0.19 
  -7   6  11    2.07    0.34 
  -6   6  11    1.01    0.24 
  -6   6  11    0.83    0.26 
  -5   6  11    1.11    0.24 
  -5   6  11    0.66    0.22 
  -4   6  11    2.09    0.31 
  -4   6  11    2.16    0.31 
  -3   6  11    3.85    0.35 
  -3   6  11    3.90    0.39 
  -2   6  11    8.04    0.55 
  -2   6  11    8.91    0.47 
  -1   6  11    2.29    0.32 
  -1   6  11    2.61    0.24 
   0   6  11    5.36    0.48 
   1   6  11    2.62    0.21 
   1   6  11    2.64    0.37 
   2   6  11    8.27    0.59 
   3   6  11    3.68    0.44 
   4   6  11    2.30    0.39 
   5   6  11    0.65    0.27 
   6   6  11    0.70    0.26 
   7   6  11    2.50    0.46 
   8   6  11    0.09    0.28 
   9   6  11    0.16    0.29 
  10   6  11    0.81    0.38 
  11   6  11    0.88    0.46 
 -10   7  11   -0.05    0.28 
  -9   7  11    0.46    0.31 
  -8   7  11    1.37    0.35 
  -7   7  11    0.24    0.21 
  -7   7  11    0.18    0.23 
  -6   7  11    2.02    0.33 
  -6   7  11    2.75    0.35 
  -5   7  11    0.74    0.24 
  -5   7  11    0.67    0.23 
  -4   7  11    3.14    0.36 
  -4   7  11    2.63    0.32 
  -3   7  11    2.72    0.34 
  -3   7  11    2.39    0.29 
  -2   7  11    1.30    0.28 
  -2   7  11    1.14    0.20 
  -1   7  11    5.51    0.35 
  -1   7  11    8.00    0.53 
   0   7  11    9.33    0.62 
   0   7  11    9.62    0.46 
   1   7  11    8.52    0.62 
   2   7  11    1.26    0.29 
   3   7  11    2.88    0.42 
   4   7  11    3.17    0.45 
   5   7  11    0.55    0.26 
   6   7  11    3.05    0.48 
   7   7  11    0.17    0.25 
   8   7  11    1.44    0.37 
   9   7  11    0.11    0.28 
  10   7  11    0.60    0.38 
  11   7  11    0.83    0.50 
 -10   8  11    0.74    0.38 
  -9   8  11    0.82    0.32 
  -8   8  11    0.51    0.28 
  -7   8  11    0.12    0.21 
  -7   8  11    0.26    0.24 
  -6   8  11    1.49    0.31 
  -6   8  11    1.11    0.29 
  -5   8  11    0.88    0.24 
  -5   8  11    1.27    0.29 
  -4   8  11    1.21    0.25 
  -4   8  11    1.10    0.28 
  -3   8  11    7.39    0.54 
  -3   8  11    7.11    0.47 
  -2   8  11    6.33    0.49 
  -2   8  11    5.89    0.38 
  -1   8  11    2.50    0.37 
  -1   8  11    2.63    0.24 
   0   8  11    0.11    0.20 
   1   8  11    2.61    0.40 
   2   8  11    5.29    0.53 
   3   8  11    7.72    0.62 
   4   8  11    1.63    0.36 
   5   8  11    0.62    0.27 
   6   8  11    2.13    0.44 
   7   8  11   -0.10    0.22 
   8   8  11    0.87    0.37 
   9   8  11    0.78    0.34 
  10   8  11    0.43    0.37 
 -10   9  11    0.41    0.36 
  -9   9  11   -0.31    0.26 
  -8   9  11    0.51    0.31 
  -7   9  11    0.63    0.29 
  -7   9  11    0.13    0.24 
  -6   9  11    0.22    0.22 
  -6   9  11    0.62    0.28 
  -5   9  11    2.41    0.38 
  -5   9  11    2.43    0.34 
  -4   9  11    2.30    0.31 
  -4   9  11    2.44    0.35 
  -3   9  11    0.15    0.20 
  -3   9  11    0.30    0.22 
  -2   9  11    1.75    0.34 
  -2   9  11    0.73    0.16 
  -1   9  11   10.62    0.70 
   0   9  11    8.73    0.62 
   1   9  11   10.49    0.72 
   2   9  11    2.64    0.42 
   3   9  11    0.52    0.27 
   4   9  11    2.91    0.47 
   5   9  11    2.14    0.42 
  -6  -9 -11    0.56    0.22 
   6   9  11    0.63    0.31 
   7   9  11    0.32    0.32 
   8   9  11    0.92    0.36 
   9   9  11   -0.29    0.32 
  10   9  11    0.20    0.42 
  -9  10  11    0.57    0.35 
  -8  10  11    1.24    0.38 
  -8  10  11    0.47    0.35 
  -7  10  11    0.99    0.32 
  -7  10  11    0.82    0.33 
  -6  10  11    1.58    0.32 
  -6  10  11    1.64    0.35 
  -5  10  11    0.39    0.25 
  -5  10  11    0.34    0.23 
  -4  10  11    1.72    0.34 
  -4  10  11    1.76    0.30 
  -3  10  11    1.39    0.33 
  -2  10  11    1.91    0.35 
  -1  10  11    2.90    0.41 
   0  10  11    1.54    0.34 
   1  10  11    3.18    0.44 
   2  10  11    1.58    0.36 
   3  10  11    1.33    0.34 
   4  10  11    2.30    0.43 
   5  10  11    0.36    0.26 
   6  10  11    1.63    0.40 
   7  10  11    1.11    0.40 
   8  10  11    1.09    0.39 
   9  10  11    0.50    0.41 
  -8  11  11    0.06    0.29 
  -8  11  11    0.06    0.32 
  -7  11  11    0.34    0.29 
  -7  11  11   -0.03    0.27 
  -6  11  11    0.39    0.26 
  -6  11  11    0.68    0.33 
  -5  11  11    1.22    0.34 
  -5  11  11    1.41    0.33 
  -4  11  11    4.14    0.50 
  -3  11  11    1.08    0.30 
  -2  11  11    5.73    0.57 
  -1  11  11    0.63    0.28 
   0  11  11   -0.03    0.21 
   1  11  11    0.85    0.32 
   2  11  11    5.56    0.59 
   3  11  11    1.29    0.35 
   4  11  11    5.59    0.63 
   5  11  11    1.93    0.42 
   6  11  11    0.09    0.28 
   7  11  11    0.21    0.32 
   8  11  11    0.48    0.39 
  -8  12  11    0.58    0.37 
  -8  12  11    0.25    0.35 
  -7  12  11   -0.10    0.32 
  -7  12  11    0.04    0.29 
  -6  12  11    1.17    0.35 
  -5  12  11    1.59    0.39 
  -4  12  11    1.02    0.32 
  -3  12  11   -0.28    0.22 
  -2  12  11    3.87    0.51 
  -1  12  11    0.12    0.26 
   0  12  11    1.90    0.40 
   1  12  11    0.33    0.25 
   2  12  11    4.79    0.57 
   3  12  11    0.27    0.27 
   4  12  11    1.25    0.38 
   5  12  11    0.87    0.36 
   6  12  11    1.10    0.42 
   7  12  11    0.38    0.34 
   8  12  11    0.32    0.42 
  -7  13  11    0.37    0.38 
  -6  13  11    0.16    0.35 
  -5  13  11    0.11    0.28 
  -4  13  11    0.18    0.29 
  -3  13  11    1.08    0.36 
  -2  13  11    1.34    0.41 
  -1  13  11    0.13    0.29 
   0  13  11    0.57    0.32 
   1  13  11   -0.01    0.26 
   2  13  11    1.44    0.42 
   3  13  11    1.64    0.44 
   4  13  11    0.39    0.33 
   5  13  11   -0.09    0.28 
   6  13  11    0.53    0.35 
   7  13  11   -0.09    0.38 
  -5  14  11    0.53    0.39 
  -4  14  11    0.50    0.37 
  -3  14  11    0.16    0.30 
  -2  14  11    1.05    0.37 
  -1  14  11   -0.14    0.29 
   0  14  11    0.19    0.29 
   1  14  11   -0.17    0.27 
   2  14  11    1.64    0.41 
   3  14  11    0.38    0.33 
   4  14  11    0.15    0.33 
   5  14  11    0.74    0.41 
  -4  15  11    0.13    0.33 
  -3  15  11    0.24    0.36 
  -2  15  11    0.18    0.34 
  -1  15  11    0.47    0.38 
   0  15  11    0.23    0.36 
   1  15  11    0.03    0.31 
   2  15  11    0.67    0.35 
   3  15  11    0.22    0.34 
   4  15  11    0.11    0.39 
   0  16  11   -0.05    0.33 
  -2 -15  12    0.86    0.34 
  -1 -15  12    0.64    0.33 
   0 -15  12    0.02    0.30 
   1 -15  12    0.59    0.35 
   2 -15  12    0.35    0.35 
  -3 -14  12    0.18    0.27 
  -2 -14  12   -0.04    0.25 
  -1 -14  12    0.03    0.24 
   0 -14  12    0.15    0.27 
   1 -14  12    0.53    0.31 
   2 -14  12   -0.14    0.26 
   3 -14  12    0.54    0.33 
   4 -14  12   -0.13    0.32 
  -6 -13  12    0.62    0.35 
  -5 -13  12    0.28    0.26 
  -5 -13  12    0.15    0.30 
  -4 -13  12    0.56    0.26 
  -3 -13  12    1.04    0.30 
  -2 -13  12    0.71    0.27 
  -1 -13  12    1.84    0.35 
   0 -13  12    0.13    0.23 
   1 -13  12    1.92    0.37 
   2 -13  12    0.44    0.28 
   3 -13  12    0.96    0.33 
   4 -13  12    0.99    0.35 
  -5  13 -12    0.00    0.40 
   5 -13  12    0.51    0.35 
  -6  13 -12    0.72    0.48 
   6 -13  12    0.70    0.39 
  -7 -12  12    0.00    0.30 
  -6 -12  12    0.88    0.28 
  -6 -12  12    0.61    0.32 
  -5 -12  12    1.45    0.35 
  -5 -12  12    0.39    0.23 
  -4 -12  12    0.88    0.33 
  -4 -12  12    1.54    0.30 
  -3 -12  12    3.70    0.41 
  -2 -12  12    0.15    0.20 
  -1 -12  12    1.49    0.30 
   0 -12  12    0.86    0.26 
   1 -12  12    2.06    0.36 
   2 -12  12    0.29    0.25 
   3 -12  12    3.55    0.47 
  -4  12 -12    1.03    0.42 
   4 -12  12    1.40    0.36 
  -5  12 -12    0.12    0.35 
   5 -12  12    0.21    0.27 
  -6  12 -12    0.42    0.41 
   6 -12  12    1.13    0.40 
  -7  12 -12    0.03    0.43 
   7 -12  12    0.67    0.38 
  -8 -11  12   -0.16    0.30 
  -7 -11  12    0.21    0.22 
  -7 -11  12   -0.18    0.28 
  -6 -11  12   -0.07    0.26 
  -6 -11  12   -0.08    0.17 
  -5 -11  12    1.57    0.29 
  -5 -11  12    1.29    0.32 
  -4 -11  12    0.18    0.25 
  -4 -11  12    0.35    0.21 
  -3 -11  12    3.21    0.37 
  -2 -11  12    2.69    0.35 
  -1 -11  12    1.58    0.30 
   0 -11  12    0.82    0.24 
   1 -11  12    2.05    0.34 
   2 -11  12    2.54    0.37 
  -3  11 -12    3.26    0.51 
   3 -11  12    3.98    0.47 
  -4  11 -12    0.27    0.31 
   4 -11  12    0.20    0.24 
  -5  11 -12    1.30    0.42 
   5 -11  12    1.65    0.41 
  -6  11 -12   -0.08    0.34 
   6 -11  12   -0.11    0.27 
  -7  11 -12   -0.32    0.36 
   7 -11  12    0.36    0.34 
  -8  11 -12   -0.04    0.39 
  -8 -10  12    0.61    0.33 
  -8 -10  12    0.32    0.22 
  -7 -10  12    0.94    0.26 
  -7 -10  12    0.88    0.32 
  -6 -10  12    2.47    0.41 
  -6 -10  12    1.93    0.31 
  -5 -10  12    1.64    0.35 
  -5 -10  12    1.49    0.27 
  -4 -10  12    0.08    0.18 
  -4 -10  12    0.28    0.23 
  -3 -10  12    2.69    0.34 
  -3 -10  12    2.46    0.36 
  -2 -10  12   -0.07    0.17 
  -1 -10  12    0.55    0.21 
   0 -10  12   -0.25    0.14 
   1 -10  12    0.57    0.22 
   2 -10  12    0.28    0.21 
  -3  10 -12    2.27    0.43 
   3 -10  12    3.29    0.42 
  -4  10 -12    0.05    0.29 
   4 -10  12    0.09    0.21 
  -5  10 -12    0.85    0.35 
   5 -10  12    0.95    0.32 
  -6  10 -12    0.96    0.42 
   6 -10  12    3.17    0.48 
  -7  10 -12    0.38    0.35 
   7 -10  12    0.85    0.32 
  -8  10 -12    0.12    0.42 
  -9  -9  12    0.19    0.24 
  -9  -9  12    0.42    0.36 
  -8  -9  12    0.76    0.27 
  -8  -9  12    0.90    0.38 
  -7  -9  12    0.43    0.30 
  -7  -9  12    0.60    0.21 
  -6  -9  12    0.47    0.27 
  -6  -9  12    0.35    0.20 
  -5  -9  12    1.44    0.31 
  -5  -9  12    1.61    0.28 
  -4  -9  12    0.49    0.23 
  -4  -9  12    0.14    0.17 
  -3  -9  12    5.73    0.41 
  -3  -9  12    6.00    0.49 
  -2  -9  12    1.28    0.26 
  -1  -9  12    2.56    0.33 
   0  -9  12    0.10    0.15 
   1  -9  12    2.91    0.35 
  -2   9 -12    0.67    0.31 
   2  -9  12    1.23    0.27 
  -3   9 -12    5.76    0.59 
   3  -9  12    5.06    0.48 
  -4   9 -12    0.34    0.30 
   4  -9  12    0.24    0.22 
  -5   9 -12    1.80    0.44 
   5  -9  12    1.57    0.33 
  -6   9 -12    0.48    0.35 
   6  -9  12    0.30    0.24 
  -7   9 -12   -0.02    0.35 
   7  -9  12    0.46    0.28 
  -8   9 -12    0.35    0.43 
   8  -9  12    0.37    0.29 
  -9   9 -12    0.27    0.46 
 -10  -8  12    1.23    0.32 
 -10  -8  12    1.69    0.48 
  -9  -8  12    0.40    0.33 
  -9  -8  12   -0.05    0.20 
  -8  -8  12    0.26    0.21 
  -8  -8  12    0.69    0.34 
  -7  -8  12    1.17    0.26 
  -7  -8  12    1.15    0.35 
  -6  -8  12    0.73    0.22 
  -6  -8  12    1.13    0.30 
  -5  -8  12    2.00    0.35 
  -5  -8  12    2.02    0.28 
  -4  -8  12    0.99    0.22 
  -4  -8  12    1.16    0.29 
  -3  -8  12    0.94    0.26 
  -3  -8  12    0.88    0.21 
  -2  -8  12    0.48    0.19 
  -2  -8  12    0.71    0.24 
  -1  -8  12    0.07    0.16 
   0  -8  12    9.16    0.55 
   1  -8  12    0.36    0.19 
  -2   8 -12    0.68    0.30 
   2  -8  12    0.81    0.22 
  -3   8 -12    1.34    0.36 
   3  -8  12    0.99    0.26 
  -4   8 -12    0.63    0.33 
   4  -8  12    0.98    0.27 
  -5   8 -12    1.30    0.39 
   5  -8  12    2.17    0.36 
  -6   8 -12    0.71    0.33 
   6  -8  12    1.28    0.31 
  -7   8 -12    1.24    0.41 
   7  -8  12    0.94    0.30 
  -8   8 -12    0.62    0.40 
   8  -8  12    0.45    0.30 
  -9   8 -12    0.17    0.43 
 -10   8 -12    1.53    0.56 
 -10  -7  12    0.27    0.26 
  -9  -7  12    0.98    0.27 
  -8  -7  12    0.02    0.20 
  -7  -7  12    0.54    0.21 
  -6  -7  12    1.37    0.25 
  -5  -7  12    0.42    0.18 
  -5  -7  12    0.23    0.22 
  -4  -7  12   10.35    0.65 
  -4  -7  12    9.79    0.56 
  -3  -7  12    0.13    0.16 
  -3  -7  12    0.32    0.19 
  -2  -7  12   15.31    0.72 
  -2  -7  12   13.34    0.72 
  -1  -7  12    1.42    0.24 
   0  -7  12    2.37    0.29 
  -1   7 -12    0.74    0.19 
   1  -7  12    1.80    0.27 
   2  -7  12   14.63    0.76 
  -3   7 -12    0.04    0.24 
   3  -7  12    0.00    0.15 
  -4   7 -12    9.75    0.76 
   4  -7  12   10.33    0.63 
  -5   7 -12    0.46    0.29 
   5  -7  12    0.86    0.23 
  -6   7 -12    1.42    0.39 
   6  -7  12    1.73    0.34 
  -7   7 -12    0.87    0.39 
   7  -7  12    0.50    0.26 
  -8   7 -12    0.02    0.35 
   8  -7  12    0.10    0.26 
  -9   7 -12    1.45    0.52 
 -10   7 -12    0.20    0.47 
 -10  -6  12   -0.34    0.22 
  -9  -6  12    0.89    0.27 
  -8  -6  12    0.20    0.20 
  -7  -6  12    0.31    0.19 
  -6  -6  12    0.54    0.20 
  -5  -6  12    0.57    0.20 
  -4  -6  12    0.54    0.20 
  -3  -6  12    1.06    0.21 
  -2  -6  12    5.01    0.36 
  -2  -6  12    4.66    0.37 
  -1  -6  12    1.74    0.23 
  -1  -6  12    1.36    0.23 
   0  -6  12    4.42    0.37 
  -1   6 -12    0.10    0.10 
   1  -6  12    1.27    0.23 
  -2   6 -12    4.80    0.48 
   2  -6  12    5.58    0.43 
  -3   6 -12    1.36    0.36 
   3  -6  12    1.05    0.24 
  -4   6 -12    0.36    0.29 
   4  -6  12    0.49    0.19 
  -5   6 -12    0.33    0.30 
   5  -6  12    0.54    0.22 
  -6   6 -12    1.23    0.39 
   6  -6  12    1.03    0.27 
  -7   6 -12    0.79    0.39 
   7  -6  12    0.55    0.24 
  -8   6 -12    0.20    0.38 
   8  -6  12    0.48    0.27 
  -9   6 -12    0.15    0.40 
 -10   6 -12    0.11    0.39 
 -11  -5  12    0.16    0.26 
 -10  -5  12    0.81    0.29 
  -9  -5  12    0.63    0.25 
  -8  -5  12    0.47    0.22 
  -7  -5  12    0.15    0.18 
  -6  -5  12    0.31    0.18 
  -5  -5  12    2.49    0.31 
  -4  -5  12    2.57    0.31 
  -3  -5  12    3.33    0.32 
  -2  -5  12    9.73    0.53 
  -1  -5  12   15.63    0.74 
   0   5 -12   11.67    0.68 
   0  -5  12   11.27    0.59 
   1  -5  12   13.99    0.71 
   1  -5  12   14.97    0.78 
   2  -5  12   11.24    0.66 
   2  -5  12   10.07    0.58 
   3  -5  12    4.29    0.38 
   3  -5  12    4.99    0.47 
   4  -5  12    2.45    0.33 
   4  -5  12    2.97    0.42 
   5  -5  12    2.59    0.42 
   5  -5  12    2.04    0.32 
   6  -5  12   -0.17    0.20 
   6  -5  12    0.11    0.19 
   7  -5  12    0.15    0.27 
   7  -5  12    0.21    0.21 
   8  -5  12    0.46    0.26 
   8  -5  12   -0.02    0.27 
  -9   5 -12    0.86    0.45 
 -10   5 -12    1.33    0.56 
 -11   5 -12    0.32    0.49 
 -11  -4  12   -0.16    0.26 
 -10  -4  12    2.13    0.38 
  -9  -4  12    1.95    0.36 
  -8  -4  12    0.59    0.24 
  -7  -4  12    0.91    0.25 
  -6  -4  12    1.54    0.27 
  -5  -4  12   11.16    0.62 
  -4  -4  12   16.08    0.78 
  -3  -4  12   22.30    0.98 
  -2  -4  12   17.62    0.81 
  -1  -4  12    2.55    0.28 
   0  -4  12    0.36    0.15 
   0  -4  12    0.11    0.14 
   1  -4  12    2.15    0.29 
   1  -4  12    2.18    0.26 
   2  -4  12   16.10    0.87 
   2  -4  12   16.09    0.76 
   3  -4  12   21.02    1.11 
   3  -4  12   22.51    0.99 
   4  -4  12   16.22    0.92 
   4  -4  12   15.22    0.79 
   5  -4  12   11.82    0.68 
   5  -4  12   11.17    0.78 
   6  -4  12    1.26    0.34 
   6  -4  12    1.85    0.31 
   7  -4  12    1.17    0.28 
   7  -4  12    0.69    0.30 
   8  -4  12    0.73    0.33 
   8  -4  12    1.41    0.32 
   9  -4  12    1.92    0.46 
  10  -4  12    1.80    0.51 
 -11   4 -12    0.26    0.44 
 -11  -3  12   -0.31    0.24 
 -10  -3  12    0.14    0.25 
  -9  -3  12    1.53    0.34 
  -8  -3  12    0.88    0.28 
  -7  -3  12    0.23    0.19 
  -6  -3  12    2.60    0.32 
  -5  -3  12    8.70    0.54 
  -4  -3  12    1.22    0.23 
  -3  -3  12    6.13    0.40 
  -2  -3  12   17.36    0.79 
  -1  -3  12    4.90    0.35 
  -1  -3  12    5.03    0.36 
   0  -3  12    2.56    0.28 
   0  -3  12    2.46    0.26 
   1  -3  12    5.14    0.35 
   1  -3  12    4.69    0.38 
   2  -3  12   18.84    0.83 
   2  -3  12   16.95    0.91 
   3  -3  12    5.21    0.39 
   3  -3  12    5.04    0.47 
   4  -3  12    1.26    0.25 
   4  -3  12    0.70    0.25 
   5  -3  12    8.38    0.65 
   5  -3  12    8.79    0.56 
   6  -3  12    2.23    0.33 
   6  -3  12    2.29    0.40 
   7  -3  12    0.41    0.29 
   7  -3  12    0.28    0.19 
   8  -3  12    1.09    0.29 
   8  -3  12    0.71    0.35 
   9  -3  12    1.16    0.38 
  10  -3  12   -0.07    0.31 
  11  -3  12    0.17    0.40 
 -11  -2  12    0.28    0.29 
 -10  -2  12    0.45    0.31 
  -9  -2  12    0.46    0.27 
  -8  -2  12    2.17    0.36 
  -7  -2  12    1.89    0.33 
  -6  -2  12    1.77    0.30 
  -5  -2  12    1.12    0.24 
  -4  -2  12    0.93    0.21 
  -3  -2  12    1.63    0.25 
  -2  -2  12    0.97    0.20 
  -1  -2  12    2.42    0.25 
  -1  -2  12    2.63    0.26 
   0  -2  12    0.06    0.13 
   0  -2  12    0.20    0.13 
   1  -2  12    3.51    0.34 
   1  -2  12    3.01    0.28 
   2  -2  12    0.98    0.23 
   2  -2  12    1.28    0.21 
   3  -2  12    1.97    0.31 
   3  -2  12    1.58    0.24 
   4  -2  12    1.04    0.22 
   4  -2  12    1.14    0.30 
   5  -2  12    1.05    0.30 
   5  -2  12    1.42    0.25 
   6  -2  12    1.40    0.34 
   6  -2  12    1.74    0.29 
   7  -2  12    1.73    0.30 
   7  -2  12    1.50    0.38 
   8  -2  12    3.44    0.53 
   8  -2  12    2.55    0.38 
   9  -2  12    0.34    0.34 
  10  -2  12    0.44    0.37 
  11  -2  12    0.05    0.37 
 -11  -1  12    0.40    0.34 
 -10  -1  12    2.86    0.46 
  -9  -1  12   -0.03    0.24 
  -8  -1  12    0.19    0.20 
  -7  -1  12    0.54    0.23 
  -6  -1  12    6.78    0.49 
  -5  -1  12    5.58    0.42 
  -4  -1  12   17.87    0.84 
  -3  -1  12    2.29    0.28 
  -2  -1  12    6.57    0.39 
  -2  -1  12    6.46    0.41 
  -1  -1  12   -0.02    0.11 
  -1  -1  12    0.23    0.14 
   0  -1  12    1.53    0.21 
   0  -1  12    1.52    0.23 
   1  -1  12    0.26    0.14 
   1  -1  12    0.27    0.16 
   2  -1  12    6.21    0.38 
   2  -1  12    5.96    0.46 
   3  -1  12    1.72    0.32 
   3  -1  12    2.25    0.26 
   4  -1  12   14.88    0.73 
   4  -1  12   15.23    0.89 
   5  -1  12    5.54    0.41 
   5  -1  12    5.60    0.56 
   6  -1  12    6.24    0.48 
   6  -1  12    6.04    0.60 
   7  -1  12    0.08    0.26 
   7  -1  12    0.07    0.19 
   8  -1  12    0.14    0.27 
   8  -1  12    0.10    0.22 
   9  -1  12    0.11    0.32 
  10  -1  12    3.90    0.62 
  11  -1  12   -0.17    0.33 
 -11   0  12    0.24    0.33 
 -10   0  12    0.10    0.27 
  -9   0  12   10.39    0.73 
  -8   0  12    0.32    0.24 
  -7   0  12   17.69    0.91 
  -6   0  12    6.17    0.49 
  -5   0  12   16.65    0.84 
  -4   0  12    2.78    0.32 
  -3   0  12   19.50    0.89 
  -2   0  12    2.07    0.23 
  -2   0  12    1.82    0.24 
  -1   0  12    6.77    0.40 
  -1   0  12    7.01    0.44 
   0   0  12    4.01    0.30 
   0   0  12    4.32    0.34 
   1   0  12    6.78    0.46 
   1   0  12    6.28    0.38 
   2   0  12    1.70    0.21 
   2   0  12    1.72    0.28 
   3   0  12   17.59    0.80 
   3   0  12   18.55    0.98 
   4   0  12    2.84    0.40 
   4   0  12    2.57    0.29 
   5   0  12   17.22    0.80 
   5   0  12   14.78    0.93 
   6   0  12    6.52    0.64 
   6   0  12    7.09    0.49 
   7   0  12   16.91    1.07 
   7   0  12   17.61    0.89 
   8   0  12    0.36    0.29 
   8   0  12    0.34    0.23 
   9   0  12    9.36    0.85 
  10   0  12   -0.07    0.29 
  11   0  12    0.52    0.36 
 -11   1  12    0.01    0.29 
 -10   1  12    3.73    0.54 
  -9   1  12   -0.08    0.26 
  -8   1  12    0.35    0.25 
  -7   1  12    0.32    0.22 
  -6   1  12    5.72    0.48 
  -5   1  12    4.46    0.39 
  -4   1  12   16.64    0.82 
  -3   1  12    2.17    0.28 
  -3   1  12    2.66    0.26 
  -2   1  12    6.07    0.40 
  -2   1  12    6.06    0.39 
  -1   1  12    0.29    0.14 
  -1   1  12    0.17    0.14 
   0   1  12    1.67    0.25 
   0   1  12    1.30    0.18 
   1   1  12    0.17    0.10 
   1   1  12    0.17    0.14 
   2   1  12    5.55    0.34 
   2   1  12    5.67    0.47 
   3   1  12    2.04    0.22 
   3   1  12    2.46    0.35 
   4   1  12   14.70    0.86 
   4   1  12   14.55    0.69 
   5   1  12    5.21    0.39 
   5   1  12    4.49    0.51 
   6   1  12    5.84    0.42 
   6   1  12    4.24    0.54 
   7   1  12    0.35    0.21 
   7   1  12   -0.11    0.24 
   8   1  12    0.45    0.30 
   9   1  12   -0.09    0.26 
  10   1  12    2.85    0.56 
  11   1  12    0.90    0.38 
 -11   2  12   -0.04    0.32 
 -10   2  12    0.37    0.31 
  -9   2  12    0.21    0.28 
  -8   2  12    2.46    0.41 
  -7   2  12    2.17    0.36 
  -6   2  12    1.72    0.29 
  -5   2  12    1.22    0.26 
  -4   2  12    1.60    0.27 
  -3   2  12    2.20    0.26 
  -3   2  12    1.96    0.27 
  -2   2  12    1.30    0.21 
  -2   2  12    0.91    0.20 
  -1   2  12    2.64    0.26 
  -1   2  12    3.21    0.32 
   0   2  12   -0.05    0.11 
   0   2  12    0.08    0.09 
   1   2  12    3.01    0.25 
   1   2  12    3.02    0.34 
   2   2  12    1.15    0.27 
   2   2  12    1.23    0.17 
   3   2  12    1.83    0.32 
   3   2  12    1.83    0.21 
   4   2  12    1.39    0.29 
   4   2  12    1.37    0.19 
   5   2  12    1.07    0.19 
   5   2  12    0.89    0.30 
   6   2  12    2.05    0.27 
   6   2  12    1.39    0.35 
   7   2  12    1.62    0.41 
   8   2  12    3.15    0.53 
   9   2  12    0.31    0.32 
  10   2  12    0.74    0.39 
  11   2  12    0.89    0.39 
 -11   3  12   -0.12    0.28 
 -10   3  12    0.42    0.30 
  -9   3  12    1.22    0.35 
  -8   3  12    1.24    0.33 
  -7   3  12    0.61    0.27 
  -6   3  12    2.86    0.37 
  -5   3  12    8.58    0.55 
  -4   3  12    0.79    0.23 
  -4   3  12    0.92    0.20 
  -3   3  12    6.38    0.44 
  -3   3  12    5.82    0.42 
  -2   3  12   18.27    0.83 
  -2   3  12   19.00    0.91 
  -1   3  12    5.36    0.42 
  -1   3  12    5.71    0.35 
   0   3  12    2.58    0.32 
   0   3  12    2.84    0.24 
   1   3  12    4.96    0.30 
   1   3  12    5.14    0.45 
   2   3  12   19.04    0.98 
   2   3  12   18.33    0.78 
   3   3  12    5.73    0.34 
   3   3  12    5.30    0.50 
   4   3  12    0.84    0.26 
   4   3  12    0.68    0.13 
   5   3  12    7.70    0.62 
   6   3  12    2.43    0.42 
   7   3  12    0.04    0.23 
   8   3  12    0.85    0.34 
   9   3  12    1.09    0.37 
  10   3  12   -0.25    0.31 
  11   3  12   -0.21    0.33 
 -11   4  12    0.14    0.34 
 -10   4  12    2.01    0.44 
  -9   4  12    2.08    0.39 
  -8   4  12    0.60    0.25 
  -7   4  12    2.04    0.36 
  -6   4  12    2.11    0.33 
  -5   4  12   11.95    0.68 
  -5   4  12   11.55    0.65 
  -4   4  12   15.73    0.80 
  -4   4  12   16.52    0.82 
  -3   4  12   21.85    1.04 
  -3   4  12   22.47    0.99 
  -2   4  12   17.23    0.88 
  -2   4  12   17.85    0.80 
  -1   4  12    2.32    0.31 
  -1   4  12    2.75    0.25 
   0   4  12    0.27    0.20 
   0   4  12    0.36    0.12 
   1   4  12    2.51    0.22 
   1   4  12    2.64    0.36 
   2   4  12   10.21    0.48 
   3   4  12   22.93    1.13 
   3   4  12   19.56    0.84 
   4   4  12   15.68    0.71 
   4   4  12   17.10    0.96 
   5   4  12   10.93    0.77 
   6   4  12    1.11    0.31 
   7   4  12    1.02    0.34 
   8   4  12    0.87    0.37 
   9   4  12    1.41    0.45 
  10   4  12    1.92    0.49 
  11   4  12    0.12    0.39 
 -11   5  12    0.02    0.33 
 -10   5  12    1.21    0.39 
  -9   5  12    0.83    0.33 
  -8   5  12    0.43    0.27 
  -7   5  12    0.29    0.23 
  -6   5  12    0.13    0.20 
  -5   5  12    3.94    0.39 
  -5   5  12    2.99    0.37 
  -4   5  12    2.41    0.31 
  -4   5  12    2.67    0.33 
  -3   5  12    4.82    0.39 
  -3   5  12    4.52    0.41 
  -2   5  12   11.50    0.59 
  -2   5  12   11.17    0.66 
  -1   5  12   16.01    0.85 
  -1   5  12   15.10    0.70 
   0   5  12   12.37    0.73 
   0   5  12   11.26    0.55 
   1   5  12   16.10    0.90 
   2   5  12   11.01    0.72 
   2   5  12   10.51    0.49 
   3   5  12    3.68    0.44 
   4   5  12    2.23    0.39 
   5   5  12    2.77    0.43 
   6   5  12   -0.04    0.22 
   7   5  12    0.39    0.28 
   8   5  12    0.17    0.27 
   9   5  12    1.11    0.36 
  10   5  12    0.90    0.42 
  11   5  12    0.26    0.36 
 -10   6  12    0.57    0.37 
  -9   6  12   -0.01    0.28 
  -8   6  12    0.89    0.30 
  -7   6  12    0.91    0.26 
  -6   6  12    0.55    0.23 
  -5   6  12    0.85    0.25 
  -5   6  12    0.21    0.21 
  -4   6  12    0.76    0.25 
  -4   6  12    0.72    0.22 
  -3   6  12    1.80    0.30 
  -3   6  12    1.40    0.25 
  -2   6  12    5.17    0.37 
  -2   6  12    5.58    0.47 
  -1   6  12    2.04    0.32 
  -1   6  12    1.71    0.21 
   0   6  12    1.80    0.18 
   1   6  12    1.42    0.17 
   1   6  12    2.42    0.35 
   2   6  12    4.86    0.50 
   3   6  12    1.28    0.31 
   4   6  12    0.29    0.23 
   5   6  12   -0.30    0.17 
   6   6  12    0.71    0.29 
   7   6  12    0.88    0.30 
   8   6  12    0.24    0.28 
   9   6  12    1.19    0.38 
  10   6  12   -0.06    0.36 
 -10   7  12    0.19    0.32 
  -9   7  12    1.03    0.36 
  -8   7  12    0.06    0.25 
  -7   7  12    0.45    0.24 
  -6   7  12    1.12    0.29 
  -6   7  12    1.67    0.30 
  -5   7  12    0.61    0.24 
  -5   7  12    0.68    0.25 
  -4   7  12   10.83    0.68 
  -4   7  12   10.11    0.61 
  -3   7  12    0.40    0.19 
  -3   7  12    0.32    0.20 
  -2   7  12   14.10    0.82 
  -2   7  12   14.66    0.70 
  -1   7  12    2.00    0.33 
  -1   7  12    2.21    0.24 
   0   7  12    2.68    0.23 
   0   7  12    2.22    0.37 
   1   7  12    1.78    0.34 
   2   7  12   14.44    0.88 
   3   7  12   -0.18    0.21 
   4   7  12    9.58    0.71 
   5   7  12   -0.08    0.24 
   6   7  12    1.18    0.35 
   7   7  12    0.47    0.27 
   8   7  12    0.44    0.30 
   9   7  12    0.49    0.39 
  10   7  12    0.53    0.37 
  -9   8  12   -0.03    0.28 
  -8   8  12    0.33    0.25 
  -7   8  12    0.49    0.27 
  -6   8  12    1.23    0.29 
  -6   8  12    0.95    0.30 
  -5   8  12    1.63    0.30 
  -5   8  12    2.40    0.36 
  -4   8  12    1.22    0.27 
  -4   8  12    1.17    0.30 
  -3   8  12    1.19    0.24 
  -3   8  12    1.31    0.32 
  -2   8  12    0.81    0.25 
  -2   8  12    0.85    0.22 
  -1   8  12    0.25    0.23 
   0   8  12    9.93    0.68 
   1   8  12    0.41    0.24 
   2   8  12    0.43    0.26 
   3   8  12    0.66    0.28 
   4   8  12    1.05    0.31 
   5   8  12    1.73    0.40 
   6   8  12    1.38    0.42 
   7   8  12    1.09    0.35 
   8   8  12    0.28    0.30 
   9   8  12   -0.06    0.32 
  10   8  12    3.24    0.64 
  -9   9  12    0.43    0.33 
  -8   9  12    0.51    0.31 
  -7   9  12    0.18    0.28 
  -7   9  12    0.34    0.25 
  -6   9  12    0.19    0.26 
  -6   9  12    0.71    0.27 
  -5   9  12    1.55    0.30 
  -5   9  12    1.24    0.31 
  -4   9  12    0.36    0.23 
  -4   9  12    0.32    0.24 
  -3   9  12    7.36    0.48 
  -3   9  12    6.31    0.57 
  -2   9  12    1.11    0.29 
  -1   9  12    2.22    0.36 
   0   9  12   -0.30    0.17 
   1   9  12    2.45    0.40 
   2   9  12    1.47    0.35 
   3   9  12    6.29    0.63 
   4   9  12    0.66    0.30 
   5   9  12    1.41    0.41 
   6   9  12    0.19    0.29 
   7   9  12   -0.05    0.25 
   8   9  12    0.64    0.38 
   9   9  12    0.79    0.42 
  -8  10  12    0.62    0.33 
  -7  10  12    0.94    0.35 
  -7  10  12    0.77    0.30 
  -6  10  12    2.09    0.37 
  -6  10  12    2.43    0.42 
  -5  10  12    1.23    0.29 
  -5  10  12    1.19    0.33 
  -4  10  12    0.17    0.24 
  -3  10  12    2.69    0.43 
  -2  10  12   -0.02    0.20 
  -1  10  12    0.49    0.24 
   0  10  12    0.04    0.22 
   1  10  12    0.62    0.27 
   2  10  12    0.54    0.27 
   3  10  12    3.41    0.50 
   4  10  12   -0.01    0.28 
   5  10  12    0.47    0.34 
   6  10  12    1.82    0.46 
   7  10  12    1.03    0.39 
   8  10  12    0.59    0.38 
  -8  11  12    0.23    0.32 
  -7  11  12   -0.17    0.25 
  -7  11  12   -0.10    0.30 
  -6  11  12   -0.26    0.26 
  -6  11  12   -0.21    0.25 
  -5  11  12    1.75    0.39 
  -4  11  12    0.04    0.25 
  -3  11  12    3.91    0.50 
  -2  11  12    3.00    0.43 
  -1  11  12    2.35    0.42 
   0  11  12    0.94    0.33 
   1  11  12    1.83    0.41 
   2  11  12    4.00    0.55 
   3  11  12    4.06    0.56 
   4  11  12    0.06    0.31 
   5  11  12    1.24    0.42 
   6  11  12   -0.15    0.31 
   7  11  12   -0.26    0.32 
   8  11  12    0.26    0.37 
  -7  12  12    0.31    0.34 
  -6  12  12    0.58    0.34 
  -5  12  12    0.66    0.34 
  -4  12  12    0.81    0.33 
  -3  12  12    3.32    0.51 
  -2  12  12    0.25    0.27 
  -1  12  12    2.73    0.47 
   0  12  12    1.19    0.35 
   1  12  12    2.66    0.47 
   2  12  12    0.40    0.33 
   3  12  12    4.09    0.59 
   4  12  12    0.65    0.33 
   5  12  12    0.76    0.36 
   6  12  12    0.07    0.32 
   7  12  12    0.15    0.34 
  -6  13  12    0.32    0.37 
  -5  13  12    0.44    0.39 
  -4  13  12    0.68    0.36 
  -3  13  12    0.16    0.29 
  -2  13  12    0.86    0.35 
  -1  13  12    2.11    0.43 
   0  13  12    0.10    0.28 
   1  13  12    1.67    0.42 
   2  13  12    0.55    0.37 
   3  13  12    0.75    0.41 
   4  13  12    0.32    0.34 
   5  13  12    0.80    0.39 
   6  13  12    0.64    0.41 
  -4  14  12   -0.06    0.34 
  -3  14  12    0.15    0.35 
  -2  14  12    0.40    0.36 
  -1  14  12    0.34    0.32 
   0  14  12    0.69    0.34 
   1  14  12    0.59    0.37 
   2  14  12    0.03    0.30 
   3  14  12    0.54    0.36 
   4  14  12   -0.07    0.37 
  -2  15  12    0.58    0.40 
  -1  15  12    0.53    0.42 
   0  15  12    0.29    0.37 
   1  15  12    0.65    0.41 
   2  15  12    0.88    0.40 
  -3 -14  13    1.32    0.36 
  -2 -14  13    1.04    0.34 
  -1 -14  13    0.57    0.32 
   0 -14  13    0.64    0.33 
   1 -14  13    0.39    0.31 
   2 -14  13    0.35    0.31 
   3 -14  13    0.63    0.37 
  -5 -13  13    1.01    0.31 
  -4 -13  13    0.59    0.27 
  -3 -13  13    0.08    0.24 
  -2 -13  13    0.25    0.27 
  -1 -13  13    0.32    0.26 
   0 -13  13    0.57    0.27 
   1 -13  13    0.98    0.33 
   2 -13  13    0.08    0.26 
   3 -13  13   -0.07    0.28 
   4 -13  13    0.57    0.35 
   5 -13  13    1.07    0.39 
  -6 -12  13    0.36    0.27 
  -6 -12  13    0.31    0.33 
  -5 -12  13    0.21    0.22 
  -4 -12  13    1.73    0.33 
  -3 -12  13   -0.08    0.21 
  -2 -12  13    1.40    0.31 
  -1 -12  13    0.47    0.26 
   0 -12  13    0.58    0.26 
   1 -12  13    0.18    0.23 
   2 -12  13    1.26    0.33 
   3 -12  13   -0.02    0.25 
   4 -12  13    1.39    0.38 
  -5  12 -13   -0.04    0.41 
   5 -12  13    0.05    0.30 
  -6  12 -13    0.06    0.41 
   6 -12  13    0.06    0.33 
  -7 -11  13    0.18    0.33 
  -7 -11  13    1.10    0.30 
  -6 -11  13    0.73    0.33 
  -6 -11  13    1.33    0.30 
  -5 -11  13    0.92    0.32 
  -5 -11  13    1.02    0.28 
  -4 -11  13    2.88    0.37 
  -3 -11  13    0.11    0.20 
  -2 -11  13    1.61    0.30 
  -1 -11  13    0.84    0.26 
   0 -11  13    0.09    0.20 
   1 -11  13    0.92    0.27 
   2 -11  13    1.82    0.36 
   3 -11  13    0.37    0.26 
  -4  11 -13    3.05    0.57 
   4 -11  13    3.43    0.48 
  -5  11 -13    1.42    0.46 
   5 -11  13    0.65    0.34 
  -6  11 -13    0.89    0.45 
   6 -11  13    0.83    0.35 
  -7  11 -13   -0.12    0.42 
   7 -11  13    0.50    0.35 
  -8 -10  13    0.10    0.33 
  -8 -10  13    0.27    0.25 
  -7 -10  13    0.32    0.31 
  -7 -10  13    0.43    0.22 
  -6 -10  13    0.46    0.22 
  -6 -10  13    0.56    0.30 
  -5 -10  13   -0.03    0.23 
  -5 -10  13    0.00    0.19 
  -4 -10  13    0.66    0.23 
  -4 -10  13    0.81    0.29 
  -3 -10  13    1.17    0.26 
  -2 -10  13    0.40    0.21 
  -1 -10  13    0.49    0.21 
   0 -10  13   -0.08    0.17 
   1 -10  13    0.41    0.21 
   2 -10  13    0.09    0.21 
   3 -10  13    2.15    0.38 
  -4  10 -13    0.70    0.36 
   4 -10  13    0.40    0.27 
  -5  10 -13   -0.48    0.28 
   5 -10  13    0.11    0.26 
  -6  10 -13   -0.24    0.34 
   6 -10  13    0.37    0.26 
  -7  10 -13    1.02    0.48 
   7 -10  13    0.26    0.29 
  -8  10 -13   -0.29    0.41 
   8 -10  13    0.17    0.31 
  -8  -9  13    0.36    0.26 
  -8  -9  13    0.43    0.36 
  -7  -9  13    1.08    0.36 
  -7  -9  13    1.07    0.27 
  -6  -9  13    1.79    0.30 
  -6  -9  13    2.07    0.40 
  -5  -9  13    2.01    0.31 
  -5  -9  13    2.46    0.39 
  -4  -9  13    3.22    0.36 
  -4  -9  13    3.42    0.42 
  -3  -9  13    0.10    0.18 
  -2  -9  13    4.14    0.39 
  -1  -9  13    0.08    0.19 
   0  -9  13    1.12    0.25 
   1  -9  13   -0.05    0.16 
   2  -9  13    4.15    0.44 
  -3   9 -13    0.86    0.37 
   3  -9  13    0.25    0.23 
  -4   9 -13    3.87    0.55 
   4  -9  13    2.91    0.42 
  -5   9 -13    2.29    0.49 
   5  -9  13    1.93    0.37 
  -6   9 -13    1.70    0.46 
   6  -9  13    2.04    0.39 
  -7   9 -13    0.70    0.41 
   7  -9  13    1.24    0.35 
  -8   9 -13    0.18    0.41 
   8  -9  13    0.34    0.30 
  -9  -8  13    1.27    0.41 
  -9  -8  13    1.03    0.29 
  -8  -8  13    1.71    0.33 
  -8  -8  13    1.53    0.41 
  -7  -8  13    0.48    0.22 
  -7  -8  13    0.60    0.30 
  -6  -8  13    1.03    0.24 
  -6  -8  13    1.15    0.32 
  -5  -8  13    0.39    0.20 
  -5  -8  13    0.68    0.25 
  -4  -8  13    4.40    0.47 
  -4  -8  13    4.77    0.41 
  -3  -8  13    6.07    0.44 
  -3  -8  13    5.09    0.48 
  -2  -8  13    4.38    0.40 
  -1  -8  13    4.39    0.39 
   0  -8  13   -0.29    0.15 
   1  -8  13    4.64    0.42 
   2  -8  13    4.56    0.43 
  -3   8 -13    5.46    0.59 
   3  -8  13    5.51    0.49 
  -4   8 -13    4.77    0.58 
   4  -8  13    4.56    0.47 
  -5   8 -13    0.34    0.32 
   5  -8  13    0.30    0.22 
  -6   8 -13    1.13    0.40 
   6  -8  13    1.05    0.32 
  -7   8 -13    0.58    0.36 
   7  -8  13    0.76    0.31 
  -8   8 -13    1.33    0.49 
   8  -8  13    1.74    0.39 
  -9   8 -13    1.59    0.57 
  -9  -7  13    0.82    0.29 
  -8  -7  13    1.63    0.31 
  -7  -7  13    0.49    0.22 
  -6  -7  13    1.51    0.27 
  -5  -7  13    0.50    0.20 
  -5  -7  13    0.53    0.25 
  -4  -7  13    6.46    0.54 
  -4  -7  13    6.28    0.45 
  -3  -7  13    1.04    0.26 
  -3  -7  13    0.73    0.20 
  -2  -7  13    0.11    0.16 
  -1  -7  13    1.32    0.25 
   0  -7  13   -0.06    0.14 
   1  -7  13    1.03    0.22 
  -2   7 -13    0.07    0.25 
   2  -7  13    0.03    0.16 
  -3   7 -13    0.97    0.36 
   3  -7  13    0.77    0.24 
   4  -7  13    6.25    0.52 
  -5   7 -13    0.70    0.33 
   5  -7  13    0.62    0.24 
  -6   7 -13    1.74    0.45 
   6  -7  13    1.95    0.36 
  -7   7 -13    0.14    0.33 
   7  -7  13    0.22    0.22 
  -8   7 -13    1.35    0.47 
   8  -7  13    1.61    0.38 
  -9   7 -13    1.19    0.51 
 -10  -6  13    0.34    0.28 
  -9  -6  13   -0.23    0.21 
  -8  -6  13   -0.09    0.19 
  -7  -6  13    0.83    0.23 
  -6  -6  13    2.52    0.33 
  -5  -6  13    0.22    0.17 
  -4  -6  13    0.61    0.19 
  -3  -6  13    2.78    0.31 
  -2  -6  13    1.37    0.23 
  -2  -6  13    0.72    0.17 
  -1  -6  13    1.16    0.24 
   0  -6  13    5.85    0.42 
  -1   6 -13    0.71    0.20 
   1  -6  13    1.31    0.24 
  -2   6 -13    0.97    0.33 
   2  -6  13    0.98    0.24 
  -3   6 -13    2.97    0.48 
   3  -6  13    3.26    0.36 
  -4   6 -13    0.47    0.33 
   4  -6  13    1.25    0.28 
  -5   6 -13    0.15    0.28 
   5  -6  13    0.19    0.21 
  -6   6 -13    2.23    0.49 
   6  -6  13    2.40    0.38 
  -7   6 -13    1.19    0.43 
   7  -6  13    0.93    0.28 
  -8   6 -13   -0.29    0.31 
   8  -6  13    0.16    0.26 
  -9   6 -13    0.33    0.42 
 -10   6 -13   -0.30    0.36 
 -10  -5  13   -0.02    0.24 
  -9  -5  13   -0.24    0.21 
  -8  -5  13    1.36    0.30 
  -7  -5  13    0.40    0.21 
  -6  -5  13    0.88    0.24 
  -5  -5  13    5.04    0.42 
  -4  -5  13    0.35    0.18 
  -3  -5  13    4.19    0.36 
  -2  -5  13    2.88    0.31 
  -1  -5  13    5.32    0.40 
   0  -5  13    5.26    0.41 
   1  -5  13    5.41    0.41 
   1  -5  13    6.20    0.45 
   2  -5  13    3.12    0.34 
   2  -5  13    3.15    0.38 
   3  -5  13    4.30    0.46 
   3  -5  13    3.74    0.38 
   4  -5  13    0.14    0.19 
   4  -5  13   -0.09    0.22 
   5  -5  13    5.59    0.49 
   5  -5  13    5.33    0.56 
   6  -5  13    0.77    0.31 
   6  -5  13    1.78    0.33 
   7  -5  13    0.38    0.24 
   7  -5  13   -0.19    0.24 
   8  -5  13    0.85    0.38 
   8  -5  13    1.04    0.32 
  -9   5 -13    0.12    0.36 
 -10   5 -13   -0.40    0.40 
 -10  -4  13   -0.08    0.25 
  -9  -4  13    0.07    0.23 
  -8  -4  13    0.76    0.26 
  -7  -4  13    1.34    0.27 
  -6  -4  13    0.81    0.23 
  -5  -4  13    0.50    0.21 
  -4  -4  13    8.09    0.50 
  -3  -4  13   17.45    0.83 
  -2  -4  13    1.90    0.25 
  -1  -4  13   14.74    0.72 
   0  -4  13    8.84    0.52 
   1  -4  13   15.80    0.76 
   1  -4  13   15.47    0.83 
   2  -4  13    1.70    0.25 
   2  -4  13    1.62    0.29 
   3  -4  13   17.54    0.96 
   3  -4  13   16.14    0.82 
   4  -4  13    8.21    0.64 
   4  -4  13    8.24    0.54 
   5  -4  13    0.63    0.23 
   5  -4  13    0.32    0.27 
   6  -4  13    0.47    0.22 
   6  -4  13    0.67    0.29 
   7  -4  13    0.57    0.30 
   7  -4  13    1.14    0.30 
   8  -4  13    1.50    0.33 
   8  -4  13    0.56    0.34 
   9  -4  13   -0.25    0.29 
  10  -4  13    0.28    0.38 
 -11  -3  13   -0.21    0.27 
 -10  -3  13    0.66    0.32 
  -9  -3  13    0.54    0.27 
  -8  -3  13    2.27    0.36 
  -7  -3  13    1.84    0.32 
  -6  -3  13    1.55    0.28 
  -5  -3  13    1.00    0.24 
  -4  -3  13   21.32    0.98 
  -3  -3  13    0.24    0.16 
  -2  -3  13    6.81    0.43 
  -1  -3  13    4.95    0.37 
   0  -3  13   11.66    0.59 
   0  -3  13   10.29    0.61 
   1  -3  13    5.05    0.43 
   1  -3  13    6.08    0.40 
   2  -3  13    7.17    0.45 
   2  -3  13    6.09    0.49 
   3  -3  13    0.24    0.18 
   3  -3  13    0.39    0.22 
   4  -3  13   17.99    1.02 
   4  -3  13   18.71    0.89 
   5  -3  13    0.75    0.23 
   5  -3  13    1.24    0.33 
   6  -3  13    2.13    0.41 
   6  -3  13    2.35    0.34 
   7  -3  13    1.95    0.43 
   7  -3  13    1.47    0.32 
   8  -3  13    1.26    0.38 
   8  -3  13    1.96    0.36 
   9  -3  13    0.09    0.34 
  10  -3  13    1.12    0.46 
  11  -3  13    0.23    0.37 
 -11  -2  13    0.16    0.30 
 -10  -2  13    0.03    0.27 
  -9  -2  13    1.24    0.35 
  -8  -2  13    0.87    0.29 
  -7  -2  13    0.52    0.24 
  -6  -2  13    2.43    0.34 
  -5  -2  13    1.11    0.24 
  -4  -2  13    2.50    0.30 
  -3  -2  13    1.61    0.25 
  -2  -2  13    8.09    0.49 
  -1  -2  13    9.02    0.50 
   0  -2  13    0.48    0.17 
   0  -2  13    0.58    0.19 
   1  -2  13    8.97    0.58 
   1  -2  13    9.52    0.51 
   2  -2  13    7.14    0.54 
   2  -2  13    8.46    0.49 
   3  -2  13    2.05    0.28 
   3  -2  13    1.79    0.33 
   4  -2  13    3.20    0.42 
   4  -2  13    2.71    0.31 
   5  -2  13    0.83    0.31 
   5  -2  13    1.55    0.28 
   6  -2  13    2.42    0.42 
   6  -2  13    2.91    0.36 
   7  -2  13    0.60    0.31 
   7  -2  13    0.62    0.24 
   8  -2  13    0.63    0.26 
   8  -2  13    0.85    0.36 
   9  -2  13    2.32    0.50 
  10  -2  13   -0.02    0.38 
  11  -2  13   -0.15    0.38 
 -11  -1  13    0.14    0.32 
 -10  -1  13    1.36    0.37 
  -9  -1  13    2.06    0.39 
  -8  -1  13    6.91    0.58 
  -7  -1  13    0.28    0.24 
  -6  -1  13    4.93    0.46 
  -5  -1  13    2.95    0.35 
  -4  -1  13    3.70    0.36 
  -3  -1  13    5.88    0.42 
  -2  -1  13    5.32    0.39 
  -1  -1  13    0.48    0.17 
  -1  -1  13    0.82    0.18 
   0  -1  13    0.23    0.14 
   0  -1  13    0.17    0.14 
   1  -1  13    0.76    0.21 
   1  -1  13    0.85    0.19 
   2  -1  13    5.72    0.49 
   2  -1  13    5.53    0.38 
   3  -1  13    6.62    0.53 
   3  -1  13    6.41    0.43 
   4  -1  13    4.41    0.38 
   4  -1  13    4.15    0.48 
   5  -1  13    3.94    0.37 
   5  -1  13    2.99    0.45 
   6  -1  13    5.65    0.59 
   6  -1  13    5.12    0.45 
   7  -1  13    0.53    0.22 
   7  -1  13    0.61    0.32 
   8  -1  13    6.10    0.69 
   8  -1  13    5.51    0.51 
   9  -1  13    1.75    0.47 
  10  -1  13    1.44    0.46 
  11  -1  13    0.07    0.36 
 -11   0  13    1.48    0.44 
 -10   0  13   -0.41    0.27 
  -9   0  13    0.33    0.27 
  -8   0  13    0.74    0.28 
  -7   0  13    0.10    0.19 
  -6   0  13    0.23    0.21 
  -5   0  13    1.76    0.29 
  -4   0  13    6.76    0.46 
  -3   0  13   17.18    0.81 
  -2   0  13    1.81    0.25 
  -2   0  13    1.97    0.24 
  -1   0  13    7.76    0.45 
  -1   0  13    6.85    0.46 
   0   0  13    0.01    0.12 
   0   0  13    0.13    0.13 
   1   0  13    7.22    0.42 
   1   0  13    6.56    0.49 
   2   0  13    2.05    0.32 
   2   0  13    2.19    0.25 
   3   0  13   17.67    0.96 
   3   0  13   16.66    0.79 
   4   0  13    7.08    0.60 
   4   0  13    6.21    0.43 
   5   0  13    1.54    0.26 
   5   0  13    1.62    0.35 
   6   0  13    0.41    0.25 
   6   0  13    0.10    0.18 
   7   0  13    0.07    0.27 
   7   0  13    0.56    0.23 
   8   0  13    0.34    0.29 
   8   0  13    0.32    0.23 
   9   0  13    0.67    0.39 
  10   0  13   -0.12    0.37 
  11   0  13    1.56    0.51 
 -11   1  13   -0.05    0.31 
 -10   1  13    1.76    0.43 
  -9   1  13    2.11    0.43 
  -7   1  13    0.82    0.28 
  -6   1  13    4.39    0.44 
  -5   1  13    3.42    0.37 
  -4   1  13    3.69    0.36 
  -3   1  13    6.46    0.44 
  -2   1  13    5.66    0.39 
  -2   1  13    5.18    0.38 
  -1   1  13    0.76    0.20 
  -1   1  13    0.87    0.20 
   0   1  13   -0.20    0.10 
   0   1  13    0.10    0.13 
   1   1  13    0.31    0.14 
   1   1  13    0.36    0.18 
   2   1  13    4.93    0.34 
   2   1  13    4.82    0.45 
   3   1  13    5.54    0.50 
   3   1  13    4.94    0.35 
   4   1  13    3.83    0.33 
   4   1  13    3.75    0.46 
   5   1  13    3.71    0.35 
   5   1  13    3.64    0.47 
   6   1  13    5.30    0.58 
   6   1  13    4.18    0.39 
   7   1  13    0.96    0.25 
   7   1  13    0.59    0.32 
   8   1  13    4.82    0.63 
   9   1  13    2.31    0.51 
  10   1  13    1.67    0.49 
  11   1  13    0.32    0.38 
 -11   2  13    0.31    0.34 
 -10   2  13    0.80    0.37 
  -9   2  13    1.23    0.34 
  -8   2  13    0.76    0.29 
  -7   2  13    0.89    0.28 
  -6   2  13    2.03    0.33 
  -5   2  13    1.42    0.28 
  -4   2  13    2.93    0.34 
  -3   2  13    1.56    0.25 
  -3   2  13    1.86    0.26 
  -2   2  13    8.12    0.51 
  -2   2  13    8.38    0.48 
  -1   2  13    9.15    0.58 
  -1   2  13    9.92    0.52 
   0   2  13    0.27    0.17 
   0   2  13    0.91    0.18 
   1   2  13    7.97    0.57 
   1   2  13    8.77    0.46 
   2   2  13    7.08    0.41 
   2   2  13    7.13    0.53 
   3   2  13    1.68    0.22 
   3   2  13    1.66    0.33 
   4   2  13    2.82    0.28 
   4   2  13    2.32    0.39 
   5   2  13    1.26    0.23 
   5   2  13    1.25    0.31 
   6   2  13    2.13    0.30 
   6   2  13    2.50    0.45 
   7   2  13    0.68    0.31 
   8   2  13    1.11    0.38 
   9   2  13    1.22    0.44 
  10   2  13    0.38    0.34 
  11   2  13    0.16    0.38 
 -10   3  13    0.12    0.32 
  -9   3  13   -0.02    0.28 
  -8   3  13    1.26    0.33 
  -7   3  13    1.98    0.35 
  -6   3  13    2.38    0.34 
  -5   3  13    0.87    0.24 
  -4   3  13   20.39    0.96 
  -3   3  13    0.23    0.18 
  -3   3  13    0.36    0.17 
  -2   3  13    8.38    0.54 
  -2   3  13    8.38    0.49 
  -1   3  13    6.38    0.41 
  -1   3  13    6.56    0.48 
   0   3  13   12.84    0.61 
   0   3  13   12.01    0.73 
   1   3  13    4.87    0.46 
   1   3  13    4.99    0.33 
   2   3  13    6.16    0.55 
   2   3  13    6.82    0.38 
   3   3  13   -0.09    0.18 
   3   3  13    0.37    0.12 
   4   3  13   18.85    1.08 
   4   3  13   19.69    0.85 
   5   3  13    1.12    0.31 
   6   3  13    2.23    0.43 
   7   3  13    2.50    0.46 
   8   3  13    1.85    0.46 
   9   3  13    0.36    0.35 
  10   3  13    1.02    0.43 
  11   3  13    0.27    0.38 
 -10   4  13    0.44    0.36 
  -9   4  13    0.12    0.28 
  -8   4  13    0.97    0.34 
  -7   4  13    0.88    0.29 
  -6   4  13    0.36    0.23 
  -5   4  13    0.58    0.22 
  -4   4  13   10.22    0.60 
  -4   4  13    9.32    0.58 
  -3   4  13   17.66    0.92 
  -3   4  13   18.78    0.87 
  -2   4  13    2.06    0.31 
  -2   4  13    2.17    0.27 
  -1   4  13   15.12    0.85 
  -1   4  13   16.13    0.73 
   0   4  13    8.59    0.60 
   0   4  13    8.75    0.47 
   1   4  13   15.12    0.68 
   1   4  13   15.56    0.88 
   2   4  13    2.08    0.21 
   2   4  13    2.38    0.38 
   3   4  13   16.74    0.97 
   4   4  13    8.51    0.67 
   5   4  13    0.74    0.29 
   6   4  13    0.34    0.27 
   7   4  13    0.92    0.34 
   8   4  13    1.40    0.42 
   9   4  13   -0.14    0.29 
  10   4  13    0.45    0.36 
 -10   5  13   -0.43    0.30 
  -9   5  13    0.33    0.33 
  -8   5  13    1.12    0.36 
  -7   5  13    0.82    0.30 
  -6   5  13    1.54    0.31 
  -5   5  13    5.56    0.47 
  -4   5  13    0.44    0.22 
  -4   5  13    0.22    0.22 
  -3   5  13    4.52    0.44 
  -3   5  13    4.99    0.41 
  -2   5  13    2.74    0.36 
  -2   5  13    3.38    0.32 
  -1   5  13    6.39    0.40 
  -1   5  13    5.96    0.52 
   0   5  13    4.60    0.32 
   0   5  13    4.82    0.47 
   1   5  13    5.52    0.51 
   1   5  13    5.23    0.32 
   2   5  13    2.87    0.41 
   2   5  13    2.46    0.22 
   3   5  13    5.07    0.53 
   4   5  13    0.35    0.24 
   5   5  13    4.68    0.55 
   6   5  13    1.21    0.37 
   7   5  13    0.65    0.33 
   8   5  13    0.98    0.39 
   9   5  13    0.35    0.34 
  10   5  13    0.48    0.39 
 -10   6  13    0.27    0.34 
  -9   6  13    0.19    0.27 
  -8   6  13    0.38    0.30 
  -7   6  13    0.94    0.33 
  -6   6  13    3.00    0.42 
  -5   6  13    0.45    0.23 
  -5   6  13   -0.02    0.19 
  -4   6  13    0.82    0.24 
  -4   6  13    1.28    0.28 
  -3   6  13    3.74    0.41 
  -3   6  13    3.69    0.35 
  -2   6  13    1.52    0.24 
  -2   6  13    1.19    0.28 
  -1   6  13    1.48    0.23 
  -1   6  13    1.45    0.32 
   0   6  13    7.65    0.57 
   0   6  13    6.02    0.37 
   1   6  13    1.99    0.37 
   2   6  13    1.67    0.36 
   3   6  13    3.75    0.48 
   4   6  13    0.73    0.30 
   5   6  13   -0.04    0.23 
   6   6  13    2.56    0.47 
   7   6  13    0.55    0.34 
   8   6  13    0.32    0.34 
   9   6  13   -0.19    0.30 
  10   6  13   -0.15    0.35 
  -9   7  13    1.27    0.39 
  -8   7  13    1.88    0.37 
  -7   7  13    0.62    0.29 
  -6   7  13    3.00    0.42 
  -5   7  13    0.45    0.26 
  -5   7  13    0.50    0.23 
  -4   7  13    5.55    0.51 
  -4   7  13    6.66    0.48 
  -3   7  13    1.05    0.24 
  -3   7  13    1.24    0.29 
  -2   7  13   -0.02    0.21 
  -2   7  13    0.22    0.18 
  -1   7  13    1.03    0.28 
  -1   7  13    0.78    0.20 
   0   7  13   -0.08    0.21 
   1   7  13    1.16    0.31 
   2   7  13   -0.01    0.22 
   3   7  13    0.69    0.30 
   4   7  13    8.02    0.73 
   5   7  13    0.52    0.31 
   6   7  13    2.62    0.48 
   7   7  13    0.03    0.32 
   8   7  13    1.99    0.46 
   9   7  13    0.30    0.38 
  -9   8  13    1.61    0.44 
  -8   8  13    1.32    0.38 
  -7   8  13    0.33    0.26 
  -6   8  13    1.06    0.31 
  -5   8  13   -0.14    0.22 
  -5   8  13    0.22    0.24 
  -4   8  13    5.20    0.52 
  -4   8  13    6.59    0.49 
  -3   8  13    7.43    0.56 
  -3   8  13    5.76    0.46 
  -2   8  13    5.50    0.53 
  -2   8  13    5.47    0.42 
  -1   8  13    5.38    0.53 
   0   8  13   -0.19    0.18 
   1   8  13    4.26    0.50 
   2   8  13    4.73    0.55 
   3   8  13    6.86    0.66 
   4   8  13    4.69    0.59 
   5   8  13    0.25    0.27 
   6   8  13    1.87    0.44 
   7   8  13    0.47    0.36 
   8   8  13    1.64    0.45 
   9   8  13    1.23    0.50 
  -8   9  13    0.26    0.31 
  -7   9  13    0.93    0.31 
  -6   9  13    1.92    0.39 
  -6   9  13    2.38    0.40 
  -5   9  13    2.69    0.43 
  -5   9  13    2.40    0.37 
  -4   9  13    3.42    0.39 
  -4   9  13    3.97    0.48 
  -3   9  13    0.40    0.26 
  -2   9  13    4.14    0.48 
  -1   9  13    0.19    0.23 
   0   9  13    1.20    0.33 
   1   9  13   -0.05    0.25 
   2   9  13    4.31    0.54 
   3   9  13    0.18    0.26 
   4   9  13    2.59    0.46 
   5   9  13    2.01    0.47 
   6   9  13    2.01    0.50 
   7   9  13    1.21    0.41 
   8   9  13    0.44    0.39 
  -8  10  13    0.26    0.33 
  -7  10  13    0.43    0.31 
  -6  10  13    0.53    0.31 
  -6  10  13    0.86    0.34 
  -5  10  13    0.12    0.29 
  -5  10  13    0.12    0.25 
  -4  10  13    0.66    0.29 
  -3  10  13    0.93    0.31 
  -2  10  13    0.29    0.23 
  -1  10  13    0.08    0.26 
   0  10  13   -0.09    0.22 
   1  10  13    0.58    0.29 
   2  10  13   -0.09    0.25 
   3  10  13    1.25    0.39 
   4  10  13    0.67    0.35 
   5  10  13    0.24    0.31 
   6  10  13    0.62    0.37 
   7  10  13    0.57    0.36 
   8  10  13    0.27    0.40 
  -7  11  13    0.11    0.32 
  -7  11  13    1.00    0.40 
  -6  11  13    1.45    0.39 
  -5  11  13    1.00    0.34 
  -4  11  13    3.01    0.48 
  -3  11  13   -0.05    0.24 
  -2  11  13    2.12    0.43 
  -1  11  13    0.60    0.30 
   0  11  13   -0.34    0.20 
   1  11  13    0.57    0.30 
   2  11  13    2.54    0.48 
   3  11  13    0.45    0.35 
   4  11  13    3.08    0.56 
   5  11  13    1.13    0.45 
   6  11  13    0.80    0.38 
   7  11  13    0.28    0.37 
  -6  12  13    0.12    0.34 
  -5  12  13   -0.07    0.29 
  -4  12  13    1.45    0.43 
  -3  12  13   -0.33    0.27 
  -2  12  13    1.76    0.40 
  -1  12  13    0.34    0.30 
   0  12  13    0.36    0.31 
   1  12  13    0.21    0.30 
   2  12  13    1.37    0.42 
   3  12  13   -0.13    0.29 
   4  12  13    1.21    0.48 
   5  12  13    0.39    0.33 
   6  12  13    0.37    0.39 
  -5  13  13    0.92    0.39 
  -4  13  13   -0.02    0.32 
  -3  13  13    0.13    0.31 
  -2  13  13   -0.09    0.27 
  -1  13  13    1.28    0.42 
   0  13  13    0.49    0.35 
   1  13  13    0.26    0.34 
   2  13  13    0.10    0.37 
   3  13  13    0.54    0.40 
   4  13  13    0.23    0.37 
   5  13  13    1.17    0.46 
  -3  14  13    0.45    0.37 
  -2  14  13    0.80    0.39 
  -1  14  13    0.38    0.38 
   0  14  13    0.68    0.38 
   1  14  13    0.37    0.39 
   2  14  13    0.47    0.41 
   3  14  13    0.63    0.39 
  -3 -13  14    1.66    0.37 
  -2 -13  14   -0.17    0.26 
  -1 -13  14    0.66    0.32 
   0 -13  14    0.19    0.27 
   1 -13  14    0.35    0.30 
   2 -13  14   -0.05    0.29 
   3 -13  14    1.52    0.44 
  -5 -12  14    0.38    0.27 
  -4 -12  14    0.80    0.28 
  -3 -12  14    0.51    0.27 
  -2 -12  14    0.16    0.24 
  -1 -12  14    0.08    0.23 
   0 -12  14    0.45    0.27 
   1 -12  14    0.44    0.27 
   2 -12  14    0.23    0.28 
   3 -12  14    0.15    0.29 
   4 -12  14    0.60    0.31 
   5 -12  14    0.60    0.38 
  -6 -11  14    0.28    0.26 
  -6 -11  14   -0.13    0.33 
  -5 -11  14    0.64    0.26 
  -4 -11  14    0.34    0.25 
  -3 -11  14    1.53    0.31 
  -2 -11  14    0.30    0.23 
  -1 -11  14    2.54    0.39 
   0 -11  14   -0.23    0.20 
   1 -11  14    2.00    0.36 
   2 -11  14    0.44    0.29 
   3 -11  14    1.29    0.36 
   4 -11  14    0.63    0.32 
   5 -11  14    1.23    0.38 
  -6  11 -14    0.08    0.45 
   6 -11  14    0.80    0.34 
  -7 -10  14    0.40    0.35 
  -7 -10  14    0.57    0.27 
  -6 -10  14    0.46    0.25 
  -6 -10  14    0.45    0.31 
  -5 -10  14    1.33    0.29 
  -4 -10  14    0.08    0.21 
  -3 -10  14    1.97    0.33 
  -2 -10  14   -0.23    0.16 
  -1 -10  14    0.67    0.24 
   0 -10  14    0.20    0.21 
   1 -10  14    1.09    0.30 
   2 -10  14    0.04    0.24 
   3 -10  14    1.57    0.36 
   4 -10  14    0.22    0.25 
  -5  10 -14    1.16    0.46 
   5 -10  14    1.64    0.40 
  -6  10 -14    0.04    0.38 
   6 -10  14    0.68    0.33 
  -7  10 -14   -0.16    0.42 
   7 -10  14    0.18    0.31 
  -8  -9  14    0.21    0.24 
  -8  -9  14    0.28    0.37 
  -7  -9  14   -0.03    0.31 
  -7  -9  14    0.05    0.21 
  -6  -9  14    0.30    0.22 
  -6  -9  14    0.63    0.28 
  -5  -9  14    0.40    0.28 
  -5  -9  14    0.51    0.23 
  -4  -9  14    0.77    0.25 
  -3  -9  14    0.61    0.22 
  -2  -9  14    0.55    0.21 
  -1  -9  14    0.90    0.26 
   0  -9  14    0.29    0.20 
   1  -9  14    0.98    0.27 
   2  -9  14    0.83    0.26 
   3  -9  14    0.37    0.26 
  -4   9 -14    1.35    0.44 
   4  -9  14    1.06    0.30 
  -5   9 -14    0.77    0.39 
   5  -9  14    0.63    0.28 
  -6   9 -14    0.06    0.36 
   6  -9  14   -0.09    0.25 
  -7   9 -14    0.45    0.43 
   7  -9  14    0.27    0.29 
  -8   9 -14   -0.56    0.40 
   8  -9  14    0.27    0.34 
  -8  -8  14    0.31    0.33 
  -8  -8  14    0.15    0.23 
  -7  -8  14    0.05    0.21 
  -7  -8  14    0.15    0.28 
  -6  -8  14    0.99    0.31 
  -6  -8  14    0.76    0.25 
  -5  -8  14    2.59    0.40 
  -5  -8  14    1.72    0.30 
  -4  -8  14    0.64    0.30 
  -4  -8  14    0.77    0.24 
  -3  -8  14    0.86    0.25 
  -2  -8  14    0.83    0.23 
  -1  -8  14    1.20    0.26 
   0  -8  14    1.40    0.29 
   1  -8  14    1.22    0.26 
   2  -8  14    0.83    0.25 
  -3   8 -14    0.83    0.38 
   3  -8  14    1.07    0.26 
  -4   8 -14    0.44    0.34 
   4  -8  14    0.86    0.28 
  -5   8 -14    1.59    0.46 
   5  -8  14    2.36    0.40 
  -6   8 -14    0.28    0.34 
   6  -8  14    0.99    0.31 
  -7   8 -14    0.20    0.38 
   7  -8  14    0.33    0.27 
  -8   8 -14    0.67    0.48 
   8  -8  14    0.36    0.30 
  -9  -7  14   -0.05    0.23 
  -8  -7  14    0.60    0.25 
  -7  -7  14    0.42    0.23 
  -6  -7  14    0.77    0.23 
  -5  -7  14    2.76    0.41 
  -5  -7  14    2.22    0.31 
  -4  -7  14    3.88    0.39 
  -4  -7  14    4.40    0.46 
  -3  -7  14    0.87    0.23 
  -2  -7  14    6.35    0.46 
  -1  -7  14    0.31    0.20 
   0  -7  14    2.31    0.33 
   1  -7  14    0.34    0.20 
   2  -7  14    6.23    0.51 
  -3   7 -14    0.89    0.34 
   3  -7  14    0.89    0.25 
  -4   7 -14    4.55    0.58 
   4  -7  14    4.29    0.46 
  -5   7 -14    2.59    0.51 
   5  -7  14    2.39    0.38 
  -6   7 -14    1.30    0.44 
   6  -7  14    1.33    0.33 
  -7   7 -14    1.07    0.44 
   7  -7  14    1.06    0.32 
  -8   7 -14    1.08    0.45 
   8  -7  14    0.59    0.32 
  -9   7 -14   -0.08    0.46 
  -9  -6  14    0.35    0.25 
  -8  -6  14    0.74    0.26 
  -7  -6  14    2.03    0.33 
  -6  -6  14    0.58    0.24 
  -5  -6  14    1.54    0.29 
  -4  -6  14    0.42    0.20 
  -3  -6  14    0.30    0.19 
  -2  -6  14    6.11    0.44 
  -1  -6  14    1.65    0.27 
   0  -6  14    4.83    0.41 
   1  -6  14    1.89    0.29 
  -2   6 -14    4.59    0.55 
   2  -6  14    5.63    0.47 
  -3   6 -14    0.13    0.28 
   3  -6  14    0.31    0.20 
  -4   6 -14    0.21    0.29 
   4  -6  14    0.32    0.21 
  -5   6 -14    1.82    0.46 
   5  -6  14    1.83    0.34 
  -6   6 -14    0.24    0.36 
   6  -6  14    0.55    0.26 
  -7   6 -14    0.99    0.47 
   7  -6  14    1.57    0.36 
  -8   6 -14   -0.21    0.40 
   8  -6  14    0.24    0.26 
  -9   6 -14    0.52    0.47 
  -9  -5  14    0.37    0.26 
  -8  -5  14    0.82    0.27 
  -7  -5  14    0.05    0.21 
  -6  -5  14   -0.05    0.19 
  -5  -5  14    0.48    0.21 
  -4  -5  14    4.93    0.42 
  -3  -5  14    0.68    0.21 
  -2  -5  14    2.27    0.30 
  -1  -5  14    1.99    0.28 
   0  -5  14   12.73    0.67 
   1  -5  14    2.21    0.30 
   2  -5  14    2.35    0.32 
   2  -5  14    2.09    0.35 
   3  -5  14    0.87    0.29 
   3  -5  14    1.49    0.28 
   4  -5  14    4.48    0.43 
   4  -5  14    4.11    0.51 
   5  -5  14    0.30    0.27 
   5  -5  14    0.15    0.20 
   6  -5  14   -0.01    0.20 
   6  -5  14    0.30    0.26 
   7  -5  14    0.20    0.27 
   7  -5  14    0.43    0.26 
   8  -5  14    1.43    0.44 
   8  -5  14    1.36    0.35 
  -9   5 -14    0.39    0.48 
   9  -5  14    0.67    0.32 
 -10  -4  14    0.27    0.29 
  -9  -4  14    0.33    0.25 
  -8  -4  14    0.83    0.27 
  -7  -4  14    2.29    0.35 
  -6  -4  14    0.91    0.25 
  -5  -4  14    5.64    0.46 
  -4  -4  14    4.87    0.42 
  -3  -4  14    6.71    0.46 
  -2  -4  14    3.76    0.35 
  -1  -4  14    2.38    0.28 
   0  -4  14    0.28    0.18 
   1  -4  14    2.79    0.32 
   1  -4  14    2.16    0.31 
   2  -4  14    3.75    0.43 
   2  -4  14    3.95    0.37 
   3  -4  14    6.41    0.49 
   3  -4  14    6.70    0.58 
   4  -4  14    5.30    0.46 
   4  -4  14    4.52    0.53 
   5  -4  14    4.94    0.57 
   5  -4  14    5.65    0.50 
   6  -4  14    1.44    0.39 
   6  -4  14    1.20    0.31 
   7  -4  14    2.67    0.49 
   7  -4  14    2.21    0.39 
   8  -4  14    0.73    0.36 
   8  -4  14    0.29    0.26 
   9  -4  14    0.40    0.29 
   9  -4  14    0.47    0.39 
  10  -4  14   -0.13    0.40 
 -10  -3  14    0.53    0.32 
  -9  -3  14    0.53    0.30 
  -8  -3  14    0.60    0.29 
  -7  -3  14    2.98    0.40 
  -6  -3  14    0.47    0.23 
  -5  -3  14    1.84    0.29 
  -4  -3  14    4.57    0.40 
  -3  -3  14    1.79    0.27 
  -2  -3  14   10.53    0.57 
  -1  -3  14    0.65    0.19 
   0  -3  14   12.51    0.65 
   1  -3  14    0.69    0.20 
   1  -3  14    0.91    0.22 
   2  -3  14   10.57    0.59 
   2  -3  14   10.81    0.69 
   3  -3  14    1.94    0.30 
   4  -3  14    4.84    0.43 
   4  -3  14    5.02    0.52 
   5  -3  14    1.76    0.38 
   5  -3  14    1.84    0.32 
   6  -3  14    0.59    0.25 
   6  -3  14    0.15    0.25 
   7  -3  14    3.05    0.42 
   7  -3  14    3.04    0.52 
   8  -3  14   -0.17    0.31 
   8  -3  14    0.36    0.26 
   9  -3  14    0.38    0.36 
  10  -3  14   -0.02    0.39 
 -10  -2  14    0.44    0.31 
  -9  -2  14    0.25    0.29 
  -8  -2  14    2.04    0.36 
  -7  -2  14    3.87    0.45 
  -6  -2  14    3.40    0.39 
  -5  -2  14    0.49    0.21 
  -4  -2  14    3.21    0.35 
  -3  -2  14    1.72    0.26 
  -2  -2  14    2.36    0.29 
  -1  -2  14    6.49    0.43 
   0  -2  14    7.96    0.52 
   0  -2  14    7.43    0.46 
   1  -2  14    7.18    0.50 
   1  -2  14    6.13    0.42 
   2  -2  14    1.79    0.27 
   2  -2  14    1.99    0.33 
   3  -2  14    2.05    0.36 
   3  -2  14    2.17    0.30 
   4  -2  14    3.86    0.38 
   4  -2  14    3.80    0.47 
   5  -2  14    0.46    0.21 
   5  -2  14    0.77    0.29 
   6  -2  14    3.27    0.39 
   6  -2  14    3.16    0.50 
   7  -2  14    4.09    0.45 
   7  -2  14    3.21    0.53 
   8  -2  14    1.62    0.35 
   8  -2  14    1.94    0.46 
   9  -2  14    0.80    0.41 
  10  -2  14    0.17    0.39 
 -10  -1  14    0.34    0.33 
  -9  -1  14    0.18    0.30 
  -8  -1  14    0.92    0.30 
  -7  -1  14    1.45    0.33 
  -6  -1  14    0.58    0.25 
  -5  -1  14    0.22    0.20 
  -4  -1  14    1.91    0.29 
  -3  -1  14    0.56    0.19 
  -2  -1  14    4.63    0.39 
  -1  -1  14    6.95    0.44 
   0  -1  14    5.11    0.41 
   0  -1  14    5.81    0.39 
   1  -1  14    7.56    0.46 
   1  -1  14    7.18    0.52 
   2  -1  14    5.04    0.38 
   2  -1  14    5.73    0.50 
   3  -1  14    0.56    0.25 
   3  -1  14    0.75    0.20 
   4  -1  14    2.26    0.38 
   4  -1  14    1.41    0.26 
   5  -1  14    0.37    0.25 
   5  -1  14    0.67    0.23 
   6  -1  14    0.66    0.31 
   6  -1  14    0.76    0.23 
   7  -1  14    0.98    0.36 
   7  -1  14    1.22    0.30 
   8  -1  14    0.81    0.36 
   8  -1  14    0.72    0.26 
   9  -1  14    0.22    0.36 
  10  -1  14    0.45    0.37 
 -10   0  14    0.25    0.29 
  -9   0  14    1.58    0.39 
  -8   0  14    0.35    0.26 
  -7   0  14    2.90    0.39 
  -6   0  14    4.32    0.45 
  -5   0  14    2.34    0.33 
  -4   0  14    3.81    0.37 
  -3   0  14    0.93    0.23 
  -2   0  14    3.98    0.35 
  -1   0  14    0.17    0.14 
  -1   0  14   -0.05    0.13 
   0   0  14    0.77    0.19 
   0   0  14    0.81    0.19 
   1   0  14    0.09    0.19 
   1   0  14   -0.03    0.14 
   2   0  14    3.62    0.43 
   2   0  14    3.77    0.33 
   3   0  14    1.17    0.22 
   3   0  14    1.15    0.28 
   4   0  14    3.91    0.36 
   4   0  14    3.74    0.48 
   5   0  14    3.20    0.47 
   5   0  14    2.99    0.34 
   6   0  14    3.04    0.36 
   6   0  14    3.90    0.53 
   7   0  14    3.45    0.55 
   7   0  14    2.69    0.37 
   8   0  14   -0.10    0.27 
   9   0  14    1.78    0.50 
  10   0  14    0.12    0.38 
 -10   1  14    0.35    0.34 
  -9   1  14    0.56    0.31 
  -8   1  14    0.39    0.26 
  -7   1  14    0.87    0.28 
  -6   1  14    0.90    0.27 
  -5   1  14    0.17    0.19 
  -4   1  14    2.24    0.31 
  -3   1  14    0.50    0.17 
  -2   1  14    5.66    0.41 
  -1   1  14    7.50    0.46 
  -1   1  14    7.25    0.50 
   0   1  14    5.97    0.40 
   0   1  14    5.98    0.46 
   1   1  14    6.88    0.52 
   1   1  14    7.11    0.43 
   2   1  14    4.87    0.47 
   2   1  14    4.84    0.36 
   3   1  14    0.57    0.24 
   3   1  14    0.47    0.17 
   4   1  14    1.44    0.24 
   4   1  14    1.46    0.35 
   5   1  14    0.15    0.17 
   5   1  14    0.08    0.23 
   6   1  14    0.70    0.23 
   6   1  14    0.60    0.29 
   7   1  14    0.77    0.32 
   8   1  14    0.45    0.33 
   9   1  14    0.32    0.39 
  10   1  14   -0.26    0.38 
 -10   2  14    0.41    0.34 
  -9   2  14    0.74    0.35 
  -8   2  14    2.33    0.41 
  -7   2  14    4.48    0.48 
  -6   2  14    3.30    0.41 
  -5   2  14    0.70    0.22 
  -4   2  14    4.39    0.41 
  -3   2  14    1.92    0.28 
  -2   2  14    2.36    0.29 
  -2   2  14    1.62    0.26 
  -1   2  14    7.76    0.47 
  -1   2  14    7.23    0.51 
   0   2  14    7.26    0.54 
   0   2  14    8.13    0.46 
   1   2  14    6.35    0.54 
   1   2  14    6.77    0.41 
   2   2  14    2.06    0.35 
   2   2  14    1.73    0.23 
   3   2  14    1.97    0.36 
   3   2  14    1.83    0.24 
   4   2  14    3.18    0.31 
   4   2  14    4.03    0.49 
   5   2  14    0.57    0.28 
   5   2  14    0.25    0.18 
   6   2  14    3.03    0.50 
   7   2  14    4.74    0.63 
   8   2  14    1.08    0.40 
   9   2  14    0.81    0.44 
  10   2  14    0.28    0.41 
 -10   3  14    0.55    0.36 
  -9   3  14    0.82    0.35 
  -8   3  14    0.80    0.31 
  -7   3  14    2.98    0.42 
  -6   3  14    0.11    0.21 
  -5   3  14    1.88    0.32 
  -4   3  14    4.92    0.43 
  -3   3  14    2.04    0.29 
  -2   3  14    9.87    0.63 
  -2   3  14   11.02    0.58 
  -1   3  14    1.00    0.21 
  -1   3  14    0.92    0.26 
   0   3  14   12.72    0.78 
   0   3  14   13.43    0.64 
   1   3  14    0.82    0.26 
   1   3  14    0.86    0.19 
   2   3  14   10.28    0.54 
   2   3  14   11.07    0.73 
   3   3  14    1.60    0.23 
   3   3  14    1.32    0.33 
   4   3  14    4.36    0.52 
   4   3  14    4.33    0.35 
   5   3  14    2.21    0.42 
   6   3  14    0.43    0.28 
   7   3  14    2.48    0.48 
   8   3  14    0.51    0.36 
   9   3  14    0.89    0.47 
  10   3  14   -0.34    0.36 
 -10   4  14    0.08    0.32 
  -9   4  14   -0.13    0.29 
  -8   4  14    0.69    0.32 
  -7   4  14    1.95    0.37 
  -6   4  14    1.47    0.31 
  -5   4  14    5.51    0.48 
  -4   4  14    6.00    0.48 
  -3   4  14    7.27    0.48 
  -3   4  14    7.14    0.54 
  -2   4  14    4.08    0.36 
  -2   4  14    3.89    0.41 
  -1   4  14    2.38    0.36 
  -1   4  14    3.04    0.30 
   0   4  14    0.28    0.15 
   0   4  14    0.09    0.22 
   1   4  14    2.41    0.26 
   1   4  14    2.63    0.38 
   2   4  14    4.37    0.32 
   2   4  14    3.86    0.47 
   3   4  14    8.10    0.65 
   4   4  14    4.39    0.54 
   5   4  14    4.93    0.57 
   6   4  14    1.29    0.38 
   7   4  14    1.55    0.41 
   8   4  14    0.65    0.36 
   9   4  14    0.84    0.42 
  10   4  14    0.26    0.37 
  -9   5  14    0.42    0.34 
  -8   5  14    0.72    0.32 
  -7   5  14    0.83    0.30 
  -6   5  14    0.08    0.23 
  -5   5  14    0.15    0.21 
  -4   5  14    4.08    0.40 
  -3   5  14    1.61    0.31 
  -3   5  14    1.32    0.26 
  -2   5  14    2.68    0.30 
  -2   5  14    2.55    0.38 
  -1   5  14    1.65    0.24 
  -1   5  14    1.68    0.34 
   0   5  14   14.81    0.69 
   0   5  14   14.48    0.87 
   1   5  14    2.63    0.41 
   1   5  14    2.34    0.25 
   2   5  14    2.59    0.42 
   3   5  14    1.24    0.32 
   4   5  14    4.50    0.55 
   5   5  14   -0.38    0.23 
   6   5  14   -0.04    0.28 
   7   5  14    0.34    0.31 
   8   5  14    1.34    0.48 
   9   5  14   -0.42    0.28 
  -9   6  14    0.32    0.34 
  -8   6  14    0.52    0.29 
  -7   6  14    1.96    0.38 
  -6   6  14    0.36    0.26 
  -5   6  14    1.87    0.33 
  -4   6  14    0.58    0.25 
  -4   6  14    0.67    0.23 
  -3   6  14    0.34    0.23 
  -3   6  14    0.38    0.21 
  -2   6  14    6.46    0.45 
  -2   6  14    5.64    0.54 
  -1   6  14    2.65    0.29 
  -1   6  14    1.72    0.35 
   0   6  14    4.06    0.33 
   0   6  14    4.42    0.49 
   1   6  14    2.30    0.41 
   2   6  14    6.09    0.60 
   3   6  14   -0.07    0.21 
   4   6  14    0.54    0.30 
   5   6  14    1.69    0.40 
   6   6  14    0.39    0.31 
   7   6  14    1.75    0.44 
   8   6  14    0.11    0.33 
   9   6  14    0.47    0.42 
  -9   7  14   -0.31    0.33 
  -8   7  14    1.00    0.39 
  -7   7  14    0.89    0.32 
  -6   7  14    0.70    0.28 
  -5   7  14    3.23    0.40 
  -4   7  14    4.80    0.43 
  -4   7  14    4.49    0.48 
  -3   7  14    0.43    0.22 
  -3   7  14    1.64    0.33 
  -2   7  14    6.40    0.45 
  -2   7  14    6.80    0.59 
  -1   7  14    0.21    0.25 
   0   7  14    2.84    0.43 
   1   7  14    0.47    0.27 
   2   7  14    5.62    0.60 
   3   7  14    1.01    0.33 
   4   7  14    4.66    0.59 
   5   7  14    3.47    0.55 
   6   7  14    1.19    0.41 
   7   7  14    1.17    0.43 
   8   7  14    0.95    0.43 
   9   7  14    0.35    0.42 
  -8   8  14    0.37    0.34 
  -7   8  14   -0.35    0.26 
  -6   8  14    0.53    0.26 
  -5   8  14    2.49    0.42 
  -5   8  14    2.71    0.38 
  -4   8  14    0.70    0.29 
  -4   8  14    0.97    0.27 
  -3   8  14    1.43    0.33 
  -3   8  14    0.88    0.26 
  -2   8  14    1.01    0.31 
  -1   8  14    2.11    0.41 
   0   8  14    0.99    0.33 
   1   8  14    1.83    0.39 
   2   8  14    0.72    0.32 
   3   8  14    0.97    0.37 
   4   8  14    1.07    0.35 
   5   8  14    1.92    0.46 
   6   8  14    1.53    0.46 
   7   8  14    0.71    0.42 
   8   8  14    0.38    0.40 
  -8   9  14   -0.09    0.32 
  -7   9  14    0.21    0.31 
  -6   9  14    0.26    0.27 
  -5   9  14    0.39    0.30 
  -5   9  14    0.67    0.29 
  -4   9  14    1.45    0.35 
  -3   9  14    0.34    0.28 
  -2   9  14    1.33    0.33 
  -1   9  14    0.64    0.32 
   0   9  14    0.51    0.29 
   1   9  14    1.11    0.34 
   2   9  14    0.61    0.31 
   3   9  14    0.29    0.32 
   4   9  14    0.85    0.39 
   5   9  14    0.68    0.37 
   6   9  14    0.63    0.42 
   7   9  14    0.67    0.39 
   8   9  14    0.04    0.39 
  -7  10  14    0.60    0.38 
  -6  10  14    0.56    0.34 
  -5  10  14    1.61    0.41 
  -4  10  14   -0.27    0.27 
  -3  10  14    2.10    0.42 
  -2  10  14    0.04    0.25 
  -1  10  14    0.75    0.33 
   0  10  14    0.75    0.32 
   1  10  14    0.96    0.35 
   2  10  14    0.07    0.30 
   3  10  14    2.92    0.54 
   4  10  14   -0.22    0.32 
   5  10  14    1.57    0.49 
   6  10  14    0.44    0.39 
   7  10  14    0.60    0.44 
  -6  11  14    0.14    0.35 
  -5  11  14    0.94    0.38 
  -4  11  14    0.29    0.30 
  -3  11  14    1.45    0.40 
  -2  11  14    0.68    0.31 
  -1  11  14    2.17    0.44 
   0  11  14    0.30    0.32 
   1  11  14    1.98    0.45 
   2  11  14    0.76    0.39 
   3  11  14    2.65    0.55 
   4  11  14    0.24    0.38 
   5  11  14    1.37    0.47 
   6  11  14    0.70    0.43 
  -5  12  14    0.39    0.35 
  -4  12  14    1.49    0.43 
  -3  12  14    0.72    0.34 
  -2  12  14   -0.28    0.29 
  -1  12  14    0.01    0.27 
   0  12  14    0.20    0.32 
   1  12  14    0.16    0.32 
   2  12  14    0.08    0.33 
   3  12  14    0.53    0.37 
   4  12  14    1.37    0.45 
   5  12  14    0.21    0.39 
  -3  13  14    1.67    0.46 
  -2  13  14    0.13    0.33 
  -1  13  14    0.36    0.36 
   0  13  14   -0.11    0.36 
   1  13  14    0.79    0.42 
   2  13  14    0.51    0.42 
   3  13  14    0.92    0.46 
  -3 -12  15    1.51    0.36 
  -2 -12  15    0.94    0.32 
  -1 -12  15    0.24    0.27 
   0 -12  15   -0.01    0.26 
   1 -12  15   -0.03    0.27 
   2 -12  15    0.95    0.34 
   3 -12  15    1.27    0.40 
  -5 -11  15    0.09    0.24 
  -4 -11  15    2.06    0.37 
  -3 -11  15    0.59    0.28 
  -2 -11  15    0.31    0.25 
  -1 -11  15    0.21    0.25 
   0 -11  15    0.32    0.27 
   1 -11  15    0.37    0.26 
   2 -11  15   -0.14    0.26 
   3 -11  15    0.70    0.34 
   4 -11  15    2.02    0.42 
   5 -11  15    0.12    0.29 
  -6 -10  15    0.86    0.28 
  -5 -10  15    0.19    0.25 
  -4 -10  15    0.79    0.28 
  -3 -10  15    0.74    0.27 
  -2 -10  15    0.04    0.23 
  -1 -10  15    1.05    0.28 
   0 -10  15    0.46    0.25 
   1 -10  15    1.31    0.32 
   2 -10  15    0.21    0.25 
   3 -10  15    0.46    0.32 
   4 -10  15    1.23    0.37 
   5 -10  15    0.13    0.26 
  -6  10 -15    0.24    0.47 
   6 -10  15    1.32    0.41 
  -7  -9  15    0.68    0.28 
  -7  -9  15    1.07    0.40 
  -6  -9  15    0.30    0.24 
  -6  -9  15    0.81    0.38 
  -5  -9  15    0.52    0.23 
  -4  -9  15    0.85    0.25 
  -3  -9  15    0.27    0.21 
  -2  -9  15    1.57    0.30 
  -1  -9  15    0.10    0.21 
   0  -9  15    1.83    0.34 
   1  -9  15    0.18    0.24 
   2  -9  15    1.26    0.31 
   3  -9  15    0.18    0.25 
   4  -9  15    0.96    0.33 
  -5   9 -15    0.54    0.44 
   5  -9  15    0.45    0.29 
  -6   9 -15    0.42    0.42 
   6  -9  15    0.49    0.31 
  -7   9 -15    0.64    0.49 
   7  -9  15    1.00    0.35 
  -7  -8  15    0.37    0.34 
  -7  -8  15    0.16    0.22 
  -6  -8  15    0.09    0.20 
  -6  -8  15    0.42    0.30 
  -5  -8  15    0.92    0.27 
  -4  -8  15    0.83    0.25 
  -3  -8  15    2.23    0.34 
  -2  -8  15    1.41    0.28 
  -1  -8  15   -0.01    0.19 
   0  -8  15    0.51    0.22 
   1  -8  15   -0.15    0.19 
   2  -8  15    1.52    0.31 
   3  -8  15    2.88    0.41 
  -4   8 -15    1.02    0.47 
   4  -8  15    0.91    0.30 
  -5   8 -15    0.59    0.40 
   5  -8  15    0.75    0.30 
  -6   8 -15    0.02    0.36 
   6  -8  15    0.37    0.29 
  -7   8 -15    0.38    0.44 
   7  -8  15    0.60    0.32 
  -8  -7  15    0.12    0.25 
  -7  -7  15    1.27    0.31 
  -6  -7  15    2.18    0.42 
  -6  -7  15    1.65    0.30 
  -5  -7  15    0.02    0.20 
  -5  -7  15   -0.03    0.27 
  -4  -7  15    0.94    0.25 
  -3  -7  15    0.60    0.23 
  -2  -7  15    2.24    0.32 
  -1  -7  15    1.58    0.30 
   0  -7  15    1.95    0.32 
   1  -7  15    2.02    0.32 
   2  -7  15    1.65    0.31 
   3  -7  15    0.11    0.20 
  -4   7 -15    0.65    0.36 
   4  -7  15    0.70    0.25 
  -5   7 -15    0.67    0.38 
   5  -7  15    0.48    0.25 
  -6   7 -15    2.22    0.54 
   6  -7  15    1.69    0.38 
  -7   7 -15    1.97    0.53 
   7  -7  15    0.96    0.35 
  -8   7 -15    0.43    0.46 
   8  -7  15    0.44    0.31 
  -8  -6  15    0.19    0.25 
  -7  -6  15    0.24    0.24 
  -6  -6  15    1.59    0.32 
  -5  -6  15    1.36    0.29 
  -4  -6  15    0.53    0.21 
  -3  -6  15    0.86    0.25 
  -2  -6  15    1.95    0.30 
  -1  -6  15    1.75    0.30 
   0  -6  15    0.38    0.20 
   1  -6  15    1.77    0.30 
   2  -6  15    2.21    0.35 
  -3   6 -15    1.23    0.41 
   3  -6  15    1.50    0.29 
  -4   6 -15    0.74    0.37 
   4  -6  15    0.62    0.26 
  -5   6 -15    1.19    0.44 
   5  -6  15    2.05    0.36 
  -6   6 -15    1.44    0.46 
   6  -6  15    1.75    0.36 
  -7   6 -15   -0.05    0.35 
   7  -6  15    0.09    0.27 
  -8   6 -15    0.40    0.45 
   8  -6  15    0.03    0.28 
  -9  -5  15    0.45    0.28 
  -8  -5  15    0.55    0.27 
  -7  -5  15    0.00    0.21 
  -6  -5  15    2.26    0.35 
  -5  -5  15    1.39    0.30 
  -4  -5  15    1.02    0.25 
  -3  -5  15    1.33    0.26 
  -2  -5  15    0.16    0.17 
  -1  -5  15    6.73    0.48 
   0  -5  15   -0.27    0.15 
   1  -5  15    6.34    0.47 
   2  -5  15    0.55    0.22 
   3  -5  15    1.12    0.32 
   3  -5  15    0.81    0.25 
   4  -5  15    1.27    0.34 
   4  -5  15    1.13    0.28 
   5  -5  15    2.08    0.36 
   5  -5  15    2.31    0.44 
   6  -5  15    2.77    0.41 
   6  -5  15    2.77    0.49 
   7  -5  15    0.24    0.30 
   7  -5  15    0.22    0.24 
   8  -5  15    0.28    0.33 
   8  -5  15    1.15    0.36 
  -9   5 -15    0.07    0.49 
   9  -5  15    0.45    0.32 
  -9  -4  15    0.76    0.31 
  -8  -4  15    0.29    0.26 
  -7  -4  15    1.03    0.29 
  -6  -4  15    1.85    0.34 
  -5  -4  15    0.56    0.22 
  -4  -4  15    0.14    0.17 
  -3  -4  15    2.77    0.32 
  -2  -4  15    0.16    0.17 
  -1  -4  15    0.62    0.21 
   0  -4  15    1.43    0.26 
   1  -4  15    0.90    0.22 
   2  -4  15    0.12    0.22 
   2  -4  15    0.13    0.17 
   3  -4  15    3.17    0.44 
   3  -4  15    3.40    0.38 
   4  -4  15   -0.14    0.21 
   4  -4  15    0.21    0.19 
   5  -4  15    0.07    0.25 
   5  -4  15    0.22    0.23 
   6  -4  15    2.42    0.47 
   6  -4  15    2.15    0.37 
   7  -4  15    1.78    0.38 
   7  -4  15    2.15    0.46 
   8  -4  15    0.02    0.26 
   8  -4  15   -0.03    0.34 
   9  -4  15    0.95    0.46 
   9  -4  15    0.77    0.36 
  -9  -3  15    0.68    0.32 
  -8  -3  15    0.68    0.29 
  -7  -3  15    0.10    0.22 
  -6  -3  15    1.59    0.31 
  -5  -3  15    1.22    0.26 
  -4  -3  15    0.46    0.19 
  -3  -3  15    0.90    0.22 
  -2  -3  15    0.23    0.16 
  -1  -3  15    1.27    0.24 
   0  -3  15    1.78    0.27 
   1  -3  15    0.77    0.21 
   2  -3  15    0.59    0.20 
   2  -3  15    0.78    0.26 
   3  -3  15    0.89    0.24 
   3  -3  15    1.51    0.34 
   4  -3  15    0.61    0.22 
   4  -3  15    0.36    0.24 
   5  -3  15    1.26    0.37 
   5  -3  15    1.04    0.28 
   6  -3  15    1.38    0.36 
   6  -3  15    0.78    0.28 
   7  -3  15    0.01    0.31 
   7  -3  15    0.25    0.24 
   8  -3  15    0.40    0.27 
   8  -3  15    0.34    0.36 
   9  -3  15    0.76    0.42 
   9  -3  15    0.31    0.30 
  -9  -2  15   -0.07    0.27 
  -8  -2  15    1.09    0.33 
  -7  -2  15    0.30    0.25 
  -6  -2  15    1.25    0.30 
  -5  -2  15    0.67    0.22 
  -4  -2  15    0.44    0.19 
  -3  -2  15    1.92    0.28 
  -2  -2  15    0.59    0.19 
  -1  -2  15    6.97    0.45 
   0  -2  15    1.52    0.25 
   1  -2  15    6.61    0.45 
   1  -2  15    6.28    0.51 
   2  -2  15    0.20    0.21 
   2  -2  15    0.24    0.20 
   3  -2  15    3.18    0.43 
   3  -2  15    2.75    0.33 
   4  -2  15    0.66    0.28 
   4  -2  15    0.51    0.21 
   5  -2  15    0.59    0.30 
   5  -2  15    1.23    0.28 
   6  -2  15    1.60    0.40 
   6  -2  15    1.32    0.31 
   7  -2  15    0.68    0.34 
   7  -2  15    0.40    0.25 
   8  -2  15    2.56    0.42 
   8  -2  15    1.39    0.44 
   9  -2  15    0.12    0.31 
   9  -2  15   -0.60    0.29 
  -9  -1  15    0.44    0.32 
  -8  -1  15    1.27    0.37 
  -7  -1  15    0.36    0.23 
  -6  -1  15    2.22    0.35 
  -5  -1  15    0.42    0.22 
  -4  -1  15    2.14    0.32 
  -3  -1  15    1.25    0.25 
  -2  -1  15    7.03    0.47 
  -1  -1  15    3.66    0.34 
   0  -1  15    0.65    0.19 
   1  -1  15    3.23    0.32 
   1  -1  15    2.68    0.37 
   2  -1  15    8.03    0.48 
   2  -1  15    6.09    0.56 
   3  -1  15    1.16    0.31 
   3  -1  15    1.10    0.25 
   4  -1  15    3.15    0.35 
   4  -1  15    2.03    0.40 
   5  -1  15    0.70    0.23 
   5  -1  15    0.50    0.29 
   6  -1  15    3.46    0.52 
   6  -1  15    2.54    0.36 
   7  -1  15    0.25    0.28 
   7  -1  15    0.49    0.25 
   8  -1  15    1.51    0.36 
   8  -1  15    0.98    0.43 
   9  -1  15   -0.26    0.33 
  -9   0  15    0.34    0.32 
  -8   0  15    0.82    0.31 
  -7   0  15    0.17    0.24 
  -6   0  15    1.15    0.29 
  -5   0  15    0.37    0.20 
  -4   0  15    5.87    0.43 
  -3   0  15    1.33    0.26 
  -2   0  15    0.65    0.20 
  -1   0  15   14.40    0.72 
   0   0  15    0.01    0.15 
   0   0  15    0.05    0.17 
   1   0  15   13.85    0.82 
   1   0  15   14.33    0.71 
   2   0  15    0.88    0.22 
   2   0  15    0.88    0.27 
   3   0  15    1.36    0.26 
   3   0  15    1.47    0.34 
   4   0  15    4.89    0.42 
   4   0  15    6.25    0.60 
   5   0  15    1.02    0.35 
   5   0  15    0.82    0.24 
   6   0  15    0.95    0.36 
   6   0  15    1.51    0.30 
   7   0  15   -0.16    0.29 
   7   0  15   -0.06    0.23 
   8   0  15    0.61    0.42 
   9   0  15    0.15    0.39 
  10   0  15    0.19    0.44 
  -9   1  15    0.17    0.30 
  -8   1  15    0.88    0.33 
  -7   1  15    0.06    0.22 
  -6   1  15    3.31    0.42 
  -5   1  15    0.69    0.24 
  -4   1  15    2.20    0.31 
  -3   1  15    0.92    0.24 
  -2   1  15    7.81    0.50 
  -1   1  15    3.06    0.32 
   0   1  15    1.14    0.23 
   0   1  15    1.01    0.26 
   1   1  15    2.65    0.29 
   1   1  15    2.79    0.37 
   2   1  15    7.02    0.57 
   2   1  15    7.23    0.46 
   3   1  15    1.24    0.24 
   3   1  15    0.73    0.27 
   4   1  15    2.38    0.42 
   4   1  15    2.24    0.29 
   5   1  15    0.56    0.28 
   5   1  15    0.43    0.20 
   6   1  15    2.25    0.34 
   6   1  15    2.31    0.47 
   7   1  15    0.34    0.32 
   8   1  15    0.81    0.41 
   9   1  15    0.20    0.37 
  -9   2  15    0.00    0.28 
  -8   2  15    2.09    0.41 
  -7   2  15    0.69    0.29 
  -6   2  15    1.03    0.29 
  -5   2  15    0.85    0.27 
  -4   2  15    0.65    0.23 
  -3   2  15    2.80    0.33 
  -2   2  15    0.03    0.16 
  -1   2  15    6.51    0.52 
  -1   2  15    6.77    0.44 
   0   2  15    2.08    0.27 
   0   2  15    2.16    0.35 
   1   2  15    7.20    0.45 
   1   2  15    6.79    0.55 
   2   2  15    0.37    0.18 
   2   2  15    0.57    0.25 
   3   2  15    2.70    0.30 
   3   2  15    2.08    0.39 
   4   2  15    0.34    0.28 
   4   2  15    0.62    0.20 
   5   2  15    0.90    0.34 
   6   2  15    1.04    0.37 
   7   2  15    0.84    0.37 
   8   2  15    1.55    0.46 
   9   2  15    0.09    0.37 
  -9   3  15    0.41    0.33 
  -8   3  15    0.97    0.33 
  -7   3  15   -0.17    0.23 
  -6   3  15    0.94    0.30 
  -5   3  15    1.15    0.28 
  -4   3  15    0.51    0.21 
  -3   3  15    0.81    0.23 
  -2   3  15    0.69    0.24 
  -2   3  15    0.76    0.21 
  -1   3  15    0.62    0.25 
  -1   3  15    0.76    0.22 
   0   3  15    1.77    0.24 
   0   3  15    2.22    0.35 
   1   3  15    0.68    0.19 
   1   3  15    0.50    0.25 
   2   3  15    0.59    0.19 
   2   3  15    0.75    0.28 
   3   3  15    1.16    0.22 
   3   3  15    0.96    0.31 
   4   3  15    0.74    0.29 
   5   3  15    1.33    0.37 
   6   3  15    1.04    0.34 
   7   3  15    0.13    0.33 
   8   3  15    1.06    0.43 
   9   3  15    0.37    0.42 
  -9   4  15    0.69    0.37 
  -8   4  15    0.23    0.28 
  -7   4  15    1.35    0.34 
  -6   4  15    1.87    0.36 
  -5   4  15    0.62    0.26 
  -4   4  15   -0.08    0.19 
  -3   4  15    3.23    0.35 
  -2   4  15    0.08    0.16 
  -2   4  15    0.55    0.23 
  -1   4  15    0.76    0.21 
  -1   4  15    1.36    0.32 
   0   4  15    1.51    0.24 
   0   4  15    1.34    0.33 
   1   4  15    1.00    0.31 
   1   4  15    1.25    0.23 
   2   4  15   -0.07    0.20 
   2   4  15    0.06    0.16 
   3   4  15    3.35    0.49 
   4   4  15   -0.26    0.22 
   5   4  15    0.21    0.31 
   6   4  15    2.26    0.47 
   7   4  15    1.24    0.44 
   8   4  15    0.02    0.32 
   9   4  15    0.91    0.44 
  -9   5  15    0.63    0.36 
  -8   5  15    0.60    0.33 
  -7   5  15    0.38    0.28 
  -6   5  15    3.07    0.42 
  -5   5  15    2.21    0.36 
  -4   5  15    1.05    0.26 
  -3   5  15    1.35    0.26 
  -2   5  15    0.27    0.19 
  -2   5  15    0.43    0.25 
  -1   5  15    6.70    0.59 
  -1   5  15    6.14    0.42 
   0   5  15    0.08    0.15 
   0   5  15    0.06    0.24 
   1   5  15    7.08    0.62 
   2   5  15    0.51    0.27 
   3   5  15    1.53    0.39 
   4   5  15    1.63    0.39 
   5   5  15    2.35    0.47 
   6   5  15    3.47    0.57 
   7   5  15    0.61    0.35 
   8   5  15    0.60    0.41 
   9   5  15    0.09    0.37 
  -8   6  15    0.27    0.33 
  -7   6  15    0.90    0.32 
  -6   6  15    2.12    0.38 
  -5   6  15    1.48    0.31 
  -4   6  15    1.04    0.27 
  -3   6  15    1.57    0.35 
  -3   6  15    1.25    0.27 
  -2   6  15    2.81    0.42 
  -2   6  15    2.94    0.31 
  -1   6  15    1.77    0.37 
  -1   6  15    1.92    0.27 
   0   6  15    1.15    0.35 
   1   6  15    0.91    0.33 
   2   6  15    1.83    0.40 
   3   6  15    1.60    0.39 
   4   6  15    1.28    0.38 
   5   6  15    1.09    0.36 
   6   6  15    1.55    0.46 
   7   6  15   -0.15    0.32 
   8   6  15    0.37    0.41 
  -8   7  15   -0.08    0.31 
  -7   7  15    1.92    0.41 
  -6   7  15    1.50    0.35 
  -5   7  15    0.12    0.22 
  -4   7  15    1.31    0.29 
  -3   7  15    0.41    0.22 
  -3   7  15    0.64    0.28 
  -2   7  15    1.87    0.30 
  -2   7  15    2.42    0.41 
  -1   7  15    2.55    0.43 
   0   7  15    1.89    0.39 
   1   7  15    2.31    0.45 
   2   7  15    2.57    0.47 
   3   7  15    0.35    0.28 
   4   7  15    0.64    0.33 
   5   7  15    0.40    0.34 
   6   7  15    2.22    0.51 
   7   7  15    1.76    0.53 
   8   7  15    0.28    0.40 
  -7   8  15    0.19    0.31 
  -6   8  15    0.73    0.31 
  -5   8  15    0.56    0.28 
  -4   8  15    0.59    0.26 
  -4   8  15    1.15    0.35 
  -3   8  15    2.94    0.44 
  -2   8  15    1.32    0.36 
  -1   8  15    0.12    0.23 
   0   8  15    1.46    0.35 
   1   8  15    0.77    0.34 
   2   8  15    2.06    0.45 
   3   8  15    3.34    0.53 
   4   8  15    1.66    0.46 
   5   8  15    0.62    0.39 
   6   8  15    0.12    0.35 
   7   8  15    0.60    0.40 
  -7   9  15    1.51    0.42 
  -6   9  15    0.42    0.34 
  -4   9  15    0.92    0.34 
  -3   9  15   -0.07    0.26 
  -2   9  15    1.95    0.41 
  -1   9  15    0.48    0.31 
   0   9  15    4.04    0.55 
   1   9  15    0.68    0.34 
   2   9  15    2.80    0.52 
   3   9  15    0.17    0.33 
   4   9  15    0.71    0.39 
   5   9  15    0.56    0.36 
   6   9  15    0.81    0.42 
   7   9  15    1.27    0.51 
  -4  10  15    0.35    0.33 
  -3  10  15    0.64    0.33 
  -2  10  15    1.02    0.36 
  -1  10  15    1.28    0.37 
   0  10  15    0.49    0.34 
   1  10  15    0.91    0.36 
   2  10  15    0.98    0.39 
   3  10  15    0.19    0.32 
   4  10  15    1.01    0.44 
   5  10  15   -0.04    0.34 
   6  10  15    1.35    0.51 
  -5  11  15    0.43    0.39 
  -4  11  15    2.67    0.50 
  -3  11  15    0.95    0.38 
  -2  11  15    0.02    0.32 
  -1  11  15    0.88    0.40 
   0  11  15   -0.08    0.32 
   1  11  15    0.49    0.35 
   2  11  15   -0.10    0.34 
   3  11  15    1.02    0.44 
   4  11  15    1.86    0.55 
   5  11  15    0.10    0.38 
  -3  12  15    1.80    0.48 
  -2  12  15    1.27    0.40 
  -1  12  15    0.38    0.34 
   0  12  15    0.15    0.37 
   1  12  15    0.46    0.37 
   2  12  15    0.58    0.40 
   3  12  15    1.02    0.50 
  -1  13  15    0.32    0.40 
   0  13  15   -0.07    0.34 
   1  13  15    1.00    0.46 
  -3 -11  16    0.32    0.27 
  -2 -11  16    0.36    0.27 
  -1 -11  16   -0.08    0.25 
   0 -11  16   -0.06    0.25 
   1 -11  16    0.38    0.30 
   2 -11  16   -0.05    0.30 
   3 -11  16    0.58    0.34 
  -5 -10  16    0.58    0.28 
  -4 -10  16    0.20    0.25 
  -3 -10  16    0.62    0.28 
  -2 -10  16   -0.26    0.22 
  -1 -10  16    0.49    0.27 
   0 -10  16   -0.01    0.24 
   1 -10  16    0.38    0.27 
   2 -10  16   -0.14    0.26 
   3 -10  16    0.47    0.30 
   4 -10  16    0.33    0.30 
   5 -10  16    0.01    0.30 
  -6  -9  16    0.47    0.27 
  -5  -9  16    0.14    0.25 
  -4  -9  16    0.80    0.29 
  -3  -9  16    0.33    0.24 
  -2  -9  16    0.01    0.22 
  -1  -9  16    0.07    0.21 
   0  -9  16   -0.29    0.21 
   1  -9  16   -0.06    0.22 
   2  -9  16   -0.06    0.25 
   3  -9  16    0.16    0.27 
   4  -9  16    0.93    0.35 
   5  -9  16    0.32    0.30 
  -6   9 -16    0.27    0.55 
   6  -9  16    0.65    0.35 
  -6  -8  16    0.72    0.27 
  -5  -8  16    0.69    0.26 
  -4  -8  16    0.69    0.27 
  -3  -8  16    1.12    0.30 
  -2  -8  16    2.19    0.35 
  -1  -8  16    1.81    0.33 
   0  -8  16    3.74    0.43 
   1  -8  16    1.50    0.32 
   2  -8  16    2.32    0.39 
   3  -8  16    1.11    0.30 
   4  -8  16    1.06    0.34 
   5  -8  16    0.70    0.32 
  -6   8 -16    0.50    0.46 
   6  -8  16    0.51    0.31 
  -7  -7  16    0.66    0.38 
  -7  -7  16    1.10    0.30 
  -6  -7  16    0.01    0.22 
  -5  -7  16    2.31    0.37 
  -4  -7  16    0.26    0.23 
  -3  -7  16    3.21    0.39 
  -2  -7  16   -0.05    0.18 
  -1  -7  16    0.24    0.21 
   0  -7  16   -0.25    0.18 
   1  -7  16    0.46    0.22 
   2  -7  16    0.13    0.19 
   3  -7  16    3.79    0.45 
   4  -7  16    0.12    0.24 
  -5   7 -16    2.13    0.52 
   5  -7  16    2.19    0.42 
  -6   7 -16    0.07    0.40 
   6  -7  16    0.06    0.27 
  -7   7 -16    0.91    0.50 
   7  -7  16    0.99    0.37 
  -7  -6  16    1.07    0.32 
  -6  -6  16    0.34    0.24 
  -5  -6  16    0.25    0.23 
  -4  -6  16    0.44    0.23 
  -3  -6  16    0.00    0.18 
  -2  -6  16    0.74    0.24 
  -1  -6  16    0.13    0.19 
   0  -6  16    2.71    0.35 
   1  -6  16    0.10    0.17 
   2  -6  16    2.08    0.35 
   3  -6  16    0.02    0.20 
  -4   6 -16    0.12    0.38 
   4  -6  16    0.85    0.29 
  -5   6 -16    0.39    0.38 
   5  -6  16    0.64    0.30 
  -6   6 -16    0.82    0.45 
   6  -6  16    1.07    0.33 
  -7   6 -16    0.35    0.47 
   7  -6  16    1.13    0.35 
  -8  -5  16    0.29    0.26 
  -7  -5  16    0.77    0.29 
  -6  -5  16   -0.10    0.22 
  -5  -5  16    0.52    0.25 
  -4  -5  16    3.31    0.39 
  -3  -5  16    0.11    0.18 
  -2  -5  16    1.83    0.29 
  -1  -5  16    0.02    0.19 
   0  -5  16   -0.13    0.15 
   1  -5  16    0.03    0.20 
   2  -5  16    2.86    0.38 
   3  -5  16    0.09    0.20 
   4  -5  16    4.68    0.56 
   4  -5  16    4.30    0.47 
   5  -5  16    0.42    0.30 
   5  -5  16    0.59    0.28 
   6  -5  16    0.09    0.30 
   6  -5  16    0.16    0.25 
   7  -5  16    0.66    0.32 
   7  -5  16    0.35    0.35 
   8  -5  16    0.00    0.36 
  -8  -4  16    0.37    0.28 
  -7  -4  16    1.19    0.30 
  -6  -4  16   -0.05    0.22 
  -5  -4  16    0.52    0.24 
  -4  -4  16    0.69    0.24 
  -3  -4  16   -0.01    0.16 
  -2  -4  16    7.23    0.50 
  -1  -4  16    0.09    0.17 
   0  -4  16    2.91    0.35 
   1  -4  16    0.27    0.20 
   2  -4  16    8.41    0.56 
   3  -4  16   -0.11    0.21 
   3  -4  16    0.29    0.21 
   4  -4  16    0.83    0.32 
   4  -4  16    0.82    0.27 
   5  -4  16    0.36    0.29 
   5  -4  16    0.77    0.29 
   6  -4  16    0.43    0.33 
   6  -4  16    0.11    0.24 
   7  -4  16    1.41    0.42 
   7  -4  16    0.71    0.31 
   8  -4  16    0.33    0.39 
   8  -4  16   -0.17    0.27 
  -8  -3  16    1.01    0.32 
  -7  -3  16    2.99    0.43 
  -6  -3  16    0.34    0.25 
  -5  -3  16    2.71    0.37 
  -4  -3  16    0.36    0.21 
  -3  -3  16    0.24    0.19 
  -2  -3  16    2.12    0.30 
  -1  -3  16    0.27    0.18 
   0  -3  16    2.81    0.34 
   1  -3  16    0.24    0.19 
   2  -3  16    2.75    0.35 
   3  -3  16    1.48    0.34 
   3  -3  16    0.78    0.25 
   4  -3  16    0.88    0.26 
   4  -3  16    0.45    0.28 
   5  -3  16    1.79    0.41 
   5  -3  16    2.82    0.40 
   6  -3  16    0.45    0.25 
   6  -3  16    0.36    0.29 
   7  -3  16    2.56    0.53 
   7  -3  16    3.06    0.45 
   8  -3  16    1.41    0.38 
   8  -3  16    1.30    0.46 
  -9  -2  16    0.68    0.33 
  -8  -2  16    0.19    0.29 
  -7  -2  16    0.41    0.29 
  -6  -2  16    0.06    0.19 
  -5  -2  16    0.50    0.24 
  -4  -2  16    0.42    0.22 
  -3  -2  16    0.31    0.19 
  -2  -2  16    4.20    0.39 
  -1  -2  16    0.75    0.21 
   0  -2  16    3.06    0.34 
   1  -2  16    0.53    0.22 
   2  -2  16    4.08    0.38 
   2  -2  16    3.57    0.45 
   3  -2  16   -0.11    0.20 
   3  -2  16    0.22    0.19 
   4  -2  16    0.61    0.22 
   4  -2  16    0.59    0.29 
   5  -2  16    0.38    0.23 
   5  -2  16    0.50    0.30 
   6  -2  16    0.20    0.22 
   6  -2  16   -0.20    0.25 
   7  -2  16    0.29    0.34 
   7  -2  16    0.73    0.29 
   8  -2  16    0.41    0.39 
   8  -2  16    0.83    0.33 
   9  -2  16    0.61    0.42 
  -9  -1  16    0.39    0.31 
  -8  -1  16    0.20    0.27 
  -7  -1  16    1.65    0.35 
  -6  -1  16    0.24    0.22 
  -5  -1  16    2.41    0.35 
  -4  -1  16    0.28    0.19 
  -3  -1  16    2.03    0.31 
  -2  -1  16    3.80    0.36 
  -1  -1  16    1.15    0.24 
   0  -1  16    6.81    0.46 
   1  -1  16    1.06    0.24 
   1  -1  16    0.89    0.28 
   2  -1  16    3.22    0.36 
   2  -1  16    3.21    0.44 
   3  -1  16    1.85    0.30 
   3  -1  16    1.87    0.39 
   4  -1  16    0.25    0.20 
   4  -1  16    0.29    0.26 
   5  -1  16    2.52    0.47 
   5  -1  16    2.68    0.37 
   6  -1  16   -0.26    0.26 
   6  -1  16    0.08    0.22 
   7  -1  16    2.01    0.38 
   7  -1  16    1.34    0.41 
   8  -1  16   -0.22    0.29 
   9  -1  16    0.15    0.39 
  -9   0  16    0.29    0.31 
  -8   0  16   -0.05    0.24 
  -7   0  16   -0.10    0.23 
  -6   0  16   -0.12    0.19 
  -5   0  16    0.61    0.24 
  -4   0  16    1.28    0.27 
  -3   0  16    0.49    0.20 
  -2   0  16    0.65    0.22 
  -1   0  16    3.00    0.33 
   0   0  16    0.28    0.18 
   1   0  16    1.63    0.33 
   1   0  16    2.12    0.29 
   2   0  16    0.94    0.28 
   2   0  16    1.04    0.24 
   3   0  16    0.72    0.29 
   3   0  16    0.17    0.18 
   4   0  16    1.40    0.35 
   4   0  16    1.56    0.29 
   5   0  16    0.59    0.24 
   5   0  16    0.49    0.30 
   6   0  16    0.26    0.28 
   6   0  16   -0.07    0.22 
   7   0  16    0.18    0.31 
   8   0  16    0.02    0.37 
   9   0  16   -0.12    0.40 
  -9   1  16    0.03    0.32 
  -8   1  16    0.10    0.28 
  -7   1  16    1.39    0.34 
  -6   1  16    0.44    0.26 
  -5   1  16    2.25    0.34 
  -4   1  16    0.17    0.19 
  -3   1  16    2.27    0.31 
  -2   1  16    3.63    0.36 
  -1   1  16    1.08    0.23 
   0   1  16    6.83    0.55 
   0   1  16    7.06    0.47 
   1   1  16    1.21    0.24 
   1   1  16    1.36    0.32 
   2   1  16    2.91    0.43 
   2   1  16    3.64    0.35 
   3   1  16    2.20    0.29 
   3   1  16    2.48    0.42 
   4   1  16    0.40    0.19 
   4   1  16    0.28    0.28 
   5   1  16    2.64    0.35 
   5   1  16    3.01    0.50 
   6   1  16   -0.17    0.27 
   7   1  16    1.53    0.44 
   8   1  16   -0.33    0.31 
   9   1  16    0.91    0.48 
  -9   2  16    0.89    0.36 
  -8   2  16    0.19    0.30 
  -7   2  16    0.73    0.31 
  -6   2  16    0.12    0.24 
  -5   2  16    0.19    0.23 
  -4   2  16    0.69    0.24 
  -3   2  16    0.17    0.18 
  -2   2  16    3.45    0.36 
  -1   2  16    0.54    0.19 
   0   2  16    4.18    0.45 
   0   2  16    4.06    0.36 
   1   2  16    0.62    0.20 
   1   2  16    1.24    0.30 
   2   2  16    3.21    0.32 
   2   2  16    3.54    0.46 
   3   2  16    0.22    0.25 
   3   2  16    0.22    0.18 
   4   2  16    0.52    0.22 
   4   2  16    0.38    0.27 
   5   2  16    0.25    0.27 
   6   2  16    0.16    0.32 
   7   2  16    0.09    0.31 
   8   2  16    0.39    0.41 
   9   2  16   -0.12    0.41 
  -8   3  16    0.93    0.35 
  -7   3  16    2.92    0.45 
  -6   3  16    0.45    0.27 
  -5   3  16    2.58    0.37 
  -4   3  16    0.67    0.24 
  -3   3  16    0.78    0.24 
  -2   3  16    2.00    0.29 
  -1   3  16   -0.11    0.22 
  -1   3  16    0.50    0.19 
   0   3  16    3.49    0.44 
   0   3  16    2.93    0.31 
   1   3  16    0.25    0.17 
   1   3  16    0.21    0.20 
   2   3  16    1.91    0.27 
   2   3  16    2.02    0.39 
   3   3  16    0.53    0.27 
   4   3  16    0.57    0.30 
   5   3  16    2.75    0.49 
   6   3  16   -0.26    0.28 
   7   3  16    2.37    0.53 
   8   3  16    0.76    0.42 
  -8   4  16    0.14    0.29 
  -7   4  16    1.53    0.37 
  -6   4  16    0.07    0.24 
  -5   4  16    0.02    0.21 
  -4   4  16    0.75    0.25 
  -3   4  16    0.25    0.21 
  -2   4  16    7.76    0.51 
  -1   4  16    0.01    0.15 
  -1   4  16    0.20    0.24 
   0   4  16    3.39    0.45 
   0   4  16    3.09    0.31 
   1   4  16    0.16    0.26 
   1   4  16    0.22    0.17 
   2   4  16    7.59    0.68 
   3   4  16    0.04    0.24 
   4   4  16    0.57    0.32 
   5   4  16    0.27    0.27 
   6   4  16    0.35    0.35 
   7   4  16    1.18    0.45 
   8   4  16    0.15    0.42 
  -8   5  16    0.31    0.32 
  -7   5  16    0.38    0.29 
  -6   5  16    0.40    0.27 
  -5   5  16    0.59    0.27 
  -4   5  16    3.66    0.40 
  -3   5  16    0.18    0.20 
  -2   5  16    2.80    0.33 
  -2   5  16    2.72    0.43 
  -1   5  16   -0.13    0.20 
  -1   5  16    0.12    0.17 
   0   5  16   -0.12    0.17 
   0   5  16    0.06    0.23 
   1   5  16   -0.13    0.23 
   2   5  16    2.75    0.47 
   3   5  16    0.12    0.27 
   4   5  16    4.57    0.61 
   5   5  16   -0.06    0.30 
   6   5  16    0.38    0.36 
   7   5  16    0.71    0.38 
   8   5  16   -0.04    0.41 
  -7   6  16    1.34    0.37 
  -6   6  16    0.52    0.30 
  -5   6  16    0.70    0.29 
  -4   6  16    0.79    0.28 
  -3   6  16   -0.25    0.17 
  -2   6  16    2.00    0.40 
  -2   6  16    1.77    0.28 
  -1   6  16   -0.60    0.19 
   0   6  16    2.66    0.46 
   1   6  16    0.44    0.29 
   2   6  16    1.55    0.41 
   3   6  16   -0.31    0.24 
   4   6  16    0.82    0.34 
   5   6  16    0.65    0.36 
   6   6  16    0.90    0.41 
   7   6  16    0.82    0.43 
  -7   7  16    1.22    0.39 
  -6   7  16    0.06    0.27 
  -5   7  16    2.50    0.39 
  -4   7  16   -0.02    0.21 
  -3   7  16    4.22    0.41 
  -2   7  16   -0.13    0.25 
  -1   7  16    0.23    0.28 
   0   7  16   -0.10    0.26 
   1   7  16    0.70    0.34 
   2   7  16    0.44    0.32 
   3   7  16    3.30    0.55 
   4   7  16    0.26    0.35 
   5   7  16    2.13    0.54 
   6   7  16    0.22    0.39 
   7   7  16    0.57    0.43 
  -6   8  16    0.34    0.31 
  -5   8  16    0.91    0.34 
  -3   8  16    1.62    0.42 
  -2   8  16    2.07    0.45 
  -1   8  16    2.32    0.46 
   0   8  16    4.53    0.58 
   1   8  16    1.09    0.37 
   2   8  16    2.35    0.48 
   3   8  16    1.19    0.43 
   4   8  16    0.82    0.42 
   5   8  16    0.66    0.42 
   6   8  16    0.48    0.43 
  -3   9  16    0.14    0.31 
  -2   9  16    0.33    0.32 
  -1   9  16   -0.10    0.27 
   0   9  16   -0.18    0.25 
   1   9  16    0.39    0.36 
   2   9  16    0.19    0.34 
   3   9  16    0.38    0.39 
   4   9  16    1.19    0.44 
   5   9  16    0.18    0.40 
   6   9  16    0.55    0.47 
  -4  10  16    0.65    0.39 
  -3  10  16    0.75    0.39 
  -2  10  16    0.37    0.33 
  -1  10  16    0.53    0.37 
   0  10  16    0.71    0.37 
   1  10  16    0.76    0.37 
   2  10  16    0.25    0.34 
   3  10  16    0.65    0.40 
   4  10  16    0.09    0.41 
   5  10  16    0.39    0.46 
  -3  11  16    0.77    0.41 
  -2  11  16   -0.02    0.35 
  -1  11  16    0.53    0.39 
   0  11  16    0.34    0.37 
   1  11  16    0.05    0.37 
   2  11  16    0.13    0.36 
   3  11  16    0.22    0.43 
   0  12  16    0.30    0.41 
  -3 -10  17   -0.22    0.23 
  -2 -10  17    0.33    0.29 
  -1 -10  17    0.12    0.27 
   0 -10  17    0.01    0.28 
   1 -10  17    0.41    0.30 
   2 -10  17    0.26    0.30 
   3 -10  17   -0.19    0.27 
  -4  -9  17    0.42    0.28 
  -3  -9  17    0.26    0.28 
  -2  -9  17    1.80    0.36 
  -1  -9  17    0.08    0.24 
   0  -9  17    0.49    0.29 
   1  -9  17    0.32    0.26 
   2  -9  17    1.33    0.35 
   3  -9  17    0.24    0.31 
   4  -9  17    0.27    0.29 
  -5  -8  17    2.11    0.38 
  -4  -8  17    2.01    0.36 
  -3  -8  17    1.22    0.31 
  -2  -8  17    0.38    0.25 
  -1  -8  17   -0.24    0.20 
   0  -8  17    0.33    0.27 
   1  -8  17   -0.01    0.19 
   2  -8  17    0.50    0.28 
   3  -8  17    0.55    0.30 
   4  -8  17    2.65    0.46 
   5  -8  17    2.19    0.45 
  -6  -7  17    0.12    0.24 
  -5  -7  17    0.17    0.24 
  -4  -7  17    0.01    0.23 
  -3  -7  17    0.71    0.27 
  -2  -7  17    0.38    0.26 
  -1  -7  17    1.78    0.34 
   0  -7  17    1.33    0.31 
   1  -7  17    1.92    0.35 
   2  -7  17    0.53    0.28 
   3  -7  17    0.92    0.31 
   4  -7  17   -0.22    0.24 
   5  -7  17    0.09    0.28 
  -6   7 -17    0.11    0.49 
   6  -7  17    0.21    0.31 
  -6  -6  17    0.16    0.24 
  -5  -6  17    0.10    0.22 
  -4  -6  17    0.38    0.25 
  -3  -6  17    0.01    0.21 
  -2  -6  17    0.72    0.26 
  -1  -6  17    0.48    0.23 
   0  -6  17    0.72    0.24 
   1  -6  17    0.91    0.27 
   2  -6  17    1.39    0.32 
   3  -6  17   -0.33    0.21 
   4  -6  17    0.51    0.28 
  -5   6 -17   -0.01    0.47 
   5  -6  17    0.01    0.24 
  -6   6 -17    0.23    0.43 
   6  -6  17    0.36    0.31 
  -7  -5  17    0.07    0.25 
  -6  -5  17    0.10    0.24 
  -5  -5  17    0.03    0.21 
  -4  -5  17   -0.08    0.21 
  -3  -5  17    0.00    0.20 
  -2  -5  17    0.33    0.22 
  -1  -5  17    0.59    0.22 
   0  -5  17    0.97    0.27 
   1  -5  17    0.34    0.22 
   2  -5  17    0.44    0.24 
   3  -5  17    0.51    0.25 
   4  -5  17    0.08    0.23 
   5  -5  17    0.35    0.28 
   5  -5  17    0.51    0.32 
   6  -5  17   -0.17    0.24 
   6  -5  17   -0.06    0.35 
   7  -5  17    0.39    0.31 
   7  -5  17    0.19    0.41 
  -7  -4  17    0.02    0.26 
  -6  -4  17    0.83    0.30 
  -5  -4  17    0.02    0.23 
  -4  -4  17    1.91    0.31 
  -3  -4  17    0.65    0.24 
  -2  -4  17    0.71    0.23 
  -1  -4  17    0.42    0.21 
   0  -4  17    1.12    0.27 
   1  -4  17    0.57    0.24 
   2  -4  17    0.71    0.25 
   3  -4  17    0.63    0.24 
   4  -4  17    1.48    0.40 
   4  -4  17    1.97    0.35 
   5  -4  17    0.28    0.30 
   5  -4  17    0.17    0.26 
   6  -4  17    1.05    0.42 
   6  -4  17    1.05    0.34 
   7  -4  17    0.31    0.39 
   7  -4  17   -0.14    0.27 
  -7  -3  17    0.17    0.26 
  -6  -3  17    0.28    0.25 
  -5  -3  17    0.75    0.26 
  -4  -3  17    0.03    0.20 
  -3  -3  17    0.97    0.24 
  -2  -3  17    1.13    0.27 
  -1  -3  17    6.45    0.48 
   0  -3  17    0.19    0.20 
   1  -3  17    6.17    0.50 
   2  -3  17    1.23    0.28 
   3  -3  17    0.85    0.26 
   4  -3  17    0.21    0.21 
   4  -3  17   -0.21    0.24 
   5  -3  17    0.25    0.23 
   5  -3  17    0.76    0.35 
   6  -3  17   -0.03    0.23 
   6  -3  17   -0.15    0.28 
   7  -3  17    0.30    0.38 
   7  -3  17    0.38    0.30 
  -8  -2  17    0.60    0.28 
  -7  -2  17   -0.03    0.24 
  -6  -2  17    1.12    0.30 
  -5  -2  17    0.21    0.22 
  -4  -2  17    2.23    0.35 
  -3  -2  17    0.34    0.21 
  -2  -2  17    0.77    0.24 
  -1  -2  17    1.10    0.25 
   0  -2  17   -0.22    0.16 
   1  -2  17    0.83    0.24 
   2  -2  17    0.84    0.25 
   3  -2  17   -0.06    0.19 
   3  -2  17    0.22    0.29 
   4  -2  17    2.23    0.36 
   4  -2  17    2.81    0.46 
   5  -2  17    0.18    0.22 
   5  -2  17    0.17    0.30 
   6  -2  17    2.48    0.50 
   6  -2  17    1.99    0.39 
   7  -2  17    0.11    0.36 
   7  -2  17    0.07    0.26 
   8  -2  17    1.16    0.47 
  -8  -1  17    0.11    0.26 
  -7  -1  17   -0.28    0.23 
  -6  -1  17    0.10    0.23 
  -5  -1  17    0.69    0.26 
  -4  -1  17    0.27    0.23 
  -3  -1  17    2.64    0.35 
  -2  -1  17    0.50    0.21 
  -1  -1  17    3.44    0.37 
   0  -1  17    0.11    0.18 
   1  -1  17    3.28    0.37 
   2  -1  17    0.30    0.20 
   2  -1  17    0.49    0.26 
   3  -1  17    2.01    0.40 
   3  -1  17    2.66    0.35 
   4  -1  17    0.00    0.19 
   4  -1  17    0.14    0.27 
   5  -1  17    1.03    0.35 
   5  -1  17    1.31    0.31 
   6  -1  17    0.46    0.36 
   6  -1  17    0.10    0.24 
   7  -1  17   -0.29    0.34 
   8  -1  17    0.27    0.40 
  -8   0  17    0.16    0.31 
  -7   0  17    0.18    0.25 
  -6   0  17    2.26    0.37 
  -5   0  17    0.11    0.22 
  -4   0  17    2.10    0.32 
  -3   0  17    0.20    0.20 
  -2   0  17    0.87    0.24 
  -1   0  17    1.99    0.30 
   0   0  17    0.04    0.17 
   1   0  17    2.54    0.32 
   2   0  17    0.52    0.29 
   2   0  17    0.77    0.24 
   3   0  17    0.07    0.19 
   3   0  17    0.26    0.24 
   4   0  17    2.19    0.45 
   4   0  17    2.39    0.35 
   5   0  17    0.06    0.22 
   5   0  17    0.00    0.28 
   6   0  17    1.89    0.47 
   7   0  17    0.22    0.37 
   8   0  17    0.16    0.41 
  -8   1  17   -0.32    0.27 
  -7   1  17    0.32    0.28 
  -6   1  17    0.17    0.25 
  -5   1  17    0.56    0.25 
  -4   1  17    0.08    0.21 
  -3   1  17    2.75    0.36 
  -2   1  17    0.32    0.20 
  -1   1  17    3.44    0.36 
   0   1  17    0.17    0.18 
   1   1  17    3.38    0.36 
   1   1  17    2.74    0.42 
   2   1  17   -0.16    0.21 
   2   1  17    0.33    0.19 
   3   1  17    2.35    0.44 
   3   1  17    2.70    0.34 
   4   1  17    0.17    0.22 
   4   1  17    0.28    0.29 
   5   1  17    1.28    0.39 
   6   1  17    0.44    0.35 
   7   1  17   -0.11    0.36 
   8   1  17   -0.19    0.38 
  -8   2  17    1.01    0.37 
  -7   2  17    0.29    0.30 
  -6   2  17    2.41    0.40 
  -5   2  17    0.23    0.23 
  -4   2  17    1.99    0.32 
  -3   2  17    0.35    0.20 
  -2   2  17    0.84    0.24 
  -1   2  17    0.81    0.22 
   0   2  17    0.21    0.18 
   1   2  17    1.07    0.23 
   1   2  17    0.99    0.30 
   2   2  17    0.94    0.23 
   2   2  17    0.92    0.32 
   3   2  17    0.28    0.21 
   3   2  17    0.09    0.22 
   4   2  17    2.13    0.44 
   5   2  17    0.04    0.30 
   6   2  17    2.93    0.57 
   7   2  17   -0.28    0.39 
   8   2  17    1.22    0.52 
  -7   3  17    0.34    0.30 
  -6   3  17    0.23    0.25 
  -5   3  17    0.62    0.27 
  -4   3  17    0.32    0.22 
  -3   3  17    1.22    0.28 
  -2   3  17    1.21    0.26 
  -1   3  17    6.48    0.45 
   0   3  17    0.08    0.23 
   0   3  17   -0.04    0.16 
   1   3  17    7.76    0.48 
   1   3  17    6.34    0.62 
   2   3  17    1.13    0.33 
   2   3  17    1.46    0.27 
   3   3  17    1.09    0.35 
   4   3  17    0.32    0.30 
   5   3  17    0.27    0.32 
   6   3  17    0.04    0.32 
   7   3  17    0.21    0.42 
  -7   4  17    0.19    0.29 
  -6   4  17    1.17    0.34 
  -5   4  17    0.30    0.24 
  -4   4  17    1.21    0.28 
  -3   4  17    0.71    0.24 
  -2   4  17    0.48    0.21 
  -1   4  17    0.43    0.21 
   0   4  17    1.05    0.24 
   0   4  17    1.29    0.35 
   1   4  17    0.27    0.26 
   2   4  17    0.22    0.26 
   3   4  17    0.88    0.33 
   4   4  17    1.88    0.42 
   5   4  17    0.79    0.38 
   6   4  17    1.81    0.48 
   7   4  17    0.36    0.40 
  -7   5  17    0.40    0.31 
  -6   5  17    0.54    0.29 
  -5   5  17   -0.09    0.23 
  -4   5  17    0.10    0.21 
  -3   5  17    0.23    0.20 
  -2   5  17    0.84    0.25 
  -1   5  17    0.70    0.22 
  -1   5  17    0.59    0.31 
   0   5  17    0.49    0.29 
   1   5  17    0.39    0.29 
   2   5  17    1.03    0.35 
   3   5  17    0.04    0.31 
   4   5  17   -0.05    0.27 
   5   5  17    0.05    0.32 
   6   5  17    0.07    0.38 
   7   5  17   -0.01    0.39 
  -6   6  17    1.01    0.34 
  -5   6  17    0.19    0.25 
  -4   6  17    0.71    0.26 
  -3   6  17   -0.09    0.20 
  -2   6  17    1.23    0.30 
  -1   6  17    1.11    0.37 
   0   6  17    1.07    0.36 
   1   6  17    0.77    0.34 
   2   6  17    1.55    0.43 
   3   6  17    0.06    0.31 
   4   6  17   -0.27    0.32 
   5   6  17    0.15    0.36 
   6   6  17    0.65    0.44 
  -6   7  17    0.71    0.33 
  -5   7  17    0.40    0.29 
  -4   7  17    0.46    0.30 
  -2   7  17    0.39    0.34 
  -1   7  17    2.30    0.48 
   0   7  17    1.75    0.43 
   1   7  17    2.65    0.52 
   2   7  17    0.09    0.30 
   3   7  17    0.60    0.40 
   4   7  17    0.22    0.34 
   5   7  17    0.11    0.37 
   6   7  17    0.31    0.45 
  -2   8  17    0.28    0.33 
  -1   8  17   -0.11    0.29 
   0   8  17   -0.11    0.28 
   1   8  17    0.00    0.33 
   2   8  17    0.93    0.37 
   3   8  17    1.13    0.45 
   4   8  17    1.99    0.55 
   5   8  17    2.01    0.55 
  -2   9  17    1.56    0.46 
  -1   9  17    0.42    0.37 
   0   9  17    0.44    0.39 
   1   9  17    0.76    0.41 
   2   9  17    2.27    0.55 
   3   9  17    1.14    0.45 
   4   9  17    0.08    0.42 
  -3  10  17    0.73    0.43 
  -2  10  17    0.40    0.40 
  -1  10  17    0.81    0.42 
   0  10  17   -0.26    0.35 
   1  10  17   -0.15    0.37 
   2  10  17    0.49    0.41 
   3  10  17    0.12    0.40 
  -1  -9  18    0.16    0.27 
   0  -9  18    0.64    0.32 
   1  -9  18   -0.09    0.25 
  -3  -8  18    0.39    0.27 
  -2  -8  18    0.45    0.27 
  -1  -8  18    0.35    0.28 
   0  -8  18    0.39    0.26 
   1  -8  18    0.71    0.31 
   2  -8  18    0.37    0.29 
   3  -8  18    0.49    0.32 
  -4  -7  18    0.59    0.28 
  -3  -7  18    0.77    0.28 
  -2  -7  18    0.91    0.30 
  -1  -7  18    1.18    0.30 
   0  -7  18    0.63    0.28 
   1  -7  18    0.54    0.28 
   2  -7  18    0.80    0.30 
   3  -7  18    0.73    0.32 
   4  -7  18    0.26    0.30 
  -5  -6  18    0.32    0.28 
  -4  -6  18    0.17    0.25 
  -3  -6  18    0.21    0.25 
  -2  -6  18    1.34    0.32 
  -1  -6  18    0.11    0.22 
   0  -6  18    4.14    0.48 
   1  -6  18   -0.02    0.22 
   2  -6  18    1.52    0.34 
   3  -6  18    0.63    0.28 
   4  -6  18   -0.11    0.26 
   5  -6  18    0.32    0.31 
  -6  -5  18   -0.14    0.22 
  -5  -5  18    0.50    0.26 
  -4  -5  18    0.25    0.26 
  -3  -5  18    0.38    0.24 
  -2  -5  18    1.03    0.28 
  -1  -5  18    0.06    0.21 
   0  -5  18    0.76    0.26 
   1  -5  18   -0.21    0.19 
   2  -5  18    0.94    0.29 
   3  -5  18    0.24    0.26 
   4  -5  18    0.25    0.27 
   5  -5  18    0.45    0.32 
   6  -5  18    0.13    0.39 
  -6  -4  18    0.07    0.25 
  -5  -4  18    0.80    0.28 
  -4  -4  18    0.49    0.26 
  -3  -4  18    1.20    0.31 
  -2  -4  18    1.53    0.30 
  -1  -4  18    0.80    0.27 
   0  -4  18    2.55    0.37 
   1  -4  18    0.46    0.24 
   2  -4  18    1.86    0.35 
   3  -4  18    0.79    0.29 
   4  -4  18    1.39    0.34 
   5  -4  18    1.39    0.45 
   5  -4  18    0.94    0.35 
   6  -4  18    0.22    0.30 
   6  -4  18    0.33    0.37 
  -6  -3  18    0.70    0.31 
  -5  -3  18    1.29    0.33 
  -4  -3  18    0.37    0.23 
  -3  -3  18    0.76    0.26 
  -2  -3  18    0.26    0.22 
  -1  -3  18    0.67    0.25 
   0  -3  18   -0.07    0.19 
   1  -3  18    0.58    0.25 
   2  -3  18   -0.35    0.18 
   3  -3  18    0.81    0.29 
   4  -3  18    0.42    0.27 
   5  -3  18    1.27    0.37 
   5  -3  18    0.94    0.39 
   6  -3  18    0.39    0.31 
   6  -3  18    0.19    0.37 
  -6  -2  18    0.42    0.28 
  -5  -2  18    0.23    0.26 
  -4  -2  18    1.29    0.31 
  -3  -2  18    0.28    0.22 
  -2  -2  18    1.34    0.30 
  -1  -2  18    0.36    0.22 
   0  -2  18    4.61    0.44 
   1  -2  18    0.35    0.22 
   2  -2  18    1.57    0.31 
   3  -2  18    0.27    0.23 
   4  -2  18    1.90    0.36 
   4  -2  18    1.17    0.39 
   5  -2  18   -0.21    0.28 
   5  -2  18    0.00    0.25 
   6  -2  18   -0.31    0.33 
   6  -2  18    0.42    0.29 
   7  -2  18    0.18    0.39 
  -7  -1  18    0.50    0.29 
  -6  -1  18    0.02    0.24 
  -5  -1  18    1.73    0.34 
  -4  -1  18    0.26    0.23 
  -3  -1  18    0.87    0.25 
  -2  -1  18    0.68    0.25 
  -1  -1  18    0.97    0.26 
   0  -1  18    0.04    0.20 
   1  -1  18    0.68    0.24 
   2  -1  18    0.44    0.24 
   3  -1  18    0.76    0.28 
   3  -1  18    0.56    0.33 
   4  -1  18    0.28    0.30 
   4  -1  18    0.03    0.22 
   5  -1  18    1.32    0.42 
   5  -1  18    0.97    0.31 
   6  -1  18    0.04    0.34 
   6  -1  18   -0.21    0.29 
   7  -1  18    0.16    0.36 
  -7   0  18    0.16    0.28 
  -6   0  18    0.86    0.30 
  -5   0  18    1.60    0.35 
  -4   0  18    0.22    0.23 
  -3   0  18    0.84    0.26 
  -2   0  18    1.56    0.30 
  -1   0  18   -0.17    0.17 
   0   0  18   10.47    0.63 
   1   0  18   -0.27    0.17 
   2   0  18    2.02    0.33 
   3   0  18    0.65    0.25 
   3   0  18    0.66    0.35 
   4   0  18    0.51    0.25 
   4   0  18    0.48    0.33 
   5   0  18    1.71    0.37 
   5   0  18    1.60    0.44 
   6   0  18    0.44    0.38 
   7   0  18   -0.09    0.38 
  -7   1  18    0.57    0.30 
  -6   1  18    0.27    0.25 
  -5   1  18    0.57    0.27 
  -4   1  18   -0.08    0.21 
  -3   1  18    0.74    0.25 
  -2   1  18    0.49    0.21 
  -1   1  18    1.06    0.26 
   0   1  18    0.31    0.22 
   1   1  18    1.18    0.26 
   2   1  18    0.51    0.25 
   2   1  18   -0.10    0.24 
   3   1  18    0.48    0.24 
   3   1  18    0.82    0.34 
   4   1  18    0.82    0.37 
   5   1  18    1.28    0.42 
   6   1  18   -0.20    0.36 
   7   1  18    0.07    0.38 
  -6   2  18    0.53    0.29 
  -5   2  18    0.23    0.25 
  -4   2  18    1.56    0.32 
  -3   2  18    0.12    0.21 
  -2   2  18    1.80    0.30 
  -1   2  18    0.39    0.21 
   0   2  18    4.33    0.40 
   1   2  18    0.35    0.21 
   2   2  18    1.43    0.37 
   2   2  18    1.51    0.29 
   3   2  18    0.31    0.30 
   4   2  18    1.72    0.42 
   5   2  18    0.22    0.36 
   6   2  18    0.01    0.39 
   7   2  18    0.34    0.45 
  -6   3  18    0.54    0.30 
  -5   3  18    1.17    0.33 
  -4   3  18    0.67    0.26 
  -3   3  18    1.31    0.29 
  -2   3  18    0.22    0.20 
  -1   3  18    0.00    0.19 
   0   3  18    0.66    0.23 
   1   3  18    0.31    0.22 
   1   3  18    0.76    0.32 
   2   3  18    0.37    0.29 
   3   3  18    1.54    0.42 
   4   3  18    0.67    0.37 
   5   3  18    1.02    0.42 
   6   3  18    0.24    0.40 
  -6   4  18   -0.08    0.27 
  -5   4  18    0.47    0.28 
  -4   4  18    1.14    0.30 
  -3   4  18    0.57    0.25 
  -2   4  18    1.39    0.29 
  -1   4  18    0.49    0.21 
   1   4  18    0.84    0.35 
   2   4  18    1.82    0.44 
   3   4  18    0.50    0.34 
   4   4  18    1.03    0.41 
   5   4  18    0.72    0.41 
   6   4  18    0.19    0.42 
  -6   5  18    0.19    0.29 
  -5   5  18    0.27    0.27 
  -4   5  18   -0.19    0.22 
  -3   5  18    0.51    0.25 
  -2   5  18    0.84    0.27 
   0   5  18    0.61    0.35 
   1   5  18   -0.24    0.27 
   2   5  18    0.41    0.33 
   3   5  18    0.00    0.33 
   4   5  18    0.28    0.37 
   5   5  18    1.12    0.48 
   6   5  18    0.63    0.45 
  -5   6  18    0.36    0.30 
  -4   6  18   -0.16    0.23 
  -3   6  18    0.23    0.26 
   0   6  18    3.73    0.58 
   1   6  18   -0.32    0.27 
   2   6  18    1.22    0.42 
   3   6  18   -0.03    0.32 
   4   6  18   -0.49    0.33 
   5   6  18    0.13    0.42 
   0   7  18    0.24    0.34 
   1   7  18    0.48    0.39 
   2   7  18    0.60    0.38 
   3   7  18    1.08    0.46 
   4   7  18    0.27    0.37 
  -1   8  18    0.97    0.44 
   0   8  18    0.08    0.34 
   1   8  18    1.24    0.47 
   2   8  18   -0.10    0.37 
   3   8  18    0.33    0.45 
  -1   9  18    0.40    0.40 
   0   9  18    0.46    0.42 
   1   9  18   -0.48    0.36 
   2   9  18   -0.38    0.38 
  -2  -7  19    0.49    0.28 
  -1  -7  19    0.83    0.32 
   0  -7  19    0.31    0.28 
   1  -7  19    1.23    0.34 
   2  -7  19    0.70    0.33 
  -3  -6  19    0.12    0.26 
  -2  -6  19    0.49    0.29 
  -1  -6  19    0.19    0.26 
   0  -6  19    0.70    0.30 
   1  -6  19    0.12    0.26 
   2  -6  19    0.93    0.34 
   3  -6  19    0.10    0.27 
  -4  -5  19    0.17    0.25 
  -3  -5  19    0.02    0.23 
  -2  -5  19   -0.15    0.23 
  -1  -5  19    0.16    0.22 
   0  -5  19    0.08    0.24 
   1  -5  19    0.33    0.26 
   2  -5  19   -0.20    0.23 
   3  -5  19   -0.01    0.26 
   4  -5  19    0.34    0.32 
  -4  -4  19    0.85    0.28 
  -3  -4  19    0.91    0.29 
  -2  -4  19    0.19    0.25 
  -1  -4  19    0.37    0.26 
   0  -4  19    1.03    0.29 
   1  -4  19    0.04    0.24 
   2  -4  19    0.27    0.28 
   3  -4  19    0.94    0.33 
   4  -4  19    0.45    0.32 
  -5  -3  19    0.60    0.29 
  -4  -3  19    0.62    0.28 
  -3  -3  19    0.79    0.29 
  -2  -3  19    0.28    0.24 
  -1  -3  19    0.72    0.28 
   0  -3  19    0.21    0.23 
   1  -3  19    0.87    0.29 
   2  -3  19    0.65    0.29 
   3  -3  19    1.60    0.36 
   4  -3  19    1.34    0.37 
   5  -3  19    0.65    0.33 
  -5  -2  19    0.83    0.30 
  -4  -2  19    0.54    0.26 
  -3  -2  19    0.04    0.22 
  -2  -2  19    0.31    0.23 
  -1  -2  19    0.07    0.21 
   0  -2  19    0.19    0.24 
   1  -2  19   -0.31    0.18 
   2  -2  19   -0.05    0.23 
   3  -2  19   -0.05    0.25 
   4  -2  19    0.24    0.28 
   5  -2  19    0.53    0.41 
   5  -2  19    0.31    0.31 
  -5  -1  19    0.58    0.29 
  -4  -1  19    1.31    0.32 
  -3  -1  19    0.96    0.27 
  -2  -1  19    0.44    0.25 
  -1  -1  19    4.96    0.47 
   0  -1  19    1.18    0.30 
   1  -1  19    4.28    0.44 
   2  -1  19    0.35    0.26 
   3  -1  19    0.43    0.28 
   4  -1  19    0.91    0.31 
   5  -1  19    0.19    0.36 
   5  -1  19    0.49    0.32 
  -5   0  19    0.08    0.26 
  -4   0  19    2.33    0.39 
  -3   0  19    1.86    0.34 
  -2   0  19    2.45    0.36 
  -1   0  19    1.03    0.27 
   0   0  19   -0.08    0.21 
   1   0  19    1.25    0.29 
   2   0  19    2.67    0.39 
   3   0  19    1.88    0.35 
   4   0  19    2.55    0.54 
   4   0  19    2.69    0.42 
   5   0  19    0.50    0.39 
  -5   1  19    0.45    0.27 
  -4   1  19    0.84    0.28 
  -3   1  19    0.79    0.28 
  -2   1  19    0.41    0.23 
  -1   1  19    4.58    0.44 
   0   1  19    0.88    0.28 
   1   1  19    4.57    0.44 
   2   1  19    0.73    0.26 
   3   1  19    0.82    0.31 
   3   1  19    0.38    0.37 
   4   1  19    0.95    0.42 
   5   1  19    0.54    0.42 
  -5   2  19    0.09    0.26 
  -4   2  19    0.31    0.26 
  -3   2  19    0.22    0.24 
  -2   2  19    0.29    0.23 
  -1   2  19    0.15    0.22 
   0   2  19    0.53    0.24 
   1   2  19   -0.05    0.21 
   3   2  19   -0.05    0.31 
   4   2  19    0.18    0.37 
   5   2  19    0.18    0.39 
  -5   3  19    0.48    0.30 
  -4   3  19    1.01    0.32 
  -3   3  19    1.02    0.29 
  -2   3  19    0.47    0.23 
  -1   3  19    1.25    0.28 
   0   3  19    0.11    0.21 
   2   3  19    0.65    0.39 
   3   3  19    1.33    0.43 
   4   3  19    0.66    0.41 
   5   3  19    0.81    0.43 
  -4   4  19    0.79    0.30 
  -3   4  19    0.80    0.27 
  -2   4  19    0.27    0.23 
  -1   4  19    0.30    0.25 
   2   4  19   -0.25    0.30 
   3   4  19    1.20    0.43 
   4   4  19    0.36    0.37 
  -4   5  19    0.15    0.26 
  -3   5  19   -0.10    0.24 
   1   5  19    0.07    0.37 
   2   5  19   -0.16    0.32 
   3   5  19   -0.09    0.35 
   4   5  19    0.61    0.43 
   1   6  19    0.03    0.36 
   2   6  19    0.76    0.43 
   3   6  19    0.46    0.43 
   1   7  19    0.84    0.46 
   2   7  19    0.78    0.45 
  -2  -4  20    0.91    0.33 
  -1  -4  20    0.35    0.25 
   0  -4  20    0.77    0.31 
   1  -4  20    0.13    0.26 
   2  -4  20    0.67    0.35 
  -2  -3  20    1.16    0.33 
  -1  -3  20   -0.20    0.22 
   0  -3  20    0.79    0.30 
   1  -3  20    0.08    0.25 
   2  -3  20    1.71    0.38 
  -3  -2  20    0.23    0.27 
  -2  -2  20    0.67    0.28 
  -1  -2  20    0.22    0.26 
   0  -2  20    1.08    0.31 
   1  -2  20    0.09    0.26 
   2  -2  20    0.83    0.32 
   3  -2  20    0.76    0.32 
  -3  -1  20    1.64    0.35 
  -2  -1  20    0.59    0.28 
  -1  -1  20    0.24    0.26 
   0  -1  20    0.06    0.24 
   1  -1  20   -0.20    0.22 
   2  -1  20    1.70    0.37 
   3  -1  20    1.71    0.40 
  -3   0  20    0.21    0.25 
  -2   0  20    2.80    0.41 
  -1   0  20    0.09    0.25 
   0   0  20    3.80    0.45 
   1   0  20    0.40    0.27 
   2   0  20    1.70    0.37 
   3   0  20    0.37    0.30 
  -3   1  20    1.92    0.36 
  -2   1  20    1.31    0.33 
  -1   1  20   -0.17    0.23 
   0   1  20   -0.21    0.22 
   1   1  20    0.16    0.24 
   2   1  20    0.88    0.32 
  -3   2  20    0.39    0.27 
  -2   2  20    0.34    0.26 
  -1   2  20    0.08    0.23 
   0   2  20    0.31    0.27 
   1   2  20    0.69    0.32 
  -2   3  20    1.27    0.32 
  -1   3  20   -0.02    0.23 
  -2   4  20    0.64    0.30 
   0   0   0    0.00    0.00 
;
_shelx_hkl_checksum              1464
loop_
_space_group_symop_operation_xyz
'x, y, z'
'-x+1/2, -y, z+1/2'
'-x, y+1/2, -z+1/2'
'x+1/2, -y+1/2, -z'
loop_
_atom_site_label
_atom_site_type_symbol
_atom_site_fract_x
_atom_site_fract_y
_atom_site_fract_z
_atom_site_U_iso_or_equiv
_atom_site_adp_type
_atom_site_occupancy
_atom_site_site_symmetry_order
_atom_site_calc_flag
_atom_site_refinement_flags_posn
_atom_site_refinement_flags_adp
S1 S 0.96286(8) 0.48760(5) 1.05711(5) 0.0525(2) Uani 1 1 d . .
N1 N 0.8625(2) 0.43355(18) 0.98953(15) 0.0471(6) Uani 1 1 d . .
N2 N 0.9226(3) 0.3188(2) 0.78856(17) 0.0650(8) Uani 1 1 d . .
O1 O 0.8927(3) 0.55636(18) 1.10210(15) 0.0749(8) Uani 1 1 d . .
O2 O 1.0253(3) 0.41612(16) 1.10273(14) 0.0672(7) Uani 1 1 d . .
C1 C 0.8051(3) 0.4969(2) 0.9292(2) 0.0517(8) Uani 1 1 d . .
C2 C 0.7395(3) 0.5778(3) 0.9453(3) 0.0691(10) Uani 1 1 d . .
H2 H 0.7301 0.6010 1.0008 0.083 Uiso 1 1 calc R U
C3 C 0.6879(4) 0.6234(3) 0.8753(4) 0.0843(13) Uani 1 1 d . .
H3 H 0.6428 0.6784 0.8842 0.101 Uiso 1 1 calc R U
C4 C 0.7012(4) 0.5898(3) 0.7934(3) 0.0865(14) Uani 1 1 d . .
H4 H 0.6644 0.6220 0.7480 0.104 Uiso 1 1 calc R U
C5 C 0.7677(4) 0.5100(3) 0.7770(3) 0.0718(11) Uani 1 1 d . .
H5 H 0.7764 0.4874 0.7212 0.086 Uiso 1 1 calc R U
C6 C 0.8222(3) 0.4630(2) 0.8462(2) 0.0539(8) Uani 1 1 d . .
C7 C 0.8899(3) 0.3756(2) 0.85231(19) 0.0489(8) Uani 1 1 d . .
C8 C 0.9088(3) 0.3557(2) 0.93903(18) 0.0430(6) Uani 1 1 d . .
C9 C 0.9507(3) 0.2674(2) 0.96477(18) 0.0433(7) Uani 1 1 d . .
C10 C 0.9884(3) 0.2077(2) 0.8976(2) 0.0532(8) Uani 1 1 d . .
C11 C 0.9736(4) 0.2387(3) 0.8132(2) 0.0656(10) Uani 1 1 d . .
H11 H 1.0026 0.1990 0.7701 0.079 Uiso 1 1 calc R U
C12 C 0.9425(3) 0.23309(18) 1.05507(18) 0.0418(7) Uani 1 1 d . .
C13 C 1.0435(3) 0.1999(2) 1.1007(2) 0.0546(8) Uani 1 1 d . .
H13 H 1.1218 0.2016 1.0761 0.065 Uiso 1 1 calc R U
C14 C 1.0283(4) 0.1642(2) 1.1828(2) 0.0617(9) Uani 1 1 d . .
H14 H 1.0964 0.1417 1.2129 0.074 Uiso 1 1 calc R U
C15 C 0.9145(4) 0.1619(3) 1.2196(2) 0.0633(10) Uani 1 1 d . .
H15 H 0.9048 0.1374 1.2747 0.076 Uiso 1 1 calc R U
C16 C 0.8142(4) 0.1955(2) 1.1757(2) 0.0591(9) Uani 1 1 d . .
H16 H 0.7364 0.1945 1.2011 0.071 Uiso 1 1 calc R U
C17 C 0.8282(3) 0.2310(2) 1.09360(19) 0.0476(7) Uani 1 1 d . .
H17 H 0.7596 0.2536 1.0641 0.057 Uiso 1 1 calc R U
C18 C 1.0276(4) 0.1067(2) 0.9117(2) 0.0618(9) Uani 1 1 d . .
H18A H 1.0499 0.0983 0.9716 0.074 Uiso 1 1 calc R U
H18B H 1.1006 0.0939 0.8774 0.074 Uiso 1 1 calc R U
C19 C 0.9277(4) 0.0363(2) 0.8885(3) 0.0700(10) Uani 1 1 d . .
H19A H 0.8528 0.0532 0.9191 0.084 Uiso 1 1 calc R U
H19B H 0.9105 0.0419 0.8275 0.084 Uiso 1 1 calc R U
C20 C 0.9573(4) -0.0643(2) 0.9077(3) 0.0726(10) Uani 1 1 d . .
H20A H 1.0326 -0.0811 0.8776 0.087 Uiso 1 1 calc R U
H20B H 0.9734 -0.0703 0.9688 0.087 Uiso 1 1 calc R U
C21 C 0.8586(4) -0.1325(3) 0.8835(3) 0.0893(13) Uani 1 1 d . .
H21A H 0.7828 -0.1153 0.9115 0.134 Uiso 1 1 calc R U
H21B H 0.8824 -0.1948 0.9011 0.134 Uiso 1 1 calc R U
H21C H 0.8471 -0.1313 0.8224 0.134 Uiso 1 1 calc R U
C22 C 1.0662(3) 0.5446(2) 0.9880(2) 0.0494(8) Uani 1 1 d . .
C23 C 1.0525(4) 0.6397(2) 0.9691(2) 0.0635(9) Uani 1 1 d . .
H23 H 0.9886 0.6743 0.9936 0.076 Uiso 1 1 calc R U
C24 C 1.1343(4) 0.6818(3) 0.9140(3) 0.0753(12) Uani 1 1 d . .
H24 H 1.1250 0.7455 0.9016 0.090 Uiso 1 1 calc R U
C25 C 1.2296(4) 0.6327(3) 0.8766(3) 0.0747(11) Uani 1 1 d . .
C26 C 1.2414(4) 0.5384(3) 0.8964(3) 0.0763(11) Uani 1 1 d . .
H26 H 1.3058 0.5040 0.8723 0.092 Uiso 1 1 calc R U
C27 C 1.1599(3) 0.4942(2) 0.9510(2) 0.0619(9) Uani 1 1 d . .
H27 H 1.1684 0.4302 0.9627 0.074 Uiso 1 1 calc R U
C28 C 1.3190(5) 0.6807(4) 0.8165(4) 0.118(2) Uani 1 1 d . .
H28A H 1.3292 0.7453 0.8335 0.177 Uiso 1 1 calc R U
H28B H 1.2874 0.6782 0.7589 0.177 Uiso 1 1 calc R U
H28C H 1.3975 0.6491 0.8188 0.177 Uiso 1 1 calc R U
loop_
_atom_site_aniso_label
_atom_site_aniso_U_11
_atom_site_aniso_U_22
_atom_site_aniso_U_33
_atom_site_aniso_U_23
_atom_site_aniso_U_13
_atom_site_aniso_U_12
S1 0.0693(5) 0.0476(4) 0.0406(4) -0.0026(3) -0.0006(4) -0.0035(4)
N1 0.0493(15) 0.0464(14) 0.0456(14) 0.0040(11) 0.0036(12) -0.0019(12)
N2 0.082(2) 0.0682(19) 0.0447(15) -0.0002(14) 0.0043(14) -0.0161(17)
O1 0.102(2) 0.0664(15) 0.0563(13) -0.0163(12) 0.0162(15) 0.0010(15)
O2 0.0947(18) 0.0546(12) 0.0524(13) 0.0057(11) -0.0210(14) -0.0111(14)
C1 0.0434(17) 0.0500(17) 0.0617(19) 0.0136(15) -0.0016(15) -0.0055(15)
C2 0.058(2) 0.063(2) 0.086(3) 0.017(2) 0.005(2) 0.0014(18)
C3 0.069(3) 0.065(2) 0.119(4) 0.030(3) -0.005(3) 0.006(2)
C4 0.083(3) 0.077(3) 0.100(3) 0.044(3) -0.021(3) -0.010(3)
C5 0.077(3) 0.070(2) 0.068(2) 0.029(2) -0.016(2) -0.023(2)
C6 0.0479(18) 0.0586(19) 0.0551(19) 0.0161(16) -0.0044(15) -0.0195(16)
C7 0.054(2) 0.0531(18) 0.0401(16) 0.0057(14) 0.0021(15) -0.0137(15)
C8 0.0408(16) 0.0472(16) 0.0409(14) -0.0006(14) 0.0023(13) -0.0084(13)
C9 0.0372(16) 0.0473(15) 0.0456(15) -0.0008(12) 0.0015(13) -0.0082(14)
C10 0.0473(19) 0.0573(18) 0.0551(18) -0.0106(15) 0.0098(15) -0.0080(15)
C11 0.080(3) 0.066(2) 0.0508(18) -0.0121(17) 0.0126(18) -0.011(2)
C12 0.0467(18) 0.0355(13) 0.0432(14) 0.0002(12) -0.0033(14) -0.0002(12)
C13 0.0444(18) 0.0628(19) 0.0564(18) -0.0020(16) -0.0047(16) 0.0066(16)
C14 0.068(2) 0.060(2) 0.058(2) 0.0014(16) -0.0183(19) 0.0157(19)
C15 0.084(3) 0.059(2) 0.0470(17) 0.0098(15) -0.0014(19) 0.0100(19)
C16 0.063(2) 0.062(2) 0.0521(19) 0.0060(16) 0.0094(17) -0.0011(18)
C17 0.0440(17) 0.0490(17) 0.0497(16) 0.0054(14) -0.0026(14) 0.0025(14)
C18 0.062(2) 0.0575(19) 0.066(2) -0.0143(16) 0.0018(19) 0.0045(17)
C19 0.069(3) 0.061(2) 0.080(2) 0.0024(19) -0.006(2) -0.0009(18)
C20 0.072(2) 0.063(2) 0.083(2) -0.012(2) -0.005(2) 0.004(2)
C21 0.084(3) 0.072(3) 0.113(3) -0.021(3) 0.006(3) -0.012(2)
C22 0.054(2) 0.0404(15) 0.0536(17) -0.0021(13) -0.0084(15) -0.0048(14)
C23 0.061(2) 0.0488(17) 0.081(2) 0.0029(18) -0.002(2) 0.0001(17)
C24 0.069(3) 0.052(2) 0.105(3) 0.022(2) -0.009(2) -0.009(2)
C25 0.057(2) 0.077(3) 0.090(3) 0.017(2) -0.003(2) -0.015(2)
C26 0.055(2) 0.080(3) 0.094(3) -0.010(2) 0.013(2) -0.003(2)
C27 0.058(2) 0.0463(17) 0.081(2) -0.0046(18) -0.0018(18) -0.0023(16)
C28 0.079(3) 0.135(5) 0.139(5) 0.045(4) 0.011(3) -0.026(3)
loop_
_atom_type_symbol
_atom_type_description
_atom_type_scat_dispersion_real
_atom_type_scat_dispersion_imag
_atom_type_scat_source
C C 0.0033 0.0016 'International Tables Vol C Tables 4.2.6.8 and 6.1.1.4'
H H 0.0000 0.0000 'International Tables Vol C Tables 4.2.6.8 and 6.1.1.4'
N N 0.0061 0.0033 'International Tables Vol C Tables 4.2.6.8 and 6.1.1.4'
O O 0.0106 0.0060 'International Tables Vol C Tables 4.2.6.8 and 6.1.1.4'
S S 0.1246 0.1234 'International Tables Vol C Tables 4.2.6.8 and 6.1.1.4'
loop_
_geom_angle_atom_site_label_1
_geom_angle_atom_site_label_2
_geom_angle_atom_site_label_3
_geom_angle
O2 S1 O1 120.08(15)
O2 S1 N1 107.12(13)
O1 S1 N1 105.92(16)
O2 S1 C22 109.61(17)
O1 S1 C22 109.12(16)
N1 S1 C22 103.68(14)
C1 N1 C8 105.8(2)
C1 N1 S1 113.5(2)
C8 N1 S1 117.5(2)
C11 N2 C7 114.7(3)
C2 C1 C6 121.8(3)
C2 C1 N1 128.7(3)
C6 C1 N1 109.4(3)
C1 C2 C3 117.1(4)
C1 C2 H2 121.5
C3 C2 H2 121.5
C4 C3 C2 121.9(4)
C4 C3 H3 119.1
C2 C3 H3 119.1
C5 C4 C3 121.2(4)
C5 C4 H4 119.4
C3 C4 H4 119.4
C4 C5 C6 118.3(4)
C4 C5 H5 120.9
C6 C5 H5 120.9
C1 C6 C5 119.7(4)
C1 C6 C7 107.7(3)
C5 C6 C7 132.4(4)
N2 C7 C8 124.2(3)
N2 C7 C6 127.5(3)
C8 C7 C6 108.2(3)
C9 C8 C7 120.6(3)
C9 C8 N1 130.1(3)
C7 C8 N1 108.7(3)
C8 C9 C10 115.0(3)
C8 C9 C12 123.1(3)
C10 C9 C12 121.5(3)
C11 C10 C9 118.5(3)
C11 C10 C18 117.9(3)
C9 C10 C18 123.0(3)
N2 C11 C10 126.4(3)
N2 C11 H11 116.8
C10 C11 H11 116.8
C17 C12 C13 118.6(3)
C17 C12 C9 118.2(3)
C13 C12 C9 123.2(3)
C14 C13 C12 120.2(3)
C14 C13 H13 119.9
C12 C13 H13 119.9
C15 C14 C13 120.5(3)
C15 C14 H14 119.8
C13 C14 H14 119.8
C14 C15 C16 119.9(3)
C14 C15 H15 120.1
C16 C15 H15 120.1
C15 C16 C17 120.1(3)
C15 C16 H16 119.9
C17 C16 H16 119.9
C12 C17 C16 120.7(3)
C12 C17 H17 119.7
C16 C17 H17 119.7
C10 C18 C19 112.9(3)
C10 C18 H18A 109.0
C19 C18 H18A 109.0
C10 C18 H18B 109.0
C19 C18 H18B 109.0
H18A C18 H18B 107.8
C20 C19 C18 115.3(3)
C20 C19 H19A 108.4
C18 C19 H19A 108.4
C20 C19 H19B 108.4
C18 C19 H19B 108.4
H19A C19 H19B 107.5
C21 C20 C19 114.6(4)
C21 C20 H20A 108.6
C19 C20 H20A 108.6
C21 C20 H20B 108.6
C19 C20 H20B 108.6
H20A C20 H20B 107.6
C20 C21 H21A 109.5
C20 C21 H21B 109.5
H21A C21 H21B 109.5
C20 C21 H21C 109.5
H21A C21 H21C 109.5
H21B C21 H21C 109.5
C27 C22 C23 119.9(3)
C27 C22 S1 119.4(2)
C23 C22 S1 120.7(3)
C24 C23 C22 119.2(4)
C24 C23 H23 120.4
C22 C23 H23 120.4
C23 C24 C25 122.0(4)
C23 C24 H24 119.0
C25 C24 H24 119.0
C24 C25 C26 117.7(4)
C24 C25 C28 121.1(4)
C26 C25 C28 121.2(5)
C27 C26 C25 121.4(4)
C27 C26 H26 119.3
C25 C26 H26 119.3
C22 C27 C26 119.7(3)
C22 C27 H27 120.1
C26 C27 H27 120.1
C25 C28 H28A 109.5
C25 C28 H28B 109.5
H28A C28 H28B 109.5
C25 C28 H28C 109.5
H28A C28 H28C 109.5
H28B C28 H28C 109.5
loop_
_geom_bond_atom_site_label_1
_geom_bond_atom_site_label_2
_geom_bond_distance
S1 O2 1.410(2)
S1 O1 1.421(3)
S1 N1 1.695(3)
S1 C22 1.750(3)
N1 C1 1.440(4)
N1 C8 1.445(4)
N2 C11 1.320(5)
N2 C7 1.327(4)
C1 C2 1.372(5)
C1 C6 1.391(5)
C2 C3 1.385(6)
C2 H2 0.9300
C3 C4 1.369(7)
C3 H3 0.9300
C4 C5 1.365(7)
C4 H4 0.9300
C5 C6 1.398(5)
C5 H5 0.9300
C6 C7 1.442(5)
C7 C8 1.395(4)
C8 C9 1.391(4)
C9 C10 1.406(4)
C9 C12 1.491(4)
C10 C11 1.396(5)
C10 C18 1.510(5)
C11 H11 0.9300
C12 C17 1.374(4)
C12 C13 1.386(4)
C13 C14 1.384(5)
C13 H13 0.9300
C14 C15 1.359(5)
C14 H14 0.9300
C15 C16 1.369(5)
C15 H15 0.9300
C16 C17 1.382(5)
C16 H16 0.9300
C17 H17 0.9300
C18 C19 1.515(5)
C18 H18A 0.9700
C18 H18B 0.9700
C19 C20 1.492(5)
C19 H19A 0.9700
C19 H19B 0.9700
C20 C21 1.489(5)
C20 H20A 0.9700
C20 H20B 0.9700
C21 H21A 0.9600
C21 H21B 0.9600
C21 H21C 0.9600
C22 C27 1.367(5)
C22 C23 1.388(4)
C23 C24 1.369(5)
C23 H23 0.9300
C24 C25 1.374(6)
C24 H24 0.9300
C25 C26 1.378(6)
C25 C28 1.507(6)
C26 C27 1.377(5)
C26 H26 0.9300
C27 H27 0.9300
C28 H28A 0.9600
C28 H28B 0.9600
C28 H28C 0.9600
loop_
_geom_torsion_atom_site_label_1
_geom_torsion_atom_site_label_2
_geom_torsion_atom_site_label_3
_geom_torsion_atom_site_label_4
_geom_torsion
O2 S1 N1 C1 -171.1(2)
O1 S1 N1 C1 59.6(2)
C22 S1 N1 C1 -55.3(2)
O2 S1 N1 C8 -47.1(2)
O1 S1 N1 C8 -176.4(2)
C22 S1 N1 C8 68.8(2)
C8 N1 C1 C2 174.7(3)
S1 N1 C1 C2 -55.1(4)
C8 N1 C1 C6 -3.6(3)
S1 N1 C1 C6 126.6(2)
C6 C1 C2 C3 1.6(5)
N1 C1 C2 C3 -176.5(3)
C1 C2 C3 C4 0.0(6)
C2 C3 C4 C5 -0.7(7)
C3 C4 C5 C6 -0.1(6)
C2 C1 C6 C5 -2.4(5)
N1 C1 C6 C5 176.0(3)
C2 C1 C6 C7 -177.6(3)
N1 C1 C6 C7 0.9(3)
C4 C5 C6 C1 1.6(5)
C4 C5 C6 C7 175.3(4)
C11 N2 C7 C8 1.3(5)
C11 N2 C7 C6 -173.7(3)
C1 C6 C7 N2 177.9(3)
C5 C6 C7 N2 3.7(6)
C1 C6 C7 C8 2.3(4)
C5 C6 C7 C8 -172.0(4)
N2 C7 C8 C9 -8.1(5)
C6 C7 C8 C9 167.8(3)
N2 C7 C8 N1 179.6(3)
C6 C7 C8 N1 -4.6(3)
C1 N1 C8 C9 -166.3(3)
S1 N1 C8 C9 65.8(4)
C1 N1 C8 C7 5.0(3)
S1 N1 C8 C7 -122.8(2)
C7 C8 C9 C10 8.8(4)
N1 C8 C9 C10 179.3(3)
C7 C8 C9 C12 -163.9(3)
N1 C8 C9 C12 6.6(5)
C8 C9 C10 C11 -3.9(4)
C12 C9 C10 C11 168.9(3)
C8 C9 C10 C18 -175.2(3)
C12 C9 C10 C18 -2.4(5)
C7 N2 C11 C10 4.1(6)
C9 C10 C11 N2 -2.7(6)
C18 C10 C11 N2 169.0(4)
C8 C9 C12 C17 56.6(4)
C10 C9 C12 C17 -115.6(3)
C8 C9 C12 C13 -126.0(3)
C10 C9 C12 C13 61.8(4)
C17 C12 C13 C14 0.9(4)
C9 C12 C13 C14 -176.4(3)
C12 C13 C14 C15 -0.4(5)
C13 C14 C15 C16 -0.4(6)
C14 C15 C16 C17 0.7(6)
C13 C12 C17 C16 -0.7(5)
C9 C12 C17 C16 176.8(3)
C15 C16 C17 C12 -0.1(5)
C11 C10 C18 C19 -69.8(4)
C9 C10 C18 C19 101.6(4)
C10 C18 C19 C20 -175.2(3)
C18 C19 C20 C21 -179.3(4)
O2 S1 C22 C27 33.6(3)
O1 S1 C22 C27 167.0(3)
N1 S1 C22 C27 -80.5(3)
O2 S1 C22 C23 -147.7(3)
O1 S1 C22 C23 -14.4(3)
N1 S1 C22 C23 98.2(3)
C27 C22 C23 C24 -0.6(5)
S1 C22 C23 C24 -179.3(3)
C22 C23 C24 C25 0.2(6)
C23 C24 C25 C26 -0.2(6)
C23 C24 C25 C28 -179.6(4)
C24 C25 C26 C27 0.8(6)
C28 C25 C26 C27 -179.8(4)
C23 C22 C27 C26 1.2(5)
S1 C22 C27 C26 179.8(3)
C25 C26 C27 C22 -1.3(6)
