#------------------------------------------------------------------------------
#$Date: 2017-01-14 04:45:27 +0200 (Sat, 14 Jan 2017) $
#$Revision: 190492 $
#$URL: file:///home/coder/svn-repositories/cod/cif/1/54/50/1545036.cif $
#------------------------------------------------------------------------------
#
# This file is available in the Crystallography Open Database (COD),
# http://www.crystallography.net/. The original data for this entry
# were provided by IUCr Journals, http://journals.iucr.org/.
#
# The file may be used within the scientific community so long as
# proper attribution is given to the journal article from which the
# data were obtained.
#
data_1545036
loop_
_publ_author_name
'Seethalakshmi, P.'
'Palanivel, C.'
_publ_section_title
;
 1-Allyl-3'-phenyl-6'<i>H</i>-spiro[indoline-3,4'-isoxazolo[4',5':5,6]pyrido[2,3-<i>d</i>]pyrimidine]-2,5',7'(8'<i>H</i>,9'<i>H</i>)-trione
 dimethyl sulfoxide monosolvate
;
_journal_coeditor_code           SU4090
_journal_issue                   1
_journal_name_full               IUCrData
_journal_page_first              x162044
_journal_paper_doi               10.1107/S2414314616020447
_journal_volume                  2
_journal_year                    2017
_chemical_formula_iupac          'C24 H17 N5 O4, C2 H6 O S'
_chemical_formula_moiety         'C24 H17 N5 O4, C2 H6 O S'
_chemical_formula_sum            'C26 H23 N5 O5 S'
_chemical_formula_weight         517.55
_chemical_name_systematic
;1-Allyl-3'-phenyl-6'<i>H</i>-spiro[indoline-3,4'-isoxazolo[4',5':5,6]pyrido[2,3-<i>d</i>]pyrimidine]-2,5',7'(8'<i>H</i>,9'<i>H</i>)-trione
dimethyl sulfoxide monosolvate
;
_space_group_crystal_system      monoclinic
_space_group_IT_number           14
_space_group_name_Hall           '-P 2yn'
_space_group_name_H-M_alt        'P 1 21/n 1'
_symmetry_space_group_name_Hall  '-P 2yn'
_symmetry_space_group_name_H-M   'P 1 21/n 1'
_atom_sites_solution_hydrogens   geom
_atom_sites_solution_primary     direct
_atom_sites_solution_secondary   difmap
_audit_creation_method           SHELXL-2014/7
_cell_angle_alpha                90
_cell_angle_beta                 100.6930(10)
_cell_angle_gamma                90
_cell_formula_units_Z            4
_cell_length_a                   13.2381(3)
_cell_length_b                   9.9265(2)
_cell_length_c                   19.0348(4)
_cell_measurement_reflns_used    6183
_cell_measurement_temperature    293(2)
_cell_measurement_theta_max      28.50
_cell_measurement_theta_min      1.733
_cell_volume                     2457.89(9)
_computing_cell_refinement
;
SAINT (Bruker, 2008)
;
_computing_data_collection
;
APEX2 (Bruker, 2008)
;
_computing_data_reduction
;
SAINT (Bruker, 2008)
;
_computing_molecular_graphics
;
ORTEP-3 for Windows (Farrugia, 2012) and PLATON (Spek, 2009)
;
_computing_publication_material
;
SHELXL2014 (Sheldrick, 2015) and PLATON (Spek, 2009)
;
_computing_structure_refinement
;
SHELXL2014 (Sheldrick, 2015)
;
_computing_structure_solution
;
SHELXS2014 (Sheldrick, 2008)
;
_diffrn_ambient_temperature      293(2)
_diffrn_measured_fraction_theta_full 1.000
_diffrn_measured_fraction_theta_max 0.993
_diffrn_measurement_device_type  'Bruker SMART APEXII area-detector'
_diffrn_measurement_method       '\w and \f scans'
_diffrn_radiation_monochromator  graphite
_diffrn_radiation_source         'fine-focus sealed tube'
_diffrn_radiation_type           MoK\a
_diffrn_radiation_wavelength     0.71073
_diffrn_reflns_av_R_equivalents  0.0241
_diffrn_reflns_limit_h_max       17
_diffrn_reflns_limit_h_min       -17
_diffrn_reflns_limit_k_max       13
_diffrn_reflns_limit_k_min       -13
_diffrn_reflns_limit_l_max       25
_diffrn_reflns_limit_l_min       -24
_diffrn_reflns_number            22793
_diffrn_reflns_theta_full        25.242
_diffrn_reflns_theta_max         28.496
_diffrn_reflns_theta_min         1.733
_exptl_absorpt_coefficient_mu    0.180
_exptl_absorpt_correction_T_max  0.746
_exptl_absorpt_correction_T_min  0.625
_exptl_absorpt_correction_type   multi-scan
_exptl_absorpt_process_details
;
(SADABS; Bruker, 2008)
;
_exptl_crystal_colour            colourless
_exptl_crystal_density_diffrn    1.399
_exptl_crystal_description       block
_exptl_crystal_F_000             1080
_exptl_crystal_size_max          0.2
_exptl_crystal_size_mid          0.17
_exptl_crystal_size_min          0.16
_refine_diff_density_max         0.463
_refine_diff_density_min         -0.515
_refine_ls_extinction_method     none
_refine_ls_goodness_of_fit_ref   0.993
_refine_ls_hydrogen_treatment    constr
_refine_ls_matrix_type           full
_refine_ls_number_parameters     336
_refine_ls_number_reflns         6183
_refine_ls_number_restraints     0
_refine_ls_restrained_S_all      0.993
_refine_ls_R_factor_all          0.0602
_refine_ls_R_factor_gt           0.0484
_refine_ls_shift/su_max          0.000
_refine_ls_shift/su_mean         0.000
_refine_ls_structure_factor_coef Fsqd
_refine_ls_weighting_details
'w=1/[\s^2^(Fo^2^)+(0.0787P)^2^+1.1801P] where P=(Fo^2^+2Fc^2^)/3'
_refine_ls_weighting_scheme      calc
_refine_ls_wR_factor_gt          0.1317
_refine_ls_wR_factor_ref         0.1431
_reflns_number_gt                4931
_reflns_number_total             6183
_reflns_threshold_expression     'I > 2\s(I)'
_cod_data_source_file            su4090sup1.cif
_cod_data_source_block           I
_cod_database_code               1545036
_shelx_space_group_comment
;
The symmetry employed for this shelxl refinement is uniquely defined
by the following loop, which should always be used as a source of
symmetry information in preference to the above space-group names.
They are only intended as comments.
;
_shelx_hkl_file
;
  -1   0   0    0.20    0.01
  -2   0   0  239.22    6.00
   2   0   0  229.45    6.01
   3   0   0    0.02    0.01
   3   0   0    0.04    0.02
  -3   0   0    0.02    0.02
   4   0   0   58.18    1.35
   4   0   0   57.43    1.50
  -4   0   0   57.28    1.31
  -4   0   0   58.81    1.50
   5   0   0    0.00    0.03
  -5   0   0    0.10    0.03
   5   0   0    0.09    0.02
  -5   0   0    0.01    0.02
   6   0   0   38.95    0.90
  -6   0   0   37.06    0.89
   7   0   0    0.02    0.05
   7   0   0    0.04    0.03
  -7   0   0    0.07    0.04
   8   0   0    4.95    0.14
  -8   0   0    4.77    0.18
   8   0   0    4.78    0.21
   9   0   0    0.00    0.05
  -9   0   0    0.00    0.04
   9   0   0   -0.03    0.03
  10   0   0    3.75    0.20
 -10   0   0    3.62    0.17
  11   0   0   -0.01    0.07
 -11   0   0   -0.08    0.06
  12   0   0    0.28    0.10
 -12   0   0    0.23    0.08
 -13   0   0   -0.04    0.07
  13   0   0   -0.02    0.09
 -14   0   0    0.02    0.08
  15   0   0   -0.02    0.09
 -15   0   0    0.10    0.09
  16   0   0   -0.07    0.09
 -16   0   0    0.05    0.08
  17   0   0    0.06    0.11
   0  -1   0    0.09    0.01
   0  -1   0    0.07    0.01
   0   1   0    0.10    0.01
  -1  -1   0    0.04    0.01
   1  -1   0    0.04    0.01
   1   1   0    0.07    0.01
   1   1   0    0.06    0.01
  -1   1   0    0.04    0.01
   1   1   0    0.05    0.01
  -1   1   0    0.05    0.01
   2  -1   0   85.36    2.21
  -2  -1   0   87.96    2.20
   2  -1   0   87.44    2.09
  -2  -1   0   86.21    1.92
   2   1   0   87.20    2.01
   2   1   0   84.66    2.20
   2   1   0   85.52    2.20
  -2   1   0   86.01    1.93
  -2   1   0   88.45    2.20
  -3  -1   0    0.04    0.02
   3  -1   0    0.18    0.03
  -3  -1   0    0.09    0.02
   3  -1   0    0.06    0.02
  -3   1   0    0.07    0.02
  -3   1   0    0.13    0.02
   3   1   0    0.16    0.02
   3   1   0    0.05    0.02
  -4  -1   0   30.75    0.73
  -4  -1   0   31.93    0.83
   4  -1   0   31.15    0.84
   4  -1   0   31.73    0.79
   4   1   0   31.59    0.75
   4   1   0   30.22    0.83
  -4   1   0   31.05    0.73
  -4   1   0   32.69    0.84
   5  -1   0   68.37    1.82
  -5  -1   0   68.41    1.58
  -5  -1   0   70.00    1.81
  -5   1   0   72.74    1.82
   5   1   0   68.39    1.81
  -5   1   0   69.84    1.59
   5   1   0   71.88    1.63
  -6  -1   0    1.57    0.09
   6  -1   0    1.62    0.11
   6  -1   0    1.90    0.05
  -6   1   0    1.79    0.09
   6   1   0    1.57    0.10
   6   1   0    1.70    0.08
  -7  -1   0    0.08    0.04
   7  -1   0    0.10    0.05
   7   1   0    0.09    0.05
  -7   1   0    0.06    0.04
   7   1   0    0.01    0.03
  -8  -1   0   27.05    0.67
   8  -1   0   25.94    0.78
   8   1   0   26.93    0.78
  -8   1   0   27.09    0.68
   8   1   0   28.32    0.67
   9  -1   0    7.75    0.31
  -9  -1   0    7.79    0.26
  -9   1   0    7.49    0.26
   9   1   0    7.42    0.30
   9   1   0    8.17    0.23
  10  -1   0    3.00    0.17
  10  -1   0    3.18    0.19
 -10  -1   0    3.15    0.16
 -10   1   0    3.17    0.16
  10   1   0    3.54    0.19
  11  -1   0   14.70    0.48
  11  -1   0   15.30    0.53
 -11  -1   0   15.23    0.44
 -11   1   0   14.60    0.44
  11   1   0   14.90    0.52
  12  -1   0    0.01    0.07
  12  -1   0    0.09    0.09
 -12  -1   0   -0.03    0.07
 -12   1   0   -0.01    0.06
  12   1   0    0.06    0.09
  13  -1   0    0.89    0.12
  13  -1   0    1.10    0.15
 -13  -1   0    1.00    0.12
  13   1   0    1.11    0.15
 -13   1   0    0.71    0.11
  14  -1   0    8.14    0.34
 -14  -1   0    7.88    0.32
  15  -1   0    0.92    0.13
 -15  -1   0    0.86    0.12
 -15   1   0    0.78    0.12
 -16  -1   0    0.07    0.09
  16  -1   0    0.07    0.10
 -16   1   0    0.17    0.10
  17  -1   0   -0.07    0.10
   0  -2   0  152.83    3.64
   0  -2   0  149.27    3.85
   0   2   0  155.13    3.84
   0   2   0  148.63    3.49
   1  -2   0  123.79    2.91
  -1  -2   0  117.01    3.06
   1  -2   0  120.11    3.07
   1   2   0  120.87    2.79
   1   2   0  120.48    3.06
  -1   2   0  117.43    2.79
  -1   2   0  125.51    3.07
   2  -2   0   10.34    0.28
   2  -2   0   10.17    0.30
  -2  -2   0   10.05    0.29
  -2   2   0   10.36    0.30
  -2   2   0   10.18    0.25
   2   2   0   10.40    0.29
   2   2   0   10.12    0.29
   2   2   0   10.04    0.27
   3  -2   0   14.49    0.42
   3  -2   0   14.45    0.40
  -3  -2   0   15.04    0.41
  -3  -2   0   14.25    0.41
  -3   2   0   14.88    0.42
   3   2   0   14.83    0.37
   3   2   0   14.77    0.41
  -3   2   0   14.35    0.36
   3   2   0   14.80    0.41
  -3   2   0   15.14    0.35
   4  -2   0   53.75    1.33
   4  -2   0   52.35    1.41
  -4  -2   0   52.07    1.22
  -4  -2   0   55.19    1.40
  -4   2   0   52.86    1.23
   4   2   0   54.65    1.40
   4   2   0   52.88    1.40
  -4   2   0   55.67    1.26
   4   2   0   53.35    1.27
  -4   2   0   55.66    1.41
   5  -2   0    1.56    0.10
  -5  -2   0    1.35    0.08
  -5  -2   0    1.07    0.07
   5  -2   0    1.26    0.08
  -5   2   0    1.31    0.09
   5   2   0    1.30    0.08
   5   2   0    1.38    0.09
  -5   2   0    1.38    0.08
  -5   2   0    1.31    0.04
   5   2   0    1.13    0.07
   6  -2   0    1.80    0.10
   6  -2   0    1.61    0.11
  -6  -2   0    1.78    0.09
  -6   2   0    1.88    0.10
   6   2   0    1.79    0.09
   6   2   0    1.74    0.10
   7  -2   0   19.27    0.59
  -7  -2   0   20.00    0.51
   7  -2   0   20.12    0.56
   7   2   0   19.67    0.59
  -7   2   0   19.83    0.51
   7   2   0   20.82    0.51
   8  -2   0   57.22    1.45
   8  -2   0   54.87    1.53
  -8  -2   0   56.72    1.33
   8   2   0   59.19    1.36
  -8   2   0   56.78    1.33
   8   2   0   56.07    1.53
   9  -2   0    3.86    0.21
   9  -2   0    4.28    0.19
   9   2   0    4.25    0.21
   9   2   0    4.39    0.16
  -9   2   0    4.08    0.18
  10  -2   0    3.34    0.20
  10  -2   0    3.42    0.18
 -10  -2   0    3.09    0.16
  10   2   0    3.54    0.15
  10   2   0    3.43    0.19
 -10   2   0    3.36    0.17
  11  -2   0    0.77    0.12
 -11  -2   0    0.65    0.09
  11  -2   0    0.72    0.11
  11   2   0    0.71    0.11
 -11   2   0    0.73    0.10
  12  -2   0    8.37    0.33
  12  -2   0    8.44    0.36
 -12  -2   0    7.88    0.29
 -12   2   0    7.84    0.30
  12   2   0    8.03    0.35
 -13  -2   0    0.30    0.09
  13  -2   0    0.18    0.09
 -13   2   0    0.08    0.08
  13   2   0    0.17    0.10
 -14  -2   0    1.03    0.13
  14  -2   0    1.28    0.15
 -14   2   0    1.06    0.14
  15  -2   0    5.02    0.28
 -15  -2   0    4.51    0.24
 -15   2   0    4.94    0.25
 -16  -2   0   -0.03    0.09
  16  -2   0    0.06    0.10
 -16   2   0    0.10    0.09
  17  -2   0    0.51    0.14
   0  -3   0    0.05    0.04
   0  -3   0    0.04    0.03
   0   3   0    0.16    0.04
   0   3   0    0.18    0.03
  -1  -3   0   19.13    0.53
   1  -3   0   19.51    0.54
  -1  -3   0   19.23    0.52
   1  -3   0   19.81    0.52
   1   3   0   19.67    0.49
  -1   3   0   19.95    0.48
  -1   3   0   19.85    0.54
   1   3   0   19.90    0.53
   2  -3   0    8.45    0.26
   2  -3   0    7.97    0.25
  -2  -3   0    7.89    0.24
   2   3   0    8.13    0.23
   2   3   0    8.24    0.24
  -2   3   0    8.01    0.25
  -3  -3   0   24.89    0.67
   3  -3   0   24.24    0.69
   3  -3   0   24.44    0.66
   3   3   0   25.07    0.68
  -3   3   0   24.98    0.68
   3   3   0   25.01    0.62
   3   3   0   25.71    0.67
  -3   3   0   25.70    0.60
  -4  -3   0    3.58    0.14
   4  -3   0    3.36    0.14
   4  -3   0    4.02    0.16
   4   3   0    3.12    0.12
  -4   3   0    3.33    0.10
   4   3   0    3.49    0.14
  -4   3   0    3.45    0.15
   4   3   0    3.31    0.13
  -4   3   0    3.07    0.13
   5  -3   0   15.49    0.48
  -5  -3   0   15.83    0.40
   5  -3   0   15.66    0.45
  -5   3   0   15.96    0.41
  -5   3   0   16.36    0.39
   5   3   0   15.73    0.46
   5   3   0   15.88    0.42
   6  -3   0   12.36    0.40
  -6  -3   0   12.43    0.34
   6  -3   0   12.99    0.39
  -6   3   0   12.60    0.35
   6   3   0   12.24    0.39
   6   3   0   12.78    0.35
  -6   3   0   12.79    0.31
  -7  -3   0    1.50    0.10
   7  -3   0    1.49    0.11
   7  -3   0    1.44    0.12
   7   3   0    1.44    0.10
   7   3   0    1.52    0.11
  -7   3   0    1.37    0.10
   8  -3   0    0.53    0.08
   8  -3   0    0.66    0.09
  -8  -3   0    0.67    0.07
  -8   3   0    0.65    0.08
   8   3   0    0.57    0.07
   8   3   0    0.80    0.09
   9  -3   0   13.69    0.48
   9  -3   0   14.21    0.45
  -9  -3   0   14.20    0.40
  -9   3   0   14.09    0.41
   9   3   0   13.62    0.46
   9   3   0   14.28    0.40
 -10  -3   0   25.34    0.67
  10  -3   0   26.43    0.75
  10  -3   0   25.47    0.79
 -10   3   0   25.36    0.68
  10   3   0   24.97    0.78
  10   3   0   26.63    0.67
  11  -3   0    5.22    0.25
 -11  -3   0    5.17    0.22
  11  -3   0    5.01    0.27
  11   3   0    4.90    0.25
  11   3   0    4.97    0.21
 -11   3   0    4.95    0.22
  12  -3   0    0.04    0.07
 -12  -3   0   -0.12    0.07
  12  -3   0   -0.04    0.09
  12   3   0   -0.09    0.07
 -12   3   0   -0.09    0.07
  13  -3   0   -0.03    0.08
 -13  -3   0    0.05    0.08
 -13   3   0   -0.02    0.08
  14  -3   0    0.59    0.12
 -14  -3   0    0.76    0.11
 -14   3   0    0.56    0.11
  15  -3   0    1.97    0.19
 -15  -3   0    2.13    0.18
 -15   3   0    1.71    0.17
  16  -3   0    0.10    0.11
 -16  -3   0    0.07    0.10
 -16   3   0    0.19    0.10
  17  -3   0    0.06    0.11
   0  -4   0  105.46    2.54
   0  -4   0   99.67    2.64
   0   4   0  103.30    2.42
   0   4   0  105.88    2.65
  -1  -4   0    7.76    0.26
   1  -4   0    7.86    0.26
   1  -4   0    7.92    0.26
  -1  -4   0    7.75    0.25
   1   4   0    8.83    0.26
  -1   4   0    8.46    0.26
   1   4   0    8.00    0.24
  -1   4   0    8.29    0.23
   2  -4   0   10.38    0.33
   2  -4   0   10.22    0.32
  -2  -4   0   10.81    0.31
  -2   4   0   10.76    0.29
  -2   4   0   10.87    0.33
   2   4   0   10.19    0.30
   2   4   0   10.55    0.31
  -3  -4   0    5.37    0.19
   3  -4   0    5.28    0.20
   3  -4   0    5.12    0.20
  -3   4   0    5.51    0.20
   3   4   0    5.36    0.19
   3   4   0    5.30    0.19
   3   4   0    5.78    0.19
   4  -4   0    7.17    0.26
  -4  -4   0    7.47    0.24
   4  -4   0    7.30    0.26
   4   4   0    7.02    0.23
  -4   4   0    7.29    0.21
   4   4   0    7.60    0.25
   5  -4   0    0.29    0.06
   5  -4   0    0.18    0.06
   5   4   0    0.33    0.06
  -5   4   0    0.17    0.05
  -5   4   0    0.16    0.03
   5   4   0    0.22    0.05
   6  -4   0   37.24    1.00
   6  -4   0   36.14    1.05
   6   4   0   38.01    0.94
   6   4   0   38.10    1.03
  -6   4   0   38.88    0.89
  -6   4   0   37.98    0.91
   7  -4   0   41.74    1.16
   7  -4   0   41.79    1.10
  -7   4   0   40.93    1.00
   7   4   0   40.84    1.14
  -7   4   0   43.09    0.98
   7   4   0   41.68    1.04
   8  -4   0    0.80    0.10
   8  -4   0    0.71    0.10
  -8   4   0    0.80    0.08
   8   4   0    0.71    0.08
   8   4   0    0.80    0.09
   9  -4   0    4.35    0.22
   9  -4   0    4.40    0.23
  -9  -4   0    4.42    0.19
  -9   4   0    4.22    0.19
   9   4   0    4.06    0.18
   9   4   0    4.43    0.21
 -10  -4   0    3.64    0.18
  10  -4   0    3.59    0.23
  10  -4   0    4.05    0.21
 -10   4   0    3.58    0.19
  10   4   0    3.88    0.18
  10   4   0    4.07    0.22
  11  -4   0    0.05    0.08
  11  -4   0   -0.03    0.09
 -11  -4   0    0.01    0.07
  11   4   0   -0.06    0.07
 -11   4   0    0.06    0.08
  11   4   0    0.09    0.08
  12  -4   0    4.38    0.27
  12  -4   0    4.54    0.25
 -12  -4   0    4.59    0.21
  12   4   0    4.61    0.26
 -12   4   0    4.38    0.22
 -13  -4   0    2.92    0.19
  13  -4   0    2.69    0.21
 -13   4   0    2.83    0.19
  14  -4   0    0.59    0.13
 -14  -4   0    0.53    0.11
 -14   4   0    0.60    0.12
  15  -4   0    0.95    0.15
 -15  -4   0    0.93    0.13
 -15   4   0    0.81    0.13
  16  -4   0    0.50    0.14
 -16  -4   0    0.42    0.12
 -16   4   0    0.55    0.12
   0  -5   0    0.02    0.04
   0  -5   0    0.01    0.05
   0   5   0    0.05    0.03
   0   5   0   -0.03    0.04
   1  -5   0    0.01    0.04
  -1  -5   0   -0.03    0.05
  -1  -5   0    0.05    0.04
   1  -5   0    0.04    0.05
  -1   5   0   -0.01    0.04
  -1   5   0   -0.03    0.03
   1   5   0    0.03    0.04
   1   5   0    0.10    0.04
   2  -5   0    0.76    0.08
   2  -5   0    1.01    0.09
  -2  -5   0    0.96    0.07
   2   5   0    0.98    0.09
   2   5   0    0.93    0.08
  -2   5   0    0.76    0.07
   3  -5   0    0.10    0.06
  -3  -5   0    0.03    0.04
   3  -5   0    0.05    0.05
  -3   5   0    0.02    0.03
   3   5   0    0.16    0.05
   3   5   0    0.04    0.04
  -4  -5   0    4.38    0.17
   4  -5   0    4.13    0.19
   4  -5   0    3.97    0.19
  -4   5   0    3.98    0.14
   4   5   0    4.20    0.18
   4   5   0    4.39    0.18
  -5  -5   0   19.47    0.57
   5  -5   0   19.76    0.60
   5  -5   0   19.74    0.58
   5   5   0   20.22    0.54
  -5   5   0   20.11    0.50
   5   5   0   19.55    0.58
   6  -5   0   11.14    0.39
   6  -5   0   11.36    0.41
   6   5   0   12.20    0.39
   6   5   0   11.61    0.36
  -6   5   0   12.35    0.32
  -6   5   0   12.29    0.35
   7  -5   0   12.74    0.44
   7  -5   0   12.77    0.42
   7   5   0   12.19    0.41
  -7   5   0   12.77    0.38
   7   5   0   12.54    0.38
   8  -5   0    1.02    0.12
   8  -5   0    1.05    0.12
   8   5   0    1.20    0.12
   8   5   0    1.20    0.11
  -8   5   0    0.97    0.10
   9  -5   0    4.95    0.25
   9  -5   0    4.98    0.26
  -9   5   0    5.23    0.22
   9   5   0    4.70    0.21
   9   5   0    4.73    0.23
  10  -5   0    9.19    0.36
  10  -5   0    8.50    0.37
  10   5   0    8.71    0.35
  10   5   0    9.06    0.31
 -10   5   0    8.75    0.31
  11  -5   0    6.40    0.33
  11  -5   0    6.93    0.31
  11   5   0    6.25    0.30
  11   5   0    6.23    0.26
 -11   5   0    6.11    0.26
  12  -5   0    0.23    0.10
  12   5   0    0.26    0.10
  12   5   0    0.24    0.09
 -12   5   0    0.10    0.09
  13  -5   0    0.15    0.11
 -13   5   0    0.18    0.09
  14  -5   0    0.46    0.13
 -14   5   0    0.58    0.12
  15  -5   0    0.97    0.16
 -15   5   0    0.75    0.13
  16  -5   0    0.11    0.11
   0  -6   0   82.26    2.07
   0  -6   0   79.95    2.12
   0   6   0   83.86    1.96
   1  -6   0    1.08    0.10
  -1  -6   0    0.95    0.11
   1  -6   0    1.10    0.11
  -1  -6   0    1.10    0.09
   1   6   0    1.00    0.09
  -1   6   0    1.18    0.09
  -2  -6   0   25.65    0.70
   2  -6   0   24.32    0.71
   2  -6   0   25.07    0.72
   2   6   0   24.93    0.67
  -2   6   0   25.90    0.65
   3  -6   0    0.13    0.06
  -3  -6   0    0.11    0.05
   3  -6   0    0.05    0.07
   3   6   0    0.13    0.06
  -3   6   0    0.09    0.05
  -4  -6   0    4.72    0.19
   4  -6   0    4.49    0.22
   4  -6   0    4.45    0.21
   4   6   0    4.43    0.19
   4   6   0    4.36    0.19
   5  -6   0    1.79    0.14
  -5  -6   0    1.79    0.12
   5  -6   0    1.70    0.15
   5   6   0    1.49    0.13
   5   6   0    1.67    0.12
  -5   6   0    1.76    0.10
   6  -6   0    1.31    0.13
   6  -6   0    0.99    0.11
  -6  -6   0    1.24    0.11
   6   6   0    1.16    0.11
   6   6   0    1.07    0.11
  -6   6   0    1.30    0.09
  -6   6   0    1.26    0.11
   7  -6   0    1.15    0.13
   7  -6   0    1.09    0.14
  -7   6   0    1.08    0.10
   7   6   0    1.09    0.11
   7   6   0    1.15    0.11
   8  -6   0   21.90    0.68
   8  -6   0   22.25    0.71
  -8   6   0   22.97    0.61
   8   6   0   22.68    0.63
   8   6   0   22.01    0.68
   9  -6   0    7.59    0.35
   9  -6   0    7.96    0.34
  -9   6   0    7.56    0.29
   9   6   0    7.89    0.30
   9   6   0    8.25    0.33
  10  -6   0    0.25    0.11
  10  -6   0    0.39    0.11
  10   6   0    0.46    0.11
 -10   6   0    0.36    0.09
  10   6   0    0.45    0.10
  11  -6   0    0.32    0.11
  11  -6   0    0.34    0.12
 -11   6   0    0.39    0.10
  11   6   0    0.49    0.11
  11   6   0    0.42    0.10
  12  -6   0    0.58    0.13
 -12   6   0    0.41    0.10
  12   6   0    0.41    0.10
  13  -6   0    0.09    0.10
 -13   6   0   -0.06    0.09
  14  -6   0   -0.09    0.10
 -14   6   0    0.02    0.10
  15  -6   0   -0.05    0.12
 -15   6   0   -0.01    0.10
   0  -7   0    0.02    0.05
   0  -7   0    0.01    0.08
   0   7   0   -0.06    0.05
  -1  -7   0    4.73    0.24
   1  -7   0    4.15    0.19
   1  -7   0    4.46    0.23
  -1  -7   0    4.19    0.18
   1   7   0    4.45    0.20
  -1   7   0    4.17    0.18
  -2  -7   0    7.50    0.27
   2  -7   0    7.65    0.31
   2  -7   0    7.47    0.28
  -2   7   0    7.24    0.26
   2   7   0    7.73    0.27
  -3  -7   0    7.14    0.26
   3  -7   0    6.89    0.30
   3  -7   0    6.86    0.28
  -3   7   0    6.65    0.24
   3   7   0    7.09    0.27
  -4  -7   0   28.09    0.80
   4  -7   0   28.07    0.83
   4  -7   0   28.06    0.82
   4   7   0   28.21    0.80
  -4   7   0   29.00    0.73
   4   7   0   28.12    0.76
  -5  -7   0    1.87    0.14
   5  -7   0    2.03    0.17
   5  -7   0    1.92    0.16
  -5   7   0    1.28    0.09
   5   7   0    1.84    0.14
   5   7   0    1.71    0.13
  -6  -7   0    4.13    0.20
   6  -7   0    3.88    0.23
   6  -7   0    3.75    0.22
  -6   7   0    3.79    0.19
   6   7   0    3.87    0.19
  -6   7   0    3.90    0.16
   6   7   0    3.41    0.20
   7  -7   0    3.67    0.23
   7  -7   0    3.52    0.23
   7   7   0    3.74    0.21
  -7   7   0    3.58    0.18
   7   7   0    3.89    0.20
   8  -7   0    0.41    0.11
   8  -7   0    0.37    0.11
   8   7   0    0.22    0.09
   8   7   0    0.29    0.09
  -8   7   0    0.39    0.09
   9  -7   0    0.89    0.13
   9  -7   0    0.88    0.15
  -9   7   0    1.05    0.12
   9   7   0    0.96    0.12
   9   7   0    0.82    0.11
  10  -7   0    0.25    0.11
  10  -7   0    0.23    0.12
 -10   7   0    0.32    0.09
  10   7   0    0.21    0.09
  10   7   0    0.23    0.10
  11  -7   0    0.52    0.12
  11   7   0    0.60    0.11
 -11   7   0    0.69    0.11
  12  -7   0    0.16    0.11
  12   7   0   -0.06    0.09
 -12   7   0    0.13    0.10
  13  -7   0    5.48    0.32
 -13   7   0    5.02    0.26
  14  -7   0    0.23    0.13
 -14   7   0    0.10    0.10
   0  -8   0    5.46    0.23
   0  -8   0    5.48    0.29
   0   8   0    5.54    0.23
  -1  -8   0    9.92    0.35
   1  -8   0   10.85    0.40
   1  -8   0   10.32    0.36
  -1  -8   0   10.03    0.40
  -1   8   0   10.38    0.34
   1   8   0   10.30    0.35
  -2  -8   0    9.36    0.33
   2  -8   0    9.83    0.39
   2  -8   0    9.42    0.34
   2   8   0    9.77    0.34
  -2   8   0    9.08    0.32
   3  -8   0   14.18    0.47
  -3  -8   0   14.26    0.45
   3  -8   0   13.39    0.49
  -3   8   0   14.47    0.43
   3   8   0   14.56    0.45
  -4  -8   0    0.62    0.09
   4  -8   0    0.48    0.10
   4  -8   0    0.57    0.12
   4   8   0    0.38    0.10
  -4   8   0    0.49    0.09
   4   8   0    0.77    0.10
   5  -8   0    0.85    0.12
   5  -8   0    0.85    0.14
  -5  -8   0    0.93    0.10
   5   8   0    0.87    0.10
   5   8   0    0.83    0.12
  -5   8   0    0.80    0.09
  -6  -8   0   -0.01    0.07
   6  -8   0    0.04    0.08
   6  -8   0   -0.10    0.08
   6   8   0   -0.19    0.07
   6   8   0    0.13    0.07
   7  -8   0    0.00    0.09
   7  -8   0   -0.02    0.09
   7   8   0   -0.03    0.07
  -7   8   0    0.03    0.08
   7   8   0   -0.01    0.08
   8  -8   0   -0.03    0.09
   8  -8   0   -0.04    0.09
   8   8   0   -0.16    0.08
  -8   8   0    0.05    0.08
   8   8   0   -0.03    0.07
   9  -8   0    0.46    0.13
   9  -8   0    0.47    0.13
   9   8   0    0.34    0.10
  -9   8   0    0.37    0.10
   9   8   0    0.41    0.10
  10  -8   0    0.04    0.11
 -10   8   0   -0.01    0.08
  10   8   0   -0.08    0.08
  10   8   0    0.02    0.08
  11  -8   0    0.19    0.11
  11   8   0    0.00    0.08
 -11   8   0   -0.02    0.08
  12  -8   0   -0.06    0.11
  12   8   0    0.00    0.10
 -12   8   0    0.02    0.10
  13  -8   0    3.14    0.25
  13   8   0    2.92    0.22
 -13   8   0    3.46    0.22
   0  -9   0    0.00    0.09
   0  -9   0   -0.05    0.06
   0   9   0   -0.11    0.07
   1  -9   0    5.51    0.29
   1  -9   0    5.71    0.25
  -1  -9   0    5.58    0.23
  -1   9   0    5.33    0.24
   1   9   0    5.54    0.25
  -2  -9   0    0.03    0.07
   2  -9   0    0.04    0.07
   2  -9   0    0.06    0.10
  -2   9   0   -0.08    0.07
   2   9   0   -0.21    0.07
  -3  -9   0    0.33    0.08
   3  -9   0    0.47    0.10
   3  -9   0    0.28    0.11
  -3   9   0    0.30    0.09
   3   9   0    0.37    0.11
   4  -9   0    0.21    0.11
   4  -9   0    0.19    0.09
  -4  -9   0    0.24    0.07
   4   9   0    0.03    0.09
  -4   9   0    0.10    0.07
   4   9   0    0.24    0.07
   5  -9   0   12.83    0.46
   5  -9   0   11.88    0.47
  -5  -9   0   12.11    0.42
   5   9   0   11.55    0.42
  -5   9   0   12.00    0.38
   5   9   0   11.74    0.42
   6  -9   0    0.01    0.11
   6  -9   0    0.03    0.10
  -6  -9   0    0.11    0.08
   6   9   0    0.22    0.09
   6   9   0    0.08    0.09
   7  -9   0    7.58    0.35
   7  -9   0    7.15    0.35
  -7   9   0    7.72    0.30
   7   9   0    7.31    0.33
   7   9   0    7.52    0.32
   8  -9   0    1.81    0.19
   8  -9   0    1.63    0.19
  -8   9   0    1.65    0.15
   8   9   0    1.60    0.16
   8   9   0    1.60    0.16
   9  -9   0    0.15    0.12
  -9   9   0    0.20    0.10
   9   9   0    0.09    0.11
   9   9   0    0.15    0.09
  10  -9   0    0.03    0.11
 -10   9   0    0.21    0.10
  10   9   0    0.08    0.11
  11  -9   0   -0.09    0.12
  11   9   0   -0.10    0.10
 -11   9   0    0.05    0.09
  12  -9   0    0.72    0.16
  12   9   0    0.81    0.15
 -12   9   0    0.56    0.13
   0 -10   0    1.24    0.12
   0 -10   0    1.27    0.17
   0  10   0    1.42    0.14
   1 -10   0    4.98    0.30
   1 -10   0    5.10    0.24
  -1 -10   0    4.79    0.23
   1  10   0    5.04    0.25
  -1  10   0    5.04    0.25
  -2 -10   0    5.30    0.24
   2 -10   0    5.48    0.31
   2 -10   0    5.39    0.26
   2  10   0    5.34    0.26
  -2  10   0    5.06    0.25
  -3 -10   0   -0.01    0.07
   3 -10   0   -0.10    0.10
   3 -10   0    0.12    0.09
   3  10   0   -0.04    0.09
  -3  10   0    0.04    0.08
  -4 -10   0    0.30    0.09
   4 -10   0    0.33    0.11
   4 -10   0    0.32    0.14
   4  10   0    0.27    0.11
  -4  10   0    0.30    0.09
   5 -10   0    4.90    0.31
   5 -10   0    5.22    0.28
  -5 -10   0    4.99    0.24
  -5  10   0    4.72    0.23
   5  10   0    4.68    0.26
   6 -10   0   13.20    0.49
   6 -10   0   11.85    0.50
   6  10   0   11.72    0.45
   7 -10   0    2.12    0.21
   7 -10   0    1.98    0.20
   7  10   0    2.06    0.19
  -7  10   0    1.66    0.16
   8 -10   0    0.09    0.13
  -8  10   0    0.05    0.10
   8  10   0    0.07    0.11
   9 -10   0    0.97    0.18
  -9  10   0    1.23    0.14
   9  10   0    1.19    0.16
  10 -10   0    0.72    0.18
 -10  10   0    0.58    0.12
  10  10   0    1.01    0.16
  11 -10   0    0.16    0.14
  11  10   0   -0.07    0.11
 -11  10   0    0.03    0.09
   0  11   0    0.03    0.10
   1 -11   0    0.24    0.14
  -1  11   0    0.49    0.11
   1  11   0    0.24    0.10
   2 -11   0    1.28    0.18
   2  11   0    1.37    0.15
  -2  11   0    1.16    0.14
   3 -11   0    0.08    0.13
   3  11   0   -0.11    0.09
  -3  11   0   -0.04    0.08
   4 -11   0   -0.04    0.12
   4  11   0    0.05    0.10
  -4  11   0    0.06    0.09
   5 -11   0    0.43    0.15
   5  11   0    0.53    0.13
   6 -11   0   -0.02    0.12
   6  11   0   -0.14    0.09
   7 -11   0    2.60    0.26
   7  11   0    2.42    0.21
  -7  11   0    2.44    0.19
   8 -11   0    3.08    0.29
  -8  11   0    2.82    0.21
   8  11   0    3.30    0.24
   9 -11   0    0.86    0.19
  -9  11   0    1.29    0.15
   9  11   0    0.69    0.16
   0  12   0    0.15    0.10
  -1  12   0    0.12    0.10
   1  12   0   -0.01    0.11
   2 -12   0    0.79    0.18
  -2  12   0    0.64    0.13
   2  12   0    0.63    0.14
   3 -12   0    0.63    0.17
  -3  12   0    0.43    0.11
   3  12   0    0.48    0.14
   4 -12   0    0.93    0.19
   4  12   0    0.94    0.16
   5 -12   0    0.47    0.17
   5  12   0    0.27    0.12
   6 -12   0    0.52    0.18
   6  12   0    0.58    0.15
   7 -12   0    0.00    0.15
   7  12   0   -0.04    0.11
   0  13   0    0.04    0.10
  -1  13   0    0.80    0.15
   1  13   0    0.65    0.15
   2 -13   0    0.12    0.14
   2  13   0    0.19    0.12
  -2  13   0    0.12    0.11
   3 -13   0    0.73    0.19
  -3  13   0    0.46    0.13
   3  13   0    0.58    0.15
  17   0  -1   -0.11    0.10
  16   0  -1   -0.05    0.09
 -16   0   1   -0.01    0.08
 -15   0   1    0.29    0.09
  15   0  -1    0.25    0.10
 -14   0   1   -0.06    0.08
 -13   0   1    5.31    0.24
  13   0  -1    5.02    0.28
  12   0  -1   -0.02    0.08
 -12   0   1   -0.07    0.06
 -11   0   1    6.56    0.25
  11   0  -1    7.03    0.30
 -10   0   1    0.00    0.05
  10   0  -1    0.09    0.07
   9   0  -1    1.22    0.06
  -9   0   1    1.35    0.10
   9   0  -1    1.39    0.12
  -8   0   1    0.00    0.04
   8   0  -1   -0.02    0.04
   8   0  -1   -0.04    0.02
   7   0  -1    5.56    0.15
   7   0  -1    5.27    0.21
  -7   0   1    5.31    0.18
  -6   0   1    0.03    0.03
   6   0  -1    0.03    0.02
   6   0  -1   -0.04    0.03
   5   0  -1    5.68    0.15
   5   0  -1    5.45    0.19
  -5   0   1    5.64    0.19
   4   0  -1    0.15    0.03
  -4   0   1    0.13    0.03
  -3   0   1  196.54    4.97
   3   0  -1  190.78    4.99
  -3   0   1  196.14    4.36
   3   0  -1  203.81    4.64
   2   0  -1    0.04    0.01
  -2   0   1    0.02    0.01
  -2   0   1    0.01    0.01
   1   0  -1  165.98    4.32
  -1   0   1  167.05    3.77
   1   0  -1  160.74    4.31
  -1   0   1  165.69    4.32
   0   0   1    0.00    0.00
  -1   0  -1   33.99    0.76
   1   0   1   33.09    0.79
   1   0   1   33.00    0.87
  -1   0  -1   33.24    0.86
   1   0   1   32.97    0.75
  -2   0  -1    0.03    0.01
   2   0   1    0.05    0.01
  -2   0  -1    0.07    0.01
   3   0   1  211.96    5.57
   3   0   1  221.60    5.12
  -3   0  -1  218.07    4.88
  -3   0  -1  230.32    5.57
  -5   0  -1  132.04    3.36
  -5   0  -1  131.09    2.94
   5   0   1  128.56    3.36
   5   0   1  135.51    3.04
   6   0   1    0.09    0.04
   6   0   1    0.06    0.02
  -6   0  -1    0.00    0.03
   7   0   1  111.26    2.52
  -7   0  -1  108.20    2.45
   7   0   1  106.63    2.81
   8   0   1   -0.01    0.03
   8   0   1   -0.04    0.05
  -8   0  -1    0.04    0.05
  -9   0  -1   15.24    0.43
   9   0   1   15.53    0.39
   9   0   1   15.15    0.50
  10   0   1    0.05    0.06
 -10   0  -1    0.02    0.05
 -11   0  -1    0.20    0.07
  11   0   1    0.30    0.09
  12   0   1    0.02    0.08
 -12   0  -1   -0.02    0.07
 -13   0  -1    0.53    0.10
  13   0   1    0.47    0.12
 -14   0  -1   -0.11    0.07
  15   0   1    1.59    0.16
 -15   0  -1    1.59    0.15
 -16   0  -1    0.01    0.09
  16   0   1   -0.06    0.09
  17   0   1    2.25    0.21
  17  -1  -1   -0.01    0.11
 -16  -1   1    0.45    0.11
  16  -1  -1    0.42    0.13
 -16   1   1    0.56    0.12
 -15  -1   1    0.55    0.11
  15  -1  -1    0.79    0.13
 -15   1   1    1.04    0.13
  14  -1  -1    0.49    0.11
 -14  -1   1    0.53    0.11
 -14   1   1    0.49    0.10
  13  -1  -1    1.09    0.13
 -13  -1   1    0.82    0.11
  13  -1  -1    1.31    0.16
 -13   1   1    0.98    0.12
  13   1  -1    0.98    0.14
  12  -1  -1    0.19    0.09
 -12  -1   1   -0.16    0.06
  12  -1  -1   -0.08    0.07
 -12   1   1   -0.04    0.06
  12   1  -1   -0.16    0.07
 -11  -1   1    6.78    0.25
  11  -1  -1    7.04    0.29
  11  -1  -1    6.81    0.30
  11   1  -1    6.78    0.30
 -11   1   1    6.94    0.26
 -10  -1   1    0.39    0.07
  10  -1  -1    0.34    0.08
 -10   1   1    0.27    0.07
  10   1  -1    0.28    0.08
   9  -1  -1    0.39    0.08
  -9  -1   1    0.60    0.07
   9   1  -1    0.35    0.07
   9   1  -1    0.47    0.05
  -9   1   1    0.40    0.07
  -8  -1   1   24.25    0.61
   8  -1  -1   23.13    0.71
   8   1  -1   25.49    0.60
   8   1  -1   23.77    0.71
  -8   1   1   24.49    0.61
  -7  -1   1    3.16    0.13
   7  -1  -1    3.35    0.16
   7   1  -1    3.16    0.15
   7   1  -1    3.53    0.12
  -6  -1   1   30.63    0.74
   6  -1  -1   31.67    0.86
   6   1  -1   31.81    0.75
  -6   1   1   31.32    0.74
   6   1  -1   30.29    0.85
   5  -1  -1   75.93    1.97
  -5  -1   1   75.44    1.72
   5   1  -1   77.26    1.77
  -5   1   1   78.13    1.96
  -5   1   1   75.11    1.72
   5   1  -1   74.43    1.96
  -4  -1   1  140.76    3.23
   4  -1  -1  146.90    3.70
   4  -1  -1  147.17    3.51
  -4   1   1  150.40    3.70
   4   1  -1  149.92    3.36
  -4   1   1  144.85    3.23
   4   1  -1  140.28    3.70
  -3  -1   1    5.88    0.18
   3  -1  -1    5.56    0.17
   3  -1  -1    5.60    0.18
   3   1  -1    5.69    0.18
   3   1  -1    5.80    0.15
  -3   1   1    5.79    0.16
  -3   1   1    5.90    0.18
   3   1  -1    5.66    0.18
  -2  -1   1   18.03    0.42
   2  -1  -1   17.92    0.46
  -2  -1   1   17.63    0.48
   2  -1  -1   17.67    0.48
  -2  -1   1   18.44    0.48
   2   1  -1   17.81    0.48
   2   1  -1   18.35    0.48
  -2   1   1   18.56    0.48
  -2   1   1   18.15    0.42
   2   1  -1   18.51    0.43
  -1  -1   1    7.23    0.20
   1  -1  -1    7.05    0.20
   1  -1  -1    7.50    0.20
  -1   1   1    7.49    0.18
   1   1  -1    7.35    0.18
  -1   1   1    7.14    0.20
   1   1  -1    7.27    0.20
   0  -1  -1  223.73    5.06
   0  -1  -1  213.71    5.77
   0  -1   1  190.26    5.02
   0  -1   1  206.26    5.35
   0  -1   1  195.03    4.82
   0   1   1  212.57    4.83
   0   1  -1  210.34    5.29
   0   1   1  219.14    5.77
   0   1  -1  192.64    4.82
  -1  -1  -1   35.20    0.79
   1  -1   1   34.93    0.91
   1  -1   1   34.29    0.82
  -1  -1  -1   34.88    0.91
   1   1   1   33.88    0.90
   1   1   1   35.74    0.82
  -1   1  -1   35.69    0.91
  -2  -1  -1    1.04    0.05
   2  -1   1    1.10    0.04
  -2  -1  -1    1.19    0.04
   2  -1   1    1.02    0.05
   2  -1   1    1.07    0.06
   2   1   1    1.23    0.05
  -2   1  -1    1.10    0.06
   2   1   1    1.10    0.05
   3  -1   1    2.75    0.10
  -3  -1  -1    2.86    0.10
   3  -1   1    2.72    0.11
  -3  -1  -1    2.85    0.09
   3  -1   1    2.88    0.08
  -3   1  -1    2.87    0.11
   3   1   1    2.84    0.09
   3   1   1    2.67    0.10
   4  -1   1   32.99    0.82
   4  -1   1   33.24    0.76
   4  -1   1   31.60    0.87
  -4  -1  -1   31.38    0.75
  -4  -1  -1   32.52    0.86
  -4   1  -1   31.95    0.76
   4   1   1   31.80    0.86
  -4   1  -1   33.39    0.87
   4   1   1   32.94    0.77
  -5  -1  -1    1.99    0.10
   5  -1   1    2.02    0.09
   5  -1   1    1.96    0.11
   5  -1   1    2.06    0.06
  -5  -1  -1    1.76    0.08
  -5   1  -1    2.02    0.09
  -5   1  -1    1.98    0.11
   5   1   1    1.97    0.10
   5   1   1    1.97    0.08
   6  -1   1  160.61    4.22
   6  -1   1  166.10    3.83
  -6  -1  -1  165.99    3.68
   6   1   1  162.49    4.22
   6   1   1  170.55    3.82
  -6   1  -1  167.71    3.69
   7  -1   1   31.44    0.93
  -7  -1  -1   33.26    0.80
   7  -1   1   33.82    0.78
   7   1   1   35.55    0.81
   7   1   1   32.33    0.92
  -7   1  -1   33.67    0.81
   8  -1   1    1.97    0.14
  -8  -1  -1    2.06    0.12
   8  -1   1    2.20    0.07
   8   1   1    2.15    0.10
   8   1   1    1.69    0.13
  -8   1  -1    1.96    0.11
  -9  -1  -1    3.34    0.15
   9  -1   1    3.42    0.19
   9   1   1    3.25    0.18
   9   1   1    3.47    0.13
  -9   1  -1    3.17    0.15
 -10  -1  -1    0.92    0.09
  10  -1   1    0.96    0.11
  10  -1   1    0.88    0.10
 -10   1  -1    0.89    0.09
  10   1   1    0.90    0.11
  11  -1   1    5.46    0.27
 -11  -1  -1    5.42    0.22
  11  -1   1    5.46    0.24
 -11   1  -1    5.24    0.22
  11   1   1    5.38    0.26
  12  -1   1    0.11    0.08
  12  -1   1    0.12    0.09
 -12  -1  -1    0.07    0.07
  12   1   1    0.05    0.09
 -12   1  -1    0.17    0.07
 -13  -1  -1    0.39    0.09
  13  -1   1    0.47    0.10
 -13   1  -1    0.48    0.10
  13   1   1    0.32    0.11
  14  -1   1    0.59    0.12
 -14  -1  -1    0.54    0.11
 -14   1  -1    0.70    0.12
 -15  -1  -1    0.05    0.09
  15  -1   1    0.07    0.09
 -15   1  -1    0.14    0.10
 -16  -1  -1    0.34    0.11
  16  -1   1    0.23    0.11
 -16   1  -1    0.45    0.11
  17  -1   1   -0.03    0.10
  17   1   1    0.10    0.11
  17  -2  -1    2.38    0.23
 -16  -2   1    0.10    0.09
  16  -2  -1    0.00    0.09
 -16   2   1    0.20    0.10
 -15  -2   1   -0.02    0.08
  15  -2  -1   -0.09    0.09
 -15   2   1   -0.05    0.08
 -14  -2   1   27.45    0.74
  14  -2  -1   26.56    0.81
 -14   2   1   25.99    0.74
  13  -2  -1    0.86    0.14
  13  -2  -1    0.68    0.12
 -13  -2   1    0.86    0.11
  13   2  -1    0.84    0.14
 -13   2   1    0.75    0.11
  12  -2  -1    0.28    0.09
  12  -2  -1    0.43    0.11
 -12  -2   1    0.10    0.07
 -12   2   1    0.16    0.08
  12   2  -1    0.19    0.10
 -11  -2   1    9.42    0.32
  11  -2  -1    9.73    0.39
  11  -2  -1    9.85    0.36
 -11   2   1    9.58    0.33
  11   2  -1    9.57    0.38
  10  -2  -1    2.90    0.18
  10  -2  -1    2.78    0.17
 -10  -2   1    2.77    0.15
  10   2  -1    2.92    0.18
  10   2  -1    3.12    0.14
 -10   2   1    2.84    0.15
   9  -2  -1    0.25    0.07
  -9  -2   1    0.24    0.06
   9  -2  -1    0.23    0.07
  -9   2   1    0.30    0.06
   9   2  -1    0.29    0.07
   9   2  -1    0.37    0.06
   8  -2  -1   16.67    0.49
   8  -2  -1   16.24    0.52
  -8  -2   1   16.23    0.44
   8   2  -1   15.98    0.51
   8   2  -1   17.14    0.43
  -8   2   1   15.94    0.44
   7  -2  -1    0.33    0.06
  -7  -2   1    0.35    0.05
   7  -2  -1    0.35    0.07
  -7   2   1    0.31    0.05
   7   2  -1    0.18    0.05
   7   2  -1    0.24    0.06
  -6  -2   1   36.64    0.86
   6  -2  -1   36.42    0.94
   6  -2  -1   35.67    0.99
   6   2  -1   35.79    0.99
  -6   2   1   36.61    0.86
   6   2  -1   37.11    0.88
   5  -2  -1  163.02    3.99
   5  -2  -1  162.79    4.21
  -5  -2   1  169.49    4.20
  -5  -2   1  161.50    3.67
   5   2  -1  159.27    4.20
  -5   2   1  175.09    4.21
   5   2  -1  168.09    4.20
   5   2  -1  165.33    3.82
  -5   2   1  163.98    3.67
   4  -2  -1   56.93    1.50
  -4  -2   1   55.24    1.31
   4  -2  -1   56.40    1.43
  -4  -2   1   59.15    1.50
   4   2  -1   57.85    1.36
  -4   2   1   57.71    1.31
  -4   2   1   60.20    1.36
  -4   2   1   59.53    1.50
   4   2  -1   58.06    1.50
   4   2  -1   57.33    1.50
   3  -2  -1    1.84    0.09
  -3  -2   1    2.17    0.09
   3  -2  -1    2.09    0.09
  -3   2   1    2.19    0.08
   3   2  -1    1.86    0.09
  -3   2   1    2.00    0.06
  -3   2   1    2.00    0.09
   3   2  -1    1.92    0.08
   3   2  -1    2.08    0.09
   2  -2  -1  200.28    5.04
  -2  -2   1  190.05    5.02
   2  -2  -1  199.87    4.77
   2   2  -1  202.44    4.58
  -2   2   1  198.58    4.61
   2   2  -1  196.26    5.02
  -2   2   1  205.61    5.03
   1  -2  -1    1.16    0.06
  -1  -2   1    1.22    0.06
   1  -2  -1    1.29    0.07
   1   2  -1    1.31    0.05
  -1   2   1    1.32    0.06
   1   2  -1    1.55    0.06
  -1   2   1    1.31    0.05
   0  -2   1    0.22    0.03
   0  -2  -1    0.22    0.03
   0  -2   1    0.22    0.03
   0  -2  -1    0.21    0.02
   0   2   1    0.22    0.03
   0   2  -1    0.28    0.02
   0   2   1    0.21    0.02
   0   2  -1    0.19    0.03
  -1  -2  -1    6.14    0.18
   1  -2   1    6.17    0.19
   1  -2   1    6.16    0.18
  -1  -2  -1    5.96    0.19
  -1   2  -1    6.34    0.16
   1   2   1    6.14    0.18
  -1   2  -1    6.14    0.19
   1   2   1    6.01    0.17
   2  -2   1    2.36    0.09
  -2  -2  -1    2.29    0.09
   2  -2   1    2.18    0.10
  -2  -2  -1    2.37    0.09
  -2   2  -1    2.35    0.10
   2   2   1    2.26    0.09
   2   2   1    2.26    0.09
  -2   2  -1    2.23    0.07
   2   2   1    2.24    0.09
  -3  -2  -1    0.07    0.02
   3  -2   1    0.03    0.02
  -3  -2  -1    0.03    0.02
   3  -2   1    0.07    0.02
   3  -2   1    0.06    0.03
  -3   2  -1    0.01    0.03
   3   2   1    0.00    0.02
   3   2   1    0.06    0.02
   3   2   1    0.02    0.02
  -3   2  -1    0.00    0.01
  -4  -2  -1    1.67    0.09
   4  -2   1    1.68    0.06
   4  -2   1    1.68    0.10
   4  -2   1    1.67    0.08
  -4  -2  -1    1.66    0.07
  -4   2  -1    1.62    0.08
   4   2   1    1.58    0.08
   4   2   1    1.65    0.08
  -4   2  -1    1.62    0.05
  -4   2  -1    1.68    0.09
   4   2   1    1.84    0.09
   5  -2   1    6.88    0.17
   5  -2   1    6.81    0.22
  -5  -2  -1    6.68    0.20
   5  -2   1    6.66    0.24
  -5   2  -1    6.98    0.17
   5   2   1    6.99    0.23
   5   2   1    7.11    0.21
   5   2   1    6.29    0.23
  -5   2  -1    6.78    0.21
   6  -2   1    5.13    0.14
   6  -2   1    4.97    0.21
   6  -2   1    5.01    0.19
  -6  -2  -1    5.24    0.17
   6   2   1    4.93    0.20
  -6   2  -1    5.29    0.13
   6   2   1    5.46    0.17
  -6   2  -1    5.27    0.18
   7  -2   1    1.80    0.06
  -7  -2  -1    1.73    0.10
   7  -2   1    1.79    0.13
   7  -2   1    1.83    0.12
   7   2   1    1.90    0.12
  -7   2  -1    1.71    0.10
   7   2   1    1.79    0.10
  -7   2  -1    1.81    0.06
   8  -2   1    2.19    0.13
  -8  -2  -1    2.33    0.12
   8  -2   1    2.47    0.15
   8   2   1    1.95    0.11
  -8   2  -1    2.18    0.12
   8   2   1    2.18    0.14
   9  -2   1    0.93    0.10
  -9  -2  -1    0.93    0.09
   9  -2   1    1.04    0.11
   9   2   1    1.07    0.09
   9   2   1    1.10    0.11
  -9   2  -1    0.93    0.09
  10  -2   1    1.21    0.11
 -10  -2  -1    1.06    0.10
  10  -2   1    1.35    0.14
 -10   2  -1    0.93    0.10
  10   2   1    1.23    0.12
  10   2   1    1.08    0.09
  11  -2   1    3.92    0.21
 -11  -2  -1    3.89    0.19
  11  -2   1    4.35    0.24
 -11   2  -1    3.80    0.19
  11   2   1    4.23    0.23
  12  -2   1    0.67    0.13
 -12  -2  -1    0.52    0.09
  12  -2   1    0.78    0.11
  12   2   1    0.86    0.13
 -12   2  -1    0.45    0.09
  13  -2   1    0.25    0.09
 -13  -2  -1    0.06    0.08
  13   2   1    0.08    0.09
 -13   2  -1    0.20    0.08
 -14  -2  -1    3.75    0.21
  14  -2   1    4.24    0.24
 -14   2  -1    4.20    0.22
 -15  -2  -1    1.89    0.16
  15  -2   1    1.92    0.18
 -15   2  -1    1.90    0.17
  16  -2   1    0.11    0.11
 -16  -2  -1    0.11    0.10
 -16   2  -1   -0.05    0.09
  17  -2   1   -0.03    0.11
  17  -3  -1    0.49    0.14
 -16  -3   1    0.25    0.11
  16  -3  -1    0.17    0.11
 -16   3   1    0.14    0.10
  15  -3  -1    1.16    0.16
 -15  -3   1    1.08    0.14
 -15   3   1    1.24    0.15
  14  -3  -1    1.47    0.17
 -14  -3   1    1.65    0.15
 -14   3   1    1.56    0.15
  13  -3  -1    0.27    0.10
 -13  -3   1    0.27    0.09
 -13   3   1    0.20    0.09
 -12  -3   1    7.86    0.29
  12  -3  -1    8.25    0.36
  12  -3  -1    7.93    0.33
  12   3  -1    7.40    0.34
 -12   3   1    7.57    0.29
 -11  -3   1    2.73    0.16
  11  -3  -1    2.62    0.20
  11  -3  -1    2.37    0.18
 -11   3   1    2.45    0.16
  11   3  -1    2.32    0.18
  11   3  -1    2.55    0.15
 -10  -3   1    0.10    0.06
  10  -3  -1    0.10    0.07
  10  -3  -1    0.02    0.08
 -10   3   1    0.03    0.06
  10   3  -1    0.03    0.07
  10   3  -1   -0.09    0.05
   9  -3  -1    2.44    0.17
  -9  -3   1    2.43    0.13
   9  -3  -1    2.80    0.17
   9   3  -1    2.11    0.13
  -9   3   1    2.72    0.15
   9   3  -1    2.53    0.16
   8  -3  -1    1.42    0.12
   8  -3  -1    1.46    0.12
  -8  -3   1    1.45    0.11
  -8   3   1    1.60    0.11
   8   3  -1    1.30    0.11
   8   3  -1    1.45    0.10
  -7  -3   1    1.92    0.11
   7  -3  -1    2.03    0.14
   7  -3  -1    1.94    0.13
   7   3  -1    2.16    0.11
  -7   3   1    2.04    0.12
   7   3  -1    2.09    0.13
   6  -3  -1    9.51    0.33
   6  -3  -1   10.15    0.32
  -6  -3   1   10.06    0.28
   6   3  -1   10.15    0.33
  -6   3   1   10.45    0.25
   6   3  -1    9.74    0.29
  -6   3   1    9.67    0.28
   5  -3  -1   39.55    1.09
   5  -3  -1   40.11    1.04
   5   3  -1   40.31    0.98
  -5   3   1   41.12    0.95
   5   3  -1   40.23    1.09
  -5   3   1   42.05    0.95
   4  -3  -1    0.74    0.07
  -4  -3   1    0.68    0.06
   4  -3  -1    0.69    0.07
  -4   3   1    0.81    0.05
   4   3  -1    0.73    0.06
   4   3  -1    0.63    0.06
  -4   3   1    0.70    0.07
   4   3  -1    0.70    0.06
  -4   3   1    0.67    0.06
   3  -3  -1   28.05    0.77
  -3  -3   1   28.60    0.76
   3  -3  -1   27.76    0.74
   3   3  -1   29.16    0.77
   3   3  -1   29.05    0.76
  -3   3   1   28.70    0.68
   3   3  -1   28.78    0.70
  -3   3   1   28.46    0.77
  -2  -3   1   30.23    0.81
   2  -3  -1   29.49    0.81
  -2   3   1   31.60    0.82
   2   3  -1   30.76    0.75
   2   3  -1   31.34    0.81
   1  -3  -1    3.84    0.14
  -1  -3   1    3.79    0.14
  -1  -3   1    3.74    0.15
  -1   3   1    4.19    0.13
   1   3  -1    4.01    0.14
   1   3  -1    3.99    0.13
  -1   3   1    4.15    0.14
   0  -3   1   35.77    0.91
   0  -3  -1   34.94    0.93
   0  -3  -1   35.66    0.91
   0  -3   1   34.84    0.94
   0   3   1   36.72    0.94
   0   3  -1   37.09    0.95
   0   3   1   35.47    0.86
   0   3  -1   36.74    0.86
  -1  -3  -1  105.30    2.70
  -1  -3  -1  104.80    2.59
   1  -3   1  105.97    2.59
   1  -3   1  104.85    2.72
  -1   3  -1  108.90    2.72
   1   3   1  105.54    2.48
  -1   3  -1  108.39    2.47
   1   3   1  108.35    2.70
  -2  -3  -1   33.64    0.88
   2  -3   1   33.93    0.90
   2  -3   1   34.14    0.86
  -2   3  -1   36.18    0.90
  -2   3  -1   28.38    0.79
   2   3   1   34.87    0.88
   2   3   1   33.66    0.81
   2   3   1   33.26    0.88
   3  -3   1   56.76    1.44
   3  -3   1   58.22    1.52
  -3  -3  -1   56.55    1.49
   3   3   1   57.26    1.50
  -3   3  -1   58.42    1.35
   3   3   1   58.42    1.49
   3   3   1   57.49    1.37
  -3   3  -1   59.98    1.52
  -4  -3  -1   15.14    0.43
   4  -3   1   14.40    0.45
   4  -3   1   15.05    0.42
   4   3   1   15.12    0.42
  -4   3  -1   15.03    0.37
  -4   3  -1   15.68    0.45
   4   3   1   14.52    0.43
   4   3   1   14.49    0.40
   5  -3   1   27.06    0.78
   5  -3   1   28.36    0.74
  -5  -3  -1   27.85    0.67
  -5   3  -1   28.64    0.66
   5   3   1   27.63    0.76
  -5   3  -1   27.52    0.68
   5   3   1   28.17    0.70
  -6  -3  -1   11.53    0.32
   6  -3   1   11.51    0.39
   6  -3   1   11.80    0.36
   6   3   1   11.55    0.37
  -6   3  -1   11.75    0.29
  -6   3  -1   11.68    0.33
   6   3   1   11.55    0.33
   7  -3   1   10.92    0.35
  -7  -3  -1   10.37    0.31
   7  -3   1   10.27    0.37
   7   3   1   10.65    0.36
   7   3   1   11.34    0.32
  -7   3  -1   11.27    0.27
  -7   3  -1   10.42    0.32
   8  -3   1    4.35    0.19
   8  -3   1    4.23    0.21
  -8  -3  -1    4.38    0.17
   8   3   1    4.18    0.20
   8   3   1    4.39    0.17
  -8   3  -1    4.21    0.18
   9  -3   1    3.50    0.19
   9  -3   1    3.16    0.20
  -9  -3  -1    3.52    0.16
   9   3   1    3.46    0.19
   9   3   1    3.50    0.16
  -9   3  -1    3.55    0.17
  10  -3   1    1.38    0.15
  10  -3   1    1.13    0.12
 -10  -3  -1    1.35    0.12
 -10   3  -1    1.48    0.13
  10   3   1    1.43    0.12
  10   3   1    1.31    0.13
 -11  -3  -1    4.81    0.21
  11  -3   1    5.10    0.25
  11  -3   1    4.83    0.27
  11   3   1    5.05    0.21
  11   3   1    4.78    0.25
 -11   3  -1    4.36    0.21
 -12  -3  -1    0.62    0.10
  12  -3   1    0.67    0.13
  12  -3   1    0.59    0.10
  12   3   1    0.48    0.11
 -12   3  -1    0.70    0.10
  13  -3   1    0.02    0.09
 -13  -3  -1   -0.13    0.07
 -13   3  -1    0.09    0.08
  14  -3   1    0.35    0.11
 -14  -3  -1    0.18    0.09
 -14   3  -1    0.19    0.10
  15  -3   1    0.06    0.10
 -15  -3  -1   -0.02    0.09
 -15   3  -1    0.04    0.09
 -16  -3  -1    0.21    0.10
  16  -3   1    0.09    0.11
 -16   3  -1    0.27    0.11
  16  -4  -1    0.01    0.10
 -16   4   1   -0.04    0.10
 -15  -4   1    0.28    0.11
  15  -4  -1    0.18    0.12
 -15   4   1    0.12    0.10
 -14  -4   1    0.54    0.11
  14  -4  -1    0.57    0.13
 -14   4   1    0.46    0.11
  13  -4  -1    7.50    0.35
 -13  -4   1    7.14    0.29
 -13   4   1    7.83    0.31
 -12  -4   1    0.95    0.11
  12  -4  -1    0.49    0.14
  12  -4  -1    0.60    0.12
  12   4  -1    0.94    0.13
 -12   4   1    0.68    0.11
 -11  -4   1    7.70    0.29
  11  -4  -1    7.97    0.33
  11  -4  -1    8.42    0.37
  11   4  -1    8.08    0.34
 -11   4   1    7.67    0.30
  11   4  -1    8.25    0.29
  10  -4  -1    7.98    0.33
 -10  -4   1    7.76    0.28
  10  -4  -1    8.27    0.35
  10   4  -1    8.11    0.28
 -10   4   1    8.09    0.29
  10   4  -1    8.11    0.33
   9  -4  -1    9.56    0.37
   9  -4  -1    9.28    0.35
   9   4  -1   10.14    0.31
   9   4  -1    9.42    0.36
  -9   4   1    9.49    0.31
   8  -4  -1    8.80    0.34
   8  -4  -1    8.86    0.32
  -8   4   1    8.67    0.28
   8   4  -1    8.68    0.28
   8   4  -1    8.85    0.33
   7  -4  -1    7.88    0.30
   7  -4  -1    7.95    0.30
   7   4  -1    7.57    0.29
   7   4  -1    7.67    0.26
  -7   4   1    7.95    0.21
  -7   4   1    7.89    0.25
   6  -4  -1   10.18    0.34
   6  -4  -1   10.30    0.35
   6   4  -1    9.95    0.34
  -6   4   1   10.25    0.26
   6   4  -1    9.96    0.31
  -6   4   1   10.06    0.30
  -5  -4   1    0.04    0.04
   5  -4  -1   -0.02    0.04
   5  -4  -1    0.03    0.05
  -5   4   1    0.04    0.03
  -5   4   1    0.04    0.04
   5   4  -1    0.07    0.04
   5   4  -1   -0.02    0.04
   4  -4  -1   10.82    0.35
   4  -4  -1   10.93    0.34
  -4  -4   1   10.71    0.34
  -4   4   1   11.25    0.35
   4   4  -1   10.99    0.32
   4   4  -1   10.65    0.34
  -4   4   1   11.26    0.29
  -3  -4   1  101.57    2.62
   3  -4  -1  101.62    2.52
   3  -4  -1   99.17    2.63
   3   4  -1  101.27    2.40
  -3   4   1  106.53    2.63
   3   4  -1  104.90    2.62
   2  -4  -1   18.96    0.54
  -2  -4   1   19.04    0.54
   2  -4  -1   19.52    0.54
   2   4  -1   19.42    0.50
  -2   4   1   19.59    0.49
   2   4  -1   19.97    0.55
  -2   4   1   20.10    0.55
   1  -4  -1   53.72    1.35
  -1  -4   1   52.23    1.39
  -1  -4   1   52.74    1.35
   1  -4  -1   52.83    1.39
  -1   4   1   53.81    1.39
   1   4  -1   54.43    1.28
   1   4  -1   55.24    1.40
  -1   4   1   53.68    1.27
   0  -4  -1    0.08    0.03
   0  -4  -1    0.31    0.05
   0  -4   1    0.10    0.04
   0   4   1    0.16    0.04
   0   4  -1    0.12    0.03
   0   4  -1    0.11    0.04
   0   4   1    0.06    0.03
  -1  -4  -1   50.47    1.33
   1  -4   1   50.76    1.35
  -1  -4  -1   50.12    1.29
   1  -4   1   51.02    1.29
   1   4   1   51.28    1.23
   1   4   1   52.53    1.33
  -1   4  -1   51.68    1.22
  -1   4  -1   52.50    1.35
   2  -4   1    5.90    0.21
   2  -4   1    5.79    0.21
  -2  -4  -1    5.70    0.19
  -2   4  -1    5.96    0.22
   2   4   1    5.66    0.19
  -2   4  -1    5.96    0.18
   2   4   1    5.84    0.19
   3  -4   1   91.90    2.26
  -3  -4  -1   89.41    2.34
   3  -4   1   91.59    2.37
   3   4   1   90.88    2.16
   3   4   1   93.31    2.34
   3   4   1   92.42    2.35
   4  -4   1    0.18    0.05
  -4  -4  -1    0.03    0.03
   4  -4   1    0.24    0.06
   4   4   1    0.06    0.04
   4   4   1   -0.09    0.03
  -4   4  -1    0.05    0.03
   4   4   1    0.06    0.03
   5  -4   1    9.19    0.30
   5  -4   1    8.96    0.32
  -5   4  -1    9.38    0.25
   5   4   1    9.11    0.28
   5   4   1    9.03    0.30
  -5   4  -1    9.27    0.28
   6  -4   1   12.69    0.43
   6  -4   1   13.16    0.41
  -6   4  -1   13.54    0.33
  -6   4  -1   13.17    0.37
   6   4   1   13.22    0.38
   6   4   1   12.96    0.41
   7  -4   1    3.02    0.18
   7  -4   1    3.42    0.17
  -7   4  -1    3.52    0.11
   7   4   1    3.37    0.17
   7   4   1    3.37    0.15
  -7   4  -1    3.23    0.15
   8  -4   1    0.08    0.06
   8  -4   1    0.07    0.07
  -8  -4  -1    0.05    0.05
   8   4   1    0.13    0.06
  -8   4  -1    0.11    0.06
   8   4   1    0.23    0.06
  -9  -4  -1   22.79    0.60
   9  -4   1   23.14    0.67
   9  -4   1   22.67    0.72
   9   4   1   22.66    0.69
  -9   4  -1   22.70    0.61
   9   4   1   22.50    0.61
 -10  -4  -1   14.28    0.42
  10  -4   1   14.43    0.47
  10  -4   1   14.00    0.52
  10   4   1   14.39    0.49
  10   4   1   14.03    0.42
 -10   4  -1   13.75    0.43
  11  -4   1   31.11    0.97
 -11  -4  -1   30.35    0.80
  11  -4   1   31.82    0.90
  11   4   1   30.97    0.94
 -11   4  -1   30.59    0.82
  11   4   1   32.23    0.82
 -12  -4  -1    0.70    0.11
  12  -4   1    0.71    0.12
  12  -4   1    0.84    0.15
 -12   4  -1    0.63    0.11
  12   4   1    0.76    0.12
 -13  -4  -1   13.91    0.45
  13  -4   1   13.89    0.50
 -13   4  -1   14.04    0.46
  14  -4   1   13.93    0.52
 -14  -4  -1   14.34    0.47
 -14   4  -1   14.64    0.48
  15  -4   1    0.47    0.13
 -15  -4  -1    0.53    0.11
 -15   4  -1    0.64    0.13
 -16  -4  -1   -0.03    0.10
  16  -4   1   -0.02    0.11
  16  -5  -1    1.86    0.21
  15  -5  -1    0.20    0.11
 -15   5   1    0.18    0.10
  14  -5  -1    0.20    0.11
 -14   5   1    0.27    0.11
  13  -5  -1    0.29    0.12
 -13   5   1    0.47    0.10
  12  -5  -1    4.07    0.26
  12  -5  -1    4.15    0.27
  12   5  -1    4.01    0.25
  12   5  -1    4.03    0.21
 -12   5   1    4.16    0.21
  11  -5  -1    0.19    0.11
  11  -5  -1   -0.11    0.08
 -11   5   1    0.02    0.07
  11   5  -1   -0.04    0.08
  11   5  -1    0.00    0.07
  10  -5  -1   12.69    0.48
  10  -5  -1   12.88    0.46
 -10   5   1   12.51    0.40
  10   5  -1   12.92    0.46
  10   5  -1   13.20    0.41
   9  -5  -1    5.79    0.28
   9  -5  -1    5.87    0.27
  -9   5   1    5.87    0.23
   9   5  -1    5.81    0.26
   9   5  -1    5.63    0.23
   8  -5  -1    2.65    0.18
   8  -5  -1    2.55    0.17
   8   5  -1    2.25    0.15
  -8   5   1    2.47    0.14
   8   5  -1    2.22    0.14
   7  -5  -1    0.33    0.08
   7  -5  -1    0.26    0.09
   7   5  -1    0.34    0.08
   7   5  -1    0.34    0.07
  -7   5   1    0.23    0.06
   6  -5  -1    4.50    0.21
  -6  -5   1    4.52    0.20
   6  -5  -1    4.18    0.21
  -6   5   1    4.41    0.15
  -6   5   1    4.48    0.18
   6   5  -1    4.44    0.20
   6   5  -1    4.66    0.19
  -5  -5   1    5.07    0.21
   5  -5  -1    4.88    0.22
   5  -5  -1    4.94    0.22
  -5   5   1    5.20    0.17
   5   5  -1    5.25    0.20
   5   5  -1    5.20    0.21
  -5   5   1    5.32    0.19
  -4  -5   1    6.96    0.24
   4  -5  -1    6.62    0.26
   4  -5  -1    6.79    0.26
  -4   5   1    6.62    0.21
   4   5  -1    7.16    0.24
   4   5  -1    6.62    0.24
   3  -5  -1    5.28    0.21
  -3  -5   1    5.56    0.20
   3  -5  -1    5.54    0.22
   3   5  -1    5.50    0.20
  -3   5   1    5.69    0.18
   2  -5  -1   73.51    1.87
   2  -5  -1   72.85    1.93
  -2  -5   1   71.87    1.93
  -2   5   1   78.63    1.94
   2   5  -1   76.08    1.78
  -2   5   1   74.47    1.76
  -1  -5   1    3.65    0.15
   1  -5  -1    3.64    0.15
   1  -5  -1    3.77    0.18
  -1  -5   1    3.86    0.18
  -1   5   1    3.90    0.16
  -1   5   1    3.93    0.15
   1   5  -1    3.55    0.14
   0  -5  -1   24.05    0.67
   0  -5  -1   24.59    0.69
   0  -5   1   24.31    0.69
   0  -5   1   24.40    0.68
   0   5  -1   25.24    0.63
   0   5   1   25.24    0.64
   0   5  -1   25.19    0.70
   0   5   1   25.58    0.69
   1  -5   1    9.14    0.31
  -1  -5  -1    8.95    0.31
   1  -5   1    9.15    0.30
  -1  -5  -1    8.97    0.28
   1   5   1    9.45    0.29
  -1   5  -1    9.26    0.27
   1   5   1    9.12    0.28
   2  -5   1   44.50    1.25
  -2  -5  -1   46.62    1.22
   2  -5   1   46.68    1.21
   2   5   1   47.71    1.23
  -2   5  -1   47.60    1.12
   2   5   1   46.65    1.14
   3  -5   1    8.29    0.30
  -3  -5  -1    8.19    0.26
   3  -5   1    7.97    0.29
  -3   5  -1    8.00    0.24
   3   5   1    8.05    0.26
   3   5   1    8.45    0.27
   3   5   1    8.43    0.27
   4  -5   1   16.80    0.51
   4  -5   1   17.18    0.49
  -4  -5  -1   16.82    0.48
   4   5   1   16.65    0.46
   4   5   1   16.39    0.48
  -4   5  -1   14.38    0.42
   5  -5   1    2.32    0.15
   5  -5   1    2.40    0.15
   5   5   1    2.37    0.13
   5   5   1    2.27    0.14
  -5   5  -1    2.35    0.10
   6  -5   1   19.31    0.62
   6  -5   1   19.96    0.59
  -6   5  -1   19.89    0.53
   6   5   1   19.54    0.58
   6   5   1   20.38    0.55
  -6   5  -1   20.14    0.50
   7  -5   1   12.74    0.46
   7  -5   1   13.71    0.44
  -7   5  -1   13.43    0.40
   7   5   1   13.99    0.41
   7   5   1   13.48    0.44
   8  -5   1    0.20    0.08
   8  -5   1    0.30    0.10
   8   5   1    0.25    0.07
  -8   5  -1    0.39    0.08
   8   5   1    0.24    0.08
   9  -5   1    0.00    0.08
   9  -5   1    0.05    0.10
   9   5   1    0.07    0.08
  -9   5  -1    0.01    0.07
   9   5   1    0.11    0.07
  10  -5   1   12.51    0.48
  10  -5   1   13.03    0.46
 -10   5  -1   12.79    0.41
  10   5   1   12.39    0.45
  10   5   1   12.85    0.41
  11  -5   1    6.28    0.33
  11  -5   1    6.27    0.30
 -11   5  -1    6.10    0.27
  11   5   1    5.96    0.29
  11   5   1    6.22    0.26
  12  -5   1    0.62    0.12
  12   5   1    0.60    0.10
 -12   5  -1    0.41    0.11
  12   5   1    0.78    0.13
  13  -5   1    0.97    0.15
 -13   5  -1    0.84    0.13
  14  -5   1   -0.04    0.10
 -14   5  -1    0.04    0.10
  15  -5   1    0.06    0.11
 -15   5  -1    0.04    0.10
  16  -5   1    0.70    0.16
  15  -6  -1    0.23    0.12
 -15   6   1    0.15    0.11
  14  -6  -1    1.65    0.18
 -14   6   1    1.21    0.15
  13  -6  -1    0.74    0.14
 -13   6   1    0.78    0.13
  12  -6  -1    1.61    0.17
  12   6  -1    1.66    0.15
 -12   6   1    1.72    0.16
  11  -6  -1    1.69    0.17
  11  -6  -1    1.62    0.18
  11   6  -1    1.46    0.14
  11   6  -1    1.84    0.17
 -11   6   1    1.58    0.14
  10  -6  -1    3.89    0.24
  10  -6  -1    4.31    0.26
  10   6  -1    3.76    0.22
 -10   6   1    3.88    0.20
  10   6  -1    3.76    0.20
   9  -6  -1    2.74    0.21
   9  -6  -1    2.84    0.20
   9   6  -1    2.47    0.18
  -9   6   1    2.48    0.15
   9   6  -1    2.78    0.16
   8  -6  -1   22.61    0.72
   8  -6  -1   22.83    0.70
   8   6  -1   23.12    0.64
   8   6  -1   23.52    0.70
  -8   6   1   22.39    0.61
   7  -6  -1   12.13    0.42
   7  -6  -1   12.29    0.43
   7   6  -1   11.63    0.38
   7   6  -1   11.60    0.41
  -7   6   1   11.28    0.35
   6  -6  -1   24.32    0.72
  -6  -6   1   24.53    0.72
   6  -6  -1   24.40    0.74
   6   6  -1   24.85    0.73
   6   6  -1   24.87    0.68
  -6   6   1   25.52    0.63
  -6   6   1   25.00    0.64
   5  -6  -1   34.45    0.97
   5  -6  -1   33.37    0.94
  -5  -6   1   33.68    0.95
   5   6  -1   35.04    0.96
  -5   6   1   34.80    0.85
   5   6  -1   34.81    0.89
   4  -6  -1    0.22    0.07
   4  -6  -1    0.17    0.07
  -4  -6   1    0.10    0.06
   4   6  -1    0.14    0.06
   4   6  -1    0.13    0.06
  -4   6   1    0.10    0.04
  -3  -6   1    0.25    0.07
   3  -6  -1    0.31    0.07
   3  -6  -1    0.24    0.08
   3   6  -1    0.21    0.06
  -3   6   1    0.30    0.06
   2  -6  -1  101.72    2.65
   2  -6  -1  101.33    2.56
  -2  -6   1   98.57    2.64
   2   6  -1  105.69    2.44
  -2   6   1  105.45    2.42
   1  -6  -1   88.62    2.35
   1  -6  -1   93.75    2.29
  -1  -6   1   88.15    2.35
  -1  -6   1   90.29    2.28
  -1   6   1   93.43    2.16
   1   6  -1   92.60    2.17
   0  -6  -1    0.38    0.08
   0  -6  -1    0.20    0.06
   0  -6   1    0.34    0.08
   0  -6   1    0.39    0.07
   0   6  -1    0.24    0.06
   0   6   1    0.17    0.07
  -1  -6  -1    9.13    0.30
   1  -6   1    9.82    0.34
  -1  -6  -1    9.44    0.34
   1  -6   1    9.09    0.31
   1   6   1    9.35    0.30
  -1   6  -1    9.50    0.29
   2  -6   1    3.56    0.19
   2  -6   1    3.63    0.18
  -2  -6  -1    3.43    0.15
  -2   6  -1    3.58    0.15
   2   6   1    3.58    0.17
   3  -6   1    1.48    0.12
   3  -6   1    1.38    0.13
  -3  -6  -1    1.46    0.10
   3   6   1    1.36    0.10
   3   6   1    1.36    0.11
  -3   6  -1    1.47    0.09
   4  -6   1   37.39    1.00
  -4  -6  -1   37.25    1.00
   4  -6   1   36.68    1.03
  -4   6  -1   33.00    0.90
   4   6   1   37.73    1.00
   4   6   1   38.47    0.95
  -5  -6  -1    0.60    0.08
   5  -6   1    0.75    0.10
   5  -6   1    0.77    0.11
   5   6   1    0.73    0.10
  -5   6  -1    0.68    0.07
   5   6   1    0.76    0.08
   6  -6   1    1.52    0.14
   6  -6   1    1.47    0.14
  -6   6  -1    1.60    0.10
   6   6   1    1.32    0.12
  -6   6  -1    1.51    0.13
   6   6   1    1.62    0.14
   7  -6   1    1.65    0.16
   7  -6   1    1.86    0.16
   7   6   1    1.72    0.14
   7   6   1    1.65    0.13
  -7   6  -1    1.87    0.14
   8  -6   1   65.10    1.80
   8  -6   1   68.03    1.71
   8   6   1   63.77    1.75
   8   6   1   64.24    1.61
  -8   6  -1   64.76    1.55
   9  -6   1   19.43    0.62
   9  -6   1   19.69    0.67
  -9   6  -1   19.89    0.56
   9   6   1   20.25    0.63
   9   6   1   18.80    0.57
  10  -6   1    1.33    0.15
  10  -6   1    1.36    0.16
 -10   6  -1    1.14    0.13
  10   6   1    1.10    0.12
  10   6   1    1.09    0.13
  11  -6   1    3.02    0.23
  11   6   1    3.25    0.19
 -11   6  -1    3.24    0.19
  11   6   1    3.36    0.21
  12  -6   1    0.07    0.10
 -12   6  -1    0.01    0.09
  12   6   1    0.03    0.08
  13  -6   1   -0.07    0.10
 -13   6  -1    0.01    0.09
  14  -6   1    0.01    0.11
 -14   6  -1   -0.04    0.09
  15  -6   1   -0.02    0.11
  14  -7  -1    0.04    0.12
 -14   7   1   -0.11    0.10
  13  -7  -1    2.08    0.21
 -13   7   1    2.03    0.17
  12  -7  -1    4.29    0.28
 -12   7   1    5.11    0.25
  12   7  -1    5.08    0.25
  11  -7  -1    0.03    0.09
 -11   7   1    0.03    0.08
  11   7  -1   -0.04    0.08
  10  -7  -1    0.33    0.11
  10  -7  -1    0.29    0.12
  10   7  -1    0.34    0.10
  10   7  -1    0.35    0.10
 -10   7   1    0.22    0.08
   9  -7  -1    2.58    0.20
   9  -7  -1    2.47    0.22
   9   7  -1    2.62    0.18
  -9   7   1    2.54    0.17
   9   7  -1    2.76    0.19
   8  -7  -1    5.64    0.29
   8  -7  -1    5.47    0.28
   8   7  -1    5.01    0.24
   8   7  -1    5.45    0.26
  -8   7   1    5.28    0.23
  -7  -7   1   32.73    0.94
   7  -7  -1   32.96    0.97
   7  -7  -1   33.59    0.95
   7   7  -1   33.24    0.95
  -7   7   1   32.57    0.83
   7   7  -1   32.68    0.89
  -6  -7   1   40.70    1.16
   6  -7  -1   42.82    1.17
   6  -7  -1   43.20    1.20
  -6   7   1   42.96    1.04
  -6   7   1   42.71    1.03
   6   7  -1   41.10    1.17
   6   7  -1   42.01    1.09
   5  -7  -1    4.62    0.23
  -5  -7   1    4.53    0.21
   5  -7  -1    4.76    0.25
   5   7  -1    4.46    0.21
   5   7  -1    4.29    0.21
  -4  -7   1    0.31    0.07
   4  -7  -1    0.35    0.10
   4  -7  -1    0.26    0.08
  -4   7   1    0.27    0.07
   4   7  -1    0.31    0.07
   4   7  -1    0.24    0.07
  -3  -7   1    5.20    0.22
   3  -7  -1    5.74    0.24
   3  -7  -1    5.38    0.26
  -3   7   1    5.51    0.21
   3   7  -1    5.26    0.22
   2  -7  -1    0.13    0.08
   2  -7  -1   -0.06    0.06
  -2  -7   1    0.06    0.06
  -2   7   1   -0.02    0.06
   2   7  -1    0.03    0.06
   1  -7  -1   22.36    0.66
  -1  -7   1   22.88    0.69
  -1  -7   1   23.24    0.67
   1  -7  -1   23.43    0.70
   1   7  -1   24.01    0.64
  -1   7   1   24.13    0.63
   0  -7  -1    0.17    0.06
   0  -7   1    0.29    0.09
   0  -7  -1    0.18    0.09
   0  -7   1    0.21    0.07
   0   7  -1    0.33    0.07
   0   7   1    0.19    0.06
  -1  -7  -1   35.23    0.95
   1  -7   1   33.69    0.95
   1  -7   1   32.67    0.94
  -1  -7  -1   33.06    0.92
  -1   7  -1   34.91    0.87
   1   7   1   34.39    0.88
   2  -7   1   14.99    0.50
  -2  -7  -1   16.42    0.49
   2  -7   1   16.79    0.53
   2   7   1   16.78    0.49
  -2   7  -1   17.03    0.46
   3  -7   1   64.77    1.75
   3  -7   1   65.13    1.69
  -3  -7  -1   64.75    1.71
  -3   7  -1   65.25    1.57
   3   7   1   65.78    1.60
   3   7   1   64.63    1.71
   4  -7   1    5.30    0.26
  -4  -7  -1    5.13    0.21
   4  -7   1    5.02    0.24
  -4   7  -1    5.10    0.20
   4   7   1    5.36    0.23
   4   7   1    5.11    0.21
   5  -7   1    8.00    0.33
  -5  -7  -1    7.49    0.28
   5  -7   1    7.70    0.32
   5   7   1    7.40    0.28
   5   7   1    7.62    0.29
   6  -7   1   18.84    0.60
   6  -7   1   18.59    0.62
   6   7   1   18.86    0.56
   6   7   1   18.85    0.58
  -6   7  -1   18.99    0.51
   7  -7   1   -0.02    0.09
   7  -7   1    0.01    0.10
   7   7   1    0.04    0.07
  -7   7  -1    0.01    0.07
   7   7   1    0.06    0.08
   8  -7   1    0.29    0.11
   8  -7   1    0.50    0.12
  -8   7  -1    0.47    0.10
   8   7   1    0.60    0.10
   8   7   1    0.40    0.10
   9  -7   1    0.84    0.14
   9  -7   1    0.59    0.14
   9   7   1    0.56    0.10
  -9   7  -1    0.49    0.10
   9   7   1    0.65    0.11
  10  -7   1    0.14    0.11
  10  -7   1    0.21    0.10
 -10   7  -1    0.23    0.09
  10   7   1    0.21    0.09
  10   7   1    0.15    0.09
  11  -7   1    1.60    0.17
 -11   7  -1    1.92    0.16
  11   7   1    2.08    0.17
  11   7   1    1.80    0.17
  12  -7   1    6.38    0.33
 -12   7  -1    6.14    0.28
  12   7   1    6.25    0.29
  13  -7   1    0.23    0.12
 -13   7  -1    0.34    0.11
  14  -7   1   -0.01    0.11
 -14   7  -1    0.17    0.11
  14  -8  -1    2.33    0.24
 -14   8   1    2.47    0.20
  13  -8  -1    0.16    0.14
 -13   8   1    0.13    0.10
  13   8  -1   -0.03    0.11
  12  -8  -1    1.64    0.19
 -12   8   1    1.85    0.17
  12   8  -1    1.64    0.17
  11  -8  -1    2.61    0.22
 -11   8   1    2.15    0.17
  11   8  -1    2.16    0.19
  10  -8  -1    7.05    0.35
  10  -8  -1    7.46    0.37
  10   8  -1    7.20    0.32
 -10   8   1    7.19    0.29
  10   8  -1    7.20    0.33
   9  -8  -1    2.10    0.20
   9  -8  -1    2.04    0.20
   9   8  -1    1.83    0.17
   9   8  -1    2.37    0.18
  -9   8   1    2.08    0.16
   8  -8  -1    0.76    0.13
   8  -8  -1    0.63    0.13
   8   8  -1    0.69    0.11
   8   8  -1    0.56    0.11
  -8   8   1    0.60    0.10
  -7  -8   1    0.17    0.08
   7  -8  -1    0.06    0.09
   7  -8  -1    0.21    0.11
   7   8  -1    0.10    0.09
  -7   8   1    0.15    0.08
   7   8  -1    0.20    0.08
   6  -8  -1    0.43    0.11
  -6  -8   1    0.50    0.09
   6  -8  -1    0.58    0.12
   6   8  -1    0.30    0.10
  -6   8   1    0.57    0.09
   6   8  -1    0.46    0.09
   5  -8  -1    0.10    0.10
  -5  -8   1    0.07    0.07
   5  -8  -1    0.00    0.08
   5   8  -1    0.02    0.08
  -5   8   1   -0.04    0.05
   5   8  -1    0.10    0.07
   4  -8  -1    0.75    0.11
  -4  -8   1    0.94    0.10
   4  -8  -1    0.83    0.13
  -4   8   1    0.76    0.09
   4   8  -1    0.83    0.10
   4   8  -1    0.73    0.12
  -3  -8   1    0.20    0.08
   3  -8  -1    0.36    0.11
   3  -8  -1    0.20    0.08
  -3   8   1    0.18    0.08
   3   8  -1    0.36    0.10
   2  -8  -1    0.11    0.07
  -2  -8   1    0.08    0.07
   2  -8  -1    0.02    0.10
  -2   8   1   -0.01    0.07
   2   8  -1    0.06    0.07
   1  -8  -1    2.08    0.19
  -1  -8   1    2.00    0.14
   1  -8  -1    2.12    0.14
   1   8  -1    1.89    0.14
  -1   8   1    1.91    0.14
   0  -8  -1    1.74    0.13
   0  -8   1    1.60    0.13
   0  -8  -1    2.17    0.20
   0  -8   1    1.94    0.18
   0   8  -1    1.84    0.14
   0   8   1    1.94    0.15
   1  -8   1   10.67    0.42
  -1  -8  -1   11.27    0.43
   1  -8   1   10.87    0.38
  -1  -8  -1   11.25    0.36
  -1   8  -1   10.97    0.36
   1   8   1   11.30    0.38
   2  -8   1   44.00    1.25
  -2  -8  -1   44.65    1.22
   2  -8   1   45.70    1.25
  -2   8  -1   46.43    1.14
   2   8   1   45.88    1.17
   3  -8   1    0.64    0.13
   3  -8   1    0.83    0.12
  -3  -8  -1    0.78    0.09
   3   8   1    0.73    0.09
   3   8   1    1.01    0.12
  -3   8  -1    0.88    0.10
   4  -8   1   19.97    0.63
   4  -8   1   19.75    0.64
  -4  -8  -1   19.04    0.58
   4   8   1   19.22    0.59
  -4   8  -1   20.21    0.55
   4   8   1   19.09    0.58
   5  -8   1    0.51    0.11
  -5  -8  -1    0.43    0.08
   5  -8   1    0.26    0.10
   5   8   1    0.42    0.10
   5   8   1    0.43    0.08
  -5   8  -1    0.46    0.08
  -6  -8  -1    1.35    0.12
   6  -8   1    1.37    0.15
   6  -8   1    1.29    0.16
   6   8   1    1.30    0.12
   6   8   1    1.32    0.14
   7  -8   1    8.73    0.38
   7  -8   1    9.72    0.39
   7   8   1    8.11    0.33
  -7   8  -1    8.46    0.32
   7   8   1    8.82    0.34
   8  -8   1    1.13    0.16
   8  -8   1    1.21    0.16
  -8   8  -1    0.97    0.12
   8   8   1    1.11    0.13
   8   8   1    1.08    0.13
   9  -8   1    0.74    0.15
   9  -8   1    0.55    0.14
   9   8   1    0.58    0.12
  -9   8  -1    0.64    0.12
   9   8   1    0.55    0.11
  10  -8   1    0.12    0.11
  10   8   1    0.29    0.10
 -10   8  -1    0.39    0.10
  10   8   1    0.19    0.10
  11  -8   1    1.96    0.19
  11   8   1    1.63    0.16
 -11   8  -1    1.53    0.15
  12  -8   1   -0.06    0.11
 -12   8  -1   -0.12    0.09
  12   8   1    0.07    0.10
  13  -8   1    0.41    0.15
 -13   8  -1    0.44    0.12
  13   8   1    0.24    0.11
  12  -9  -1    0.97    0.18
 -12   9   1    1.21    0.16
  12   9  -1    1.12    0.15
  11  -9  -1    0.64    0.16
  11   9  -1    0.46    0.12
 -11   9   1    0.56    0.11
  10  -9  -1    9.13    0.43
  10   9  -1    9.31    0.38
 -10   9   1    9.74    0.35
   9  -9  -1    0.16    0.13
   9  -9  -1    0.20    0.13
   9   9  -1    0.16    0.11
  -9   9   1    0.08    0.08
   8  -9  -1   -0.24    0.10
   8  -9  -1   -0.02    0.10
   8   9  -1    0.03    0.09
  -8   9   1    0.03    0.08
   8   9  -1    0.09    0.09
   7  -9  -1   13.00    0.49
  -7  -9   1   12.56    0.45
   7  -9  -1   12.02    0.49
   7   9  -1   12.81    0.45
   7   9  -1   11.92    0.45
  -7   9   1   13.12    0.41
   6  -9  -1   15.60    0.57
   6  -9  -1   15.82    0.55
  -6  -9   1   16.05    0.52
  -6   9   1   15.27    0.47
   6   9  -1   15.13    0.52
   6   9  -1   15.77    0.52
   5  -9  -1    0.50    0.11
   5  -9  -1    0.51    0.14
  -5  -9   1    0.66    0.10
   5   9  -1    0.62    0.10
   5   9  -1    0.58    0.12
  -5   9   1    0.50    0.10
   4  -9  -1    0.67    0.11
   4  -9  -1    0.48    0.13
  -4  -9   1    0.51    0.09
   4   9  -1    0.32    0.11
  -4   9   1    0.43    0.09
   4   9  -1    0.43    0.09
   3  -9  -1    4.95    0.23
   3  -9  -1    4.48    0.28
  -3  -9   1    4.55    0.22
  -3   9   1    4.59    0.21
   3   9  -1    4.42    0.23
   2  -9  -1    5.69    0.30
  -2  -9   1    6.07    0.26
   2  -9  -1    6.38    0.26
  -2   9   1    5.94    0.25
   2   9  -1    6.08    0.26
  -1  -9   1    0.14    0.07
   1  -9  -1   -0.01    0.10
   1  -9  -1    0.10    0.07
  -1   9   1    0.05    0.07
   1   9  -1    0.01    0.07
   0  -9  -1    4.52    0.27
   0  -9   1    4.79    0.27
   0  -9  -1    5.01    0.22
   0  -9   1    5.14    0.23
   0   9  -1    4.43    0.22
   0   9   1    4.76    0.23
  -1  -9  -1    2.74    0.16
   1  -9   1    3.25    0.18
   1  -9   1    3.05    0.23
   1   9   1    3.04    0.19
  -1   9  -1    3.06    0.18
  -2  -9  -1    2.90    0.17
   2  -9   1    2.73    0.18
   2  -9   1    2.72    0.21
  -2   9  -1    2.84    0.17
   2   9   1    2.83    0.19
  -3  -9  -1   14.56    0.47
   3  -9   1   15.58    0.54
   3  -9   1   14.46    0.50
  -3   9  -1   14.50    0.45
   3   9   1   13.97    0.47
   3   9   1   14.74    0.47
  -4  -9  -1    3.79    0.19
   4  -9   1    3.75    0.25
   4  -9   1    3.91    0.23
   4   9   1    3.45    0.22
  -4   9  -1    3.48    0.18
   4   9   1    3.81    0.20
  -5  -9  -1    8.69    0.32
   5  -9   1    8.42    0.37
   5  -9   1    8.07    0.37
  -5   9  -1    8.62    0.30
   5   9   1    8.68    0.33
   5   9   1    8.29    0.34
   6  -9   1    0.42    0.12
  -6  -9  -1    0.58    0.10
   6  -9   1    0.65    0.13
   6   9   1    0.54    0.09
   6   9   1    0.38    0.11
   7  -9   1    0.34    0.12
   7  -9   1    0.19    0.11
   7   9   1    0.29    0.09
   7   9   1   -0.04    0.10
  -7   9  -1    0.31    0.10
   8  -9   1   -0.05    0.11
   8  -9   1   -0.02    0.11
   8   9   1    0.03    0.09
  -8   9  -1   -0.01    0.08
   9  -9   1    9.31    0.42
  -9   9  -1    8.78    0.34
   9   9   1    8.86    0.37
  10  -9   1    0.02    0.12
  10   9   1   -0.05    0.10
 -10   9  -1    0.20    0.11
  11  -9   1    0.27    0.14
 -11   9  -1    0.11    0.10
  11   9   1    0.02    0.10
  12  -9   1    0.29    0.14
 -12   9  -1    0.05    0.10
  12   9   1    0.08    0.11
  11 -10  -1    0.07    0.14
  11  10  -1    0.05    0.12
 -11  10   1    0.09    0.10
  10 -10  -1    0.68    0.17
 -10  10   1    0.38    0.12
  10  10  -1    0.19    0.12
   9 -10  -1    0.56    0.16
  -9  10   1    0.38    0.11
   9  10  -1    0.19    0.11
   8 -10  -1    0.19    0.13
   8  10  -1    0.00    0.10
  -8  10   1    0.07    0.10
   7 -10  -1    3.12    0.27
  -7 -10   1    3.34    0.22
  -7  10   1    3.32    0.21
   7  10  -1    3.69    0.22
   7  10  -1    3.32    0.24
   6 -10  -1    1.92    0.20
  -6 -10   1    2.26    0.18
   6  10  -1    2.27    0.19
   6  10  -1    2.25    0.18
  -6  10   1    2.11    0.17
   5 -10  -1    3.38    0.25
  -5 -10   1    3.50    0.20
   5  10  -1    3.48    0.21
  -5  10   1    3.04    0.19
   5  10  -1    3.30    0.22
   4 -10  -1    1.87    0.19
  -4 -10   1    1.73    0.15
   4  10  -1    1.72    0.17
  -4  10   1    1.76    0.15
   4  10  -1    1.54    0.15
   3 -10  -1    1.03    0.17
  -3 -10   1    1.21    0.12
   3  10  -1    1.06    0.14
  -3  10   1    1.27    0.13
  -2 -10   1    9.54    0.35
   2 -10  -1    9.21    0.41
   2  10  -1    9.31    0.36
  -2  10   1    9.16    0.35
  -1 -10   1    2.46    0.17
   1 -10  -1    2.17    0.21
   1  10  -1    2.69    0.18
  -1  10   1    2.55    0.18
   0 -10  -1    2.13    0.21
   0 -10   1    2.47    0.22
   0 -10   1    2.23    0.17
   0  10   1    2.13    0.17
   0  10  -1    2.29    0.18
   1 -10   1    3.99    0.21
   1 -10   1    3.87    0.27
   1  10   1    3.99    0.22
  -1  10  -1    4.21    0.22
   2 -10   1    7.95    0.33
   2 -10   1    7.78    0.37
   2  10   1    7.44    0.32
  -2  10  -1    7.55    0.30
   3 -10   1    0.09    0.09
   3 -10   1    0.18    0.11
   3  10   1    0.12    0.10
  -3  10  -1    0.20    0.08
   4 -10   1    0.12    0.10
   4 -10   1    0.15    0.12
   4  10   1    0.25    0.11
  -4  10  -1    0.28    0.09
   5 -10   1    7.93    0.36
   5 -10   1    7.18    0.38
   5  10   1    7.79    0.34
  -5  10  -1    7.75    0.30
   6 -10   1    3.66    0.27
   6 -10   1    3.97    0.27
   6  10   1    4.34    0.26
   7 -10   1    5.12    0.33
   7  10   1    5.62    0.30
  -7  10  -1    5.51    0.27
   8 -10   1    3.26    0.26
   8  10   1    2.94    0.23
  -8  10  -1    3.50    0.23
   9 -10   1    0.35    0.14
   9  10   1    0.47    0.14
  -9  10  -1    0.60    0.12
  10 -10   1    1.57    0.21
 -10  10  -1    1.49    0.17
  10  10   1    1.72    0.19
  11 -10   1    0.99    0.18
 -11  10  -1    0.88    0.15
  11  10   1    0.80    0.15
   9 -11  -1    0.15    0.15
   9  11  -1    0.24    0.14
   8 -11  -1    0.99    0.20
   8  11  -1    1.01    0.16
   7 -11  -1    2.47    0.25
   7  11  -1    2.87    0.23
   6 -11  -1    1.24    0.20
   6  11  -1    1.70    0.18
   5 -11  -1    3.90    0.30
   5  11  -1    4.10    0.25
   4 -11  -1    0.94    0.17
  -4  11   1    1.10    0.13
   4  11  -1    1.15    0.15
   3 -11  -1    0.42    0.14
  -3  11   1    0.59    0.11
   3  11  -1    0.60    0.12
   2 -11  -1    0.17    0.12
  -2  11   1    0.04    0.09
   2  11  -1   -0.02    0.09
   1 -11  -1    0.80    0.16
   1  11  -1    0.62    0.12
  -1  11   1    0.65    0.12
   0  11  -1   17.36    0.56
   0  11   1   17.17    0.56
   1 -11   1    0.87    0.17
   1  11   1    1.07    0.14
  -1  11  -1    0.99    0.13
   2 -11   1    2.65    0.24
  -2  11  -1    2.63    0.19
   2  11   1    2.66    0.21
   3 -11   1    0.66    0.16
  -3  11  -1    0.55    0.11
   3  11   1    0.33    0.11
   4 -11   1    0.08    0.13
  -4  11  -1    0.05    0.08
   4  11   1    0.22    0.11
   5 -11   1    0.45    0.15
   5  11   1    0.71    0.14
   6 -11   1    4.07    0.30
   6  11   1    4.39    0.28
   7 -11   1    0.46    0.17
  -7  11  -1    0.51    0.13
   7  11   1    0.17    0.12
   8 -11   1    0.04    0.14
  -8  11  -1   -0.08    0.09
   8  11   1    0.02    0.11
   9 -11   1   -0.01    0.14
  -9  11  -1    0.16    0.11
   9  11   1    0.01    0.12
   7 -12  -1   -0.06    0.15
   7  12  -1    0.01    0.12
   6 -12  -1    0.35    0.16
   6  12  -1    0.31    0.13
   5 -12  -1    0.34    0.17
   5  12  -1    0.47    0.14
   4 -12  -1    0.85    0.18
   4  12  -1    1.14    0.17
   3 -12  -1    1.23    0.19
   3  12  -1    1.18    0.17
  -3  12   1    1.11    0.14
   2 -12  -1    0.12    0.14
  -2  12   1    0.08    0.10
   2  12  -1   -0.03    0.11
   1 -12  -1    1.19    0.19
  -1  12   1    1.55    0.17
   1  12  -1    1.58    0.17
   0  12  -1    4.00    0.24
   0  12   1    4.04    0.25
   1  12   1    1.02    0.15
  -1  12  -1    1.14    0.15
   2 -12   1    2.24    0.24
   2  12   1    2.24    0.21
  -2  12  -1    2.16    0.19
   3 -12   1    0.11    0.14
   3  12   1    0.13    0.11
  -3  12  -1    0.01    0.09
   4 -12   1    0.61    0.18
   4  12   1    0.45    0.14
   5 -12   1    1.64    0.22
   5  12   1    1.52    0.18
   6 -12   1   -0.02    0.15
   6  12   1    0.05    0.13
   7 -12   1    0.32    0.17
   7  12   1    0.38    0.14
   3 -13  -1    0.00    0.15
   3  13  -1    0.09    0.13
  -3  13   1    0.06    0.11
   2 -13  -1    0.14    0.15
   2  13  -1   -0.28    0.10
  -2  13   1   -0.02    0.10
   1  13  -1    1.30    0.18
  -1  13   1    1.00    0.16
   0  13  -1    1.05    0.16
   0  13   1    0.93    0.15
   1  13   1    0.03    0.12
  -1  13  -1   -0.09    0.11
  -2  13  -1    0.87    0.15
   2  13   1    0.96    0.16
   3 -13   1    0.41    0.18
  -3  13  -1    0.37    0.12
   3  13   1    0.38    0.14
  17   0  -2   -0.17    0.09
 -17   0   2   -0.13    0.08
 -16   0   2    0.65    0.13
  16   0  -2    0.63    0.13
 -15   0   2   -0.03    0.07
  15   0  -2   -0.02    0.08
 -14   0   2    3.11    0.19
  13   0  -2   -0.02    0.08
 -13   0   2   -0.12    0.06
  12   0  -2    0.13    0.08
 -12   0   2    0.07    0.06
  11   0  -2   -0.02    0.07
 -11   0   2    0.04    0.06
 -10   0   2   81.43    1.86
  10   0  -2   78.95    2.14
  -9   0   2    0.07    0.05
   9   0  -2   -0.07    0.04
   8   0  -2   15.38    0.36
   8   0  -2   13.65    0.45
  -8   0   2   14.16    0.39
   7   0  -2   -0.08    0.02
   7   0  -2   -0.04    0.04
  -7   0   2   -0.02    0.03
   6   0  -2   10.67    0.34
  -6   0   2   10.95    0.30
   6   0  -2   11.09    0.27
  -5   0   2   -0.01    0.02
   5   0  -2    0.03    0.01
   5   0  -2    0.02    0.03
  -5   0   2   -0.04    0.02
   4   0  -2   10.87    0.33
   4   0  -2   11.80    0.28
  -4   0   2   12.07    0.34
  -4   0   2   11.68    0.29
  -3   0   2    0.08    0.02
   3   0  -2    0.11    0.01
  -3   0   2    0.04    0.02
   3   0  -2    0.08    0.02
  -3   0   2    0.11    0.02
   2   0  -2   28.92    0.76
  -2   0   2   28.84    0.66
  -2   0   2   29.19    0.76
   2   0  -2   29.05    0.76
  -2   0   2   30.03    0.69
  -1   0   2    0.05    0.01
   1   0  -2    0.07    0.01
   0   0   2  268.76    6.78
   0   0  -2  315.53    7.72
   1   0   2    0.03    0.01
  -1   0  -2    0.05    0.01
   1   0   2    0.05    0.01
  -2   0  -2  139.24    3.06
   2   0   2  133.26    3.19
  -2   0  -2  143.01    3.50
   2   0   2  137.19    3.51
  -3   0  -2    0.09    0.02
  -3   0  -2    0.03    0.02
   3   0   2    0.00    0.02
   3   0   2    0.10    0.03
  -4   0  -2   57.13    1.45
  -4   0  -2   55.22    1.26
   4   0   2   56.25    1.30
   4   0   2   54.38    1.45
   5   0   2    0.03    0.02
  -5   0  -2   -0.03    0.02
  -5   0  -2   -0.01    0.03
   5   0   2    0.03    0.04
   6   0   2  132.26    3.01
  -6   0  -2  129.89    2.91
   6   0   2  128.40    3.34
   7   0   2    0.05    0.05
  -7   0  -2   -0.02    0.04
   7   0   2    0.02    0.03
   8   0   2    7.30    0.20
   8   0   2    6.83    0.27
  -8   0  -2    6.77    0.23
   9   0   2   -0.02    0.03
  -9   0  -2    0.08    0.05
   9   0   2   -0.03    0.06
 -10   0  -2    3.58    0.17
  10   0   2    3.36    0.20
 -11   0  -2   -0.08    0.06
  11   0   2   -0.04    0.07
  12   0   2   26.29    0.84
 -12   0  -2   26.90    0.72
 -13   0  -2    0.04    0.07
  14   0   2    0.56    0.12
 -14   0  -2    0.40    0.10
  15   0   2    0.05    0.09
 -15   0  -2   -0.01    0.09
  16   0   2    0.12    0.10
 -16   0  -2    0.07    0.09
  17   0   2   -0.12    0.10
  17  -1  -2    1.82    0.20
 -17  -1   2    1.93    0.18
 -17   1   2    1.83    0.17
  16  -1  -2    0.08    0.10
 -16  -1   2    0.07    0.09
 -16   1   2    0.10    0.10
 -15  -1   2    0.35    0.10
  15  -1  -2    0.39    0.11
 -15   1   2    0.28    0.10
  14  -1  -2    5.21    0.28
 -14  -1   2    5.33    0.25
 -14   1   2    5.31    0.25
 -13  -1   2    2.94    0.19
  13  -1  -2    3.08    0.21
  13  -1  -2    3.63    0.24
  13   1  -2    3.40    0.22
 -13   1   2    2.97    0.18
  12  -1  -2    3.55    0.22
 -12  -1   2    3.34    0.19
  12  -1  -2    3.31    0.20
  12   1  -2    3.42    0.22
 -12   1   2    3.91    0.19
  11  -1  -2    3.58    0.20
 -11  -1   2    3.68    0.18
  11  -1  -2    3.65    0.21
  11   1  -2    3.74    0.21
 -11   1   2    3.87    0.18
  10  -1  -2    1.05    0.11
 -10  -1   2    1.12    0.10
  10   1  -2    1.12    0.12
 -10   1   2    0.84    0.09
   9  -1  -2    0.28    0.07
  -9  -1   2    0.08    0.05
   9   1  -2   -0.01    0.05
  -9   1   2    0.08    0.05
   9   1  -2    0.11    0.04
  -8  -1   2    2.78    0.13
   8  -1  -2    2.79    0.15
   8   1  -2    2.76    0.15
  -8   1   2    3.00    0.13
   8   1  -2    2.94    0.11
  -7  -1   2    2.69    0.12
   7  -1  -2    2.26    0.13
   7   1  -2    2.47    0.13
   7   1  -2    2.60    0.10
  -7   1   2    2.54    0.12
  -6  -1   2    0.07    0.03
   6  -1  -2    0.03    0.04
   6   1  -2    0.04    0.04
   6   1  -2    0.06    0.02
   5  -1  -2   37.75    1.02
  -5  -1   2   38.81    1.02
  -5  -1   2   37.60    0.89
  -5   1   2   37.84    0.89
   5   1  -2   39.73    1.02
   5   1  -2   37.55    1.02
   5   1  -2   38.76    0.91
  -5   1   2   40.01    1.02
   4  -1  -2  112.54    2.90
  -4  -1   2  116.55    2.90
  -4  -1   2  111.62    2.54
   4  -1  -2  115.46    2.76
   4   1  -2  114.35    2.90
  -4   1   2  112.58    2.54
   4   1  -2  115.70    2.63
  -4   1   2  116.80    2.90
   4   1  -2  109.77    2.90
  -3  -1   2  155.44    3.47
   3  -1  -2  156.50    3.97
   3  -1  -2  156.90    3.77
  -3  -1   2  150.07    3.96
  -3  -1   2  159.15    3.97
   3   1  -2  158.11    3.61
   3   1  -2  153.95    3.97
  -3   1   2  156.51    3.72
  -3   1   2  163.14    3.97
   3   1  -2  155.60    3.96
  -3   1   2  158.52    3.47
  -2  -1   2   97.98    2.58
   2  -1  -2  100.34    2.45
   2  -1  -2  101.02    2.59
   2   1  -2  100.14    2.57
  -2   1   2  104.26    2.26
  -2   1   2  100.74    2.36
   2   1  -2  102.60    2.35
  -2   1   2  103.45    2.58
   2   1  -2  102.81    2.58
   1  -1  -2  108.78    2.62
   1  -1  -2  107.98    2.88
   1  -1  -2  109.65    2.46
  -1  -1   2  104.55    2.76
  -1  -1   2  107.93    2.51
  -1   1   2  112.51    2.87
   1   1  -2  109.61    2.51
  -1   1   2  110.53    2.48
   1   1  -2  105.53    2.75
   0  -1   2   79.31    2.10
   0  -1  -2   84.40    1.99
   0  -1   2   80.40    1.90
   0   1   2   85.84    1.91
   0   1  -2   81.26    2.10
   1  -1   2  256.11    6.03
   1  -1   2  228.68    5.75
  -1  -1  -2  236.60    6.40
   1  -1   2  250.90    6.27
  -1  -1  -2  240.54    5.60
   1   1   2  247.58    6.42
   1   1   2  257.37    5.76
   1   1   2  254.48    5.58
  -1   1  -2  257.08    6.34
  -2  -1  -2  210.03    4.72
  -2  -1  -2  211.71    5.33
   2  -1   2  215.61    5.34
   2  -1   2  209.38    4.90
   2  -1   2  185.48    5.05
   2   1   2  216.98    4.87
  -2   1  -2  227.16    5.33
   3  -1   2   10.80    0.26
  -3  -1  -2   10.76    0.30
  -3  -1  -2   10.42    0.26
   3  -1   2   10.18    0.31
   3   1   2   10.84    0.28
  -3   1  -2   10.19    0.27
  -3   1  -2   10.94    0.31
  -4  -1  -2  139.43    3.46
   4  -1   2  134.93    3.27
   4  -1   2  136.68    3.14
  -4  -1  -2  131.83    3.02
   4  -1   2  132.89    3.47
  -4   1  -2  141.86    3.47
   4   1   2  137.75    3.15
  -4   1  -2  133.25    3.03
   4   1   2  135.75    3.46
   5  -1   2    1.71    0.06
   5  -1   2    1.60    0.10
   5  -1   2    1.82    0.09
  -5  -1  -2    1.61    0.08
  -5   1  -2    1.61    0.09
   5   1   2    1.70    0.08
   6  -1   2    7.08    0.26
   6  -1   2    7.64    0.19
  -6  -1  -2    7.37    0.22
   6   1   2    7.47    0.21
   6   1   2    6.77    0.25
  -6   1  -2    7.28    0.23
  -7  -1  -2   12.86    0.36
   7  -1   2   13.32    0.33
   7  -1   2   12.89    0.42
   7   1   2   12.58    0.41
  -7   1  -2   12.95    0.36
   7   1   2   13.90    0.35
   8  -1   2    2.12    0.15
   8  -1   2    2.17    0.08
  -8  -1  -2    1.99    0.11
   8   1   2    1.98    0.13
   8   1   2    2.20    0.10
  -8   1  -2    2.01    0.12
   9  -1   2    2.66    0.15
   9  -1   2    2.62    0.17
  -9  -1  -2    2.58    0.14
  -9   1  -2    2.55    0.14
   9   1   2    2.75    0.16
   9   1   2    2.87    0.12
 -10  -1  -2    3.37    0.16
  10  -1   2    3.05    0.20
  10  -1   2    3.42    0.18
  10   1   2    3.16    0.19
 -10   1  -2    3.16    0.16
  11  -1   2    0.88    0.12
  11  -1   2    0.94    0.10
 -11  -1  -2    1.07    0.10
  11   1   2    0.83    0.12
 -11   1  -2    0.96    0.10
  12  -1   2    0.22    0.08
 -12  -1  -2    0.06    0.07
  12  -1   2    0.09    0.09
 -12   1  -2    0.14    0.07
  12   1   2    0.22    0.09
  13  -1   2    2.03    0.16
 -13  -1  -2    1.72    0.14
  13   1   2    2.01    0.18
 -13   1  -2    1.81    0.15
 -14  -1  -2    2.06    0.16
  14  -1   2    2.44    0.18
 -14   1  -2    2.17    0.17
 -15  -1  -2    0.21    0.10
  15  -1   2    0.20    0.10
 -15   1  -2    0.16    0.09
 -16  -1  -2    4.14    0.24
  16  -1   2    3.72    0.25
 -16   1  -2    3.93    0.24
  17  -1   2    2.04    0.20
  17   1   2    1.76    0.19
  17  -2  -2    0.20    0.12
  16  -2  -2   -0.09    0.09
 -16  -2   2   -0.01    0.09
 -16   2   2    0.06    0.09
 -15  -2   2    1.56    0.16
  15  -2  -2    1.50    0.17
 -15   2   2    1.40    0.14
 -14  -2   2    0.19    0.09
  14  -2  -2    0.08    0.10
 -14   2   2   -0.01    0.08
  13  -2  -2    8.83    0.36
  13  -2  -2    9.07    0.40
 -13  -2   2    8.47    0.32
 -13   2   2    9.06    0.33
  13   2  -2    8.75    0.38
 -12  -2   2   12.59    0.40
  12  -2  -2   13.18    0.48
  12  -2  -2   12.33    0.45
 -12   2   2   13.07    0.41
  12   2  -2   12.84    0.48
 -11  -2   2    3.53    0.18
  11  -2  -2    3.29    0.19
  11  -2  -2    3.31    0.21
  11   2  -2    3.33    0.20
 -11   2   2    3.20    0.17
  10  -2  -2    2.05    0.16
  10  -2  -2    2.33    0.15
 -10  -2   2    2.34    0.14
  10   2  -2    2.26    0.16
  10   2  -2    2.20    0.12
 -10   2   2    2.47    0.14
   9  -2  -2   12.03    0.43
  -9  -2   2   13.21    0.37
   9  -2  -2   12.63    0.41
   9   2  -2   13.59    0.35
   9   2  -2   12.19    0.43
  -9   2   2   12.59    0.37
   8  -2  -2    0.87    0.09
   8  -2  -2    0.45    0.08
  -8  -2   2    0.46    0.06
   8   2  -2    0.56    0.08
   8   2  -2    0.49    0.06
  -8   2   2    0.46    0.06
   7  -2  -2   54.63    1.38
   7  -2  -2   53.08    1.45
  -7  -2   2   55.07    1.27
   7   2  -2   54.68    1.29
  -7   2   2   55.45    1.27
   7   2  -2   53.60    1.45
   6  -2  -2   17.23    0.49
   6  -2  -2   17.06    0.50
  -6  -2   2   17.02    0.44
   6   2  -2   17.21    0.44
   6   2  -2   17.01    0.50
  -6   2   2   17.20    0.44
   5  -2  -2   14.60    0.43
  -5  -2   2   15.21    0.44
   5  -2  -2   14.79    0.42
   5   2  -2   14.79    0.43
   5   2  -2   14.77    0.38
  -5   2   2   15.40    0.43
   5   2  -2   14.49    0.43
  -5   2   2   14.42    0.37
   4  -2  -2   76.09    1.99
  -4  -2   2   75.14    1.98
  -4  -2   2   79.53    1.99
   4  -2  -2   75.34    1.89
  -4   2   2   79.58    1.98
  -4   2   2   79.65    1.80
   4   2  -2   76.64    1.80
  -4   2   2   76.08    1.73
   4   2  -2   75.95    1.99
   4   2  -2   77.58    1.98
  -3  -2   2   48.35    1.29
   3  -2  -2   48.41    1.23
   3  -2  -2   48.57    1.29
  -3   2   2   50.93    1.29
  -3   2   2   51.27    1.16
  -3   2   2   50.07    1.13
   3   2  -2   50.41    1.17
   3   2  -2   49.85    1.30
   3   2  -2   50.31    1.29
   2  -2  -2    0.09    0.03
   2  -2  -2    0.09    0.02
  -2  -2   2    0.08    0.03
  -2   2   2    0.09    0.02
  -2   2   2    0.11    0.02
   2   2  -2    0.08    0.02
   1  -2  -2   93.79    2.41
  -1  -2   2   90.90    2.39
   1   2  -2   93.69    2.39
  -1   2   2   95.25    2.18
   1   2  -2   94.43    2.18
  -1   2   2   95.62    2.41
   0  -2   2   25.86    0.66
   0  -2  -2   25.74    0.67
   0  -2  -2   25.97    0.69
   0  -2   2   25.21    0.70
   0   2   2   26.29    0.63
   0   2  -2   30.01    0.71
   0   2   2   25.88    0.69
   0   2  -2   26.04    0.63
   1  -2   2  352.37    8.18
  -1  -2  -2  312.04    8.72
  -1  -2  -2  354.55    8.25
   1  -2   2  356.79    8.73
   1  -2   2  322.67    7.84
   1   2   2  329.24    8.74
   1   2   2  345.13    8.73
  -1   2  -2  358.50    8.64
   1   2   2  356.04    7.91
  -1   2  -2  327.92    7.86
  -2  -2  -2   23.01    0.60
   2  -2   2   22.58    0.55
   2  -2   2   22.80    0.58
  -2  -2  -2   22.69    0.52
   2  -2   2   22.31    0.62
   2   2   2   22.65    0.60
  -2   2  -2   23.47    0.62
   2   2   2   22.68    0.56
   3  -2   2   37.22    0.89
  -3  -2  -2   36.57    0.86
  -3  -2  -2   38.30    0.99
   3  -2   2   36.95    0.94
   3  -2   2   37.32    1.01
   3   2   2   38.84    0.98
   3   2   2   37.12    0.99
   3   2   2   38.32    0.91
  -3   2  -2   38.45    1.01
  -3   2  -2   39.10    0.89
  -4  -2  -2    2.55    0.11
   4  -2   2    2.61    0.11
   4  -2   2    2.49    0.12
  -4  -2  -2    2.45    0.09
   4  -2   2    2.45    0.08
  -4   2  -2    2.56    0.12
  -4   2  -2    2.68    0.11
  -4   2  -2    2.52    0.08
   4   2   2    2.53    0.11
   4   2   2    2.67    0.11
  -5  -2  -2   71.68    1.63
   5  -2   2   70.57    1.89
   5  -2   2   73.97    1.78
   5  -2   2   71.70    1.67
  -5  -2  -2   74.59    1.87
   5   2   2   69.97    1.87
  -5   2  -2   71.44    1.64
   5   2   2   73.36    1.70
   6  -2   2    2.64    0.09
   6  -2   2    2.72    0.13
  -6  -2  -2    2.72    0.11
   6  -2   2    2.44    0.14
   6   2   2    2.61    0.11
  -6   2  -2    2.63    0.12
   6   2   2    2.73    0.13
   7  -2   2   43.44    0.99
  -7  -2  -2   42.13    1.00
   7  -2   2   40.52    1.16
   7  -2   2   42.72    1.09
  -7   2  -2   42.22    1.01
   7   2   2   42.03    1.15
   7   2   2   43.43    1.03
   8  -2   2    0.22    0.03
   8  -2   2    0.18    0.07
   8  -2   2    0.20    0.06
  -8   2  -2    0.18    0.05
   8   2   2    0.20    0.06
   8   2   2    0.15    0.05
   9  -2   2    1.09    0.10
   9  -2   2    0.99    0.11
  -9  -2  -2    1.16    0.10
   9   2   2    1.07    0.09
   9   2   2    0.90    0.10
  -9   2  -2    1.18    0.10
  10  -2   2    3.79    0.20
 -10  -2  -2    3.89    0.18
  10  -2   2    3.95    0.22
  10   2   2    3.74    0.21
  10   2   2    3.90    0.16
 -10   2  -2    3.94    0.18
  11  -2   2    7.09    0.28
 -11  -2  -2    6.25    0.25
  11  -2   2    6.71    0.32
 -11   2  -2    6.72    0.26
  11   2   2    6.85    0.30
  12  -2   2    1.42    0.16
  12  -2   2    1.52    0.15
 -12  -2  -2    1.15    0.12
  12   2   2    1.58    0.16
 -12   2  -2    1.21    0.12
  13  -2   2    1.54    0.15
 -13  -2  -2    1.55    0.14
 -13   2  -2    1.68    0.15
  14  -2   2    2.37    0.19
 -14  -2  -2    2.17    0.17
 -14   2  -2    2.10    0.17
 -15  -2  -2    0.30    0.11
  15  -2   2    0.27    0.11
 -15   2  -2    0.22    0.10
 -16  -2  -2    0.17    0.09
  16  -2   2    0.03    0.11
 -16   2  -2    0.32    0.11
  17  -3  -2    0.41    0.14
 -16  -3   2    0.08    0.10
  16  -3  -2    0.23    0.11
 -16   3   2    0.26    0.10
 -15  -3   2   -0.07    0.09
  15  -3  -2    0.15    0.10
 -15   3   2    0.10    0.10
 -14  -3   2    0.19    0.10
  14  -3  -2    0.31    0.12
 -14   3   2    0.17    0.09
 -13  -3   2    4.06    0.21
  13  -3  -2    3.56    0.24
  13  -3  -2    3.76    0.25
 -13   3   2    3.86    0.21
 -12  -3   2    8.62    0.32
  12  -3  -2    9.30    0.36
  12  -3  -2    9.00    0.39
  12   3  -2    8.98    0.38
 -12   3   2    8.57    0.32
  11  -3  -2   19.39    0.64
 -11  -3   2   19.83    0.55
  11  -3  -2   19.00    0.60
  11   3  -2   18.76    0.63
 -11   3   2   19.25    0.54
  11   3  -2   19.74    0.53
  10  -3  -2    0.34    0.08
 -10  -3   2    0.41    0.08
  10  -3  -2    0.47    0.10
 -10   3   2    0.31    0.07
  10   3  -2    0.39    0.09
  10   3  -2    0.27    0.07
   9  -3  -2   23.18    0.66
  -9  -3   2   22.10    0.59
   9  -3  -2   22.12    0.69
   9   3  -2   22.58    0.68
   9   3  -2   22.70    0.59
  -9   3   2   22.33    0.59
   8  -3  -2   78.05    2.06
  -8  -3   2   77.84    1.79
   8  -3  -2   78.41    1.96
   8   3  -2   77.79    1.85
   8   3  -2   76.32    2.06
  -8   3   2   79.31    1.80
  -7  -3   2   19.85    0.51
   7  -3  -2   19.75    0.57
   7  -3  -2   19.53    0.59
   7   3  -2   20.51    0.52
  -7   3   2   20.25    0.51
   7   3  -2   19.69    0.59
   6  -3  -2    5.24    0.21
   6  -3  -2    5.24    0.21
  -6   3   2    5.53    0.14
   6   3  -2    5.31    0.21
   6   3  -2    5.45    0.18
  -6   3   2    5.32    0.18
  -5  -3   2    2.75    0.13
   5  -3  -2    2.84    0.14
   5  -3  -2    2.82    0.13
  -5   3   2    2.87    0.13
  -5   3   2    2.97    0.09
   5   3  -2    2.85    0.13
   5   3  -2    2.93    0.12
  -5   3   2    2.97    0.12
  -4  -3   2    6.03    0.21
   4  -3  -2    6.12    0.21
   4  -3  -2    5.94    0.21
  -4   3   2    6.15    0.21
   4   3  -2    5.93    0.21
   4   3  -2    6.06    0.19
   4   3  -2    6.06    0.21
  -4   3   2    6.05    0.17
  -4   3   2    5.83    0.18
   3  -3  -2    6.21    0.21
  -3  -3   2    6.30    0.21
   3  -3  -2    6.13    0.21
  -3   3   2    6.45    0.20
   3   3  -2    6.47    0.21
  -3   3   2    6.21    0.18
  -3   3   2    6.22    0.18
   3   3  -2    6.43    0.19
  -2  -3   2   30.68    0.83
   2  -3  -2   30.87    0.82
  -2   3   2   31.23    0.82
   2   3  -2   31.78    0.83
   2   3  -2   31.34    0.76
   1  -3  -2    0.75    0.07
  -1  -3   2    0.71    0.06
   1   3  -2    0.66    0.05
   1   3  -2    0.72    0.07
  -1   3   2    0.80    0.05
  -1   3   2    0.80    0.05
   0  -3  -2    0.01    0.03
   0  -3   2   -0.01    0.03
   0  -3  -2    0.03    0.02
   0  -3   2   -0.01    0.03
   0   3  -2    0.01    0.03
   0   3  -2    0.02    0.02
   0   3   2    0.00    0.02
  -1  -3  -2   14.91    0.42
   1  -3   2   15.59    0.42
   1  -3   2   14.54    0.44
  -1  -3  -2   15.25    0.41
   1   3   2   15.24    0.40
  -1   3  -2   15.57    0.44
   1   3   2   15.29    0.41
  -1   3  -2   15.46    0.38
   2  -3   2   92.28    2.20
  -2  -3  -2   86.98    2.30
   2  -3   2   88.01    2.33
   2   3   2   90.25    2.12
  -2   3  -2   91.17    2.10
  -2   3  -2   93.36    2.33
   2   3   2   90.47    2.30
  -3  -3  -2    4.01    0.14
   3  -3   2    3.93    0.15
   3  -3   2    3.88    0.16
   3   3   2    3.68    0.13
   3   3   2    3.83    0.14
   3   3   2    3.81    0.13
  -3   3  -2    3.91    0.16
  -3   3  -2    3.22    0.11
  -4  -3  -2   45.95    1.16
   4  -3   2   44.39    1.11
  -4  -3  -2   42.58    1.01
   4  -3   2   43.04    1.18
  -4   3  -2   44.55    1.04
   4   3   2   43.38    1.07
   4   3   2   45.17    1.15
   4   3   2   43.02    1.16
   5  -3   2    2.73    0.13
   5  -3   2    2.46    0.14
  -5  -3  -2    2.75    0.11
   5   3   2    2.53    0.12
  -5   3  -2    2.57    0.09
  -5   3  -2    2.52    0.12
   5   3   2    2.50    0.12
   6  -3   2   30.68    0.80
   6  -3   2   29.48    0.86
  -6  -3  -2   30.47    0.73
  -6   3  -2   30.62    0.72
  -6   3  -2   30.17    0.74
   6   3   2   30.15    0.76
   6   3   2   29.46    0.83
  -7  -3  -2    2.87    0.13
   7  -3   2    2.95    0.17
   7  -3   2    2.98    0.15
  -7   3  -2    3.10    0.15
   7   3   2    2.94    0.15
   7   3   2    3.09    0.14
  -7   3  -2    3.18    0.10
  -8  -3  -2    0.70    0.07
   8  -3   2    0.65    0.10
   8  -3   2    0.69    0.08
   8   3   2    0.72    0.08
   8   3   2    0.68    0.09
  -8   3  -2    0.75    0.08
   9  -3   2   30.29    0.83
  -9  -3  -2   30.58    0.76
   9  -3   2   29.63    0.90
  -9   3  -2   30.09    0.77
   9   3   2   30.99    0.77
   9   3   2   29.39    0.87
  10  -3   2    2.01    0.16
  10  -3   2    2.11    0.18
 -10  -3  -2    1.96    0.13
  10   3   2    2.02    0.16
  10   3   2    2.06    0.13
 -10   3  -2    1.90    0.14
  11  -3   2    7.69    0.31
 -11  -3  -2    7.33    0.28
  11  -3   2    7.15    0.34
  11   3   2    7.47    0.33
 -11   3  -2    7.55    0.29
  11   3   2    7.60    0.27
  12  -3   2    3.02    0.23
  12  -3   2    3.09    0.19
 -12  -3  -2    2.89    0.17
  12   3   2    2.64    0.20
 -12   3  -2    3.12    0.19
  13  -3   2   -0.05    0.08
 -13  -3  -2   -0.01    0.08
 -13   3  -2   -0.09    0.08
 -14  -3  -2    1.51    0.15
  14  -3   2    1.56    0.17
 -14   3  -2    1.98    0.17
  15  -3   2    2.87    0.22
 -15  -3  -2    2.81    0.20
 -15   3  -2    2.79    0.20
 -16  -3  -2    1.19    0.15
  16  -3   2    0.97    0.16
 -16   3  -2    1.05    0.15
  16  -4  -2    1.77    0.20
 -16   4   2    1.79    0.18
  15  -4  -2    0.11    0.11
 -15   4   2    0.28    0.10
  14  -4  -2    0.10    0.10
 -14   4   2    0.01    0.09
  13  -4  -2    1.11    0.14
 -13   4   2    1.16    0.13
  12  -4  -2    5.69    0.30
  12  -4  -2    6.22    0.30
  12   4  -2    6.16    0.31
 -12   4   2    6.01    0.25
  11  -4  -2   10.62    0.40
  11  -4  -2   10.29    0.42
 -11   4   2   10.74    0.36
  11   4  -2   10.86    0.34
  11   4  -2   11.07    0.42
  10  -4  -2    0.13    0.08
  10  -4  -2    0.10    0.09
 -10   4   2    0.07    0.07
  10   4  -2    0.18    0.07
  10   4  -2    0.17    0.07
   9  -4  -2    1.60    0.15
   9  -4  -2    1.52    0.14
  -9   4   2    1.63    0.13
   9   4  -2    1.64    0.12
   9   4  -2    1.73    0.14
   8  -4  -2    4.30    0.20
   8  -4  -2    3.76    0.20
  -8   4   2    4.13    0.17
   8   4  -2    4.02    0.20
   8   4  -2    3.95    0.17
   7  -4  -2   28.95    0.81
   7  -4  -2   28.32    0.84
   7   4  -2   29.61    0.84
  -7   4   2   30.30    0.69
  -7   4   2   28.56    0.72
   7   4  -2   29.60    0.75
   6  -4  -2   69.97    1.75
   6  -4  -2   68.59    1.83
  -6  -4   2   66.71    1.82
  -6   4   2   68.36    1.59
   6   4  -2   67.39    1.82
  -6   4   2   71.78    1.62
   6   4  -2   72.19    1.66
  -5  -4   2   42.77    1.18
   5  -4  -2   43.54    1.15
   5  -4  -2   43.44    1.19
  -5   4   2   44.76    1.03
   5   4  -2   44.42    1.08
  -5   4   2   45.77    1.05
   5   4  -2   44.53    1.19
  -4  -4   2    1.76    0.10
   4  -4  -2    1.57    0.10
   4  -4  -2    1.73    0.11
  -4   4   2    1.70    0.10
   4   4  -2    1.73    0.10
   4   4  -2    1.53    0.10
  -4   4   2    1.65    0.08
  -4   4   2    1.77    0.09
  -3  -4   2    9.41    0.29
   3  -4  -2    8.82    0.30
   3  -4  -2    9.45    0.30
   3   4  -2    9.42    0.27
  -3   4   2    9.79    0.29
   2  -4  -2    9.74    0.30
   2  -4  -2    9.70    0.31
  -2  -4   2   10.15    0.31
   2   4  -2   10.01    0.29
   2   4  -2   10.52    0.32
  -2   4   2   10.11    0.28
  -2   4   2   10.07    0.30
   1  -4  -2    1.19    0.07
  -1  -4   2    1.08    0.07
   1  -4  -2    1.05    0.09
   1   4  -2    1.19    0.08
  -1   4   2    1.12    0.07
   1   4  -2    1.00    0.07
  -1   4   2    0.89    0.06
   0  -4   2   10.74    0.33
   0  -4  -2   10.75    0.31
   0  -4   2   10.41    0.33
   0  -4  -2   10.52    0.33
   0   4  -2   11.21    0.34
   0   4  -2   10.81    0.30
   0   4   2   10.84    0.30
   0   4   2   11.00    0.31
   1  -4   2    5.64    0.21
   1  -4   2    5.87    0.21
  -1  -4  -2    5.85    0.22
  -1  -4  -2    6.14    0.19
  -1   4  -2    6.15    0.18
  -1   4  -2    6.71    0.22
   1   4   2    5.90    0.19
   1   4   2    6.11    0.19
   2  -4   2   13.51    0.42
  -2  -4  -2   13.80    0.39
   2  -4   2   13.92    0.40
   2   4   2   13.75    0.38
  -2   4  -2   13.66    0.36
  -2   4  -2   14.02    0.42
   2   4   2   14.06    0.39
  -3  -4  -2    3.46    0.13
   3  -4   2    3.53    0.16
   3  -4   2    3.55    0.15
   3   4   2    3.52    0.14
   3   4   2    3.83    0.14
  -3   4  -2    2.68    0.11
   4  -4   2    1.87    0.13
   4  -4   2    2.00    0.12
   4   4   2    2.01    0.11
   4   4   2    2.04    0.10
   4   4   2    2.02    0.10
  -4   4  -2    2.13    0.09
   5  -4   2   17.27    0.49
   5  -4   2   16.62    0.52
   5   4   2   16.51    0.49
   5   4   2   16.52    0.46
  -5   4  -2   17.29    0.42
   6  -4   2   17.16    0.49
   6  -4   2   16.04    0.52
   6   4   2   15.92    0.45
  -6   4  -2   16.71    0.41
  -6   4  -2   16.23    0.45
   6   4   2   16.10    0.49
  -7  -4  -2    0.23    0.05
   7  -4   2    0.23    0.06
   7  -4   2    0.28    0.08
  -7   4  -2    0.29    0.04
   7   4   2    0.33    0.07
  -7   4  -2    0.35    0.07
   7   4   2    0.29    0.06
   8  -4   2    0.01    0.06
  -8  -4  -2    0.05    0.05
   8  -4   2   -0.06    0.07
   8   4   2    0.01    0.06
   8   4   2    0.09    0.05
  -8   4  -2    0.06    0.06
   9  -4   2    0.49    0.11
   9  -4   2    0.65    0.09
  -9  -4  -2    0.52    0.08
   9   4   2    0.60    0.09
  -9   4  -2    0.61    0.09
   9   4   2    0.59    0.10
 -10  -4  -2    0.98    0.10
  10  -4   2    0.91    0.14
  10  -4   2    1.08    0.13
  10   4   2    0.91    0.10
 -10   4  -2    1.01    0.11
  10   4   2    0.86    0.12
  11  -4   2    7.64    0.36
  11  -4   2    7.86    0.32
 -11  -4  -2    7.19    0.28
  11   4   2    7.45    0.33
  11   4   2    7.61    0.28
 -11   4  -2    7.43    0.29
  12  -4   2    0.18    0.09
 -12  -4  -2    0.01    0.07
  12   4   2    0.08    0.09
 -12   4  -2    0.06    0.08
  13  -4   2    0.27    0.10
 -13  -4  -2    0.15    0.09
 -13   4  -2    0.23    0.10
  14  -4   2    4.84    0.28
 -14  -4  -2    4.95    0.25
 -14   4  -2    5.31    0.26
  15  -4   2    1.39    0.17
 -15  -4  -2    1.19    0.14
 -15   4  -2    0.94    0.14
 -16  -4  -2    2.80    0.21
  16  -4   2    2.61    0.24
  16  -5  -2    0.02    0.12
 -16   5   2    0.08    0.10
  15  -5  -2    0.93    0.16
 -15   5   2    0.89    0.13
  14  -5  -2    0.23    0.11
 -14   5   2    0.40    0.10
  13  -5  -2    3.82    0.25
 -13   5   2    3.70    0.22
  12  -5  -2    4.22    0.27
  12  -5  -2    4.18    0.25
  12   5  -2    4.37    0.21
 -12   5   2    4.12    0.21
  12   5  -2    4.10    0.25
  11  -5  -2   10.27    0.42
  11  -5  -2   10.10    0.41
  11   5  -2   10.22    0.34
  11   5  -2   10.16    0.41
 -11   5   2   10.08    0.34
  10  -5  -2    4.08    0.24
  10  -5  -2    4.03    0.24
  10   5  -2    3.93    0.22
 -10   5   2    3.74    0.19
  10   5  -2    4.11    0.19
   9  -5  -2    6.48    0.29
   9  -5  -2    6.38    0.29
   9   5  -2    6.61    0.25
  -9   5   2    6.45    0.24
   9   5  -2    6.93    0.29
   8  -5  -2    0.06    0.08
   8  -5  -2    0.08    0.07
   8   5  -2   -0.02    0.06
   8   5  -2    0.07    0.06
  -8   5   2    0.11    0.06
   7  -5  -2    0.21    0.07
   7  -5  -2    0.16    0.08
  -7   5   2    0.18    0.06
   7   5  -2    0.16    0.06
   7   5  -2    0.15    0.06
  -6  -5   2    1.58    0.11
   6  -5  -2    1.64    0.13
   6  -5  -2    1.54    0.12
  -6   5   2    1.56    0.10
   6   5  -2    1.30    0.11
  -6   5   2    1.41    0.08
   6   5  -2    1.56    0.11
   5  -5  -2    1.59    0.12
   5  -5  -2    1.55    0.12
  -5  -5   2    1.70    0.11
   5   5  -2    1.55    0.11
  -5   5   2    1.55    0.10
  -5   5   2    1.50    0.09
   5   5  -2    1.61    0.11
   4  -5  -2    1.46    0.11
   4  -5  -2    1.45    0.12
  -4  -5   2    1.49    0.10
  -4   5   2    1.39    0.09
   4   5  -2    1.68    0.11
   4   5  -2    1.54    0.10
  -3  -5   2    2.16    0.11
   3  -5  -2    2.01    0.12
   3  -5  -2    2.10    0.14
  -3   5   2    2.24    0.10
   3   5  -2    2.07    0.11
  -3   5   2    2.17    0.12
   2  -5  -2    4.38    0.17
  -2  -5   2    4.08    0.17
   2  -5  -2    4.32    0.20
  -2   5   2    4.63    0.18
   2   5  -2    4.63    0.17
  -2   5   2    4.44    0.16
  -1  -5   2    7.41    0.27
  -1  -5   2    7.34    0.25
   1  -5  -2    7.51    0.24
   1  -5  -2    7.73    0.27
  -1   5   2    7.82    0.25
   1   5  -2    7.40    0.24
  -1   5   2    7.62    0.24
   0  -5   2   13.20    0.41
   0  -5  -2   13.91    0.42
   0  -5   2   13.64    0.42
   0  -5  -2   13.34    0.39
   0   5   2   13.28    0.38
   0   5   2   14.26    0.40
   0   5  -2   13.95    0.38
   1  -5   2    0.22    0.06
   1  -5   2    0.27    0.06
  -1  -5  -2    0.33    0.04
  -1  -5  -2    0.21    0.06
   1   5   2    0.33    0.06
  -1   5  -2    0.30    0.05
   1   5   2    0.29    0.05
   2  -5   2   21.59    0.61
  -2  -5  -2   21.55    0.59
   2  -5   2   20.92    0.63
   2   5   2   22.21    0.60
   2   5   2   21.68    0.58
  -2   5  -2   21.94    0.55
  -3  -5  -2  125.34    3.25
   3  -5   2  122.79    3.28
   3  -5   2  129.06    3.13
   3   5   2  128.84    3.00
   3   5   2  129.85    3.25
  -3   5  -2  128.96    2.96
  -4  -5  -2   38.22    1.04
   4  -5   2   40.95    1.04
   4  -5   2   37.95    1.08
   4   5   2   39.27    1.05
   4   5   2   39.33    0.98
   5  -5   2    4.94    0.22
   5  -5   2    4.31    0.20
   5   5   2    4.18    0.18
   5   5   2    4.33    0.18
  -5   5  -2    4.09    0.15
   6  -5   2   12.05    0.40
   6  -5   2   11.23    0.42
  -6   5  -2   11.93    0.36
  -6   5  -2   12.29    0.32
   6   5   2   11.93    0.39
   6   5   2   12.32    0.37
   7  -5   2   12.62    0.41
   7  -5   2   11.74    0.44
   7   5   2   12.18    0.40
  -7   5  -2   12.38    0.37
   7   5   2   12.52    0.38
   8  -5   2   54.28    1.39
   8  -5   2   52.72    1.47
   8   5   2   51.46    1.30
   8   5   2   51.28    1.43
  -8   5  -2   52.72    1.27
   9  -5   2   19.21    0.65
   9  -5   2   19.33    0.60
   9   5   2   19.30    0.55
  -9   5  -2   19.16    0.55
   9   5   2   19.06    0.61
  10  -5   2    0.07    0.11
  10  -5   2    0.10    0.08
  10   5   2    0.02    0.07
  10   5   2    0.05    0.08
 -10   5  -2    0.12    0.09
  11  -5   2    2.90    0.23
  11  -5   2    2.92    0.21
 -11   5  -2    3.01    0.19
  11   5   2    3.04    0.18
  11   5   2    3.09    0.20
  12  -5   2    1.27    0.15
 -12   5  -2    1.07    0.13
  12   5   2    1.12    0.14
  12   5   2    1.14    0.12
  13  -5   2    1.49    0.17
 -13   5  -2    1.56    0.15
  14  -5   2    2.64    0.23
 -14   5  -2    2.62    0.20
  15  -5   2    0.24    0.12
 -15   5  -2    0.24    0.12
  15  -6  -2   -0.10    0.10
 -15   6   2    0.06    0.10
  14  -6  -2    0.30    0.13
 -14   6   2    0.13    0.10
  13  -6  -2    0.01    0.10
 -13   6   2    0.12    0.09
  12  -6  -2    0.77    0.13
 -12   6   2    0.72    0.11
  12   6  -2    0.77    0.11
  11  -6  -2    0.01    0.10
  11  -6  -2    0.25    0.10
 -11   6   2    0.18    0.08
  11   6  -2    0.17    0.10
  11   6  -2    0.00    0.07
  10  -6  -2   22.75    0.72
  10  -6  -2   22.78    0.74
  10   6  -2   22.51    0.65
 -10   6   2   22.04    0.62
  10   6  -2   23.14    0.72
   9  -6  -2    1.41    0.15
   9  -6  -2    1.21    0.14
   9   6  -2    1.44    0.13
  -9   6   2    1.28    0.12
   9   6  -2    1.39    0.14
   8  -6  -2   14.66    0.50
   8  -6  -2   14.57    0.51
   8   6  -2   14.58    0.49
  -8   6   2   14.68    0.43
   8   6  -2   14.51    0.45
   7  -6  -2   -0.03    0.08
  -7  -6   2    0.03    0.06
   7  -6  -2    0.03    0.07
   7   6  -2    0.03    0.06
  -7   6   2   -0.01    0.05
   7   6  -2   -0.04    0.06
   6  -6  -2    0.24    0.08
  -6  -6   2    0.15    0.06
   6  -6  -2    0.17    0.08
   6   6  -2    0.12    0.07
  -6   6   2    0.25    0.06
  -6   6   2    0.17    0.05
   6   6  -2    0.22    0.07
   5  -6  -2   46.31    1.28
  -5  -6   2   46.51    1.27
   5  -6  -2   46.25    1.25
  -5   6   2   48.59    1.14
  -5   6   2   47.40    1.11
   5   6  -2   46.93    1.18
   5   6  -2   46.91    1.28
  -4  -6   2   30.30    0.86
   4  -6  -2   31.44    0.87
   4  -6  -2   30.49    0.86
   4   6  -2   30.77    0.87
   4   6  -2   31.66    0.81
  -3  -6   2   17.83    0.54
   3  -6  -2   18.03    0.56
   3  -6  -2   18.80    0.55
   3   6  -2   18.62    0.51
  -3   6   2   18.99    0.50
   2  -6  -2   12.20    0.40
   2  -6  -2   12.03    0.37
  -2  -6   2   11.70    0.37
   2   6  -2   11.64    0.36
  -2   6   2   11.92    0.35
   1  -6  -2   66.66    1.79
   1  -6  -2   69.27    1.77
  -1  -6   2   67.80    1.81
  -1   6   2   72.29    1.81
  -1   6   2   68.82    1.66
   1   6  -2   70.69    1.67
   0  -6  -2   54.33    1.44
   0  -6   2   53.31    1.46
   0  -6   2   54.67    1.42
   0  -6  -2   55.18    1.43
   0   6  -2   54.83    1.34
   0   6   2   57.54    1.45
   0   6   2   55.35    1.34
   1  -6   2   24.55    0.73
   1  -6   2   25.92    0.73
  -1  -6  -2   25.53    0.73
  -1  -6  -2   25.16    0.70
   1   6   2   25.46    0.68
  -1   6  -2   26.38    0.66
   1   6   2   26.37    0.71
   2  -6   2    1.07    0.11
  -2  -6  -2    0.92    0.08
   2  -6   2    1.09    0.11
   2   6   2    1.03    0.09
  -2   6  -2    0.94    0.09
   3  -6   2    0.90    0.10
   3  -6   2    0.67    0.10
  -3  -6  -2    0.73    0.07
   3   6   2    0.81    0.09
  -3   6  -2    0.71    0.07
  -4  -6  -2    0.02    0.05
   4  -6   2    0.03    0.07
   4  -6   2    0.05    0.08
   4   6   2   -0.07    0.05
   4   6   2    0.08    0.05
  -4   6  -2    0.00    0.04
   5  -6   2    1.04    0.12
   5  -6   2    1.01    0.12
  -5   6  -2    1.33    0.09
   5   6   2    0.96    0.09
   5   6   2    1.13    0.11
   6  -6   2    1.03    0.12
   6  -6   2    1.12    0.13
   6   6   2    1.00    0.10
  -6   6  -2    1.07    0.08
   6   6   2    0.93    0.10
   7  -6   2    4.50    0.26
   7  -6   2    4.66    0.24
   7   6   2    4.41    0.21
   7   6   2    4.66    0.21
  -7   6  -2    4.51    0.21
   8  -6   2   64.51    1.73
   8  -6   2   63.30    1.63
   8   6   2   59.40    1.53
  -8   6  -2   62.76    1.48
   8   6   2   58.73    1.66
   9  -6   2   -0.03    0.11
   9  -6   2    0.04    0.09
  -9   6  -2    0.13    0.09
   9   6   2    0.02    0.07
   9   6   2    0.10    0.08
  10  -6   2    1.10    0.14
  10  -6   2    0.92    0.16
  10   6   2    1.03    0.12
 -10   6  -2    1.02    0.12
  10   6   2    1.22    0.13
  11  -6   2    0.56    0.13
  11   6   2    0.89    0.13
 -11   6  -2    0.77    0.12
  11   6   2    0.74    0.11
  12  -6   2    0.69    0.14
  12   6   2    0.89    0.12
 -12   6  -2    0.67    0.12
  13  -6   2    0.95    0.16
 -13   6  -2    1.08    0.14
  14  -6   2    1.09    0.16
 -14   6  -2    1.47    0.17
  15  -6   2    1.16    0.18
  15  -7  -2    0.05    0.12
  14  -7  -2    0.26    0.13
 -14   7   2    0.36    0.12
  13  -7  -2    1.91    0.20
 -13   7   2    1.96    0.17
  12  -7  -2    0.92    0.16
 -12   7   2    0.76    0.12
  12   7  -2    0.81    0.12
  11  -7  -2    1.07    0.17
  11  -7  -2    1.30    0.17
  11   7  -2    1.14    0.13
 -11   7   2    1.25    0.13
  10  -7  -2    0.12    0.10
  10  -7  -2    0.21    0.11
  10   7  -2    0.20    0.09
  10   7  -2    0.15    0.08
 -10   7   2    0.22    0.08
   9  -7  -2    3.39    0.24
   9  -7  -2    3.20    0.23
   9   7  -2    3.07    0.19
   9   7  -2    3.00    0.20
  -9   7   2    3.03    0.18
   8  -7  -2    0.88    0.13
   8  -7  -2    1.09    0.14
   8   7  -2    0.94    0.11
   8   7  -2    1.04    0.13
  -8   7   2    1.02    0.10
  -7  -7   2    6.19    0.28
   7  -7  -2    6.46    0.30
   7  -7  -2    6.24    0.30
  -7   7   2    6.19    0.24
   7   7  -2    6.28    0.26
   7   7  -2    6.51    0.28
   6  -7  -2   23.53    0.72
  -6  -7   2   23.09    0.69
   6  -7  -2   23.27    0.72
  -6   7   2   23.73    0.61
   6   7  -2   22.75    0.66
   6   7  -2   23.40    0.70
  -6   7   2   23.36    0.61
   5  -7  -2    6.36    0.27
   5  -7  -2    5.93    0.28
  -5  -7   2    5.85    0.24
   5   7  -2    6.08    0.25
   5   7  -2    6.07    0.25
  -5   7   2    5.03    0.20
   4  -7  -2    3.99    0.22
   4  -7  -2    3.77    0.20
  -4  -7   2    4.18    0.19
   4   7  -2    4.33    0.20
  -4   7   2    3.92    0.17
   3  -7  -2   12.66    0.44
  -3  -7   2   12.59    0.41
   3  -7  -2   12.73    0.41
  -3   7   2   12.83    0.38
   3   7  -2   12.88    0.40
   2  -7  -2    0.02    0.08
   2  -7  -2    0.08    0.06
  -2  -7   2    0.03    0.06
   2   7  -2    0.04    0.06
  -2   7   2    0.07    0.06
   1  -7  -2    0.45    0.07
  -1  -7   2    0.36    0.07
   1  -7  -2    0.44    0.10
  -1   7   2    0.40    0.07
   1   7  -2    0.41    0.07
   0  -7  -2   11.94    0.42
   0  -7   2   11.04    0.40
   0  -7   2   11.54    0.39
   0  -7  -2   11.25    0.36
   0   7  -2   12.32    0.36
   0   7   2   12.07    0.37
   1  -7   2    0.33    0.08
  -1  -7  -2    0.52    0.11
  -1  -7  -2    0.37    0.06
   1  -7   2    0.43    0.10
  -1   7  -2    0.47    0.08
   1   7   2    0.38    0.08
  -2  -7  -2    0.15    0.06
   2  -7   2    0.10    0.08
   2  -7   2    0.26    0.10
  -2   7  -2    0.15    0.06
   2   7   2    0.07    0.06
   3  -7   2    9.79    0.37
  -3  -7  -2    9.72    0.32
   3  -7   2    9.95    0.37
   3   7   2    9.51    0.34
  -3   7  -2    9.84    0.31
   4  -7   2    1.42    0.14
   4  -7   2    1.20    0.13
  -4  -7  -2    1.11    0.11
  -4   7  -2    1.20    0.10
   4   7   2    1.11    0.10
   4   7   2    0.98    0.11
   5  -7   2    0.50    0.11
   5  -7   2    0.64    0.12
  -5  -7  -2    0.61    0.08
   5   7   2    0.52    0.10
   5   7   2    0.67    0.09
   6  -7   2   14.78    0.51
   6  -7   2   15.16    0.53
   6   7   2   15.19    0.48
   6   7   2   15.05    0.48
  -6   7  -2   15.55    0.42
   7  -7   2    2.31    0.19
   7  -7   2    2.19    0.18
   7   7   2    2.65    0.16
  -7   7  -2    2.59    0.17
   7   7   2    2.23    0.17
   8  -7   2   23.98    0.77
   8  -7   2   23.95    0.73
   8   7   2   23.31    0.68
   8   7   2   23.59    0.72
  -8   7  -2   23.55    0.65
   9  -7   2    1.45    0.15
   9  -7   2    1.53    0.18
   9   7   2    1.53    0.15
  -9   7  -2    1.54    0.14
   9   7   2    1.42    0.14
  10  -7   2    0.03    0.10
  10   7   2    0.07    0.08
 -10   7  -2   -0.03    0.08
  10   7   2    0.02    0.08
  11  -7   2    0.17    0.11
 -11   7  -2    0.07    0.09
  11   7   2   -0.02    0.09
  11   7   2   -0.04    0.08
  12  -7   2    0.55    0.14
  12   7   2    0.46    0.11
 -12   7  -2    0.58    0.12
  13  -7   2    0.43    0.13
 -13   7  -2    0.36    0.11
  14  -7   2    2.51    0.23
 -14   7  -2    2.53    0.21
  14  -8  -2    1.03    0.19
 -14   8   2    1.37    0.16
  13  -8  -2    2.39    0.24
 -13   8   2    2.50    0.19
  13   8  -2    2.47    0.20
  12  -8  -2    0.99    0.17
  12   8  -2    0.89    0.14
 -12   8   2    0.84    0.12
  11  -8  -2    0.69    0.15
  11   8  -2    0.88    0.13
 -11   8   2    0.86    0.13
  10  -8  -2    2.04    0.20
  10  -8  -2    2.06    0.21
  10   8  -2    1.80    0.17
 -10   8   2    2.16    0.16
   9  -8  -2    0.08    0.10
   9  -8  -2    0.05    0.11
   9   8  -2    0.18    0.09
  -9   8   2    0.15    0.08
   9   8  -2    0.10    0.08
   8  -8  -2    0.36    0.11
   8  -8  -2    0.50    0.12
   8   8  -2    0.21    0.10
  -8   8   2    0.26    0.09
   8   8  -2    0.33    0.10
   7  -8  -2    0.26    0.10
   7  -8  -2    0.18    0.10
  -7  -8   2    0.17    0.09
   7   8  -2    0.11    0.09
  -7   8   2    0.15    0.08
   7   8  -2    0.21    0.09
   6  -8  -2    3.49    0.23
  -6  -8   2    3.55    0.19
   6  -8  -2    3.24    0.20
   6   8  -2    3.01    0.19
  -6   8   2    2.99    0.16
   6   8  -2    2.96    0.18
   5  -8  -2    0.69    0.11
   5  -8  -2    0.57    0.12
  -5  -8   2    0.55    0.09
  -5   8   2    0.56    0.08
   5   8  -2    0.39    0.10
   5   8  -2    0.63    0.09
   4  -8  -2    3.67    0.20
   4  -8  -2    3.63    0.23
  -4  -8   2    3.70    0.19
   4   8  -2    3.60    0.21
  -4   8   2    3.60    0.18
  -3  -8   2   19.73    0.61
   3  -8  -2   20.22    0.61
   3  -8  -2   20.35    0.65
  -3   8   2   20.49    0.57
   3   8  -2   20.74    0.60
   2  -8  -2    0.73    0.13
  -2  -8   2    0.65    0.10
   2  -8  -2    0.75    0.09
  -2   8   2    0.63    0.09
   2   8  -2    0.78    0.10
   1  -8  -2   31.79    0.89
   1  -8  -2   31.85    0.93
  -1  -8   2   31.92    0.91
   1   8  -2   31.64    0.85
  -1   8   2   33.56    0.85
   0  -8   2    0.87    0.14
   0  -8  -2    0.85    0.13
   0  -8   2    0.84    0.11
   0  -8  -2    0.82    0.09
   0   8   2    0.77    0.10
   0   8  -2    0.69    0.09
  -1  -8  -2    5.01    0.27
   1  -8   2    4.58    0.23
   1  -8   2    4.60    0.26
  -1  -8  -2    4.98    0.21
   1   8   2    5.15    0.23
  -1   8  -2    4.70    0.21
   2  -8   2   10.55    0.38
  -2  -8  -2   10.75    0.35
   2  -8   2   10.54    0.41
   2   8   2   10.68    0.37
  -2   8  -2   10.67    0.35
   3  -8   2    2.14    0.18
  -3  -8  -2    1.74    0.12
   3  -8   2    2.10    0.16
  -3   8  -2    1.78    0.13
   3   8   2    1.78    0.15
  -4  -8  -2    0.37    0.08
   4  -8   2    0.35    0.11
   4  -8   2    0.58    0.11
  -4   8  -2    0.31    0.07
   4   8   2    0.20    0.09
   4   8   2    0.37    0.08
  -5  -8  -2    4.44    0.20
   5  -8   2    4.20    0.24
   5  -8   2    4.68    0.25
   5   8   2    4.46    0.21
  -5   8  -2    4.63    0.19
   5   8   2    4.21    0.23
   6  -8   2    0.49    0.11
   6  -8   2    0.31    0.10
   6   8   2    0.46    0.08
   6   8   2    0.35    0.10
   7  -8   2    2.44    0.21
   7  -8   2    1.79    0.18
   7   8   2    2.12    0.18
  -7   8  -2    2.16    0.16
   7   8   2    2.49    0.16
   8  -8   2    4.80    0.28
   8  -8   2    4.76    0.28
   8   8   2    4.52    0.23
  -8   8  -2    4.26    0.23
   8   8   2    4.80    0.25
   9  -8   2    0.18    0.11
   9   8   2    0.03    0.09
  -9   8  -2    0.02    0.08
   9   8   2    0.03    0.08
  10  -8   2    0.11    0.11
 -10   8  -2    0.08    0.09
  10   8   2   -0.12    0.08
  11  -8   2    2.63    0.23
  11   8   2    2.78    0.20
 -11   8  -2    2.91    0.20
  12  -8   2    0.00    0.12
  12   8   2    0.14    0.10
 -12   8  -2   -0.21    0.09
  13  -8   2    0.09    0.13
  13   8   2    0.09    0.11
 -13   8  -2    0.12    0.10
  13  -9  -2    0.39    0.16
  13   9  -2    0.33    0.13
 -13   9   2    0.30    0.11
  12  -9  -2    0.14    0.14
  12   9  -2   -0.17    0.09
 -12   9   2    0.02    0.09
  11  -9  -2    0.19    0.13
  11   9  -2   -0.03    0.10
 -11   9   2    0.08    0.10
  10  -9  -2    3.16    0.27
 -10   9   2    3.62    0.21
  10   9  -2    3.14    0.23
   9  -9  -2    0.82    0.15
   9  -9  -2    0.89    0.15
   9   9  -2    1.16    0.15
  -9   9   2    1.12    0.13
   8  -9  -2    4.38    0.28
   8  -9  -2    4.49    0.27
   8   9  -2    4.43    0.25
   8   9  -2    4.59    0.25
  -8   9   2    4.20    0.22
  -7  -9   2    2.34    0.18
   7  -9  -2    2.25    0.22
   7  -9  -2    2.40    0.20
   7   9  -2    2.21    0.18
   7   9  -2    2.27    0.18
  -7   9   2    2.04    0.16
   6  -9  -2    0.09    0.10
   6  -9  -2   -0.02    0.10
  -6  -9   2    0.10    0.09
   6   9  -2    0.06    0.09
   6   9  -2   -0.01    0.09
  -6   9   2    0.09    0.08
  -5  -9   2    7.51    0.30
   5  -9  -2    7.25    0.31
   5  -9  -2    7.16    0.35
  -5   9   2    6.89    0.27
   5   9  -2    7.47    0.31
   5   9  -2    7.32    0.31
  -4  -9   2    0.00    0.07
   4  -9  -2   -0.08    0.11
   4  -9  -2   -0.01    0.08
   4   9  -2   -0.21    0.07
  -4   9   2   -0.07    0.07
  -3  -9   2    3.04    0.18
   3  -9  -2    2.55    0.21
   3  -9  -2    2.61    0.17
   3   9  -2    2.50    0.19
  -3   9   2    2.76    0.17
  -2  -9   2    2.33    0.16
   2  -9  -2    1.98    0.20
   2  -9  -2    2.10    0.15
  -2   9   2    2.40    0.16
   2   9  -2    2.01    0.16
   1  -9  -2    4.29    0.26
   1  -9  -2    4.46    0.21
  -1  -9   2    4.35    0.22
  -1   9   2    4.32    0.22
   1   9  -2    4.21    0.22
   0  -9  -2   -0.08    0.10
   0  -9   2    0.01    0.07
   0  -9   2    0.12    0.10
   0  -9  -2   -0.01    0.06
   0   9   2   -0.19    0.08
   0   9  -2   -0.25    0.06
   1  -9   2    0.34    0.09
  -1  -9  -2    0.34    0.12
   1  -9   2    0.43    0.12
  -1  -9  -2    0.53    0.08
  -1   9  -2    0.36    0.09
   1   9   2    0.41    0.10
  -2  -9  -2    0.29    0.07
   2  -9   2    0.21    0.10
   2  -9   2    0.14    0.08
  -2   9  -2    0.12    0.07
   2   9   2    0.25    0.10
   3  -9   2    0.04    0.10
   3  -9   2   -0.10    0.07
  -3  -9  -2    0.05    0.06
   3   9   2   -0.07    0.08
   3   9   2   -0.02    0.03
  -3   9  -2    0.03    0.07
   4  -9   2    0.30    0.10
  -4  -9  -2    0.17    0.07
   4  -9   2    0.21    0.11
  -4   9  -2    0.08    0.07
   4   9   2    0.00    0.09
  -5  -9  -2    0.05    0.07
   5  -9   2    0.02    0.11
   5  -9   2    0.03    0.10
   5   9   2   -0.12    0.09
  -5   9  -2   -0.02    0.06
   6  -9   2    0.56    0.14
   6  -9   2    0.55    0.13
   6   9   2    0.41    0.12
   7  -9   2   -0.03    0.10
   7  -9   2    0.01    0.10
  -7   9  -2   -0.01    0.08
   7   9   2   -0.13    0.09
   8  -9   2    1.33    0.18
   8   9   2    1.25    0.15
  -8   9  -2    1.51    0.15
   9  -9   2    0.14    0.11
   9   9   2    0.09    0.10
  -9   9  -2    0.33    0.11
  10  -9   2    0.82    0.17
  10   9   2    0.57    0.13
 -10   9  -2    0.58    0.12
  11  -9   2    0.29    0.14
 -11   9  -2    0.33    0.11
  11   9   2    0.32    0.13
  12  -9   2    0.03    0.13
 -12   9  -2    0.12    0.10
  12   9   2    0.06    0.11
  11 -10  -2   -0.06    0.13
  11  10  -2    0.02    0.11
  10 -10  -2    2.08    0.22
  10  10  -2    1.95    0.20
   9 -10  -2    0.75    0.18
  -9  10   2    0.94    0.13
   9  10  -2    1.00    0.16
   8 -10  -2   -0.03    0.13
   8  10  -2    0.00    0.11
  -8  10   2    0.00    0.08
   7 -10  -2    0.06    0.12
  -7  10   2    0.14    0.09
   7  10  -2   -0.03    0.09
   6 -10  -2    0.83    0.16
  -6 -10   2    0.55    0.11
   6  10  -2    0.62    0.11
   6  10  -2    0.58    0.13
  -6  10   2    0.52    0.11
  -5 -10   2    4.07    0.22
   5 -10  -2    3.69    0.26
  -5  10   2    3.56    0.20
   5  10  -2    3.86    0.22
   5  10  -2    3.97    0.24
  -4 -10   2    3.38    0.20
   4 -10  -2    2.77    0.24
   4  10  -2    3.05    0.21
  -4  10   2    3.57    0.20
   4  10  -2    2.91    0.20
   3 -10  -2   10.26    0.45
  -3 -10   2   10.81    0.39
   3  10  -2    9.75    0.39
  -3  10   2   10.18    0.37
  -2 -10   2    5.02    0.24
   2 -10  -2    4.33    0.28
   2  10  -2    4.65    0.25
  -2  10   2    4.38    0.23
   1 -10  -2    0.49    0.13
  -1 -10   2    0.46    0.10
  -1  10   2    0.46    0.11
   1  10  -2    0.52    0.10
   0 -10   2    0.22    0.08
   0 -10  -2    0.01    0.11
   0  10  -2    0.06    0.08
   0  10   2   -0.03    0.08
   1 -10   2    0.98    0.13
   1 -10   2    0.60    0.15
   1  10   2    0.72    0.12
  -1  10  -2    0.71    0.11
   2 -10   2    1.37    0.18
   2 -10   2    1.18    0.13
  -2  10  -2    1.30    0.13
   2  10   2    0.89    0.13
   3 -10   2    0.21    0.10
   3 -10   2    0.10    0.12
  -3  10  -2    0.25    0.09
   3  10   2    0.29    0.11
   4 -10   2    2.37    0.19
   4 -10   2    2.38    0.22
  -4  10  -2    2.43    0.16
   4  10   2    2.18    0.19
   5 -10   2    3.10    0.23
   5 -10   2    2.27    0.22
  -5  10  -2    2.44    0.17
   5  10   2    2.56    0.20
   6 -10   2   13.31    0.54
   6  10   2   13.75    0.49
   7 -10   2    1.86    0.21
   7  10   2    2.17    0.20
  -7  10  -2    2.27    0.18
   8 -10   2    9.16    0.44
   8  10   2    8.80    0.39
  -8  10  -2    9.16    0.36
   9 -10   2    0.58    0.17
   9  10   2    0.56    0.14
  -9  10  -2    0.52    0.12
  10 -10   2   -0.09    0.11
  10  10   2   -0.03    0.10
 -10  10  -2    0.19    0.11
  11 -10   2    0.91    0.19
 -11  10  -2    0.86    0.14
  11  10   2    0.81    0.15
  10 -11  -2    0.43    0.17
  10  11  -2    0.29    0.14
   9 -11  -2    0.13    0.15
   9  11  -2    0.01    0.12
   8 -11  -2   -0.20    0.12
   8  11  -2    0.12    0.11
   7 -11  -2    0.00    0.12
   7  11  -2    0.03    0.11
   6 -11  -2    1.59    0.20
   6  11  -2    0.96    0.16
   5 -11  -2    0.17    0.13
   5  11  -2    0.17    0.10
   4 -11  -2    0.50    0.16
   4  11  -2    0.29    0.12
  -4  11   2    0.54    0.11
   3 -11  -2    0.06    0.13
  -3 -11   2    0.00    0.09
  -3  11   2   -0.06    0.08
   3  11  -2    0.12    0.10
  -2 -11   2    4.58    0.24
   2 -11  -2    4.04    0.29
   2  11  -2    4.24    0.24
  -2  11   2    4.40    0.23
  -1 -11   2    3.91    0.23
   1 -11  -2    3.77    0.29
  -1  11   2    3.79    0.23
   1  11  -2    3.72    0.23
   0 -11  -2    3.91    0.28
   0 -11   2    4.31    0.24
   0  11  -2    4.08    0.23
   0  11   2    3.92    0.24
   1 -11   2    1.95    0.18
   1 -11   2    2.09    0.22
   1  11   2    1.58    0.17
  -1  11  -2    1.73    0.16
   2 -11   2    0.06    0.12
   2 -11   2    0.23    0.11
   2  11   2    0.39    0.12
  -2  11  -2    0.16    0.09
   3 -11   2    1.04    0.15
   3 -11   2    1.11    0.17
   3  11   2    0.72    0.14
  -3  11  -2    1.14    0.13
   4 -11   2    0.05    0.13
   4  11   2    0.27    0.12
  -4  11  -2    0.03    0.08
   5 -11   2    8.26    0.42
   5  11   2    7.87    0.37
   6 -11   2    2.87    0.28
   6  11   2    3.56    0.25
   7 -11   2    1.26    0.20
  -7  11  -2    0.95    0.15
   7  11   2    1.10    0.17
   8 -11   2    2.85    0.28
   8  11   2    2.36    0.22
  -8  11  -2    2.53    0.21
   9 -11   2    2.16    0.24
   9  11   2    1.92    0.21
  -9  11  -2    2.34    0.20
   7 -12  -2    0.06    0.14
   7  12  -2    0.11    0.13
   6 -12  -2    0.01    0.15
   6  12  -2    0.06    0.11
   5 -12  -2    0.81    0.18
   5  12  -2    0.62    0.15
   4 -12  -2    0.07    0.15
   4  12  -2    0.09    0.11
   3 -12  -2    0.06    0.13
   3  12  -2   -0.15    0.10
  -3  12   2   -0.07    0.09
   2 -12  -2    1.35    0.20
  -2  12   2    1.32    0.15
   2  12  -2    1.36    0.17
   1 -12  -2    4.22    0.31
   1  12  -2    3.88    0.25
  -1  12   2    4.51    0.26
   0  12  -2    0.02    0.10
   0  12   2    0.00    0.10
  -1  12  -2    0.00    0.10
   1  12   2   -0.03    0.11
   2 -12   2    0.57    0.17
  -2  12  -2    0.74    0.12
   2  12   2    0.59    0.13
   3 -12   2   -0.15    0.13
  -3  12  -2   -0.11    0.08
   3  12   2   -0.03    0.10
   4 -12   2    2.02    0.23
   4  12   2    1.88    0.20
   5 -12   2   -0.13    0.14
   5  12   2   -0.22    0.10
   6 -12   2    0.04    0.14
   6  12   2    0.02    0.13
   7 -12   2    0.17    0.17
  -7  12  -2    0.18    0.13
   7  12   2    0.02    0.12
   3 -13  -2   -0.04    0.14
   3  13  -2   -0.12    0.10
  -3  13   2   -0.15    0.10
   2 -13  -2    0.23    0.17
  -2  13   2   -0.14    0.11
   2  13  -2   -0.11    0.11
  -1  13   2    2.14    0.20
   1  13  -2    1.96    0.20
   0  13   2    0.53    0.13
   0  13  -2    0.36    0.13
  -1  13  -2    3.53    0.25
   1  13   2    3.31    0.25
   2  13   2    1.56    0.19
  -2  13  -2    1.37    0.17
   3 -13   2    0.23    0.17
  -3  13  -2    0.24    0.12
   3  13   2    0.12    0.13
  17   0  -3    0.19    0.11
 -17   0   3    0.27    0.12
 -16   0   3    0.00    0.09
  16   0  -3    0.02    0.10
  15   0  -3    0.04    0.09
 -15   0   3    0.01    0.08
 -14   0   3    0.05    0.08
 -13   0   3    0.16    0.08
  13   0  -3    0.18    0.10
 -12   0   3   -0.09    0.06
  12   0  -3   -0.01    0.07
 -11   0   3    5.43    0.23
  11   0  -3    5.57    0.27
  10   0  -3   -0.03    0.06
 -10   0   3    0.01    0.05
  -9   0   3   32.62    0.79
   9   0  -3   31.12    0.91
  -8   0   3   -0.01    0.04
   8   0  -3    0.05    0.05
   8   0  -3    0.02    0.02
   7   0  -3   69.14    1.87
  -7   0   3   71.35    1.63
   7   0  -3   73.17    1.66
   6   0  -3    0.03    0.04
  -6   0   3   -0.01    0.03
  -5   0   3   29.99    0.71
   5   0  -3   31.31    0.72
  -5   0   3   30.83    0.82
   5   0  -3   29.51    0.82
   4   0  -3    0.05    0.02
  -4   0   3    0.01    0.02
   4   0  -3   -0.01    0.01
  -4   0   3   -0.01    0.01
  -4   0   3    0.02    0.02
  -3   0   3    0.81    0.04
  -3   0   3    0.85    0.05
   3   0  -3    0.72    0.05
  -3   0   3    0.84    0.04
   3   0  -3    0.80    0.05
   2   0  -3    0.09    0.02
  -2   0   3    0.07    0.01
  -2   0   3    0.07    0.02
   1   0  -3  173.27    4.39
  -1   0   3  167.05    3.92
   1   0   3    8.17    0.21
  -1   0  -3    8.27    0.23
   2   0   3    0.00    0.02
   2   0   3    0.03    0.03
  -2   0  -3    0.12    0.03
  -2   0  -3    0.03    0.02
   3   0   3   21.81    0.60
   3   0   3   22.38    0.54
  -3   0  -3   22.83    0.60
  -3   0  -3   22.11    0.53
  -4   0  -3    0.09    0.03
  -4   0  -3   -0.01    0.03
   4   0   3    0.02    0.03
   4   0   3    0.00    0.02
   5   0   3   39.87    1.07
  -5   0  -3   40.85    1.07
   5   0   3   39.41    0.94
  -5   0  -3   39.15    0.93
   6   0   3    0.15    0.04
   6   0   3    0.23    0.06
  -6   0  -3    0.02    0.04
   7   0   3   29.30    0.85
  -7   0  -3   29.79    0.73
   7   0   3   30.79    0.73
   8   0   3    0.29    0.08
  -8   0  -3    0.09    0.05
   8   0   3    0.06    0.03
   9   0   3   10.58    0.39
  -9   0  -3   10.87    0.33
   9   0   3   11.28    0.30
 -10   0  -3    0.00    0.05
  10   0   3    0.01    0.07
  11   0   3    0.94    0.13
 -11   0  -3    0.81    0.10
 -12   0  -3    0.05    0.08
  12   0   3    0.01    0.08
 -13   0  -3   -0.17    0.06
 -14   0  -3   -0.06    0.07
  14   0   3    0.01    0.08
 -15   0  -3    5.18    0.26
  15   0   3    5.34    0.28
  16   0   3   -0.02    0.10
 -16   0  -3   -0.02    0.09
  17  -1  -3    0.03    0.10
 -17  -1   3    0.28    0.10
 -17   1   3    0.13    0.10
 -16  -1   3    0.08    0.09
  16  -1  -3    0.15    0.11
 -16   1   3    0.16    0.10
  15  -1  -3    0.04    0.09
 -15  -1   3    0.02    0.08
 -15   1   3   -0.04    0.08
 -14  -1   3    0.71    0.11
  14  -1  -3    0.85    0.13
 -14   1   3    0.81    0.11
 -13  -1   3    2.38    0.16
  13  -1  -3    2.89    0.21
  13  -1  -3    2.52    0.19
 -13   1   3    2.64    0.17
  13   1  -3    2.78    0.21
  12  -1  -3    0.41    0.10
 -12  -1   3    0.53    0.09
  12  -1  -3    0.60    0.11
  12   1  -3    0.22    0.09
 -12   1   3    0.47    0.09
  11  -1  -3    0.72    0.11
 -11  -1   3    0.67    0.09
  11  -1  -3    0.66    0.10
  11   1  -3    0.54    0.10
 -11   1   3    0.44    0.08
 -10  -1   3   -0.03    0.05
  10  -1  -3   -0.03    0.06
  10   1  -3    0.02    0.06
 -10   1   3    0.03    0.05
  -9  -1   3    4.22    0.17
   9  -1  -3    3.85    0.19
  -9   1   3    4.13    0.18
   9   1  -3    3.82    0.19
   9   1  -3    4.30    0.14
  -8  -1   3    3.02    0.14
   8  -1  -3    3.03    0.16
   8   1  -3    3.01    0.11
  -8   1   3    2.89    0.13
   8   1  -3    2.89    0.16
  -7  -1   3   57.63    1.32
   7  -1  -3   56.28    1.51
  -7   1   3   57.78    1.32
   7   1  -3   57.59    1.34
   7   1  -3   56.16    1.51
  -6  -1   3    1.35    0.08
   6  -1  -3    1.18    0.08
   6   1  -3    1.35    0.09
   6   1  -3    1.34    0.06
  -6   1   3    1.27    0.08
  -5  -1   3    1.51    0.09
   5  -1  -3    1.44    0.04
  -5  -1   3    1.25    0.07
   5  -1  -3    1.33    0.08
  -5   1   3    1.53    0.05
   5   1  -3    1.39    0.08
  -5   1   3    1.54    0.08
  -5   1   3    1.36    0.07
   5   1  -3    1.45    0.06
   5   1  -3    1.48    0.09
  -4  -1   3   95.10    2.14
  -4  -1   3   98.34    2.45
   4  -1  -3   95.88    2.33
   4  -1  -3   92.93    2.44
  -4   1   3   95.73    2.14
  -4   1   3   96.82    2.44
   4   1  -3   96.67    2.22
  -4   1   3   96.36    2.23
   4   1  -3   96.27    2.44
   4   1  -3   93.54    2.45
   3  -1  -3   89.82    2.19
  -3  -1   3   94.17    2.31
  -3  -1   3   87.84    2.09
  -3  -1   3   87.66    2.30
   3  -1  -3   89.49    2.30
  -3   1   3   91.12    2.10
  -3   1   3   91.58    2.30
   3   1  -3   89.88    2.31
   3   1  -3   91.57    2.09
   3   1  -3   90.06    2.30
  -3   1   3   91.12    2.01
   2  -1  -3  544.75   12.97
   2  -1  -3  551.00   13.73
  -2  -1   3  552.76   12.45
  -2  -1   3  529.37   13.63
   2   1  -3  551.48   13.67
  -2   1   3  550.96   11.98
   2   1  -3  535.47   12.44
  -2   1   3  485.50   12.42
  -2   1   3  534.71   13.68
  -1  -1   3   83.12    2.10
  -1  -1   3   82.91    1.91
   1  -1  -3   80.59    2.19
   1  -1  -3   81.67    2.21
   1  -1  -3   82.60    1.99
   1  -1  -3   85.28    1.89
   1   1  -3   83.30    2.10
  -1   1   3   81.37    1.91
  -1   1   3   83.52    1.91
  -1   1   3   79.43    2.19
   0  -1  -3   48.90    1.17
   0  -1   3   46.85    1.23
   0  -1   3   48.13    1.12
   0   1  -3   47.30    1.23
   0   1   3   48.05    1.48
   0   1   3   47.95    1.12
   1  -1   3  310.73    7.59
   1  -1   3  314.18    7.96
  -1  -1  -3  306.56    8.00
  -1  -1  -3  315.76    7.54
   1  -1   3  289.99    7.22
  -1  -1  -3  306.84    7.01
   1   1   3  327.12    7.01
   1   1   3  315.22    7.22
  -1   1  -3  317.02    7.90
   1   1   3  312.75    8.05
   2  -1   3  961.62   23.21
  -2  -1  -3  872.96   20.25
  -2  -1  -3  903.37   23.17
   2  -1   3  918.23   22.01
   2  -1   3  824.30   21.04
   2   1   3  922.98   21.12
  -2   1  -3 1000.00   23.16
  -3  -1  -3   12.82    0.35
   3  -1   3   12.29    0.32
  -3  -1  -3   11.96    0.30
   3  -1   3   12.31    0.36
   3  -1   3   12.38    0.31
  -3   1  -3   12.55    0.36
  -3   1  -3   12.06    0.31
   3   1   3   12.17    0.35
   3   1   3   12.52    0.32
   4  -1   3    0.28    0.03
  -4  -1  -3    0.19    0.03
   4  -1   3    0.20    0.04
   4  -1   3    0.13    0.02
  -4  -1  -3    0.20    0.03
  -4   1  -3    0.23    0.04
   4   1   3    0.22    0.03
  -4   1  -3    0.21    0.04
  -5  -1  -3   32.29    0.77
   5  -1   3   32.74    0.78
   5  -1   3   31.92    0.89
  -5  -1  -3   33.78    0.88
  -5   1  -3   32.31    0.78
   5   1   3   31.42    0.88
   5   1   3   34.29    0.79
   6  -1   3   91.06    2.46
   6  -1   3   97.90    2.32
  -6  -1  -3   93.07    2.14
   6  -1   3   95.53    2.20
   6   1   3   93.41    2.46
   6   1   3   98.26    2.22
  -6   1  -3   95.53    2.15
   7  -1   3    2.19    0.14
   7  -1   3    2.29    0.12
  -7  -1  -3    2.70    0.12
   7  -1   3    2.38    0.09
   7   1   3    2.21    0.13
  -7   1  -3    2.25    0.12
   8  -1   3    6.84    0.24
   8  -1   3    6.16    0.27
   8  -1   3    6.95    0.19
  -8  -1  -3    6.71    0.22
   8   1   3    6.45    0.26
   8   1   3    7.10    0.21
  -8   1  -3    6.38    0.23
   9  -1   3    3.70    0.18
   9  -1   3    3.40    0.20
  -9  -1  -3    3.70    0.16
   9   1   3    3.72    0.20
   9   1   3    3.91    0.15
  -9   1  -3    3.70    0.17
  10  -1   3    6.17    0.25
 -10  -1  -3    6.00    0.23
  10  -1   3    6.03    0.28
  10   1   3    6.59    0.21
 -10   1  -3    6.01    0.23
  10   1   3    6.11    0.28
  11  -1   3    9.23    0.38
  11  -1   3    9.58    0.34
 -11  -1  -3    8.90    0.31
 -11   1  -3    8.68    0.31
  11   1   3    8.76    0.36
  12  -1   3    5.85    0.26
 -12  -1  -3    5.95    0.24
  12  -1   3    5.47    0.29
  12   1   3    5.53    0.29
 -12   1  -3    5.39    0.24
 -13  -1  -3    1.58    0.14
  13  -1   3    1.96    0.16
 -13   1  -3    1.67    0.15
 -14  -1  -3    0.18    0.09
  14  -1   3    0.05    0.08
 -14   1  -3    0.11    0.09
 -15  -1  -3    0.38    0.11
  15  -1   3    0.54    0.12
 -15   1  -3    0.44    0.11
 -16  -1  -3    0.92    0.14
 -16   1  -3    0.96    0.15
  17  -2  -3    2.98    0.24
  16  -2  -3   -0.09    0.10
 -16  -2   3    0.09    0.09
 -16   2   3    0.08    0.09
  15  -2  -3    3.46    0.23
 -15  -2   3    3.62    0.22
 -15   2   3    3.63    0.21
  14  -2  -3   12.19    0.46
 -14  -2   3   12.22    0.42
 -14   2   3   12.81    0.42
  13  -2  -3    2.01    0.18
  13  -2  -3    2.16    0.19
 -13  -2   3    2.50    0.17
 -13   2   3    2.35    0.16
  13   2  -3    2.57    0.20
 -12  -2   3   30.49    0.82
  12  -2  -3   31.91    0.92
  12  -2  -3   33.04    0.97
 -12   2   3   31.34    0.82
  12   2  -3   32.21    0.97
 -11  -2   3    1.07    0.11
  11  -2  -3    1.42    0.13
  11  -2  -3    1.22    0.13
 -11   2   3    1.02    0.11
  11   2  -3    1.33    0.14
  10  -2  -3    0.24    0.07
 -10  -2   3    0.32    0.07
  10  -2  -3    0.35    0.08
  10   2  -3    0.25    0.06
 -10   2   3    0.49    0.07
  10   2  -3    0.31    0.08
   9  -2  -3    0.74    0.09
   9  -2  -3    0.64    0.09
  -9  -2   3    0.61    0.07
  -9   2   3    0.82    0.08
   9   2  -3    0.72    0.09
   9   2  -3    0.82    0.07
  -8  -2   3   29.55    0.73
   8  -2  -3   29.28    0.84
   8  -2  -3   29.96    0.81
   8   2  -3   30.02    0.73
   8   2  -3   28.99    0.84
  -8   2   3   29.84    0.73
   7  -2  -3    1.11    0.10
  -7  -2   3    1.06    0.09
   7  -2  -3    1.05    0.10
  -7   2   3    1.23    0.09
   7   2  -3    0.98    0.07
   7   2  -3    1.14    0.10
   6  -2  -3   21.20    0.61
   6  -2  -3   20.93    0.58
  -6  -2   3   21.15    0.53
   6   2  -3   20.57    0.61
  -6   2   3   21.58    0.53
   6   2  -3   21.82    0.53
   5  -2  -3    1.63    0.09
   5  -2  -3    1.71    0.10
   5   2  -3    1.77    0.08
   5   2  -3    1.60    0.10
  -5   2   3    1.77    0.10
  -5   2   3    1.72    0.05
  -5   2   3    1.74    0.08
   4  -2  -3   15.87    0.45
   4  -2  -3   15.66    0.44
  -4  -2   3   15.48    0.45
  -4   2   3   16.07    0.39
   4   2  -3   15.67    0.46
   4   2  -3   16.56    0.45
  -4   2   3   15.71    0.38
  -4   2   3   16.78    0.45
   4   2  -3   15.71    0.40
   3  -2  -3   84.39    2.12
  -3  -2   3   86.26    2.23
   3  -2  -3   84.94    2.23
   3   2  -3   86.94    2.24
  -3   2   3   86.91    2.02
  -3   2   3   90.55    2.22
  -3   2   3   88.69    1.94
   3   2  -3   88.62    2.23
   3   2  -3   87.59    2.03
   2  -2  -3   75.79    1.97
  -2  -2   3   75.02    1.97
  -2   2   3   78.55    1.97
   2   2  -3   78.29    1.98
  -2   2   3   77.60    1.72
   2   2  -3   77.73    1.80
   1  -2  -3  207.92    5.42
  -1  -2   3  201.53    5.23
  -1  -2   3  204.93    4.77
   1  -2  -3  207.51    4.97
   1   2  -3  206.04    5.23
  -1   2   3  208.48    4.77
   1   2  -3  205.64    4.77
  -1   2   3  209.91    4.67
  -1   2   3  213.39    5.42
   0  -2  -3  101.64    2.79
   0  -2   3  100.73    2.64
   0  -2  -3  105.51    2.51
   0  -2   3  101.27    2.40
   0   2   3  106.51    2.40
   0   2   3  105.18    2.78
   0   2  -3  104.16    2.40
   0   2  -3  103.98    2.64
   1  -2   3   51.18    1.37
   1  -2   3   50.99    1.23
  -1  -2  -3   51.95    1.29
  -1  -2  -3   54.45    1.35
  -1   2  -3   53.86    1.23
   1   2   3   52.89    1.18
  -1   2  -3   54.05    1.37
   1   2   3   52.54    1.24
   1   2   3   52.15    1.36
   1   2   3   52.45    1.35
   2  -2   3    0.08    0.02
   2  -2   3    0.01    0.04
  -2  -2  -3    0.02    0.01
   2  -2   3    0.00    0.02
  -2  -2  -3    0.02    0.02
   2   2   3    0.00    0.02
   2   2   3    0.05    0.02
   2   2   3    0.02    0.02
  -2   2  -3    0.00    0.03
  -3  -2  -3    8.27    0.25
   3  -2   3    8.34    0.22
  -3  -2  -3    8.16    0.21
   3   2   3    8.46    0.24
  -3   2  -3    8.58    0.27
  -4  -2  -3    1.41    0.07
   4  -2   3    1.36    0.10
  -4  -2  -3    1.50    0.08
   4  -2   3    1.53    0.06
  -4   2  -3    1.59    0.10
   4   2   3    1.66    0.09
   4   2   3    1.59    0.08
  -4   2  -3    1.49    0.09
   5  -2   3    0.13    0.05
   5  -2   3    0.15    0.04
  -5  -2  -3    0.10    0.03
   5   2   3    0.34    0.05
  -5   2  -3    0.12    0.04
   5   2   3    0.24    0.05
   6  -2   3    0.27    0.06
   6  -2   3    0.44    0.04
  -6  -2  -3    0.28    0.05
   6  -2   3    0.26    0.05
   6   2   3    0.23    0.05
  -6   2  -3    0.15    0.05
   6   2   3    0.30    0.05
  -7  -2  -3    1.34    0.09
   7  -2   3    1.39    0.12
   7  -2   3    1.43    0.07
   7  -2   3    1.85    0.11
   7   2   3    1.44    0.11
   7   2   3    1.71    0.10
  -7   2  -3    1.36    0.10
   8  -2   3   10.67    0.40
  -8  -2  -3   11.60    0.33
   8  -2   3   11.82    0.29
   8  -2   3   11.53    0.36
   8   2   3   12.06    0.33
  -8   2  -3   11.36    0.34
   8   2   3   10.91    0.38
   9  -2   3    1.03    0.10
  -9  -2  -3    0.84    0.08
   9  -2   3    1.03    0.12
   9   2   3    0.92    0.11
   9   2   3    1.01    0.09
  -9   2  -3    0.86    0.09
  10  -2   3   33.92    0.91
 -10  -2  -3   33.29    0.84
  10  -2   3   32.83    0.99
  10   2   3   36.23    0.85
  10   2   3   31.80    0.97
 -10   2  -3   32.82    0.85
  11  -2   3    0.26    0.10
 -11  -2  -3    0.19    0.07
  11  -2   3    0.22    0.08
 -11   2  -3    0.25    0.08
  11   2   3    0.18    0.09
  12  -2   3   10.83    0.44
  12  -2   3   10.70    0.39
 -12  -2  -3   10.12    0.35
 -12   2  -3    9.99    0.36
  12   2   3   10.52    0.42
  13  -2   3    0.17    0.09
 -13  -2  -3    0.25    0.09
 -13   2  -3    0.11    0.08
 -14  -2  -3   -0.05    0.08
  14  -2   3    0.01    0.08
 -14   2  -3    0.10    0.09
 -15  -2  -3    0.24    0.11
  15  -2   3    0.22    0.11
 -15   2  -3    0.25    0.10
 -16  -2  -3   -0.03    0.10
 -16   2  -3    0.03    0.10
  17  -3  -3    1.41    0.18
  16  -3  -3    0.19    0.11
 -16  -3   3   -0.06    0.09
 -16   3   3    0.04    0.09
 -15  -3   3    0.52    0.12
  15  -3  -3    0.52    0.13
 -15   3   3    0.35    0.10
  14  -3  -3    1.14    0.15
 -14  -3   3    1.14    0.14
 -14   3   3    1.30    0.14
  13  -3  -3    0.03    0.09
  13  -3  -3   -0.04    0.09
 -13  -3   3   -0.01    0.08
 -13   3   3   -0.11    0.08
  12  -3  -3   44.68    1.27
 -12  -3   3   42.53    1.09
  12  -3  -3   43.00    1.20
  12   3  -3   44.35    1.27
 -12   3   3   43.95    1.09
  11  -3  -3    9.58    0.37
 -11  -3   3    9.57    0.33
  11  -3  -3    9.77    0.39
 -11   3   3    9.72    0.33
  11   3  -3    9.95    0.31
  11   3  -3    9.93    0.39
  10  -3  -3   20.35    0.63
  10  -3  -3   20.43    0.65
 -10  -3   3   20.99    0.56
 -10   3   3   20.63    0.56
  10   3  -3   20.83    0.55
  10   3  -3   20.78    0.65
   9  -3  -3    9.89    0.36
  -9  -3   3   10.32    0.32
   9  -3  -3   10.39    0.37
   9   3  -3   10.34    0.31
   9   3  -3   10.40    0.37
  -9   3   3    9.74    0.31
   8  -3  -3    0.01    0.05
   8  -3  -3    0.10    0.06
   8   3  -3    0.23    0.07
  -8   3   3    0.30    0.06
   8   3  -3   -0.04    0.05
   7  -3  -3    8.14    0.30
   7  -3  -3    8.24    0.30
   7   3  -3    8.72    0.26
   7   3  -3    8.96    0.31
  -7   3   3    8.72    0.26
   6  -3  -3   58.64    1.51
   6  -3  -3   58.67    1.57
  -6   3   3   60.13    1.37
   6   3  -3   58.34    1.58
  -6   3   3   60.66    1.39
   6   3  -3   60.45    1.42
   5  -3  -3   36.92    1.03
   5  -3  -3   37.65    1.00
  -5  -3   3   38.03    1.03
  -5   3   3   38.12    0.90
  -5   3   3   40.40    1.03
   5   3  -3   38.66    0.93
  -5   3   3   39.23    0.90
   5   3  -3   38.38    1.04
  -4  -3   3   13.03    0.38
   4  -3  -3   12.19    0.37
   4  -3  -3   12.11    0.37
   4   3  -3   12.38    0.34
   4   3  -3   12.94    0.38
  -4   3   3   12.44    0.32
  -4   3   3   12.80    0.37
  -4   3   3   12.35    0.32
   3  -3  -3   10.96    0.32
   3  -3  -3   10.78    0.33
  -3  -3   3   11.21    0.33
   3   3  -3   11.18    0.30
  -3   3   3   11.45    0.32
  -3   3   3   10.98    0.28
  -3   3   3   11.33    0.29
   3   3  -3   11.43    0.34
   2  -3  -3    1.60    0.07
   2  -3  -3    1.30    0.08
  -2  -3   3    1.28    0.08
  -2   3   3    1.40    0.07
   2   3  -3    1.28    0.08
  -2   3   3    1.35    0.07
   2   3  -3    1.37    0.07
  -1  -3   3  132.80    3.50
   1  -3  -3  137.32    3.51
   1  -3  -3  136.28    3.33
  -1   3   3  143.10    3.50
  -1   3   3  136.43    3.19
   1   3  -3  136.85    3.19
   1   3  -3  142.07    3.51
   0  -3  -3    8.59    0.27
   0  -3   3    8.43    0.26
   0  -3   3    8.14    0.27
   0  -3  -3    8.45    0.24
   0   3  -3    9.12    0.28
   0   3   3    9.62    0.25
   0   3  -3    8.76    0.24
   0   3   3    8.69    0.25
   1  -3   3    1.19    0.07
   1  -3   3    1.17    0.08
   1  -3   3    1.29    0.08
  -1  -3  -3    1.15    0.09
  -1  -3  -3    1.19    0.05
  -1   3  -3    1.17    0.06
   1   3   3    1.32    0.06
   1   3   3    1.27    0.06
   1   3   3    1.18    0.07
  -1   3  -3    1.28    0.09
   2  -3   3   20.42    0.59
   2  -3   3   20.79    0.54
   2  -3   3   20.28    0.51
   2   3   3   20.52    0.52
   2   3   3   20.13    0.55
  -2   3  -3   21.33    0.59
   2   3   3   20.68    0.55
  -2   3  -3   20.48    0.51
   3  -3   3   15.11    0.39
  -3  -3  -3   15.49    0.43
   3  -3   3   15.15    0.46
   3  -3   3   15.38    0.42
   3   3   3   15.21    0.41
  -3   3  -3   15.82    0.46
   3   3   3   15.12    0.42
  -4  -3  -3    3.76    0.14
  -4  -3  -3    3.58    0.12
   4  -3   3    3.63    0.12
   4  -3   3    3.66    0.17
   4  -3   3    3.61    0.15
   4   3   3    3.59    0.14
   4   3   3    3.75    0.14
  -4   3  -3    3.68    0.12
   4   3   3    3.67    0.14
   5  -3   3    7.76    0.21
   5  -3   3    7.48    0.28
   5  -3   3    7.84    0.25
  -5  -3  -3    8.35    0.26
  -5  -3  -3    7.48    0.22
   5   3   3    7.82    0.25
  -5   3  -3    7.49    0.24
   5   3   3    8.15    0.26
   5   3   3    7.66    0.26
  -5   3  -3    7.87    0.21
   6  -3   3    7.90    0.30
  -6  -3  -3    8.12    0.24
   6  -3   3    8.90    0.28
   6  -3   3    8.08    0.22
  -6   3  -3    8.34    0.22
  -6   3  -3    8.15    0.26
   6   3   3    7.79    0.28
   6   3   3    8.52    0.26
   7  -3   3   17.97    0.51
  -7  -3  -3   17.85    0.46
   7  -3   3   17.57    0.44
   7  -3   3   17.44    0.56
   7   3   3   17.82    0.48
   7   3   3   16.76    0.53
  -7   3  -3   17.84    0.43
  -7   3  -3   17.90    0.48
   8  -3   3    1.08    0.10
   8  -3   3    1.07    0.12
  -8  -3  -3    1.25    0.10
   8   3   3    1.22    0.10
   8   3   3    0.99    0.10
  -8   3  -3    1.21    0.10
   9  -3   3    0.26    0.07
  -9  -3  -3    0.31    0.07
   9  -3   3    0.22    0.09
  -9   3  -3    0.41    0.08
   9   3   3    0.26    0.07
   9   3   3    0.15    0.07
  10  -3   3   22.81    0.73
  10  -3   3   23.41    0.66
 -10  -3  -3   22.25    0.60
  10   3   3   21.84    0.70
 -10   3  -3   22.30    0.62
  10   3   3   22.68    0.61
  11  -3   3    2.51    0.17
 -11  -3  -3    2.36    0.15
  11  -3   3    2.72    0.21
  11   3   3    2.45    0.19
  11   3   3    2.25    0.15
 -11   3  -3    2.11    0.15
  12  -3   3    2.83    0.23
 -12  -3  -3    2.58    0.16
  12  -3   3    2.81    0.19
 -12   3  -3    2.56    0.17
  12   3   3    2.61    0.20
 -13  -3  -3   -0.01    0.08
  13  -3   3    0.16    0.08
 -13   3  -3    0.06    0.09
  14  -3   3    0.22    0.10
 -14  -3  -3    0.04    0.09
 -14   3  -3    0.04    0.09
 -15  -3  -3    0.22    0.10
  15  -3   3    0.28    0.12
 -15   3  -3    0.15    0.10
 -16  -3  -3    0.21    0.11
  16  -4  -3    0.04    0.11
 -16   4   3   -0.10    0.09
  15  -4  -3    1.08    0.16
 -15   4   3    1.21    0.14
  14  -4  -3    1.40    0.17
 -14   4   3    1.40    0.15
  13  -4  -3    0.73    0.12
 -13   4   3    0.60    0.11
  12  -4  -3    0.23    0.10
  12  -4  -3    0.11    0.10
 -12   4   3    0.20    0.08
  12   4  -3    0.26    0.10
  11  -4  -3    4.09    0.23
  11  -4  -3    3.99    0.24
  11   4  -3    4.04    0.19
  11   4  -3    4.20    0.23
 -11   4   3    4.21    0.20
  10  -4  -3   -0.07    0.07
  10  -4  -3   -0.01    0.07
  10   4  -3   -0.05    0.05
 -10   4   3   -0.06    0.05
  10   4  -3   -0.05    0.06
   9  -4  -3    7.75    0.32
   9  -4  -3    7.99    0.32
   9   4  -3    8.35    0.27
   9   4  -3    8.12    0.32
  -9   4   3    8.07    0.27
   8  -4  -3    0.49    0.08
   8  -4  -3    0.47    0.08
  -8   4   3    0.41    0.06
   8   4  -3    0.45    0.07
   8   4  -3    0.62    0.08
   7  -4  -3    4.00    0.20
   7  -4  -3    4.34    0.20
  -7   4   3    4.18    0.16
   7   4  -3    4.20    0.20
  -7   4   3    4.08    0.12
   7   4  -3    4.10    0.17
   6  -4  -3   15.02    0.47
  -6  -4   3   15.10    0.47
   6  -4  -3   15.18    0.48
  -6   4   3   15.91    0.41
  -6   4   3   15.87    0.39
   6   4  -3   16.09    0.43
   6   4  -3   15.27    0.48
   5  -4  -3    3.21    0.16
  -5  -4   3    3.44    0.16
   5  -4  -3    3.38    0.16
   5   4  -3    3.36    0.14
   5   4  -3    3.43    0.16
  -5   4   3    3.43    0.13
  -5   4   3    3.44    0.12
   4  -4  -3   82.41    2.11
   4  -4  -3   85.46    2.20
  -4  -4   3   82.87    2.20
  -4   4   3   85.72    1.98
   4   4  -3   86.37    2.01
  -4   4   3   83.19    1.91
  -4   4   3   88.95    2.19
   4   4  -3   84.44    2.20
   3  -4  -3    0.08    0.04
   3  -4  -3    0.02    0.04
  -3  -4   3    0.09    0.04
  -3   4   3    0.03    0.02
  -3   4   3    0.06    0.03
   3   4  -3    0.08    0.03
   2  -4  -3   17.59    0.49
  -2  -4   3   17.18    0.50
   2  -4  -3   17.51    0.50
  -2   4   3   17.94    0.49
  -2   4   3   18.12    0.46
   2   4  -3   17.80    0.46
   1  -4  -3    0.32    0.04
   1  -4  -3    0.20    0.05
  -1  -4   3    0.20    0.04
  -1   4   3    0.26    0.04
   1   4  -3    0.26    0.04
   1   4  -3    0.17    0.05
   0  -4   3   16.28    0.49
   0  -4   3   16.78    0.47
   0  -4  -3   17.08    0.48
   0  -4  -3   16.82    0.46
   0   4  -3   17.39    0.44
   0   4   3   16.80    0.45
   0   4   3   17.35    0.46
   0   4  -3   17.71    0.50
  -1  -4  -3   13.83    0.38
   1  -4   3   13.60    0.42
  -1  -4  -3   13.60    0.41
   1  -4   3   14.06    0.40
  -1   4  -3   13.74    0.36
   1   4   3   13.46    0.38
   1   4   3   13.96    0.38
  -2  -4  -3   14.78    0.41
   2  -4   3   14.85    0.43
   2  -4   3   14.91    0.45
   2   4   3   15.11    0.41
   2   4   3   14.90    0.41
  -2   4  -3   15.07    0.39
   2   4   3   14.89    0.41
   3  -4   3    1.61    0.12
   3  -4   3    1.32    0.09
   3   4   3    1.38    0.08
  -3   4  -3    1.38    0.07
   3   4   3    1.40    0.08
   3   4   3    1.23    0.09
   4  -4   3   45.73    1.26
   4  -4   3   48.75    1.19
   4   4   3   46.79    1.21
  -4   4  -3   43.30    1.10
   4   4   3   47.40    1.14
   5  -4   3    4.39    0.21
   5  -4   3    4.71    0.19
   5   4   3    4.49    0.18
  -5   4  -3    4.78    0.15
   5   4   3    4.72    0.18
   6  -4   3    1.70    0.14
   6  -4   3    1.70    0.12
  -6  -4  -3    1.63    0.09
   6   4   3    1.68    0.12
  -6   4  -3    1.72    0.08
  -6   4  -3    1.83    0.12
   6   4   3    1.72    0.11
   7  -4   3    4.52    0.23
   7  -4   3    4.83    0.21
  -7  -4  -3    4.68    0.17
  -7   4  -3    4.43    0.19
  -7   4  -3    4.84    0.15
   7   4   3    4.86    0.20
   7   4   3    4.46    0.20
   8  -4   3   12.88    0.41
   8  -4   3   12.29    0.45
  -8  -4  -3   12.21    0.36
  -8   4  -3   12.09    0.38
   8   4   3   12.81    0.42
   8   4   3   12.86    0.38
   9  -4   3   -0.04    0.06
   9  -4   3    0.07    0.09
  -9  -4  -3   -0.01    0.05
   9   4   3   -0.01    0.07
   9   4   3    0.11    0.07
  -9   4  -3    0.02    0.07
  10  -4   3    9.01    0.34
  10  -4   3    8.81    0.38
 -10  -4  -3    8.08    0.28
  10   4   3    8.63    0.30
 -10   4  -3    8.34    0.31
  10   4   3    8.51    0.34
  11  -4   3    0.08    0.08
  11  -4   3   -0.01    0.09
 -11  -4  -3    0.01    0.07
 -11   4  -3   -0.03    0.07
  11   4   3   -0.08    0.07
  11   4   3   -0.17    0.06
 -12  -4  -3    9.08    0.33
  12  -4   3    9.56    0.38
 -12   4  -3    8.97    0.35
  12   4   3    9.27    0.39
 -13  -4  -3    3.39    0.20
  13  -4   3    3.55    0.23
 -13   4  -3    2.81    0.20
  14  -4   3    3.01    0.23
 -14  -4  -3    3.16    0.20
 -14   4  -3    2.96    0.21
 -15  -4  -3    2.32    0.18
 -15   4  -3    2.29    0.19
 -16  -4  -3    0.09    0.10
  16  -5  -3    0.15    0.13
 -16   5   3    0.08    0.10
  15  -5  -3    3.56    0.27
 -15   5   3    3.35    0.22
  14  -5  -3    0.61    0.14
 -14   5   3    0.59    0.11
  13  -5  -3    1.62    0.18
 -13   5   3    1.51    0.14
  12  -5  -3   -0.05    0.08
  12  -5  -3   -0.09    0.09
 -12   5   3   -0.11    0.07
  12   5  -3    0.03    0.08
  12   5  -3   -0.01    0.07
  11  -5  -3    4.57    0.25
  11  -5  -3    4.62    0.27
 -11   5   3    4.22    0.21
  11   5  -3    4.29    0.25
  11   5  -3    4.31    0.20
  10  -5  -3    0.23    0.09
  10  -5  -3    0.31    0.10
  10   5  -3    0.69    0.11
 -10   5   3    0.20    0.08
  10   5  -3    0.23    0.08
   9  -5  -3    8.60    0.35
   9  -5  -3    8.77    0.35
  -9   5   3    9.10    0.30
   9   5  -3    9.00    0.35
   9   5  -3    8.59    0.30
   8  -5  -3    0.45    0.10
   8  -5  -3    0.66    0.10
   8   5  -3    0.47    0.08
   8   5  -3    0.52    0.09
  -8   5   3    0.64    0.08
   7  -5  -3    6.03    0.26
  -7  -5   3    5.61    0.24
   7  -5  -3    5.85    0.25
   7   5  -3    5.75    0.22
   7   5  -3    5.92    0.25
  -7   5   3    6.07    0.21
  -6  -5   3    0.30    0.07
   6  -5  -3    0.09    0.06
   6  -5  -3    0.27    0.07
   6   5  -3    0.11    0.05
  -6   5   3    0.10    0.05
  -6   5   3    0.01    0.04
   6   5  -3    0.18    0.06
   5  -5  -3   11.55    0.39
  -5  -5   3   11.78    0.38
   5  -5  -3   12.24    0.39
  -5   5   3   12.09    0.33
  -5   5   3   11.91    0.33
   5   5  -3   12.32    0.39
   5   5  -3   12.60    0.36
   4  -5  -3    0.47    0.07
  -4  -5   3    0.54    0.07
   4  -5  -3    0.40    0.07
  -4   5   3    0.40    0.06
   4   5  -3    0.43    0.06
  -4   5   3    0.39    0.05
  -4   5   3    0.45    0.06
  -3  -5   3   10.35    0.34
   3  -5  -3   10.80    0.35
   3  -5  -3   10.00    0.33
  -3   5   3   10.67    0.33
  -3   5   3   10.63    0.30
   3   5  -3   10.53    0.31
   2  -5  -3    7.06    0.24
  -2  -5   3    7.43    0.25
   2  -5  -3    7.67    0.27
  -2   5   3    7.34    0.24
  -2   5   3    7.07    0.23
   2   5  -3    7.33    0.24
   1  -5  -3    0.00    0.05
  -1  -5   3    0.01    0.04
   1  -5  -3    0.01    0.03
  -1   5   3    0.06    0.04
  -1   5   3    0.02    0.04
   1   5  -3    0.05    0.03
   0  -5   3    1.23    0.10
   0  -5  -3    1.33    0.07
   0  -5   3    1.20    0.11
   0  -5  -3    1.29    0.11
   0   5   3    1.51    0.09
   0   5   3    1.37    0.10
   0   5  -3    1.27    0.08
   1  -5   3   17.60    0.52
  -1  -5  -3   17.91    0.49
  -1  -5  -3   18.21    0.53
   1  -5   3   17.39    0.53
  -1   5  -3   18.05    0.47
   1   5   3   18.04    0.49
   1   5   3   18.12    0.50
   2  -5   3    6.27    0.24
  -2  -5  -3    6.39    0.20
   2  -5   3    6.01    0.25
   2   5   3    6.25    0.21
   2   5   3    6.49    0.21
   2   5   3    6.08    0.22
  -2   5  -3    6.43    0.20
   3  -5   3    0.66    0.08
   3  -5   3    0.67    0.09
  -3  -5  -3    0.76    0.07
   3   5   3    0.80    0.07
  -3   5  -3    0.89    0.07
   3   5   3    0.80    0.07
   3   5   3    0.60    0.08
   4  -5   3   19.68    0.62
   4  -5   3   21.43    0.59
   4   5   3   20.37    0.56
   5  -5   3   70.95    1.73
   5  -5   3   64.77    1.83
   5   5   3   69.19    1.66
  -5   5  -3   69.15    1.61
   5   5   3   67.05    1.78
   6  -5   3    1.03    0.13
   6  -5   3    1.24    0.11
   6   5   3    0.99    0.10
  -6   5  -3    1.20    0.08
   6   5   3    1.02    0.09
   7  -5   3    0.07    0.09
   7  -5   3    0.02    0.07
   7   5   3    0.06    0.06
   7   5   3    0.10    0.07
  -7   5  -3    0.01    0.04
  -7   5  -3    0.03    0.06
   8  -5   3    0.91    0.11
   8  -5   3    0.58    0.12
   8   5   3    0.87    0.10
  -8   5  -3    0.66    0.10
   8   5   3    0.66    0.10
   9  -5   3    0.74    0.11
   9  -5   3    0.43    0.12
   9   5   3    0.64    0.10
   9   5   3    0.51    0.10
  -9   5  -3    1.11    0.12
  10  -5   3   11.64    0.41
  10  -5   3   11.08    0.45
 -10   5  -3   10.52    0.37
  10   5   3   10.70    0.36
  10   5   3   11.40    0.42
  11  -5   3   -0.09    0.10
  11  -5   3   -0.02    0.08
  11   5   3    0.11    0.08
 -11   5  -3   -0.06    0.08
  11   5   3    0.00    0.07
  12  -5   3    1.16    0.15
 -12  -5  -3    1.43    0.13
  12   5   3    1.48    0.16
 -12   5  -3    1.52    0.15
  12   5   3    1.73    0.16
 -13  -5  -3    0.61    0.11
  13  -5   3    0.67    0.13
 -13   5  -3    0.45    0.12
  14  -5   3    0.08    0.10
 -14   5  -3   -0.15    0.10
  15  -6  -3    0.73    0.15
 -15   6   3    0.59    0.12
  14  -6  -3    0.54    0.14
 -14   6   3    0.43    0.11
  13  -6  -3    0.14    0.11
 -13   6   3    0.03    0.09
  12  -6  -3    4.95    0.30
  12  -6  -3    4.51    0.27
  12   6  -3    4.81    0.24
 -12   6   3    4.74    0.23
  11  -6  -3    4.79    0.28
  11  -6  -3    4.69    0.28
  11   6  -3    4.36    0.22
  11   6  -3    4.53    0.25
 -11   6   3    4.13    0.21
  10  -6  -3    1.12    0.15
  10  -6  -3    1.30    0.15
  10   6  -3    0.98    0.11
 -10   6   3    1.28    0.12
  10   6  -3    1.19    0.14
   9  -6  -3    0.00    0.07
   9  -6  -3   -0.02    0.08
   9   6  -3    0.02    0.07
  -9   6   3    0.19    0.07
   9   6  -3    0.07    0.08
   8  -6  -3    2.87    0.20
   8  -6  -3    2.86    0.20
   8   6  -3    2.71    0.16
  -8   6   3    3.11    0.16
   8   6  -3    3.12    0.18
  -7  -6   3    0.35    0.08
   7  -6  -3    0.37    0.09
   7  -6  -3    0.42    0.10
  -7   6   3    0.40    0.07
   7   6  -3    0.35    0.08
   7   6  -3    0.48    0.09
   6  -6  -3    0.26    0.08
   6  -6  -3    0.23    0.08
  -6  -6   3    0.20    0.07
  -6   6   3    0.19    0.06
   6   6  -3    0.22    0.07
   6   6  -3    0.15    0.07
  -6   6   3    0.02    0.05
  -5  -6   3    2.72    0.16
   5  -6  -3    2.73    0.18
   5  -6  -3    2.84    0.16
   5   6  -3    2.80    0.16
  -5   6   3    2.66    0.13
  -5   6   3    2.46    0.13
   5   6  -3    2.81    0.15
   4  -6  -3   11.03    0.39
   4  -6  -3   11.46    0.37
  -4  -6   3   10.34    0.36
   4   6  -3   11.42    0.35
   3  -6  -3    2.89    0.17
  -3  -6   3    2.58    0.15
   3  -6  -3    2.83    0.15
   3   6  -3    2.97    0.15
  -3   6   3    2.93    0.14
   2  -6  -3    0.01    0.07
  -2  -6   3    0.00    0.05
   2  -6  -3    0.01    0.04
  -2   6   3   -0.07    0.05
  -2   6   3   -0.08    0.05
   2   6  -3    0.01    0.04
   1  -6  -3    5.11    0.18
  -1  -6   3    4.69    0.20
   1  -6  -3    5.10    0.24
   1   6  -3    5.08    0.19
  -1   6   3    5.06    0.20
  -1   6   3    5.44    0.20
   0  -6   3   27.20    0.76
   0  -6  -3   28.22    0.78
   0  -6   3   26.10    0.77
   0  -6  -3   27.07    0.74
   0   6  -3   27.48    0.71
   0   6   3   27.38    0.71
   0   6   3   28.62    0.76
   1  -6   3   18.88    0.58
  -1  -6  -3   19.16    0.58
   1  -6   3   19.78    0.57
  -1  -6  -3   18.79    0.53
  -1   6  -3   19.03    0.51
   1   6   3   19.83    0.55
   1   6   3   19.25    0.53
   2  -6   3    4.33    0.21
   2  -6   3    4.57    0.22
  -2  -6  -3    4.33    0.17
   2   6   3    4.72    0.17
  -2   6  -3    4.44    0.17
   2   6   3    4.30    0.19
   2   6   3    4.79    0.18
   3  -6   3    9.25    0.33
   3  -6   3    9.21    0.34
  -3  -6  -3    9.21    0.30
  -3   6  -3    9.38    0.28
   3   6   3    9.65    0.30
   3   6   3    9.76    0.32
   4  -6   3    0.72    0.10
   4  -6   3    0.60    0.10
  -4   6  -3    0.67    0.07
   4   6   3    0.49    0.08
   5  -6   3    1.28    0.13
   5  -6   3    1.37    0.13
  -5   6  -3    1.27    0.09
   5   6   3    1.35    0.10
   5   6   3    1.34    0.12
   6  -6   3    6.17    0.29
   6  -6   3    6.27    0.27
   6   6   3    6.57    0.26
  -6   6  -3    6.36    0.21
   6   6   3    6.24    0.24
   7  -6   3    7.22    0.30
   7  -6   3    7.04    0.32
   7   6   3    6.73    0.27
  -7   6  -3    6.58    0.26
   7   6   3    7.06    0.27
   8  -6   3   56.48    1.42
   8  -6   3   53.52    1.51
   8   6   3   51.34    1.33
  -8   6  -3   52.09    1.29
   8   6   3   51.30    1.44
   9  -6   3   19.41    0.67
   9  -6   3   20.00    0.62
   9   6   3   19.08    0.57
  -9   6  -3   18.93    0.56
   9   6   3   18.53    0.61
  10  -6   3   15.82    0.59
  10  -6   3   16.02    0.54
 -10   6  -3   15.43    0.49
  10   6   3   15.28    0.49
  10   6   3   15.15    0.53
  11  -6   3    1.40    0.16
  11   6   3    1.35    0.14
 -11   6  -3    1.45    0.15
  11   6   3    1.55    0.16
  12  -6   3   -0.01    0.10
  12   6   3   -0.06    0.08
 -12   6  -3   -0.07    0.09
  13  -6   3    0.09    0.12
 -13   6  -3    0.31    0.11
  14  -6   3    0.16    0.12
 -14   6  -3    0.06    0.11
  15  -7  -3    0.06    0.13
 -15   7   3    0.10    0.11
  14  -7  -3    0.24    0.13
 -14   7   3   -0.03    0.09
  13  -7  -3    0.09    0.11
 -13   7   3    0.01    0.09
  12  -7  -3    0.15    0.11
 -12   7   3    0.00    0.08
  12   7  -3   -0.01    0.08
  11  -7  -3    6.14    0.33
  11  -7  -3    6.74    0.35
  11   7  -3    6.53    0.29
 -11   7   3    6.53    0.27
  10  -7  -3    0.93    0.15
  10  -7  -3    0.82    0.14
  10   7  -3    1.13    0.14
 -10   7   3    1.24    0.12
  10   7  -3    0.92    0.12
   9  -7  -3    1.07    0.15
   9  -7  -3    1.09    0.15
   9   7  -3    0.96    0.12
   9   7  -3    1.04    0.13
  -9   7   3    0.95    0.11
   8  -7  -3   -0.06    0.09
  -8  -7   3   -0.16    0.06
   8  -7  -3   -0.03    0.08
   8   7  -3   -0.07    0.07
   8   7  -3   -0.12    0.06
  -8   7   3    0.03    0.06
   7  -7  -3   28.40    0.85
   7  -7  -3   28.94    0.86
  -7  -7   3   28.79    0.84
  -7   7   3   28.73    0.73
   7   7  -3   28.67    0.85
   7   7  -3   28.88    0.79
   6  -7  -3   59.61    1.57
  -6  -7   3   57.67    1.56
   6  -7  -3   57.66    1.54
  -6   7   3   57.66    1.36
   6   7  -3   56.63    1.44
  -6   7   3   58.31    1.39
   6   7  -3   56.03    1.56
   5  -7  -3    0.29    0.09
  -5  -7   3    0.36    0.08
   5  -7  -3    0.25    0.10
  -5   7   3    0.16    0.05
  -5   7   3    0.42    0.07
   5   7  -3    0.24    0.08
   5   7  -3    0.23    0.08
   4  -7  -3    1.04    0.10
  -4  -7   3    1.06    0.11
   4  -7  -3    0.95    0.12
  -4   7   3    0.98    0.09
   4   7  -3    0.88    0.10
  -3  -7   3    7.91    0.29
   3  -7  -3    8.05    0.29
   3  -7  -3    7.97    0.33
  -3   7   3    7.99    0.27
   3   7  -3    8.16    0.29
  -2  -7   3    4.17    0.19
   2  -7  -3    4.28    0.23
   2  -7  -3    4.47    0.18
  -2   7   3    4.63    0.19
   2   7  -3    4.35    0.19
  -1  -7   3    3.11    0.17
   1  -7  -3    2.97    0.14
   1  -7  -3    2.94    0.19
  -1   7   3    3.21    0.16
   1   7  -3    3.17    0.16
   0  -7  -3   16.63    0.52
   0  -7  -3   15.60    0.45
   0  -7   3   15.34    0.50
   0  -7   3   15.22    0.49
   0   7   3   15.13    0.46
   0   7  -3   15.72    0.45
  -1  -7  -3    0.18    0.05
   1  -7   3    0.21    0.09
  -1  -7  -3    0.11    0.09
   1  -7   3    0.22    0.08
  -1   7  -3    0.17    0.06
   1   7   3    0.20    0.08
   2  -7   3    3.02    0.18
  -2  -7  -3    3.18    0.15
   2  -7   3    3.07    0.20
  -2   7  -3    3.35    0.16
   2   7   3    3.08    0.15
   2   7   3    3.00    0.17
  -3  -7  -3   45.37    1.20
   3  -7   3   45.36    1.26
   3  -7   3   45.57    1.22
  -3   7  -3   44.64    1.11
   3   7   3   44.50    1.21
   3   7   3   45.49    1.15
   4  -7   3    0.13    0.09
   4  -7   3    0.12    0.09
  -4  -7  -3    0.22    0.06
   4   7   3    0.17    0.08
   4   7   3    0.11    0.04
  -4   7  -3    0.05    0.05
   5  -7   3   18.14    0.57
   5  -7   3   17.63    0.59
   5   7   3   17.62    0.53
   6  -7   3    1.44    0.16
   6  -7   3    1.34    0.15
   6   7   3    1.65    0.13
   6   7   3    1.23    0.13
  -6   7  -3    1.59    0.10
   7  -7   3    0.04    0.09
   7  -7   3    0.17    0.11
   7   7   3    0.35    0.08
  -7   7  -3    0.13    0.10
   7   7   3    0.39    0.09
   8  -7   3   -0.10    0.09
   8  -7   3   -0.06    0.09
  -8   7  -3   -0.09    0.08
   8   7   3   -0.02    0.07
   8   7   3   -0.02    0.08
   9  -7   3   10.25    0.41
   9  -7   3   10.32    0.44
   9   7   3   10.45    0.37
   9   7   3   10.32    0.39
  -9   7  -3   10.45    0.37
  10  -7   3    0.09    0.10
  10   7   3    0.04    0.07
  10   7   3    0.15    0.09
 -10   7  -3    0.21    0.09
  11  -7   3    0.00    0.10
 -11   7  -3    0.00    0.08
  11   7   3    0.00    0.08
  11   7   3   -0.02    0.09
  12  -7   3    0.03    0.11
 -12   7  -3    0.00    0.09
  12   7   3   -0.05    0.09
  13  -7   3    2.10    0.21
 -13   7  -3    1.77    0.17
  14  -8  -3    0.09    0.13
 -14   8   3    0.03    0.10
  13  -8  -3    0.00    0.12
  13   8  -3    0.03    0.11
 -13   8   3    0.17    0.11
  12  -8  -3    0.85    0.16
  12   8  -3    1.13    0.14
 -12   8   3    0.85    0.13
  11  -8  -3    0.58    0.14
 -11   8   3    0.65    0.11
  11   8  -3    0.83    0.13
  10  -8  -3    1.49    0.18
  10  -8  -3    2.09    0.21
 -10   8   3    1.67    0.14
  10   8  -3    1.66    0.16
   9  -8  -3    0.01    0.11
   9  -8  -3    0.01    0.11
   9   8  -3    0.18    0.10
   9   8  -3    0.06    0.08
  -9   8   3    0.03    0.07
   8  -8  -3   28.58    0.91
   8  -8  -3   30.90    0.92
  -8  -8   3   30.70    0.90
   8   8  -3   30.28    0.84
  -8   8   3   30.07    0.78
   8   8  -3   29.39    0.90
   7  -8  -3    1.23    0.16
  -7  -8   3    1.10    0.13
   7  -8  -3    1.35    0.15
   7   8  -3    1.17    0.13
  -7   8   3    1.06    0.10
   7   8  -3    1.29    0.14
  -6  -8   3    6.80    0.29
   6  -8  -3    6.86    0.30
   6  -8  -3    6.46    0.32
   6   8  -3    6.57    0.28
  -6   8   3    6.51    0.24
   6   8  -3    6.60    0.29
  -5  -8   3    2.36    0.16
   5  -8  -3    2.29    0.17
   5  -8  -3    2.48    0.21
   5   8  -3    2.03    0.17
  -5   8   3    1.87    0.14
  -5   8   3    2.50    0.15
   5   8  -3    2.59    0.17
   4  -8  -3    7.38    0.33
  -4  -8   3    7.29    0.29
   4  -8  -3    7.42    0.29
   4   8  -3    7.38    0.30
  -4   8   3    7.57    0.27
  -3  -8   3   12.88    0.44
   3  -8  -3   12.91    0.48
   3  -8  -3   13.56    0.43
   3   8  -3   13.28    0.43
  -3   8   3   13.59    0.41
  -2  -8   3    1.27    0.12
   2  -8  -3    1.41    0.15
   2  -8  -3    1.25    0.12
  -2   8   3    1.37    0.12
   2   8  -3    1.49    0.14
   1  -8  -3    0.74    0.08
  -1  -8   3    0.79    0.10
   1  -8  -3    0.77    0.13
   1   8  -3    0.60    0.09
  -1   8   3    0.42    0.09
   0  -8   3    7.94    0.34
   0  -8  -3    7.53    0.26
   0  -8  -3    7.47    0.33
   0  -8   3    7.51    0.30
   0   8  -3    7.25    0.27
   0   8   3    7.26    0.28
  -1  -8  -3    5.60    0.29
   1  -8   3    5.03    0.26
   1  -8   3    5.29    0.24
  -1  -8  -3    5.09    0.20
  -1   8  -3    4.68    0.21
   1   8   3    4.88    0.24
   2  -8   3    0.70    0.12
   2  -8   3    0.78    0.11
  -2  -8  -3    0.82    0.09
  -2   8  -3    0.80    0.09
   2   8   3    0.84    0.12
   2   8   3    0.93    0.09
   3  -8   3    0.48    0.12
  -3  -8  -3    0.50    0.08
   3  -8   3    0.49    0.10
   3   8   3    0.48    0.08
  -3   8  -3    0.55    0.08
   3   8   3    0.57    0.10
   4  -8   3    3.23    0.22
  -4  -8  -3    3.01    0.16
   4  -8   3    3.27    0.21
   4   8   3    2.65    0.15
  -4   8  -3    3.02    0.15
   4   8   3    2.58    0.19
   5  -8   3    1.28    0.14
   5  -8   3    1.28    0.15
  -5   8  -3    1.35    0.11
   5   8   3    1.16    0.13
   6  -8   3    3.03    0.21
   6  -8   3    3.09    0.22
  -6   8  -3    2.72    0.14
   6   8   3    2.53    0.18
   6   8   3    2.75    0.16
   7  -8   3    0.03    0.10
   7  -8   3   -0.07    0.09
   7   8   3   -0.03    0.07
   7   8   3   -0.03    0.08
  -7   8  -3   -0.02    0.08
   8  -8   3   -0.12    0.11
   8  -8   3   -0.04    0.10
   8   8   3    0.07    0.09
  -8   8  -3    0.14    0.10
   9  -8   3    0.15    0.10
   9   8   3    0.25    0.10
  -9   8  -3    0.16    0.10
  10  -8   3    2.25    0.21
  10   8   3    1.88    0.17
 -10   8  -3    1.74    0.16
  11  -8   3    0.03    0.12
  11   8   3    0.13    0.10
 -11   8  -3    0.16    0.10
  12  -8   3   -0.06    0.11
  12   8   3    0.04    0.08
 -12   8  -3    0.10    0.11
  13  -8   3    0.08    0.13
  13   8   3   -0.04    0.10
  13  -9  -3   -0.07    0.13
  13   9  -3    0.00    0.10
 -13   9   3    0.21    0.11
  12  -9  -3   -0.14    0.10
 -12   9   3   -0.06    0.09
  12   9  -3    0.03    0.10
  11  -9  -3    0.48    0.15
  11   9  -3    0.52    0.12
 -11   9   3    0.57    0.12
  10  -9  -3    0.95    0.17
  10   9  -3    0.72    0.13
 -10   9   3    0.86    0.12
   9  -9  -3    0.08    0.12
   9   9  -3    0.06    0.09
  -9   9   3    0.02    0.08
  -8  -9   3    1.12    0.14
   8  -9  -3    0.94    0.16
   8   9  -3    1.27    0.14
   8   9  -3    1.27    0.15
  -8   9   3    1.09    0.12
   7  -9  -3    1.02    0.16
  -7  -9   3    1.25    0.14
   7   9  -3    1.11    0.14
   7   9  -3    1.25    0.13
  -7   9   3    1.19    0.12
   6  -9  -3    0.13    0.12
  -6  -9   3    0.45    0.11
   6   9  -3    0.30    0.11
  -6   9   3    0.14    0.08
   6   9  -3    0.47    0.10
  -5  -9   3    2.09    0.17
   5  -9  -3    2.09    0.20
   5   9  -3    2.21    0.17
   5   9  -3    1.91    0.17
  -5   9   3    1.90    0.15
  -4  -9   3   12.27    0.43
   4  -9  -3   11.68    0.47
  -4   9   3   12.57    0.40
   4   9  -3   11.63    0.42
   3  -9  -3    3.70    0.26
  -3  -9   3    3.92    0.21
   3   9  -3    3.71    0.21
  -3   9   3    4.27    0.21
  -2  -9   3   -0.05    0.08
   2  -9  -3    0.10    0.11
  -2   9   3    0.21    0.08
   2   9  -3    0.07    0.08
  -1  -9   3   19.89    0.62
   1  -9  -3   19.95    0.66
   1   9  -3   19.34    0.58
  -1   9   3   19.90    0.58
   0  -9   3   45.48    1.24
   0  -9  -3   43.75    1.24
   0   9   3   43.62    1.15
   0   9  -3   43.63    1.14
   1  -9   3    0.03    0.08
  -1  -9  -3    0.01    0.10
   1  -9   3   -0.10    0.10
  -1   9  -3   -0.04    0.07
   1   9   3    0.06    0.09
   2  -9   3    0.70    0.11
   2  -9   3    0.93    0.15
   2   9   3    0.98    0.12
  -2   9  -3    0.68    0.10
   3  -9   3    0.04    0.09
   3  -9   3    0.07    0.10
  -3   9  -3    0.02    0.07
   3   9   3   -0.07    0.08
   4  -9   3    0.02    0.10
   4  -9   3    0.09    0.09
   4   9   3   -0.18    0.07
  -4   9  -3   -0.03    0.07
   5  -9   3    0.17    0.10
   5  -9   3    0.29    0.11
   5   9   3    0.05    0.09
  -5   9  -3    0.17    0.08
   6  -9   3    0.62    0.13
   6  -9   3    0.82    0.14
   6   9   3    0.48    0.12
   7  -9   3    3.02    0.24
   7   9   3    2.73    0.20
   8  -9   3    2.94    0.23
  -8   9  -3    3.73    0.22
   8   9   3    2.95    0.21
   9  -9   3    1.37    0.17
   9   9   3    1.22    0.15
  -9   9  -3    1.43    0.15
  10  -9   3    0.38    0.14
  10   9   3    0.25    0.11
 -10   9  -3    0.39    0.12
  11  -9   3    0.14    0.13
 -11   9  -3    0.04    0.10
  11   9   3    0.01    0.11
  12  -9   3    0.31    0.15
  12   9   3    0.08    0.11
  11 -10  -3    0.30    0.15
  11  10  -3    0.20    0.12
  10 -10  -3    0.33    0.14
  10  10  -3    0.36    0.13
   9 -10  -3    3.27    0.27
   9  10  -3    3.07    0.23
   8 -10  -3    2.18    0.22
   8  10  -3    2.45    0.20
   7 -10  -3    0.87    0.17
   7  10  -3    0.87    0.14
   6 -10  -3   -0.10    0.11
  -6 -10   3   -0.07    0.08
   6  10  -3   -0.09    0.08
   6  10  -3   -0.15    0.08
  -5 -10   3    0.96    0.13
   5 -10  -3    0.59    0.14
  -5  10   3    0.58    0.10
   5  10  -3    0.68    0.12
   5  10  -3    0.76    0.12
  -4 -10   3    2.14    0.17
   4 -10  -3    1.60    0.19
  -4  10   3    1.63    0.15
   4  10  -3    1.55    0.15
   3 -10  -3    2.33    0.22
  -3 -10   3    2.42    0.18
   3  10  -3    2.15    0.17
  -3  10   3    1.90    0.17
  -2 -10   3   10.20    0.38
   2 -10  -3    9.64    0.43
  -2  10   3    9.43    0.36
   2  10  -3    9.28    0.36
   1 -10  -3    0.24    0.12
  -1 -10   3    0.25    0.09
  -1  10   3    0.13    0.09
   1  10  -3    0.30    0.09
   0 -10   3    0.29    0.09
   0 -10  -3    0.34    0.12
   0  10   3    0.18    0.10
   0  10  -3    0.16    0.08
   1 -10   3   -0.01    0.10
   1 -10   3    0.06    0.08
  -1  10  -3    0.04    0.08
   1  10   3   -0.06    0.08
   2 -10   3    3.35    0.22
   2 -10   3    3.14    0.24
   2  10   3    3.47    0.22
  -2  10  -3    3.01    0.19
   3 -10   3    7.67    0.34
   3 -10   3    7.61    0.36
   3  10   3    7.57    0.32
  -3  10  -3    6.57    0.28
   4 -10   3    0.80    0.14
   4 -10   3    0.60    0.14
   4  10   3    0.57    0.13
  -4  10  -3    0.74    0.11
   5 -10   3    1.64    0.19
   5 -10   3    1.73    0.18
   5  10   3    1.25    0.16
  -5  10  -3    1.82    0.15
   6 -10   3    0.23    0.14
   6  10   3    0.35    0.12
   7 -10   3    4.63    0.31
   7  10   3    4.83    0.27
   8 -10   3    0.17    0.13
  -8  10  -3    0.25    0.11
   8  10   3   -0.19    0.10
   9 -10   3   10.88    0.48
  -9  10  -3   10.97    0.41
   9  10   3   11.24    0.45
  10 -10   3   -0.05    0.13
  10  10   3    0.18    0.13
 -10  10  -3    0.15    0.11
  10 -11  -3    0.61    0.17
  10  11  -3    0.29    0.13
   9 -11  -3    1.20    0.20
   9  11  -3    1.41    0.18
   8 -11  -3   -0.20    0.13
   8  11  -3    0.07    0.11
   7 -11  -3    0.93    0.18
   7  11  -3    1.24    0.16
   6 -11  -3    2.80    0.27
   6  11  -3    2.83    0.23
   5 -11  -3    0.76    0.17
   5  11  -3    0.95    0.14
   4 -11  -3    0.28    0.14
   4  11  -3    0.23    0.11
  -4  11   3    0.27    0.10
   3 -11  -3    1.49    0.19
   3  11  -3    1.46    0.16
  -3  11   3    1.61    0.15
  -2 -11   3   -0.02    0.09
   2 -11  -3   -0.11    0.11
  -2  11   3   -0.02    0.09
   2  11  -3   -0.03    0.09
  -1 -11   3    2.11    0.18
   1 -11  -3    2.15    0.22
  -1  11   3    2.21    0.19
   1  11  -3    2.11    0.18
   0 -11   3    1.54    0.16
   0 -11  -3    1.49    0.19
   0  11   3    1.33    0.16
   0  11  -3    1.47    0.15
   1 -11   3    0.63    0.13
   1  11   3    0.57    0.13
  -1  11  -3    0.55    0.11
   2 -11   3    3.90    0.29
  -2  11  -3    3.63    0.22
   2  11   3    4.14    0.24
   3 -11   3    0.99    0.17
   3  11   3    1.21    0.16
  -3  11  -3    1.09    0.13
   4 -11   3    1.26    0.20
   4  11   3    1.23    0.16
  -4  11  -3    1.37    0.14
   5 -11   3   -0.05    0.12
   5  11   3   -0.15    0.09
   6 -11   3    0.06    0.13
   6  11   3    0.02    0.11
   7 -11   3    4.96    0.33
  -7  11  -3    4.10    0.25
   7  11   3    4.49    0.29
   8 -11   3    2.58    0.26
  -8  11  -3    2.96    0.23
   8  11   3    2.98    0.25
   9 -11   3    0.07    0.15
  -9  11  -3    0.15    0.11
   9  11   3    0.13    0.13
   7 -12  -3    0.92    0.19
   7  12  -3    0.98    0.16
   6 -12  -3    4.34    0.32
   6  12  -3    3.86    0.27
   5 -12  -3    3.27    0.29
   5  12  -3    3.51    0.25
   4 -12  -3    1.70    0.22
   4  12  -3    1.69    0.19
   3 -12  -3    0.27    0.15
   3  12  -3    0.12    0.11
  -3  12   3    0.29    0.11
   2 -12  -3    0.05    0.14
  -2  12   3    0.35    0.12
   2  12  -3    0.22    0.12
   1 -12  -3    3.09    0.27
   1  12  -3    2.90    0.22
  -1  12   3    3.04    0.21
   0  12  -3    0.02    0.10
   0  12   3   -0.08    0.10
   1  12   3    1.18    0.17
  -1  12  -3    1.27    0.15
   2  12   3    0.15    0.12
  -2  12  -3    0.12    0.10
   3 -12   3   -0.01    0.13
   3  12   3    0.06    0.12
  -3  12  -3    0.11    0.10
   4 -12   3   -0.27    0.12
   4  12   3    0.02    0.12
   5 -12   3    0.24    0.15
   5  12   3    0.13    0.13
   6 -12   3    0.13    0.16
   6  12   3    0.21    0.14
   3 -13  -3   -0.09    0.14
  -3  13   3    0.03    0.10
   3  13  -3   -0.11    0.12
   2 -13  -3   -0.13    0.15
  -2  13   3   -0.12    0.11
   2  13  -3   -0.06    0.10
  -1  13   3    0.98    0.16
   1  13  -3    0.84    0.16
   0  13  -3    0.41    0.14
   0  13   3    0.70    0.15
  -1  13  -3    2.04    0.20
   1  13   3    2.13    0.21
  -2  13  -3    1.26    0.17
   2  13   3    1.16    0.18
 -17   0   4    0.09    0.10
  17   0  -4   -0.01    0.10
 -16   0   4    0.86    0.13
  16   0  -4    0.74    0.14
  15   0  -4    0.06    0.09
 -15   0   4   -0.10    0.07
 -14   0   4    5.21    0.24
 -13   0   4    0.00    0.07
  13   0  -4   -0.08    0.07
 -12   0   4   -0.01    0.06
  12   0  -4   -0.07    0.07
  11   0  -4    0.09    0.07
 -11   0   4   -0.07    0.06
 -10   0   4    0.63    0.08
  10   0  -4    0.84    0.10
  -9   0   4   -0.03    0.04
   9   0  -4    0.00    0.05
   9   0  -4   -0.05    0.03
   8   0  -4   14.61    0.47
   8   0  -4   15.23    0.37
  -8   0   4   15.33    0.41
   7   0  -4   -0.04    0.02
  -7   0   4    0.04    0.04
   7   0  -4    0.05    0.04
   6   0  -4  129.07    2.93
  -6   0   4  125.40    2.84
   6   0  -4  126.87    3.25
   5   0  -4    0.03    0.02
   5   0  -4    0.04    0.03
  -5   0   4    0.02    0.03
   5   0  -4    0.03    0.03
  -5   0   4    0.07    0.02
   4   0  -4  128.74    3.24
  -4   0   4  130.54    3.25
   4   0  -4  125.28    3.25
  -4   0   4  125.84    2.84
  -4   0   4  128.44    2.95
  -3   0   4    0.08    0.02
   3   0  -4    0.01    0.02
   3   0  -4    0.00    0.02
  -3   0   4    0.01    0.01
  -3   0   4    0.06    0.02
   2   0  -4  114.76    2.84
  -2   0   4  117.53    2.59
   2   0  -4  113.79    2.85
  -2   0   4  102.24    2.84
  -1   0   4    0.15    0.02
   1   0  -4    0.20    0.02
   0   0  -4   15.32    0.41
   0   0   4   14.88    0.37
  -1   0  -4    0.02    0.03
   1   0   4   -0.01    0.02
   1   0   4    0.01    0.02
  -2   0  -4   73.32    1.82
   2   0   4   69.58    1.82
   2   0   4   69.21    1.65
  -2   0  -4   71.24    1.59
   3   0   4   -0.02    0.03
  -3   0  -4   -0.01    0.02
   3   0   4   -0.01    0.02
  -3   0  -4    0.01    0.02
   4   0   4   44.40    1.07
   4   0   4   44.72    1.19
  -4   0  -4   44.04    1.03
  -4   0  -4   47.02    1.19
  -5   0  -4   -0.03    0.03
   5   0   4   -0.01    0.02
   5   0   4    0.00    0.04
   6   0   4   15.94    0.50
  -6   0  -4   16.77    0.43
   6   0   4   16.36    0.42
   7   0   4    0.06    0.05
  -7   0  -4    0.01    0.04
   7   0   4    0.01    0.03
   8   0   4  109.57    2.50
   8   0   4  103.55    2.80
  -8   0  -4  108.73    2.44
  -9   0  -4    0.00    0.05
   9   0   4    0.01    0.07
   9   0   4   -0.03    0.04
 -10   0  -4    0.56    0.08
  10   0   4    0.77    0.12
  11   0   4   -0.05    0.08
 -11   0  -4    0.00    0.07
  12   0   4    2.78    0.21
 -12   0  -4    2.58    0.16
  13   0   4   -0.06    0.07
 -13   0  -4    0.05    0.08
  14   0   4    1.09    0.13
 -14   0  -4    1.07    0.13
 -15   0  -4    0.21    0.10
 -16   0  -4    1.03    0.14
 -17  -1   4    0.24    0.12
  17  -1  -4    0.25    0.13
 -17   1   4    0.36    0.11
  16  -1  -4    0.93    0.15
 -16  -1   4    0.94    0.13
 -16   1   4    1.13    0.14
  15  -1  -4    0.17    0.11
 -15  -1   4    0.17    0.09
 -15   1   4    0.26    0.09
 -14  -1   4    0.93    0.12
  14  -1  -4    0.78    0.12
 -14   1   4    1.00    0.12
  13  -1  -4    3.92    0.23
 -13  -1   4    4.36    0.21
  13  -1  -4    4.79    0.26
  13   1  -4    4.47    0.25
 -13   1   4    4.09    0.21
  12  -1  -4    2.76    0.20
 -12  -1   4    2.82    0.17
  12  -1  -4    2.94    0.19
  12   1  -4    2.70    0.19
 -12   1   4    2.99    0.17
  11  -1  -4   11.74    0.42
 -11  -1   4   12.35    0.38
  11  -1  -4   12.19    0.44
 -11   1   4   11.81    0.37
  11   1  -4   12.64    0.44
  10  -1  -4    1.13    0.12
 -10  -1   4    1.05    0.10
 -10   1   4    1.23    0.10
  10   1  -4    1.20    0.12
   9  -1  -4   -0.02    0.05
  -9  -1   4   -0.02    0.04
  -9   1   4    0.07    0.05
   9   1  -4    0.07    0.04
   9   1  -4    0.03    0.06
  -8  -1   4    1.42    0.10
   8  -1  -4    1.20    0.10
   8   1  -4    1.40    0.11
  -8   1   4    1.41    0.09
   8   1  -4    1.07    0.07
   7  -1  -4    2.30    0.13
   7  -1  -4    2.41    0.07
  -7  -1   4    2.22    0.11
  -7   1   4    2.32    0.11
   7   1  -4    2.32    0.09
   7   1  -4    2.31    0.13
  -6  -1   4    3.65    0.13
   6  -1  -4    3.65    0.10
   6  -1  -4    3.47    0.15
  -6   1   4    3.71    0.10
   6   1  -4    3.38    0.15
   6   1  -4    3.75    0.12
  -6   1   4    3.72    0.13
  -5  -1   4    0.97    0.07
   5  -1  -4    1.02    0.07
  -5  -1   4    1.00    0.06
   5  -1  -4    0.99    0.07
   5   1  -4    1.12    0.08
  -5   1   4    0.93    0.06
   5   1  -4    1.01    0.05
  -5   1   4    1.09    0.04
  -5   1   4    1.02    0.07
   5   1  -4    0.93    0.07
  -4  -1   4    0.07    0.03
  -4  -1   4    0.06    0.02
   4  -1  -4    0.12    0.03
  -4  -1   4    0.05    0.03
   4  -1  -4    0.12    0.03
   4   1  -4    0.06    0.03
  -4   1   4    0.02    0.02
  -4   1   4    0.07    0.02
  -4   1   4    0.08    0.02
   4   1  -4    0.09    0.03
   4   1  -4    0.08    0.02
   3  -1  -4    6.39    0.20
  -3  -1   4    6.55    0.21
   3  -1  -4    6.44    0.20
  -3  -1   4    7.12    0.19
   3   1  -4    7.24    0.18
  -3   1   4    6.43    0.17
   3   1  -4    6.67    0.21
  -3   1   4    6.45    0.20
  -3   1   4    7.22    0.18
   3   1  -4    6.43    0.21
   2  -1  -4  188.95    4.58
   2  -1  -4  186.13    4.86
  -2  -1   4  194.69    4.40
   2  -1  -4  185.24    4.91
  -2  -1   4  195.94    4.84
   2   1  -4  196.69    4.83
  -2   1   4  186.50    4.87
  -2   1   4  195.70    4.28
   1  -1  -4    4.96    0.14
   1  -1  -4    4.86    0.14
   1  -1  -4    4.76    0.15
   1  -1  -4    5.11    0.12
  -1  -1   4    4.94    0.14
  -1  -1   4    4.68    0.16
  -1   1   4    5.16    0.14
  -1   1   4    4.81    0.14
   1   1  -4    4.84    0.16
   0  -1  -4   20.15    0.53
   0  -1   4   19.50    0.54
   0  -1   4   19.76    0.48
   0  -1  -4   20.09    0.50
   0   1   4   19.91    0.53
   0   1   4   19.68    0.48
   0   1  -4   19.89    0.54
  -1  -1  -4   46.12    1.17
  -1  -1  -4   45.13    1.11
  -1  -1  -4   46.60    1.02
   1  -1   4   45.30    1.12
   1  -1   4   44.89    1.07
   1  -1   4   44.70    1.18
   1   1   4   44.58    1.07
  -1   1  -4   47.04    1.19
   1   1   4   44.51    1.17
  -2  -1  -4  440.48   10.81
  -2  -1  -4  421.93    9.40
   2  -1   4  406.84    9.79
   2  -1   4  441.70   10.83
   2  -1   4  438.55   10.27
   2   1   4  366.99   10.78
   2   1   4  422.68    9.72
  -2   1  -4  453.55   10.74
  -3  -1  -4  363.60    9.13
   3  -1   4  347.22    8.26
   3  -1   4  362.24    8.67
   3  -1   4  358.40    9.05
  -3  -1  -4  354.46    7.92
  -3   1  -4  381.54    9.04
   3   1   4  351.25    9.13
   3   1   4  352.37    8.29
  -4  -1  -4    0.10    0.03
   4  -1   4    0.11    0.04
   4  -1   4    0.06    0.02
   4  -1   4    0.10    0.03
   4   1   4    0.27    0.04
  -4   1  -4    0.10    0.04
  -4   1  -4    0.09    0.03
   4   1   4    0.05    0.03
  -5  -1  -4   45.36    1.18
   5  -1   4   42.15    1.19
  -5  -1  -4   43.87    1.02
   5  -1   4   44.53    1.05
   5  -1   4   45.00    1.10
   5   1   4   44.62    1.06
   5   1   4   44.02    1.18
  -5   1  -4   44.49    1.04
   6  -1   4    0.03    0.03
   6  -1   4    0.02    0.02
   6  -1   4   -0.01    0.05
  -6  -1  -4    0.04    0.04
   6   1   4    0.04    0.04
   6   1   4    0.01    0.04
  -6   1  -4    0.06    0.04
   7  -1   4    2.94    0.11
  -7  -1  -4    2.91    0.13
   7  -1   4    2.88    0.17
   7   1   4    3.11    0.12
  -7   1  -4    2.98    0.14
   7   1   4    2.99    0.16
   8  -1   4    2.60    0.13
  -8  -1  -4    2.64    0.13
   8  -1   4    2.47    0.10
   8  -1   4    2.20    0.16
   8   1   4    2.72    0.12
  -8   1  -4    2.30    0.13
   8   1   4    2.43    0.16
  -9  -1  -4    0.29    0.07
   9  -1   4    0.33    0.09
   9  -1   4    0.22    0.06
  -9   1  -4    0.24    0.07
   9   1   4    0.23    0.08
   9   1   4    0.22    0.05
 -10  -1  -4    0.07    0.06
  10  -1   4    0.24    0.09
  10  -1   4    0.23    0.07
 -10   1  -4    0.26    0.07
  10   1   4    0.24    0.06
  10   1   4    0.24    0.09
  11  -1   4    7.99    0.35
 -11  -1  -4    7.31    0.28
  11  -1   4    7.94    0.30
  11   1   4    7.75    0.34
 -11   1  -4    8.28    0.29
 -12  -1  -4    1.22    0.13
  12  -1   4    1.44    0.14
  12  -1   4    1.33    0.16
  12   1   4    1.15    0.15
 -12   1  -4    1.46    0.13
  13  -1   4    2.91    0.19
 -13  -1  -4    2.39    0.17
 -13   1  -4    3.04    0.19
 -14  -1  -4    0.09    0.08
  14  -1   4    0.16    0.10
 -14   1  -4   -0.02    0.09
 -15  -1  -4    3.27    0.22
 -15   1  -4    3.18    0.21
 -16  -1  -4    0.10    0.10
 -16   1  -4    0.04    0.10
  17  -2  -4    0.28    0.13
 -17   2   4    0.20    0.12
  16  -2  -4    0.92    0.15
 -16  -2   4    0.67    0.13
 -16   2   4    0.83    0.13
  15  -2  -4    0.22    0.11
 -15  -2   4    0.00    0.08
 -15   2   4    0.08    0.08
 -14  -2   4    0.79    0.12
  14  -2  -4    0.80    0.14
 -14   2   4    0.98    0.12
 -13  -2   4    6.70    0.27
  13  -2  -4    6.40    0.30
  13  -2  -4    7.11    0.34
 -13   2   4    6.51    0.27
  13   2  -4    6.77    0.33
  12  -2  -4   28.66    0.84
  12  -2  -4   28.45    0.87
  12   2  -4   29.46    0.88
 -12   2   4   27.33    0.74
 -11  -2   4    0.10    0.07
  11  -2  -4   -0.01    0.08
  11  -2  -4   -0.06    0.08
 -11   2   4    0.02    0.07
  11   2  -4    0.12    0.08
 -10  -2   4    0.01    0.05
  10  -2  -4    0.08    0.07
  10  -2  -4    0.06    0.07
  10   2  -4    0.02    0.06
 -10   2   4   -0.02    0.05
  10   2  -4    0.31    0.06
  -9  -2   4    8.93    0.29
   9  -2  -4    8.74    0.33
   9  -2  -4    8.89    0.32
   9   2  -4    8.95    0.33
  -9   2   4    9.24    0.28
   9   2  -4    8.64    0.26
   8  -2  -4    5.21    0.22
   8  -2  -4    5.77    0.23
  -8  -2   4    5.45    0.20
   8   2  -4    5.74    0.18
   8   2  -4    5.73    0.23
  -8   2   4    5.45    0.19
  -7  -2   4   19.00    0.49
   7  -2  -4   19.28    0.55
   7  -2  -4   19.22    0.57
   7   2  -4   18.83    0.57
  -7   2   4   19.41    0.49
   7   2  -4   19.35    0.49
   6  -2  -4    0.81    0.08
   6  -2  -4    0.92    0.08
   6   2  -4    0.78    0.08
  -6   2   4    0.86    0.04
   6   2  -4    0.74    0.06
  -6   2   4    0.90    0.07
   5  -2  -4   28.94    0.79
  -5  -2   4   29.79    0.82
   5  -2  -4   30.16    0.81
  -5   2   4   30.56    0.71
  -5   2   4   31.22    0.81
   5   2  -4   30.08    0.73
  -5   2   4   30.07    0.71
   5   2  -4   30.02    0.82
   4  -2  -4   47.64    1.25
  -4  -2   4   46.56    1.26
   4  -2  -4   46.61    1.20
   4   2  -4   48.44    1.26
  -4   2   4   48.07    1.12
   4   2  -4   48.78    1.14
   4   2  -4   47.80    1.26
  -4   2   4   49.74    1.25
  -4   2   4   48.23    1.09
   3  -2  -4   60.72    1.53
   3  -2  -4   62.01    1.59
  -3  -2   4   61.35    1.60
  -3  -2   4   62.15    1.46
   3   2  -4   62.04    1.45
  -3   2   4   61.79    1.45
  -3   2   4   62.82    1.59
  -3   2   4   62.43    1.39
   3   2  -4   62.55    1.60
  -2  -2   4  164.10    4.22
   2  -2  -4  169.64    4.25
   2  -2  -4  163.26    4.01
  -2  -2   4  164.26    3.85
  -2   2   4  168.88    4.27
   2   2  -4  170.60    4.22
  -2   2   4  161.62    3.84
   2   2  -4  166.75    3.85
  -2   2   4  172.60    3.73
   1  -2  -4  234.85    6.34
  -1  -2   4  221.04    5.78
  -1  -2   4  222.42    5.26
   1  -2  -4  233.81    5.48
  -1   2   4  233.70    5.27
   1   2  -4  227.69    5.26
  -1   2   4  234.39    5.29
  -1   2   4  222.20    6.24
   1   2  -4  229.60    5.78
   0  -2   4  354.09    9.09
   0  -2  -4  379.03    8.65
   0  -2   4  344.63    8.28
   0   2   4  365.99    8.35
   0   2  -4  354.46    8.28
   0   2  -4  367.34    9.09
  -1  -2  -4  189.80    4.92
   1  -2   4  184.24    4.40
   1  -2   4  194.19    4.59
   1  -2   4  189.22    4.84
  -1  -2  -4  188.85    4.31
  -1  -2  -4  197.01    4.59
   1   2   4  192.66    4.27
  -1   2  -4  195.61    4.84
   1   2   4  191.74    4.41
   1   2   4  190.60    4.94
   1   2   4  188.13    4.91
   2  -2   4    1.60    0.07
  -2  -2  -4    1.67    0.06
   2  -2   4    1.51    0.10
   2  -2   4    1.58    0.07
  -2  -2  -4    1.54    0.07
   2   2   4    1.65    0.08
  -2   2  -4    1.61    0.10
   2   2   4    1.56    0.07
   3  -2   4    8.13    0.22
  -3  -2  -4    8.27    0.24
   3  -2   4    8.15    0.23
   3  -2   4    7.98    0.27
  -3  -2  -4    7.92    0.21
  -3   2  -4    8.21    0.27
   3   2   4    7.65    0.23
  -4  -2  -4    0.77    0.06
   4  -2   4    0.78    0.05
  -4  -2  -4    0.80    0.05
   4  -2   4    0.71    0.08
   4  -2   4    0.78    0.06
   4   2   4    0.73    0.06
   4   2   4    0.84    0.06
  -5  -2  -4    1.81    0.09
   5  -2   4    1.83    0.08
  -5  -2  -4    1.90    0.10
   5  -2   4    1.56    0.09
   5  -2   4    1.62    0.12
   5   2   4    1.83    0.10
  -5   2  -4    1.88    0.10
   5   2   4    1.75    0.10
   6  -2   4    4.45    0.14
   6  -2   4    4.07    0.20
  -6  -2  -4    3.97    0.15
  -6   2  -4    4.23    0.17
   6   2   4    4.07    0.17
   6   2   4    4.55    0.16
   7  -2   4    3.22    0.11
  -7  -2  -4    3.01    0.13
   7  -2   4    2.69    0.17
   7  -2   4    2.87    0.14
   7   2   4    2.95    0.13
  -7   2  -4    2.94    0.14
   7   2   4    2.77    0.15
   8  -2   4    3.63    0.12
   8  -2   4    3.20    0.19
   8  -2   4    3.50    0.16
  -8  -2  -4    3.26    0.15
  -8   2  -4    3.52    0.17
   8   2   4    3.26    0.17
   8   2   4    3.60    0.16
   9  -2   4   11.11    0.42
  -9  -2  -4   11.45    0.34
   9  -2   4   11.60    0.37
   9   2   4   11.16    0.40
   9   2   4   12.00    0.34
  -9   2  -4   11.30    0.36
 -10  -2  -4    6.01    0.24
  10  -2   4    6.22    0.30
  10  -2   4    6.36    0.26
 -10   2  -4    6.17    0.25
  10   2   4    6.57    0.29
  10   2   4    6.77    0.23
 -11  -2  -4    4.12    0.20
  11  -2   4    4.52    0.26
  11  -2   4    4.34    0.22
  11   2   4    4.17    0.24
 -11   2  -4    4.15    0.20
  12  -2   4    0.23    0.08
 -12  -2  -4    0.21    0.08
  12  -2   4    0.28    0.11
  12   2   4    0.10    0.10
 -12   2  -4    0.16    0.08
 -13  -2  -4   12.65    0.42
  13  -2   4   12.85    0.45
 -13   2  -4   12.73    0.43
 -14  -2  -4    0.51    0.11
  14  -2   4    0.54    0.12
 -14   2  -4    0.60    0.11
 -15  -2  -4    0.13    0.10
 -15   2  -4    0.11    0.10
 -16  -2  -4   -0.06    0.09
  17  -3  -4    1.95    0.21
 -16  -3   4    2.10    0.18
  16  -3  -4    2.75    0.24
 -16   3   4    2.15    0.18
  15  -3  -4    0.02    0.10
 -15  -3   4    0.00    0.09
 -15   3   4   -0.05    0.08
  14  -3  -4    0.40    0.12
 -14  -3   4    0.43    0.10
 -14   3   4    0.42    0.11
  13  -3  -4    4.28    0.25
 -13  -3   4    4.59    0.23
  13  -3  -4    4.32    0.27
 -13   3   4    4.67    0.23
  12  -3  -4   11.04    0.43
 -12  -3   4   11.32    0.38
  12  -3  -4   12.31    0.46
 -12   3   4   11.53    0.38
  12   3  -4   12.40    0.46
 -11  -3   4    3.08    0.18
  11  -3  -4    2.68    0.20
  11  -3  -4    3.28    0.21
  11   3  -4    3.04    0.15
 -11   3   4    3.16    0.18
  11   3  -4    3.22    0.21
 -10  -3   4    0.04    0.06
  10  -3  -4   -0.03    0.06
  10  -3  -4   -0.06    0.06
  10   3  -4   -0.04    0.05
 -10   3   4   -0.05    0.06
  10   3  -4   -0.02    0.07
   9  -3  -4    5.19    0.23
   9  -3  -4    5.50    0.24
   9   3  -4    5.03    0.23
  -9   3   4    5.22    0.20
   9   3  -4    4.93    0.19
   8  -3  -4   26.90    0.78
   8  -3  -4   26.59    0.76
   8   3  -4   27.83    0.69
  -8   3   4   26.58    0.67
   8   3  -4   27.17    0.79
   7  -3  -4    6.04    0.24
   7  -3  -4    5.99    0.23
   7   3  -4    5.67    0.23
  -7   3   4    5.83    0.15
  -7   3   4    5.78    0.19
   7   3  -4    5.88    0.20
   6  -3  -4   52.96    1.35
  -6  -3   4   50.68    1.40
   6  -3  -4   52.52    1.40
   6   3  -4   53.14    1.27
  -6   3   4   53.37    1.22
  -6   3   4   54.88    1.23
   6   3  -4   52.23    1.41
   5  -3  -4    5.02    0.20
   5  -3  -4    5.13    0.19
  -5  -3   4    5.08    0.20
  -5   3   4    5.30    0.15
  -5   3   4    5.21    0.19
  -5   3   4    5.13    0.16
   5   3  -4    5.45    0.20
   5   3  -4    5.30    0.18
  -4  -3   4   64.56    1.70
   4  -3  -4   63.56    1.63
   4  -3  -4   64.43    1.69
  -4   3   4   64.74    1.47
   4   3  -4   64.50    1.54
  -4   3   4   68.30    1.68
   4   3  -4   65.85    1.70
  -4   3   4   65.50    1.52
   3  -3  -4   57.91    1.51
  -3  -3   4   60.49    1.58
   3  -3  -4   60.74    1.57
   3   3  -4   60.54    1.44
  -3   3   4   61.34    1.37
  -3   3   4   63.11    1.56
   3   3  -4   61.96    1.59
   2  -3  -4   38.10    0.99
   2  -3  -4   37.11    0.97
  -2  -3   4   36.59    1.00
  -2   3   4   38.28    0.98
   2   3  -4   39.49    1.01
  -2   3   4   38.07    0.86
   2   3  -4   37.92    0.91
  -2   3   4   37.82    0.91
  -1  -3   4  254.73    6.06
   1  -3  -4  258.99    6.77
   1  -3  -4  268.45    6.32
  -1  -3   4  256.30    6.65
   1   3  -4  269.80    6.65
  -1   3   4  271.46    6.77
   1   3  -4  258.14    6.05
  -1   3   4  269.02    6.06
   0  -3  -4  119.49    2.89
   0  -3  -4  115.58    3.06
   0  -3   4  116.72    3.04
   0  -3   4  119.35    2.88
   0  -3   4  117.30    2.77
   0   3  -4  123.01    3.05
   0   3   4  122.37    3.06
   0   3  -4  118.34    2.76
   0   3   4  119.36    2.77
  -1  -3  -4   87.81    2.16
   1  -3   4   87.47    2.28
   1  -3   4   86.50    2.06
   1   3   4   89.74    2.25
   1   3   4   88.07    2.07
  -1   3  -4   87.25    2.06
   1   3   4   88.19    2.25
  -1   3  -4   91.00    2.28
   2  -3   4   13.25    0.42
   2  -3   4   13.77    0.36
   2   3   4   13.77    0.37
   2   3   4   13.78    0.38
   2   3   4   13.99    0.37
  -2   3  -4   13.91    0.36
  -2   3  -4   14.34    0.42
  -3  -3  -4    0.84    0.06
   3  -3   4    0.75    0.06
   3  -3   4    0.75    0.08
  -3  -3  -4    0.70    0.05
   3   3   4    0.85    0.05
   3   3   4    0.72    0.07
  -3   3  -4    0.74    0.05
   3   3   4    0.83    0.06
  -4  -3  -4   39.38    0.92
  -4  -3  -4   41.56    1.05
   4  -3   4   39.10    1.09
   4  -3   4   39.60    0.95
   4   3   4   40.39    1.05
   4   3   4   39.85    0.98
   5  -3   4   14.71    0.48
   5  -3   4   15.20    0.39
  -5  -3  -4   14.81    0.38
  -5  -3  -4   15.38    0.44
   5   3   4   14.87    0.41
   5   3   4   14.82    0.44
  -5   3  -4   15.55    0.39
   5   3   4   16.22    0.45
   6  -3   4    6.98    0.24
   6  -3   4    6.98    0.20
   6  -3   4    6.79    0.28
  -6  -3  -4    6.77    0.21
   6   3   4    6.94    0.23
  -6   3  -4    7.12    0.20
  -6   3  -4    6.80    0.23
   6   3   4    6.58    0.24
   7  -3   4    0.42    0.09
   7  -3   4    0.40    0.06
  -7  -3  -4    0.37    0.05
   7  -3   4    0.41    0.05
   7   3   4    0.48    0.07
   7   3   4    0.27    0.06
  -7   3  -4    0.46    0.07
  -7   3  -4    0.42    0.04
   8  -3   4    7.24    0.31
   8  -3   4    7.93    0.27
  -8  -3  -4    7.32    0.24
   8   3   4    7.24    0.25
  -8   3  -4    7.46    0.26
   8   3   4    6.96    0.28
   9  -3   4    0.25    0.10
   9  -3   4    0.41    0.08
  -9  -3  -4    0.34    0.07
  -9   3  -4    0.35    0.08
   9   3   4    0.30    0.08
   9   3   4    0.23    0.07
  10  -3   4   12.36    0.41
  10  -3   4   12.07    0.47
 -10  -3  -4   11.55    0.36
  10   3   4   12.15    0.44
  10   3   4   12.53    0.38
 -10   3  -4   11.31    0.38
  11  -3   4    0.15    0.08
 -11  -3  -4    0.17    0.07
  11  -3   4    0.19    0.10
 -11   3  -4    0.11    0.08
  11   3   4    0.18    0.10
  11   3   4    0.02    0.07
 -12  -3  -4    0.44    0.09
  12  -3   4    0.59    0.11
 -12   3  -4    0.49    0.10
  12   3   4    0.75    0.13
 -13  -3  -4    0.65    0.10
  13  -3   4    0.55    0.11
 -13   3  -4    0.57    0.12
 -14  -3  -4    0.92    0.12
 -14   3  -4    0.78    0.12
 -15  -3  -4   -0.16    0.09
 -15   3  -4    0.16    0.10
 -16  -3  -4    0.67    0.13
  16  -4  -4    3.80    0.27
 -16   4   4    3.75    0.23
  15  -4  -4    2.24    0.22
 -15   4   4    2.30    0.19
  14  -4  -4    0.68    0.13
 -14   4   4    0.42    0.10
  13  -4  -4    6.36    0.32
  13  -4  -4    6.68    0.33
 -13   4   4    6.47    0.27
  12  -4  -4    1.75    0.17
  12  -4  -4    1.74    0.18
 -12   4   4    2.03    0.16
  12   4  -4    2.25    0.18
  11  -4  -4    2.87    0.21
  11  -4  -4    2.68    0.21
  11   4  -4    3.16    0.16
  11   4  -4    3.19    0.21
 -11   4   4    2.91    0.16
  10  -4  -4    0.16    0.08
  10  -4  -4    0.15    0.09
  10   4  -4    0.15    0.06
  10   4  -4    0.37    0.09
 -10   4   4    0.35    0.07
   9  -4  -4   10.00    0.37
   9  -4  -4   10.13    0.37
   9   4  -4   10.49    0.32
  -9   4   4    9.87    0.31
   9   4  -4   10.00    0.37
   8  -4  -4    4.50    0.21
   8  -4  -4    4.15    0.21
   8   4  -4    4.41    0.17
  -8   4   4    3.98    0.17
   8   4  -4    4.31    0.21
  -7  -4   4    3.05    0.16
   7  -4  -4    2.98    0.17
   7  -4  -4    3.03    0.16
  -7   4   4    2.82    0.13
   7   4  -4    2.92    0.14
   7   4  -4    2.89    0.16
  -7   4   4    2.94    0.10
   6  -4  -4    0.08    0.05
   6  -4  -4    0.21    0.06
  -6  -4   4    0.12    0.05
   6   4  -4    0.14    0.06
  -6   4   4    0.02    0.03
  -6   4   4    0.15    0.04
   6   4  -4    0.11    0.05
  -5  -4   4   43.02    1.18
   5  -4  -4   43.24    1.17
   5  -4  -4   42.56    1.14
  -5   4   4   44.93    1.05
   5   4  -4   44.37    1.07
   5   4  -4   43.38    1.19
  -5   4   4   43.71    1.02
  -5   4   4   46.45    1.17
   4  -4  -4   85.02    2.21
   4  -4  -4   83.92    2.13
  -4  -4   4   83.26    2.22
   4   4  -4   86.15    2.02
  -4   4   4   89.44    2.20
  -4   4   4   85.42    1.92
  -4   4   4   86.45    2.00
   3  -4  -4   46.99    1.21
   3  -4  -4   49.18    1.23
  -3  -4   4   47.68    1.25
  -3   4   4   49.24    1.22
   3   4  -4   47.49    1.14
  -3   4   4   39.79    1.11
  -3   4   4   48.64    1.07
   2  -4  -4   16.54    0.45
  -2  -4   4   16.77    0.48
   2  -4  -4   15.86    0.47
   2   4  -4   16.36    0.43
  -2   4   4   16.64    0.43
  -2   4   4   16.81    0.45
  -1  -4   4    0.37    0.06
   1  -4  -4    0.52    0.04
   1  -4  -4    0.45    0.06
  -1   4   4    0.43    0.05
   1   4  -4    0.35    0.04
  -1   4   4    0.47    0.04
   0  -4  -4  114.41    2.76
   0  -4   4  110.34    2.89
   0  -4  -4  112.93    2.86
   0  -4   4  113.76    2.75
   0   4   4  114.71    2.86
   0   4   4  112.16    2.63
   0   4  -4  109.84    2.62
  -1  -4  -4   78.83    1.95
  -1  -4  -4   78.26    2.00
   1  -4   4   79.19    1.94
   1  -4   4   77.27    2.05
  -1   4  -4   78.88    1.85
   1   4   4   78.24    2.00
   1   4   4   80.35    2.00
   1   4   4   77.73    1.86
   2  -4   4    2.49    0.13
   2  -4   4    2.16    0.13
   2   4   4    2.36    0.09
   2   4   4    2.40    0.10
   2   4   4    2.23    0.12
  -2   4  -4    2.43    0.10
   3  -4   4   39.49    1.00
   3  -4   4   38.89    1.07
   3  -4   4   37.93    0.94
   3   4   4   39.83    1.01
   3   4   4   38.59    0.96
   3   4   4   38.49    1.02
  -3   4  -4   38.55    0.93
   4  -4   4   25.20    0.75
   4  -4   4   25.07    0.64
   4  -4   4   27.04    0.69
  -4  -4  -4   27.18    0.70
   4   4   4   26.54    0.69
   4   4   4   23.28    0.69
   4   4   4   25.15    0.66
   5  -4   4   19.73    0.49
   5  -4   4   20.14    0.55
   5  -4   4   18.73    0.60
  -5   4  -4   19.50    0.49
   5   4   4   18.71    0.55
   5   4   4   19.51    0.53
   6  -4   4   14.43    0.49
   6  -4   4   14.57    0.38
  -6  -4  -4   14.08    0.38
   6  -4   4   14.87    0.44
   6   4   4   14.51    0.44
  -6   4  -4   14.62    0.42
  -6   4  -4   14.57    0.38
   6   4   4   14.63    0.42
  -7  -4  -4    1.11    0.08
   7  -4   4    1.15    0.08
   7  -4   4    1.22    0.11
   7  -4   4    0.91    0.12
  -7   4  -4    1.14    0.07
  -7   4  -4    1.08    0.10
   7   4   4    1.14    0.10
   7   4   4    1.15    0.10
   8  -4   4    7.37    0.32
  -8  -4  -4    7.49    0.24
   8  -4   4    7.70    0.28
   8   4   4    7.19    0.26
  -8   4  -4    7.24    0.27
   8   4   4    7.32    0.29
   9  -4   4    0.62    0.12
  -9  -4  -4    0.67    0.08
   9  -4   4    0.75    0.10
  -9   4  -4    0.57    0.09
   9   4   4    0.56    0.09
   9   4   4    0.53    0.09
  10  -4   4    0.26    0.09
  10  -4   4    0.22    0.11
 -10  -4  -4    0.18    0.08
 -10   4  -4    0.19    0.08
  10   4   4    0.23    0.08
  10   4   4    0.19    0.08
  11  -4   4    0.02    0.11
  11  -4   4    0.16    0.09
 -11  -4  -4    0.00    0.07
  11   4   4   -0.03    0.08
 -11   4  -4    0.01    0.08
  11   4   4   -0.07    0.07
  12  -4   4    0.05    0.08
 -12  -4  -4    0.08    0.08
 -12   4  -4    0.01    0.08
  12   4   4    0.09    0.09
  13  -4   4    0.11    0.10
 -13  -4  -4    0.17    0.09
 -13   4  -4    0.09    0.10
 -14  -4  -4    0.18    0.09
 -14   4  -4    0.15    0.11
 -15  -4  -4    0.02    0.10
 -15   4  -4    0.06    0.10
  16  -5  -4   -0.02    0.12
 -16   5   4   -0.19    0.08
  15  -5  -4    2.19    0.22
 -15   5   4    2.09    0.18
  14  -5  -4    0.15    0.12
 -14   5   4    0.31    0.10
  13  -5  -4    0.08    0.11
 -13   5   4    0.10    0.08
  12  -5  -4   -0.03    0.10
  12  -5  -4    0.06    0.09
  12   5  -4    0.05    0.07
 -12   5   4   -0.06    0.07
  11  -5  -4    0.07    0.09
  11  -5  -4    0.20    0.10
  11   5  -4    0.09    0.07
 -11   5   4    0.18    0.08
  11   5  -4    0.11    0.09
  10  -5  -4    1.51    0.15
  10  -5  -4    1.14    0.14
  10   5  -4    1.43    0.14
  10   5  -4    1.05    0.11
 -10   5   4    1.34    0.12
   9  -5  -4    1.82    0.16
   9  -5  -4    1.38    0.14
   9   5  -4    1.48    0.13
   9   5  -4    1.77    0.15
  -9   5   4    1.69    0.12
   8  -5  -4   -0.09    0.06
   8  -5  -4    0.03    0.07
  -8   5   4    0.00    0.05
   8   5  -4    0.03    0.06
   8   5  -4    0.05    0.05
   7  -5  -4    1.36    0.12
   7  -5  -4    1.41    0.13
  -7  -5   4    1.20    0.11
   7   5  -4    1.49    0.12
   7   5  -4    1.28    0.10
  -7   5   4    1.18    0.10
   6  -5  -4    4.08    0.20
  -6  -5   4    3.96    0.19
   6  -5  -4    4.07    0.19
   6   5  -4    4.46    0.18
   6   5  -4    4.07    0.19
  -6   5   4    4.32    0.15
  -6   5   4    4.12    0.16
  -5  -5   4   18.03    0.55
   5  -5  -4   18.35    0.54
   5  -5  -4   18.20    0.55
   5   5  -4   18.54    0.51
  -5   5   4   18.75    0.47
  -5   5   4   18.18    0.47
   5   5  -4   18.42    0.56
  -4  -5   4   28.87    0.84
   4  -5  -4   30.93    0.83
   4  -5  -4   29.75    0.83
   4   5  -4   30.96    0.78
  -4   5   4   31.17    0.82
  -4   5   4   30.33    0.72
   3  -5  -4    3.97    0.16
   3  -5  -4    4.04    0.19
  -3  -5   4    3.96    0.17
  -3   5   4    4.10    0.16
  -3   5   4    3.87    0.15
   3   5  -4    3.98    0.16
   2  -5  -4   16.21    0.49
   2  -5  -4   16.54    0.46
  -2  -5   4   15.61    0.49
  -2   5   4   16.51    0.44
  -2   5   4   17.29    0.46
   2   5  -4   16.70    0.45
  -1  -5   4   11.01    0.36
   1  -5  -4   11.25    0.33
   1  -5  -4   11.77    0.37
  -1   5   4   11.43    0.33
  -1   5   4   12.05    0.34
   1   5  -4   11.68    0.33
   0  -5  -4   12.66    0.40
   0  -5   4   12.29    0.40
   0  -5   4   12.96    0.39
   0  -5  -4   12.66    0.35
   0   5   4   12.58    0.36
   0   5  -4   12.72    0.35
   0   5   4   12.70    0.36
  -1  -5  -4   66.70    1.70
   1  -5   4   63.42    1.75
   1  -5   4   65.71    1.67
  -1  -5  -4   68.21    1.68
   1   5   4   68.19    1.71
   1   5   4   65.96    1.60
   1   5   4   67.18    1.71
  -1   5  -4   66.01    1.58
   2  -5   4   96.59    2.34
   2  -5   4   93.84    2.47
  -2  -5  -4   93.58    2.41
  -2  -5  -4   94.77    2.35
   2   5   4   92.97    2.25
   2   5   4   98.32    2.42
  -2   5  -4   93.73    2.22
   2   5   4   93.93    2.42
   3  -5   4    2.36    0.15
   3  -5   4    2.53    0.15
   3   5   4    2.62    0.11
   3   5   4    2.28    0.14
   3   5   4    2.44    0.11
  -3   5  -4    2.52    0.11
   4  -5   4   13.35    0.41
   4  -5   4   12.65    0.44
   4   5   4   12.80    0.39
  -4   5  -4   13.06    0.36
   4   5   4   13.22    0.39
   4   5   4   13.65    0.39
   5  -5   4   18.49    0.60
   5  -5   4   20.22    0.57
   5   5   4   18.97    0.54
  -5   5  -4   19.11    0.49
   6  -5   4    3.19    0.17
   6  -5   4    2.81    0.19
  -6   5  -4    2.98    0.12
   6   5   4    2.84    0.15
   6   5   4    3.06    0.17
   7  -5   4    0.17    0.08
   7  -5   4    0.04    0.09
  -7   5  -4   -0.02    0.07
  -7   5  -4    0.10    0.04
   7   5   4    0.10    0.06
   7   5   4    0.05    0.07
   8  -5   4   16.21    0.50
   8  -5   4   14.97    0.54
   8   5   4   15.03    0.49
  -8   5  -4   14.84    0.46
   8   5   4   14.96    0.46
   9  -5   4   22.58    0.66
   9  -5   4   21.25    0.72
  -9   5  -4   21.20    0.61
   9   5   4   21.33    0.67
   9   5   4   21.31    0.61
 -10  -5  -4    0.27    0.08
  10  -5   4    0.33    0.10
  10  -5   4    0.31    0.12
  10   5   4    0.37    0.10
  10   5   4    0.50    0.10
 -10   5  -4    0.33    0.09
 -11  -5  -4    0.35    0.09
  11  -5   4    0.30    0.10
 -11   5  -4    0.24    0.09
  11   5   4    0.24    0.10
  11   5   4    0.18    0.09
  12  -5   4    1.46    0.16
 -12  -5  -4    1.16    0.12
 -12   5  -4    1.00    0.13
  12   5   4    1.38    0.13
  12   5   4    1.11    0.15
 -13  -5  -4    4.37    0.23
  13  -5   4    4.85    0.28
 -13   5  -4    4.49    0.25
 -14  -5  -4    1.04    0.13
 -14   5  -4    1.08    0.15
  15  -6  -4    4.85    0.32
 -15   6   4    5.26    0.27
  14  -6  -4    1.61    0.19
 -14   6   4    1.36    0.15
  13  -6  -4    1.02    0.16
 -13   6   4    1.10    0.13
  12  -6  -4    0.47    0.12
  12  -6  -4    0.39    0.12
  12   6  -4    0.19    0.09
 -12   6   4    0.35    0.09
  11  -6  -4    2.18    0.19
  11  -6  -4    1.81    0.18
  11   6  -4    1.81    0.17
 -11   6   4    1.81    0.15
  11   6  -4    2.03    0.16
  10  -6  -4   22.38    0.72
  10  -6  -4   24.01    0.75
  10   6  -4   22.59    0.65
 -10   6   4   23.09    0.62
  10   6  -4   22.69    0.73
   9  -6  -4   -0.05    0.08
   9  -6  -4   -0.03    0.08
   9   6  -4    0.05    0.07
   9   6  -4   -0.05    0.07
  -9   6   4   -0.10    0.06
  -8  -6   4   14.87    0.50
   8  -6  -4   14.82    0.51
   8  -6  -4   14.93    0.50
  -8   6   4   15.12    0.42
   8   6  -4   14.18    0.45
   8   6  -4   15.26    0.51
  -7  -6   4    1.44    0.14
   7  -6  -4    1.29    0.14
   7  -6  -4    1.43    0.14
   7   6  -4    1.44    0.13
  -7   6   4    1.26    0.10
   7   6  -4    1.20    0.11
   6  -6  -4   16.79    0.55
   6  -6  -4   17.40    0.54
  -6  -6   4   17.13    0.54
   6   6  -4   17.23    0.50
  -6   6   4   17.62    0.46
  -6   6   4   16.89    0.46
   6   6  -4   17.03    0.54
  -5  -6   4    0.88    0.10
   5  -6  -4    0.69    0.10
   5  -6  -4    0.93    0.10
  -5   6   4    0.95    0.08
   5   6  -4    0.97    0.09
   5   6  -4    0.83    0.09
  -5   6   4    0.84    0.08
   4  -6  -4   12.18    0.42
   4  -6  -4   12.66    0.40
  -4  -6   4   12.64    0.41
  -4   6   4   12.56    0.34
   4   6  -4   12.74    0.38
  -4   6   4   12.25    0.36
   3  -6  -4   15.95    0.51
  -3  -6   4   15.58    0.49
   3  -6  -4   16.01    0.47
  -3   6   4   16.55    0.47
  -3   6   4   15.92    0.44
   3   6  -4   16.58    0.46
   2  -6  -4    1.12    0.11
  -2  -6   4    1.09    0.10
   2  -6  -4    0.98    0.08
  -2   6   4    1.01    0.10
  -2   6   4    1.18    0.09
   2   6  -4    1.09    0.09
  -1  -6   4    6.98    0.27
   1  -6  -4    7.15    0.23
   1  -6  -4    7.13    0.29
   1   6  -4    7.47    0.25
  -1   6   4    7.53    0.25
  -1   6   4    7.81    0.25
   0  -6  -4    0.37    0.05
   0  -6   4    0.39    0.07
   0  -6  -4    0.49    0.09
   0  -6   4    0.31    0.07
   0   6   4    0.11    0.06
   0   6  -4    0.38    0.06
   0   6   4    0.37    0.06
   1  -6   4    0.73    0.09
  -1  -6  -4    0.82    0.11
  -1  -6  -4    0.67    0.07
   1  -6   4    0.64    0.09
   1   6   4    0.68    0.09
  -1   6  -4    0.62    0.07
   1   6   4    0.84    0.07
  -2  -6  -4    4.90    0.17
  -2  -6  -4    5.04    0.23
   2  -6   4    4.83    0.23
   2  -6   4    4.81    0.22
   2   6   4    4.90    0.18
   2   6   4    4.90    0.18
  -2   6  -4    5.00    0.18
   2   6   4    4.87    0.21
   3  -6   4    5.95    0.26
  -3  -6  -4    6.04    0.21
   3  -6   4    6.49    0.26
   3   6   4    6.33    0.22
  -3   6  -4    5.92    0.21
   3   6   4    6.02    0.24
   3   6   4    6.37    0.22
   4  -6   4    6.14    0.26
   4  -6   4    5.72    0.27
  -4   6  -4    6.39    0.21
   4   6   4    5.93    0.22
   4   6   4    6.43    0.25
   5  -6   4    0.47    0.10
   5  -6   4    0.58    0.10
   5   6   4    0.77    0.10
   5   6   4    0.33    0.05
   6  -6   4   -0.09    0.06
   6  -6   4    0.27    0.10
   6   6   4    0.11    0.08
  -6   6  -4    0.05    0.05
   6   6   4    0.14    0.06
   7  -6   4   13.73    0.45
   7  -6   4   13.40    0.49
  -7   6  -4   12.88    0.42
   7   6   4   12.83    0.43
   7   6   4   12.48    0.42
   8  -6   4   16.59    0.58
   8  -6   4   16.34    0.53
   8   6   4   15.33    0.51
  -8   6  -4   15.54    0.48
   8   6   4   15.75    0.49
   9  -6   4    9.29    0.37
   9  -6   4    9.62    0.41
   9   6   4    8.85    0.33
   9   6   4    8.67    0.35
  -9   6  -4    9.02    0.33
  10  -6   4    2.16    0.19
  10   6   4    2.06    0.17
 -10   6  -4    2.08    0.17
  10   6   4    2.07    0.17
  11  -6   4    0.45    0.11
 -11   6  -4    0.32    0.11
  11   6   4    0.40    0.10
  11   6   4    0.35    0.10
  12  -6   4    0.70    0.14
  12   6   4    0.73    0.12
 -12   6  -4    0.74    0.13
 -13   6  -4    0.18    0.10
 -14   6  -4    0.55    0.14
  15  -7  -4    0.26    0.15
 -15   7   4    0.59    0.12
  14  -7  -4    1.44    0.19
 -14   7   4    1.82    0.17
  13  -7  -4    0.04    0.11
 -13   7   4    0.30    0.10
  12  -7  -4    1.76    0.20
 -12   7   4    1.75    0.15
  12   7  -4    1.84    0.16
  11  -7  -4    0.97    0.15
  11  -7  -4    0.75    0.15
  11   7  -4    0.69    0.11
 -11   7   4    0.73    0.11
  10  -7  -4    4.15    0.26
  10  -7  -4    4.36    0.26
  10   7  -4    3.79    0.21
  10   7  -4    4.46    0.25
 -10   7   4    4.13    0.20
   9  -7  -4    1.80    0.18
   9  -7  -4    1.87    0.18
   9   7  -4    1.63    0.16
   9   7  -4    1.82    0.15
  -9   7   4    1.66    0.14
   8  -7  -4    3.25    0.20
  -8  -7   4    2.99    0.20
   8  -7  -4    3.39    0.23
   8   7  -4    2.94    0.18
   8   7  -4    3.00    0.20
  -8   7   4    3.08    0.16
   7  -7  -4    0.30    0.09
  -7  -7   4    0.23    0.10
   7  -7  -4    0.21    0.10
  -7   7   4    0.45    0.08
   7   7  -4    0.24    0.09
   7   7  -4    0.21    0.08
  -6  -7   4   13.08    0.44
   6  -7  -4   13.08    0.47
   6  -7  -4   13.35    0.44
   6   7  -4   12.89    0.42
   6   7  -4   12.68    0.44
  -6   7   4   12.69    0.37
  -6   7   4   12.77    0.37
   5  -7  -4    2.25    0.16
   5  -7  -4    2.13    0.18
  -5  -7   4    2.35    0.15
   5   7  -4    2.37    0.15
   5   7  -4    2.16    0.16
  -5   7   4    2.39    0.13
   4  -7  -4    0.81    0.10
   4  -7  -4    0.77    0.12
  -4  -7   4    0.79    0.10
   4   7  -4    1.01    0.10
  -4   7   4    0.61    0.08
  -3  -7   4    8.06    0.30
   3  -7  -4    7.64    0.32
   3  -7  -4    7.93    0.28
  -3   7   4    7.81    0.27
   3   7  -4    8.15    0.28
   2  -7  -4    0.34    0.09
  -2  -7   4    0.18    0.08
   2  -7  -4    0.34    0.06
  -2   7   4    0.22    0.07
   2   7  -4    0.21    0.06
  -1  -7   4    5.10    0.23
   1  -7  -4    5.05    0.19
   1  -7  -4    5.38    0.26
   1   7  -4    5.13    0.21
  -1   7   4    5.47    0.22
  -1   7   4    5.59    0.21
   0  -7  -4   18.63    0.59
   0  -7   4   18.30    0.57
   0  -7   4   18.40    0.57
   0  -7  -4   19.15    0.53
   0   7   4   19.05    0.53
   0   7   4   19.05    0.54
   0   7  -4   18.47    0.52
  -1  -7  -4    5.29    0.19
  -1  -7  -4    5.31    0.26
   1  -7   4    5.57    0.25
   1  -7   4    5.56    0.26
   1   7   4    5.74    0.22
  -1   7  -4    5.07    0.20
   1   7   4    5.12    0.22
  -2  -7  -4    0.47    0.06
   2  -7   4    0.45    0.09
   2  -7   4    0.33    0.10
  -2   7  -4    0.45    0.07
   2   7   4    0.29    0.08
   2   7   4    0.41    0.06
  -3  -7  -4    1.12    0.10
   3  -7   4    1.27    0.13
   3  -7   4    1.12    0.13
   3   7   4    1.12    0.12
  -3   7  -4    1.19    0.10
   3   7   4    1.18    0.09
   4  -7   4   13.39    0.47
   4  -7   4   13.54    0.46
   4   7   4   13.49    0.41
  -4   7  -4   13.40    0.39
   4   7   4   13.46    0.43
   5  -7   4    1.45    0.16
   5  -7   4    1.35    0.15
   5   7   4    1.54    0.14
   5   7   4    1.43    0.11
  -5   7  -4    1.52    0.11
   6  -7   4    4.71    0.25
   6  -7   4    4.83    0.28
  -6   7  -4    4.82    0.19
   6   7   4    5.28    0.24
   7  -7   4    3.02    0.21
   7  -7   4    2.98    0.23
  -7   7  -4    2.53    0.18
   7   7   4    3.01    0.19
   7   7   4    2.93    0.17
   8  -7   4    3.19    0.25
   8  -7   4    2.85    0.21
  -8   7  -4    3.06    0.20
   8   7   4    3.04    0.20
   8   7   4    3.07    0.18
   9  -7   4   -0.04    0.09
   9   7   4   -0.09    0.07
   9   7   4    0.01    0.07
  -9   7  -4   -0.12    0.08
  10  -7   4    4.25    0.26
 -10   7  -4    4.03    0.23
  10   7   4    3.90    0.22
  11  -7   4    3.11    0.23
 -11   7  -4    2.61    0.19
  11   7   4    2.54    0.19
  12  -7   4    1.23    0.17
  12   7   4    1.10    0.14
 -12   7  -4    1.30    0.15
 -13   7  -4    0.32    0.12
  14  -8  -4    0.46    0.15
 -14   8   4    0.40    0.11
  13  -8  -4    1.49    0.20
  13   8  -4    1.36    0.16
 -13   8   4    1.59    0.16
  12  -8  -4    0.77    0.16
 -12   8   4    0.72    0.12
  12   8  -4    0.94    0.13
  11  -8  -4    2.53    0.22
 -11   8   4    2.08    0.16
  11   8  -4    2.06    0.17
  10  -8  -4    2.39    0.21
  10  -8  -4    2.10    0.21
  10   8  -4    2.45    0.19
 -10   8   4    2.08    0.16
   9  -8  -4    0.92    0.15
   9  -8  -4    0.89    0.14
  -9   8   4    0.70    0.10
   9   8  -4    0.78    0.12
   9   8  -4    0.80    0.13
   8  -8  -4    9.79    0.39
   8  -8  -4    8.90    0.40
  -8  -8   4    9.35    0.38
  -8   8   4    9.05    0.31
   8   8  -4    9.76    0.39
   8   8  -4    9.10    0.35
  -7  -8   4    0.08    0.08
   7  -8  -4   -0.01    0.09
   7  -8  -4    0.15    0.10
  -7   8   4    0.19    0.07
   7   8  -4    0.04    0.08
   7   8  -4    0.08    0.08
  -6  -8   4   19.30    0.61
   6  -8  -4   18.33    0.63
   6  -8  -4   20.29    0.61
   6   8  -4   18.32    0.57
  -6   8   4   18.98    0.52
   6   8  -4   19.08    0.62
   5  -8  -4   71.21    1.93
   5  -8  -4   75.52    1.96
  -5  -8   4   73.14    1.96
   5   8  -4   73.94    1.82
  -5   8   4   72.82    1.77
   5   8  -4   72.38    1.97
  -5   8   4   74.79    1.70
  -4  -8   4    2.75    0.17
   4  -8  -4    2.77    0.22
   4  -8  -4    2.81    0.17
   4   8  -4    2.54    0.18
  -4   8   4    2.58    0.16
  -3  -8   4    4.57    0.22
   3  -8  -4    4.26    0.26
   3  -8  -4    4.16    0.19
   3   8  -4    4.42    0.22
  -3   8   4    4.36    0.20
   2  -8  -4    0.50    0.08
  -2  -8   4    0.41    0.09
   2  -8  -4    0.23    0.10
   2   8  -4    0.31    0.08
  -2   8   4    0.53    0.09
   1  -8  -4    0.08    0.05
   1  -8  -4    0.03    0.10
  -1  -8   4   -0.10    0.07
   1   8  -4    0.07    0.06
  -1   8   4   -0.06    0.06
   0  -8  -4    1.70    0.17
   0  -8  -4    1.83    0.12
   0  -8   4    1.44    0.15
   0   8   4    1.67    0.14
   0   8  -4    2.06    0.14
   1  -8   4   49.75    1.37
   1  -8   4   48.86    1.34
  -1  -8  -4   50.46    1.35
  -1  -8  -4   49.71    1.31
  -1   8  -4   48.41    1.24
   1   8   4   50.42    1.27
   2  -8   4    0.00    0.08
   2  -8   4   -0.10    0.09
  -2  -8  -4   -0.04    0.05
  -2   8  -4    0.06    0.06
   2   8   4   -0.09    0.07
   2   8   4    0.02    0.05
  -3  -8  -4    1.17    0.10
   3  -8   4    0.96    0.13
   3  -8   4    1.04    0.14
  -3   8  -4    1.22    0.11
   3   8   4    1.11    0.12
   3   8   4    1.13    0.10
   4  -8   4    0.19    0.10
   4  -8   4    0.21    0.10
  -4   8  -4    0.20    0.07
   4   8   4    0.01    0.08
   5  -8   4   18.76    0.60
   5  -8   4   18.24    0.62
   5   8   4   17.94    0.56
  -5   8  -4   18.36    0.51
   6  -8   4    0.50    0.12
   6  -8   4    0.52    0.13
   6   8   4    0.52    0.10
   7  -8   4   18.77    0.63
   7  -8   4   19.96    0.67
   7   8   4   18.41    0.58
   8  -8   4    2.26    0.21
   8   8   4    2.63    0.20
  -8   8  -4    2.49    0.19
   9  -8   4    6.71    0.33
   9   8   4    6.75    0.30
  -9   8  -4    6.44    0.29
  10  -8   4    0.04    0.11
  10   8   4    0.26    0.11
 -10   8  -4    0.23    0.11
  11  -8   4    0.67    0.15
  11   8   4    0.76    0.13
 -11   8  -4    0.82    0.13
  12   8   4    0.45    0.12
 -12   8  -4    0.20    0.11
  13   8   4    0.15    0.11
  13  -9  -4    0.03    0.13
  13   9  -4   -0.06    0.10
  12  -9  -4    0.35    0.15
  12   9  -4    0.07    0.10
  11  -9  -4    4.69    0.32
  11   9  -4    4.73    0.27
  10  -9  -4    1.15    0.17
  10   9  -4    1.21    0.15
   9  -9  -4    1.40    0.19
   9   9  -4    1.59    0.16
   8  -9  -4    2.78    0.24
   8   9  -4    2.94    0.20
   7  -9  -4    0.60    0.14
  -7  -9   4    0.55    0.12
   7   9  -4    0.67    0.12
   7   9  -4    0.53    0.12
   6  -9  -4    5.74    0.32
  -6  -9   4    6.64    0.29
   6   9  -4    6.73    0.29
   6   9  -4    6.10    0.29
  -5  -9   4    4.16    0.23
   5  -9  -4    4.16    0.27
  -5   9   4    3.97    0.20
   5   9  -4    3.62    0.22
   5   9  -4    4.25    0.23
  -4  -9   4   23.40    0.71
   4  -9  -4   22.59    0.74
   4   9  -4   22.57    0.67
  -4   9   4   23.32    0.64
   3  -9  -4    3.29    0.24
  -3  -9   4    3.45    0.21
  -3   9   4    3.33    0.19
   3   9  -4    3.18    0.19
   2  -9  -4    8.92    0.40
  -2  -9   4    9.47    0.35
   2   9  -4    9.52    0.35
  -2   9   4    9.14    0.33
   1  -9  -4    4.33    0.28
  -1  -9   4    4.58    0.23
  -1   9   4    4.94    0.24
   1   9  -4    4.53    0.23
   0  -9   4   16.83    0.54
   0  -9  -4   16.26    0.57
   0   9  -4   16.02    0.49
   0   9   4   15.63    0.50
   1  -9   4   -0.04    0.08
   1  -9   4   -0.01    0.10
  -1  -9  -4   -0.01    0.10
   1   9   4    0.10    0.09
  -1   9  -4    0.02    0.07
   2  -9   4    4.91    0.28
   2  -9   4    5.04    0.26
  -2   9  -4    4.76    0.22
   2   9   4    4.86    0.24
   3  -9   4    0.16    0.10
   3  -9   4    0.18    0.10
  -3   9  -4    0.19    0.08
   3   9   4    0.13    0.10
   4  -9   4    0.03    0.09
   4  -9   4    0.01    0.10
   4   9   4    0.04    0.09
  -4   9  -4    0.07    0.07
   5  -9   4    1.00    0.15
   5  -9   4    0.99    0.15
   5   9   4    0.99    0.14
  -5   9  -4    1.23    0.11
   6  -9   4    0.24    0.12
   6  -9   4    0.33    0.13
   6   9   4    0.17    0.10
   7  -9   4   -0.07    0.10
   7   9   4   -0.01    0.09
   8  -9   4    0.67    0.15
  -8   9  -4    0.55    0.13
   8   9   4    0.27    0.11
   9  -9   4    1.74    0.19
   9   9   4    1.82    0.18
  -9   9  -4    1.75    0.17
  10  -9   4    0.17    0.13
 -10   9  -4    0.04    0.10
  10   9   4    0.10    0.12
  11  -9   4    0.28    0.15
 -11   9  -4    0.54    0.13
  11   9   4    0.26    0.12
  12   9   4    0.75    0.15
  11 -10  -4   -0.02    0.12
  11  10  -4    0.06    0.12
  10 -10  -4    4.78    0.33
  10  10  -4    5.06    0.29
   9 -10  -4   -0.02    0.12
   9  10  -4    0.03    0.10
   8 -10  -4    6.59    0.36
   8  10  -4    6.19    0.31
   7 -10  -4    1.30    0.18
   7  10  -4    1.15    0.15
   6 -10  -4    0.53    0.14
   6  10  -4    0.72    0.12
  -5 -10   4    1.07    0.13
   5 -10  -4    0.91    0.16
  -5  10   4    0.87    0.11
   5  10  -4    1.01    0.13
   5  10  -4    0.94    0.14
  -4 -10   4    0.68    0.12
   4 -10  -4    0.43    0.14
  -4  10   4    0.56    0.11
   4  10  -4    0.66    0.12
   3 -10  -4    1.59    0.19
  -3 -10   4    1.82    0.16
   3  10  -4    1.42    0.14
  -3  10   4    1.49    0.14
  -2 -10   4    0.04    0.09
   2 -10  -4    0.13    0.12
  -2  10   4    0.02    0.08
   2  10  -4    0.13    0.09
  -1 -10   4    0.27    0.09
   1 -10  -4    0.17    0.12
  -1  10   4    0.20    0.10
   1  10  -4    0.25    0.09
   0 -10  -4    4.70    0.29
   0 -10   4    5.62    0.26
   0  10  -4    5.29    0.25
   0  10   4    5.07    0.25
   1 -10   4    0.55    0.13
   1 -10   4    0.73    0.12
  -1  10  -4    0.70    0.11
   1  10   4    0.70    0.12
   2 -10   4    2.63    0.20
   2 -10   4    2.84    0.22
   2  10   4    2.62    0.19
  -2  10  -4    2.54    0.17
   3 -10   4    0.73    0.14
   3 -10   4    0.77    0.13
  -3  10  -4    0.73    0.11
   3  10   4    0.95    0.13
   4 -10   4    0.15    0.12
   4 -10   4    0.13    0.11
  -4  10  -4    0.24    0.08
   4  10   4    0.26    0.11
   5 -10   4    0.31    0.13
  -5  10  -4    0.27    0.08
   5  10   4    0.20    0.12
   6 -10   4    0.33    0.14
   6  10   4    0.10    0.11
   7 -10   4    0.08    0.13
   7  10   4    0.12    0.12
   8 -10   4    2.17    0.21
   8  10   4    1.93    0.20
  -8  10  -4    1.84    0.19
   9 -10   4    0.49    0.16
  -9  10  -4    0.48    0.13
   9  10   4    0.37    0.13
  10 -10   4    1.31    0.20
 -10  10  -4    1.69    0.18
  10  10   4    1.43    0.18
   9 -11  -4    0.11    0.14
   9  11  -4    0.00    0.11
   8 -11  -4    1.90    0.23
   8  11  -4    1.79    0.19
   7 -11  -4   -0.15    0.11
   7  11  -4    0.08    0.11
   6 -11  -4    0.28    0.15
   6  11  -4    0.07    0.10
   5 -11  -4   -0.30    0.11
   5  11  -4    0.02    0.09
   4 -11  -4    0.38    0.14
  -4  11   4    0.29    0.10
   4  11  -4    0.21    0.11
   3 -11  -4    1.71    0.20
   3  11  -4    1.51    0.16
  -3  11   4    1.37    0.15
   2 -11  -4    0.38    0.14
   2  11  -4    0.44    0.12
  -2  11   4    0.48    0.11
   1 -11  -4    0.74    0.16
   1  11  -4    0.57    0.11
  -1  11   4    0.68    0.13
   0 -11  -4    1.41    0.18
   0  11  -4    1.59    0.15
   0  11   4    1.42    0.16
   1  11   4    0.31    0.12
  -1  11  -4    0.26    0.10
   2 -11   4    0.20    0.13
  -2  11  -4    0.34    0.10
   2  11   4    0.25    0.11
   3 -11   4    0.92    0.17
  -3  11  -4    0.74    0.12
   3  11   4    0.82    0.14
   4 -11   4    2.27    0.22
   4  11   4    2.35    0.21
  -4  11  -4    2.10    0.17
   5 -11   4    0.46    0.16
   5  11   4    0.40    0.13
   6 -11   4    0.57    0.17
   6  11   4    0.73    0.16
   7 -11   4    1.28    0.21
   7  11   4    1.51    0.18
   8 -11   4    1.55    0.22
  -8  11  -4    1.58    0.18
   8  11   4    1.76    0.20
   7 -12  -4   -0.08    0.14
   7  12  -4    0.00    0.12
   6 -12  -4    0.56    0.17
   6  12  -4    0.51    0.14
   5 -12  -4    1.55    0.22
   5  12  -4    1.48    0.17
   4 -12  -4    0.09    0.14
   4  12  -4   -0.08    0.09
   3 -12  -4   -0.11    0.13
  -3  12   4   -0.13    0.09
   3  12  -4   -0.09    0.09
   2 -12  -4    0.54    0.16
  -2  12   4    0.43    0.13
   2  12  -4    0.52    0.13
   1 -12  -4    0.25    0.14
   1  12  -4   -0.18    0.09
  -1  12   4   -0.16    0.10
   0  12   4    0.38    0.12
   0  12  -4    0.52    0.12
  -1  12  -4    0.26    0.11
   1  12   4    0.05    0.11
   2  12   4    1.22    0.17
  -2  12  -4    1.15    0.15
   3 -12   4    0.81    0.19
   3  12   4    1.10    0.17
  -3  12  -4    0.98    0.14
   4 -12   4    2.83    0.27
   4  12   4    2.16    0.21
   5 -12   4    0.82    0.20
   5  12   4    1.32    0.19
   6 -12   4    0.10    0.16
   6  12   4    0.35    0.15
   3  13  -4    3.04    0.24
  -3  13   4    2.82    0.23
   2 -13  -4    1.21    0.22
   2  13  -4    0.86    0.16
  -2  13   4    0.94    0.16
   1  13  -4    0.18    0.12
  -1  13   4   -0.06    0.11
   0  13  -4    0.03    0.11
   0  13   4    0.13    0.13
   1  13   4   -0.21    0.11
  -1  13  -4   -0.05    0.10
  -2  13  -4    0.31    0.12
   2  13   4    0.31    0.13
  17   0  -5    4.07    0.28
 -17   0   5    4.03    0.25
  16   0  -5    0.01    0.09
 -16   0   5    0.03    0.09
  15   0  -5    4.35    0.26
 -15   0   5    5.00    0.24
 -14   0   5    0.01    0.08
 -13   0   5    1.23    0.12
  13   0  -5    1.39    0.16
 -12   0   5   -0.04    0.07
  12   0  -5   -0.08    0.07
  11   0  -5   17.51    0.57
 -11   0   5   17.16    0.49
 -10   0   5    0.07    0.05
  10   0  -5    0.06    0.07
   9   0  -5   27.20    0.64
   9   0  -5   25.84    0.77
  -9   0   5   26.15    0.67
   8   0  -5   -0.01    0.04
   8   0  -5    0.01    0.02
  -8   0   5    0.03    0.04
  -7   0   5   49.48    1.14
   7   0  -5   47.88    1.30
  -6   0   5    0.05    0.02
   6   0  -5    0.02    0.02
   6   0  -5    0.05    0.03
  -6   0   5    0.02    0.03
  -5   0   5   41.99    0.98
   5   0  -5   42.92    1.12
   5   0  -5   41.58    1.12
   5   0  -5   42.36    1.00
  -5   0   5   42.72    1.12
  -5   0   5   42.92    1.00
  -4   0   5    0.03    0.02
  -4   0   5    0.00    0.02
   4   0  -5    0.10    0.03
  -4   0   5    0.04    0.02
   4   0  -5    0.04    0.03
  -3   0   5   64.96    1.67
   3   0  -5   64.99    1.66
  -3   0   5   63.69    1.52
   3   0  -5   66.47    1.67
  -2   0   5    0.06    0.02
   2   0  -5    0.08    0.03
   1   0  -5  537.15   13.15
  -1   0   5  494.30   11.94
   0   0  -5    0.00    0.03
   0   0   5    0.02    0.02
   0   0  -5    0.01    0.01
   0   0   5    0.05    0.03
   1   0   5   14.13    0.36
  -1   0  -5   14.48    0.40
   2   0   5   -0.03    0.02
  -2   0  -5   -0.01    0.03
   2   0   5    0.05    0.03
  -3   0  -5    3.28    0.11
   3   0   5    3.22    0.12
  -3   0  -5    3.74    0.14
   3   0   5    3.31    0.14
  -4   0  -5    0.00    0.03
   4   0   5    0.02    0.03
  -4   0  -5   -0.02    0.02
   4   0   5    0.05    0.04
   5   0   5   37.18    1.03
  -5   0  -5   38.33    0.89
   5   0   5   38.42    0.91
   7   0   5    9.48    0.34
  -7   0  -5    9.58    0.29
   7   0   5    9.65    0.27
   8   0   5   -0.03    0.06
   8   0   5    0.00    0.04
  -8   0  -5    0.00    0.05
   9   0   5   39.65    0.94
   9   0   5   37.22    1.10
  -9   0  -5   38.31    0.94
 -10   0  -5   -0.02    0.06
  10   0   5    0.02    0.08
  11   0   5   19.98    0.66
 -11   0  -5   19.48    0.55
 -12   0  -5    0.03    0.07
  12   0   5   -0.07    0.08
 -13   0  -5    2.15    0.17
  13   0   5    2.40    0.17
 -14   0  -5    0.01    0.08
 -15   0  -5   10.16    0.38
 -16   0  -5    0.02    0.10
 -17  -1   5    0.52    0.12
  17  -1  -5    0.48    0.13
 -17   1   5    0.44    0.12
  16  -1  -5    0.09    0.10
 -16  -1   5    0.14    0.10
 -16   1   5    0.03    0.09
 -15  -1   5    2.85    0.19
  15  -1  -5    3.10    0.23
 -15   1   5    3.23    0.20
 -14  -1   5    0.09    0.08
  14  -1  -5    0.07    0.08
 -14   1   5   -0.02    0.08
 -13  -1   5    0.07    0.07
  13  -1  -5    0.11    0.09
  13  -1  -5    0.30    0.11
  13   1  -5    0.23    0.10
 -13   1   5    0.14    0.08
  12  -1  -5    0.50    0.11
  12  -1  -5    0.65    0.11
 -12  -1   5    0.68    0.10
  12   1  -5    0.64    0.11
 -12   1   5    0.65    0.10
  11  -1  -5    4.13    0.22
  11  -1  -5    4.27    0.23
 -11  -1   5    4.21    0.20
  11   1  -5    4.22    0.23
 -11   1   5    4.36    0.19
  10  -1  -5    0.10    0.07
  10  -1  -5    0.03    0.07
 -10  -1   5    0.01    0.05
  10   1  -5    0.08    0.07
 -10   1   5    0.10    0.06
   9  -1  -5    1.25    0.11
  -9  -1   5    1.53    0.11
   9   1  -5    1.40    0.08
   9   1  -5    1.53    0.12
  -9   1   5    1.44    0.11
   8  -1  -5   57.99    1.55
  -8  -1   5   58.83    1.36
   8  -1  -5   58.37    1.35
  -8   1   5   58.36    1.35
   8   1  -5   59.69    1.37
   8   1  -5   55.71    1.55
   7  -1  -5    0.10    0.05
  -7  -1   5    0.15    0.04
   7  -1  -5    0.17    0.02
   7   1  -5    0.10    0.03
  -7   1   5    0.13    0.04
   7   1  -5    0.10    0.05
  -7   1   5    0.16    0.02
  -6  -1   5   12.54    0.33
   6  -1  -5   11.82    0.37
  -6   1   5   12.49    0.32
   6   1  -5   12.19    0.31
   6   1  -5   11.71    0.37
  -6   1   5   12.18    0.30
  -5  -1   5   12.11    0.36
   5  -1  -5   11.35    0.35
   5  -1  -5   11.39    0.34
  -5   1   5   12.13    0.35
  -5   1   5   11.82    0.30
   5   1  -5   11.58    0.35
  -5   1   5   11.67    0.29
   5   1  -5   11.88    0.30
   5   1  -5   11.34    0.35
   4  -1  -5   21.18    0.59
  -4  -1   5   21.53    0.60
   4  -1  -5   21.73    0.59
  -4  -1   5   22.04    0.54
   4  -1  -5   21.93    0.58
  -4   1   5   21.21    0.51
   4   1  -5   21.67    0.60
  -4   1   5   22.13    0.52
  -4   1   5   21.90    0.59
   4   1  -5   22.22    0.53
   4   1  -5   21.85    0.59
   3  -1  -5   59.49    1.55
   3  -1  -5   59.27    1.56
  -3  -1   5   60.85    1.56
  -3  -1   5   59.37    1.42
   3  -1  -5   61.53    1.49
   3   1  -5   61.61    1.56
   3   1  -5   62.38    1.57
  -3   1   5   61.20    1.56
  -3   1   5   60.86    1.36
   2  -1  -5  128.58    3.31
   2  -1  -5  130.91    3.12
  -2  -1   5  127.97    3.29
   2  -1  -5  127.11    3.29
  -2  -1   5  129.47    3.00
  -2   1   5  130.76    2.99
   2   1  -5  132.51    3.29
  -1  -1   5  446.66   10.73
   1  -1  -5  475.99   11.92
   1  -1  -5  462.89   11.18
  -1  -1   5  461.56   11.80
   1   1  -5  475.24   11.78
  -1   1   5  458.31   11.92
  -1   1   5  460.12   10.73
   0  -1  -5  261.19    6.50
   0  -1   5  242.38    5.78
   0  -1  -5  250.98    6.09
   0  -1   5  248.75    6.36
   0   1   5  245.33    5.78
   0   1   5  256.00    6.53
   0   1  -5  258.17    6.36
  -1  -1  -5   63.31    1.55
   1  -1   5   62.45    1.65
  -1  -1  -5   63.80    1.43
  -1  -1  -5   65.69    1.64
   1  -1   5   63.35    1.50
   1   1   5   63.80    1.64
   1   1   5   63.42    1.50
  -1   1  -5   65.82    1.65
  -2  -1  -5   43.44    0.98
   2  -1   5   44.81    1.07
   2  -1   5   42.32    1.15
  -2  -1  -5   44.66    1.13
   2  -1   5   43.52    1.03
   2   1   5   43.08    1.04
  -2   1  -5   43.88    1.15
   2   1   5   42.44    1.13
   3  -1   5    0.40    0.04
   3  -1   5    0.50    0.06
  -3  -1  -5    0.43    0.04
  -3  -1  -5    0.53    0.05
   3  -1   5    0.39    0.04
  -3   1  -5    0.45    0.05
   3   1   5    0.44    0.05
   3   1   5    0.29    0.04
   4  -1   5    0.21    0.05
  -4  -1  -5    0.20    0.03
   4  -1   5    0.21    0.03
  -4  -1  -5    0.29    0.04
   4  -1   5    0.22    0.03
   4   1   5    0.38    0.05
  -4   1  -5    0.16    0.04
   4   1   5    0.20    0.04
   5  -1   5   32.53    0.80
  -5  -1  -5   31.42    0.75
   5  -1   5   31.17    0.76
   5  -1   5   31.00    0.88
   5   1   5   31.61    0.87
  -5   1  -5   31.49    0.76
   5   1   5   32.21    0.78
   6  -1   5   11.02    0.29
  -6  -1  -5   10.87    0.30
   6  -1   5   10.80    0.31
   6  -1   5   10.58    0.37
   6   1   5   11.01    0.31
  -6   1  -5   11.13    0.32
   6   1   5   10.83    0.36
   7  -1   5    0.00    0.04
   7  -1   5    0.03    0.06
  -7  -1  -5   -0.02    0.04
   7  -1   5   -0.01    0.03
  -7   1  -5   -0.12    0.04
   7   1   5   -0.04    0.05
  -8  -1  -5    1.03    0.09
   8  -1   5    0.74    0.06
   8  -1   5    0.54    0.10
   8   1   5    0.73    0.09
  -8   1  -5    0.71    0.08
   8   1   5    0.80    0.07
   9  -1   5    0.96    0.08
   9  -1   5    0.95    0.12
   9  -1   5    0.68    0.08
  -9  -1  -5    0.90    0.09
  -9   1  -5    0.80    0.09
   9   1   5    1.00    0.11
  10  -1   5    0.50    0.08
  10  -1   5    0.54    0.11
 -10  -1  -5    0.45    0.09
  10   1   5    0.65    0.08
  10   1   5    0.43    0.10
 -10   1  -5    0.48    0.08
  11  -1   5    2.75    0.17
 -11  -1  -5    2.81    0.17
  11  -1   5    2.70    0.21
  11   1   5    2.49    0.19
 -11   1  -5    2.71    0.16
  12  -1   5    0.50    0.09
 -12  -1  -5    0.67    0.10
  12  -1   5    0.40    0.12
 -12   1  -5    0.65    0.10
  12   1   5    0.35    0.11
 -13  -1  -5    0.64    0.11
  13  -1   5    0.76    0.11
 -13   1  -5    0.83    0.12
 -14  -1  -5    6.55    0.28
 -14   1  -5    6.46    0.29
 -15  -1  -5    0.06    0.09
 -15   1  -5   -0.02    0.10
 -16  -1  -5    0.18    0.11
  17  -2  -5   -0.11    0.10
 -17   2   5   -0.04    0.09
  16  -2  -5    0.13    0.11
 -16  -2   5    0.06    0.09
 -16   2   5    0.06    0.10
  15  -2  -5    0.09    0.10
 -15  -2   5    0.11    0.09
 -15   2   5    0.16    0.10
  14  -2  -5    2.23    0.20
 -14  -2   5    1.93    0.16
 -14   2   5    1.97    0.16
  13  -2  -5    7.36    0.33
 -13  -2   5    7.46    0.30
  13  -2  -5    7.07    0.34
 -13   2   5    7.56    0.29
  13   2  -5    8.07    0.35
  12  -2  -5    2.49    0.19
  12  -2  -5    2.19    0.19
 -12  -2   5    2.43    0.16
  12   2  -5    2.48    0.19
 -12   2   5    2.12    0.16
  11  -2  -5   51.72    1.40
 -11  -2   5   52.69    1.28
  11  -2  -5   52.35    1.46
  11   2  -5   54.72    1.48
 -11   2   5   52.22    1.27
  10  -2  -5   45.01    1.25
 -10  -2   5   44.34    1.09
  10  -2  -5   43.28    1.20
  10   2  -5   44.84    1.09
 -10   2   5   44.59    1.08
  10   2  -5   46.74    1.26
   9  -2  -5   16.53    0.53
   9  -2  -5   16.90    0.52
  -9  -2   5   17.10    0.47
   9   2  -5   17.15    0.54
  -9   2   5   17.53    0.47
   9   2  -5   17.14    0.45
   8  -2  -5    2.71    0.15
   8  -2  -5    2.69    0.16
  -8  -2   5    2.58    0.13
   8   2  -5    2.56    0.15
  -8   2   5    2.76    0.13
   8   2  -5    2.64    0.11
   7  -2  -5   20.64    0.59
   7  -2  -5   20.00    0.60
  -7   2   5   20.96    0.49
   7   2  -5   19.78    0.60
  -7   2   5   20.80    0.52
   7   2  -5   21.08    0.52
   6  -2  -5   25.17    0.69
   6  -2  -5   24.86    0.70
   6   2  -5   25.17    0.72
  -6   2   5   25.80    0.61
  -6   2   5   25.79    0.60
   6   2  -5   25.50    0.63
  -5  -2   5    0.80    0.08
   5  -2  -5    0.98    0.08
   5  -2  -5    0.97    0.07
   5   2  -5    1.08    0.07
  -5   2   5    0.99    0.07
  -5   2   5    0.91    0.07
   5   2  -5    0.96    0.08
  -5   2   5    0.99    0.05
  -4  -2   5  108.90    2.56
  -4  -2   5  107.68    2.81
   4  -2  -5  109.09    2.80
   4  -2  -5  109.03    2.68
   4   2  -5  109.17    2.55
   4   2  -5  111.95    2.81
   4   2  -5  111.87    2.82
  -4   2   5  109.88    2.45
  -4   2   5  111.76    2.80
  -4   2   5  110.61    2.54
  -3  -2   5   45.56    1.23
   3  -2  -5   45.77    1.18
   3  -2  -5   46.63    1.22
  -3  -2   5   47.95    1.13
   3   2  -5   47.33    1.12
  -3   2   5   48.42    1.07
   3   2  -5   48.23    1.24
  -3   2   5   48.19    1.22
  -2  -2   5   78.10    1.86
   2  -2  -5   78.92    1.95
  -2  -2   5   77.65    2.04
   2  -2  -5   81.34    2.05
  -2   2   5   79.64    2.04
  -2   2   5   79.21    1.86
   2   2  -5   82.21    2.05
   2   2  -5   79.79    1.86
  -2   2   5   80.46    1.78
  -1  -2   5   34.03    0.83
  -1  -2   5   33.22    0.91
   1  -2  -5   34.33    0.87
   1   2  -5   35.01    0.83
  -1   2   5   34.97    0.83
   1   2  -5   35.07    0.92
   0  -2  -5  118.87    2.83
   0  -2   5  115.34    2.99
   0  -2   5  114.84    2.72
   0   2  -5  118.68    2.99
   0   2   5  118.03    2.72
  -1  -2  -5  163.14    3.85
  -1  -2  -5  157.05    3.60
   1  -2   5  162.55    3.84
   1  -2   5  156.18    3.69
  -1  -2  -5  159.80    4.09
   1  -2   5  156.33    4.07
   1   2   5  161.02    3.70
  -1   2  -5  162.29    4.07
   1   2   5  161.15    4.11
   2  -2   5   28.71    0.80
   2  -2   5   28.77    0.71
  -2  -2  -5   28.89    0.76
  -2  -2  -5   29.09    0.67
   2  -2   5   29.25    0.73
  -2   2  -5   29.97    0.80
   2   2   5   29.58    0.72
   2   2   5   29.68    0.77
   3  -2   5   60.26    1.43
  -3  -2  -5   61.13    1.56
  -3  -2  -5   58.95    1.36
   3  -2   5   57.78    1.60
   3  -2   5   62.36    1.48
  -3   2  -5   62.66    1.60
   3   2   5   61.37    1.44
   3   2   5   61.27    1.57
  -4  -2  -5    4.56    0.14
   4  -2   5    4.84    0.16
   4  -2   5    4.24    0.19
  -4  -2  -5    4.63    0.17
   4  -2   5    4.61    0.15
   4   2   5    4.74    0.17
   5  -2   5    6.51    0.19
   5  -2   5    6.52    0.21
  -5  -2  -5    6.61    0.20
  -5  -2  -5    6.87    0.23
   5  -2   5    6.63    0.26
   5   2   5    6.66    0.22
   5   2   5    6.50    0.23
  -5   2  -5    6.29    0.21
   6  -2   5   32.16    0.95
   6  -2   5   34.22    0.81
   6  -2   5   34.65    0.87
  -6  -2  -5   33.41    0.80
   6   2   5   34.07    0.84
  -6   2  -5   33.28    0.82
   6   2   5   33.88    0.93
   7  -2   5    2.29    0.16
   7  -2   5    2.34    0.12
  -7  -2  -5    2.27    0.11
   7  -2   5    2.33    0.10
   7   2   5    2.47    0.13
   7   2   5    2.53    0.14
  -7   2  -5    2.24    0.13
  -8  -2  -5    5.97    0.21
   8  -2   5    6.18    0.28
   8  -2   5    6.23    0.19
  -8   2  -5    5.80    0.23
   8   2   5    6.02    0.21
   8   2   5    5.80    0.25
   9  -2   5    0.88    0.09
   9  -2   5    0.94    0.12
  -9  -2  -5    0.92    0.09
   9   2   5    0.97    0.09
  -9   2  -5    0.94    0.10
   9   2   5    0.94    0.11
  10  -2   5    0.21    0.10
  10  -2   5    0.10    0.07
 -10  -2  -5    0.22    0.07
  10   2   5   -0.03    0.06
  10   2   5   -0.01    0.08
 -10   2  -5    0.19    0.07
  11  -2   5    0.17    0.10
 -11  -2  -5    0.22    0.08
  11  -2   5    0.39    0.09
  11   2   5    0.11    0.09
 -11   2  -5    0.27    0.09
  12  -2   5    0.05    0.08
 -12  -2  -5    0.08    0.08
  12   2   5   -0.03    0.09
 -12   2  -5    0.09    0.08
 -13  -2  -5    0.00    0.08
 -13   2  -5    0.26    0.09
 -14  -2  -5    0.00    0.08
 -14   2  -5    0.03    0.09
 -15  -2  -5    0.14    0.10
 -15   2  -5    0.19    0.11
 -16  -2  -5    1.51    0.17
  17  -3  -5    0.19    0.12
  16  -3  -5    0.28    0.12
 -16   3   5    0.23    0.11
  15  -3  -5    0.07    0.10
 -15   3   5    0.07    0.09
  14  -3  -5    0.33    0.11
 -14   3   5    0.17    0.10
  13  -3  -5    1.39    0.17
  13  -3  -5    1.47    0.16
 -13   3   5    1.44    0.13
  12  -3  -5   31.93    0.98
  12  -3  -5   32.90    0.95
  12   3  -5   33.24    0.99
 -12   3   5   32.05    0.84
  11  -3  -5    1.96    0.18
  11  -3  -5    2.12    0.17
  11   3  -5    1.61    0.12
  11   3  -5    2.13    0.17
 -11   3   5    1.84    0.14
  10  -3  -5    1.40    0.13
  10  -3  -5    1.33    0.13
  10   3  -5    1.69    0.14
  10   3  -5    1.57    0.10
 -10   3   5    1.28    0.12
   9  -3  -5   11.24    0.40
   9  -3  -5   11.93    0.40
   9   3  -5   11.47    0.33
   9   3  -5   11.52    0.41
  -9   3   5   11.66    0.34
   8  -3  -5    1.61    0.13
   8  -3  -5    1.87    0.13
   8   3  -5    1.84    0.13
  -8   3   5    1.63    0.10
   8   3  -5    1.92    0.10
   7  -3  -5    7.24    0.27
   7  -3  -5    6.41    0.25
  -7   3   5    7.22    0.22
  -7   3   5    7.00    0.18
   7   3  -5    6.87    0.22
   7   3  -5    6.86    0.27
   6  -3  -5    4.86    0.20
   6  -3  -5    4.85    0.19
  -6  -3   5    4.58    0.19
  -6   3   5    5.00    0.14
   6   3  -5    4.82    0.20
  -6   3   5    4.93    0.16
   6   3  -5    4.87    0.17
   5  -3  -5  103.65    2.67
   5  -3  -5  101.76    2.56
  -5  -3   5  101.74    2.68
   5   3  -5  102.84    2.69
  -5   3   5  106.83    2.41
   5   3  -5  103.53    2.44
  -5   3   5  105.74    2.33
  -5   3   5  107.37    2.66
   4  -3  -5    2.44    0.13
  -4  -3   5    2.76    0.13
   4  -3  -5    2.44    0.11
  -4   3   5    2.59    0.09
  -4   3   5    2.59    0.10
   4   3  -5    2.42    0.11
  -4   3   5    2.54    0.11
   3  -3  -5   29.50    0.80
  -3  -3   5   30.47    0.83
   3  -3  -5   29.83    0.80
   3   3  -5   31.14    0.75
  -3   3   5   31.13    0.80
  -3   3   5   31.09    0.70
  -2  -3   5   10.54    0.29
  -2  -3   5    9.19    0.31
   2  -3  -5    9.77    0.28
   2  -3  -5    9.31    0.30
  -2   3   5   10.37    0.24
  -2   3   5    9.97    0.27
   2   3  -5    9.99    0.32
  -2   3   5   10.03    0.27
   2   3  -5   10.59    0.28
  -1  -3   5  104.18    2.46
   1  -3  -5  102.44    2.80
  -1  -3   5  102.41    2.70
   1  -3  -5  104.93    2.57
  -1   3   5  105.58    2.46
   1   3  -5  104.51    2.46
  -1   3   5  111.23    2.39
   1   3  -5  109.56    2.71
   0  -3   5  123.61    2.96
   0  -3  -5  130.02    3.10
   0  -3   5  125.68    3.26
   0   3   5  124.39    2.94
   0   3   5  129.88    2.97
   0   3  -5  127.09    2.96
   0   3  -5  133.00    3.27
   1  -3   5   27.91    0.69
  -1  -3  -5   28.04    0.73
   1  -3   5   25.51    0.71
   1  -3   5   27.91    0.78
   1   3   5   28.63    0.73
  -1   3  -5   28.65    0.69
   1   3   5   28.77    0.63
  -1   3  -5   29.13    0.78
   1   3   5   28.11    0.73
   1   3   5   27.55    0.70
   2  -3   5   36.78    1.01
   2  -3   5   36.17    0.90
   2  -3   5   37.40    0.94
  -2  -3  -5   38.02    0.96
   2   3   5   37.32    0.97
  -2   3  -5   37.95    0.90
   2   3   5   36.75    0.91
   2   3   5   37.31    0.96
   3  -3   5    6.61    0.25
  -3  -3  -5    6.81    0.21
  -3  -3  -5    6.55    0.18
   3  -3   5    6.65    0.20
   3  -3   5    6.80    0.21
   3   3   5    6.43    0.22
   3   3   5    6.78    0.21
   3   3   5    6.80    0.21
  -3   3  -5    6.76    0.20
   4  -3   5    6.35    0.26
  -4  -3  -5    6.86    0.22
  -4  -3  -5    6.54    0.19
   4  -3   5    6.57    0.20
   4  -3   5    7.09    0.22
   4   3   5    7.02    0.22
   4   3   5    6.83    0.22
   4   3   5    6.71    0.22
   5  -3   5    0.91    0.08
  -5  -3  -5    0.89    0.08
   5  -3   5    0.86    0.07
   5  -3   5    0.75    0.09
  -5  -3  -5    0.78    0.06
   5   3   5    0.92    0.08
   5   3   5    0.91    0.08
  -6  -3  -5   15.02    0.39
   6  -3   5   13.16    0.42
   6  -3   5   14.67    0.49
   6  -3   5   15.49    0.39
   6   3   5   14.63    0.45
   6   3   5   15.37    0.42
  -6   3  -5   15.04    0.42
   7  -3   5    2.55    0.11
   7  -3   5    2.38    0.17
  -7  -3  -5    2.20    0.11
   7   3   5    2.68    0.14
   7   3   5    2.42    0.14
  -7   3  -5    2.37    0.14
   8  -3   5    0.75    0.11
  -8  -3  -5    0.65    0.07
   8  -3   5    0.85    0.07
   8  -3   5    0.51    0.07
  -8   3  -5    0.80    0.09
   8   3   5    0.75    0.09
   8   3   5    0.61    0.09
  -9  -3  -5    2.89    0.15
   9  -3   5    2.95    0.20
   9  -3   5    2.83    0.16
   9   3   5    2.94    0.16
  -9   3  -5    2.70    0.16
   9   3   5    2.86    0.17
  10  -3   5    2.05    0.15
  10  -3   5    2.16    0.19
 -10  -3  -5    1.93    0.13
  10   3   5    1.91    0.17
  10   3   5    2.17    0.14
 -10   3  -5    2.05    0.15
 -11  -3  -5    0.02    0.07
  11  -3   5    0.08    0.08
  11  -3   5   -0.01    0.10
  11   3   5    0.00    0.06
  11   3   5   -0.01    0.08
 -11   3  -5    0.10    0.08
  12  -3   5    0.01    0.08
 -12  -3  -5    0.10    0.08
  12   3   5    0.02    0.10
 -12   3  -5    0.13    0.09
 -13  -3  -5    1.47    0.14
 -13   3  -5    1.31    0.14
 -14  -3  -5    1.20    0.14
 -14   3  -5    1.30    0.15
 -15  -3  -5    1.51    0.15
 -15   3  -5    1.36    0.16
 -16  -3  -5    0.20    0.12
  16  -4  -5    0.07    0.11
 -16   4   5   -0.03    0.09
  15  -4  -5    1.60    0.18
 -15   4   5    1.61    0.16
  14  -4  -5   11.82    0.47
 -14   4   5   11.16    0.40
  13  -4  -5    0.58    0.12
  13  -4  -5    0.95    0.15
 -13   4   5    0.89    0.12
  12  -4  -5    0.07    0.09
  12  -4  -5   -0.02    0.09
 -12   4   5    0.16    0.08
  12   4  -5   -0.01    0.08
  11  -4  -5    0.03    0.08
  11  -4  -5    0.04    0.09
  11   4  -5    0.04    0.06
  11   4  -5    0.21    0.09
 -11   4   5    0.03    0.07
  10  -4  -5    4.67    0.25
  10  -4  -5    4.32    0.23
  10   4  -5    4.32    0.19
 -10   4   5    4.26    0.19
  10   4  -5    4.47    0.23
   9  -4  -5    2.70    0.18
   9  -4  -5    2.63    0.17
   9   4  -5    2.48    0.17
  -9   4   5    2.65    0.14
   9   4  -5    2.72    0.14
   8  -4  -5    6.48    0.28
   8  -4  -5    6.69    0.27
   8   4  -5    6.92    0.28
   8   4  -5    6.98    0.24
  -8   4   5    6.65    0.23
   7  -4  -5   14.89    0.48
   7  -4  -5   14.75    0.47
  -7  -4   5   15.25    0.48
  -7   4   5   15.06    0.41
   7   4  -5   15.48    0.43
   7   4  -5   15.28    0.49
  -7   4   5   15.77    0.38
   6  -4  -5    1.35    0.10
  -6  -4   5    1.34    0.10
   6  -4  -5    1.27    0.11
  -6   4   5    1.25    0.07
  -6   4   5    1.29    0.08
   6   4  -5    1.18    0.09
   6   4  -5    1.39    0.11
  -5  -4   5    3.46    0.16
   5  -4  -5    3.58    0.15
   5  -4  -5    3.45    0.17
   5   4  -5    3.36    0.14
  -5   4   5    3.65    0.13
   5   4  -5    3.47    0.17
  -5   4   5    3.65    0.13
  -5   4   5    3.84    0.15
   4  -4  -5    9.93    0.34
  -4  -4   5   10.23    0.34
   4  -4  -5   10.28    0.32
   4   4  -5   10.47    0.31
  -4   4   5   10.78    0.31
  -4   4   5   10.61    0.27
  -4   4   5   10.86    0.29
   3  -4  -5    1.63    0.11
  -3  -4   5    1.79    0.11
  -3   4   5    1.70    0.07
   3   4  -5    1.82    0.09
  -3   4   5    1.79    0.08
  -3   4   5    1.79    0.09
   2  -4  -5    2.51    0.09
   2  -4  -5    2.38    0.13
  -2  -4   5    2.36    0.12
  -2   4   5    2.59    0.08
   2   4  -5    2.37    0.11
  -2   4   5    2.38    0.11
   1  -4  -5    7.28    0.21
   1  -4  -5    7.21    0.26
  -1  -4   5    7.95    0.26
  -1   4   5    7.48    0.21
  -1   4   5    7.53    0.23
   1   4  -5    7.73    0.23
   0  -4   5   30.90    0.78
   0  -4  -5   31.88    0.83
   0  -4   5   31.17    0.86
   0   4  -5   31.23    0.77
   0   4   5   31.68    0.81
   0   4   5   31.80    0.82
   0   4   5   30.67    0.78
  -1  -4  -5    1.75    0.11
   1  -4   5    1.47    0.09
   1  -4   5    1.50    0.10
   1  -4   5    1.69    0.11
  -1   4  -5    1.75    0.08
   1   4   5    1.57    0.10
   1   4   5    1.54    0.07
   1   4   5    1.68    0.07
  -2  -4  -5   21.24    0.59
   2  -4   5   20.90    0.58
   2  -4   5   21.21    0.63
   2  -4   5   21.27    0.54
   2   4   5   22.04    0.57
   2   4   5   20.70    0.56
   2   4   5   20.95    0.57
  -2   4  -5   21.74    0.54
   3  -4   5    0.91    0.08
   3  -4   5    0.78    0.09
   3   4   5    0.90    0.07
   3   4   5    0.87    0.06
   3   4   5    0.83    0.08
  -3   4  -5    0.94    0.07
   4  -4   5   52.45    1.27
  -4  -4  -5   55.86    1.38
   4  -4   5   50.55    1.44
   4   4   5   51.90    1.29
  -4   4  -5   52.96    1.26
   4   4   5   52.35    1.38
   4   4   5   54.85    1.38
  -5  -4  -5   14.34    0.37
   5  -4   5   14.69    0.38
   5  -4   5   13.75    0.47
   5   4   5   14.29    0.41
  -5   4  -5   13.89    0.37
   6  -4   5    0.19    0.06
   6  -4   5    0.14    0.08
   6  -4   5    0.26    0.05
  -6  -4  -5    0.17    0.04
  -6   4  -5    0.24    0.04
   6   4   5    0.24    0.06
   6   4   5    0.22    0.06
  -6   4  -5    0.25    0.07
   7  -4   5    0.91    0.09
   7  -4   5    1.00    0.12
   7  -4   5    1.09    0.08
  -7  -4  -5    1.02    0.08
   7   4   5    1.09    0.10
  -7   4  -5    1.07    0.10
   7   4   5    1.04    0.10
  -7   4  -5    1.10    0.07
   8  -4   5   33.79    0.89
   8  -4   5   32.46    0.97
  -8  -4  -5   32.54    0.80
   8   4   5   32.16    0.92
  -8   4  -5   31.70    0.83
   8   4   5   32.30    0.85
   9  -4   5   14.54    0.54
  -9  -4  -5   15.00    0.43
   9  -4   5   15.20    0.48
   9   4   5   15.06    0.45
   9   4   5   14.73    0.50
  -9   4  -5   15.64    0.46
  10  -4   5    0.97    0.12
  10  -4   5    1.01    0.15
 -10  -4  -5    0.88    0.10
  10   4   5    0.96    0.12
  10   4   5    0.99    0.11
 -10   4  -5    0.98    0.11
  11  -4   5   10.66    0.39
 -11  -4  -5   10.23    0.34
  11  -4   5   10.11    0.44
 -11   4  -5   10.44    0.37
  11   4   5   10.17    0.40
  11   4   5   10.27    0.35
 -12  -4  -5    0.26    0.09
  12  -4   5    0.26    0.09
 -12   4  -5    0.26    0.10
  12   4   5    0.15    0.10
 -13  -4  -5    1.89    0.16
 -13   4  -5    1.70    0.16
 -14  -4  -5    0.51    0.11
 -14   4  -5    0.51    0.12
 -15  -4  -5    0.11    0.10
  16  -5  -5    0.17    0.13
 -16   5   5    0.10    0.11
  15  -5  -5    5.10    0.31
 -15   5   5    4.90    0.26
  14  -5  -5    0.32    0.12
 -14   5   5    0.16    0.09
  13  -5  -5    0.20    0.11
 -13   5   5    0.30    0.10
  12  -5  -5    0.00    0.09
  12  -5  -5    0.09    0.10
 -12   5   5    0.00    0.07
  12   5  -5    0.07    0.07
  11  -5  -5    0.77    0.13
  11  -5  -5    0.79    0.13
  11   5  -5    0.90    0.13
  11   5  -5    0.73    0.10
 -11   5   5    0.78    0.10
  10  -5  -5    1.55    0.15
  10  -5  -5    1.45    0.15
 -10   5   5    1.37    0.12
  10   5  -5    1.69    0.16
  10   5  -5    1.53    0.13
   9  -5  -5   -0.01    0.07
   9  -5  -5   -0.06    0.07
  -9   5   5   -0.03    0.05
   9   5  -5    0.04    0.07
   9   5  -5   -0.06    0.05
  -8  -5   5    3.10    0.18
   8  -5  -5    3.32    0.20
   8  -5  -5    3.19    0.18
   8   5  -5    3.08    0.16
   8   5  -5    3.02    0.18
  -8   5   5    3.02    0.15
  -7  -5   5   15.70    0.50
   7  -5  -5   15.68    0.51
   7  -5  -5   15.40    0.49
  -7   5   5   15.15    0.42
   7   5  -5   15.61    0.45
   7   5  -5   16.11    0.51
   6  -5  -5    7.63    0.28
  -6  -5   5    7.60    0.29
   6  -5  -5    7.46    0.30
   6   5  -5    7.66    0.26
  -6   5   5    7.64    0.23
  -6   5   5    7.44    0.23
   6   5  -5    7.65    0.29
   5  -5  -5    1.25    0.11
   5  -5  -5    1.33    0.12
  -5  -5   5    1.27    0.11
  -5   5   5    1.25    0.09
   5   5  -5    1.31    0.10
  -5   5   5    1.40    0.08
  -5   5   5    1.41    0.10
   5   5  -5    1.29    0.11
  -4  -5   5    1.49    0.11
   4  -5  -5    1.31    0.12
   4  -5  -5    1.52    0.10
  -4   5   5    1.36    0.09
   4   5  -5    1.29    0.10
  -4   5   5    1.38    0.08
   3  -5  -5   22.12    0.60
   3  -5  -5   21.09    0.62
  -3  -5   5   20.41    0.62
  -3   5   5   21.76    0.59
  -3   5   5   21.65    0.52
   3   5  -5   22.06    0.57
  -3   5   5   21.57    0.56
  -2  -5   5    0.26    0.06
   2  -5  -5    0.25    0.04
   2  -5  -5    0.22    0.06
  -2   5   5    0.16    0.05
  -2   5   5    0.30    0.04
   2   5  -5    0.21    0.05
   1  -5  -5    6.29    0.19
   1  -5  -5    6.38    0.25
  -1  -5   5    6.12    0.24
  -1   5   5    6.31    0.20
  -1   5   5    6.47    0.22
   1   5  -5    6.53    0.21
   0  -5   5   14.15    0.46
   0  -5  -5   15.18    0.46
   0  -5  -5   14.81    0.40
   0   5   5   14.73    0.42
   0   5  -5   14.72    0.40
   0   5   5   14.94    0.41
  -1  -5  -5   13.28    0.42
   1  -5   5   13.46    0.41
  -1  -5  -5   13.38    0.37
   1  -5   5   13.18    0.43
   1   5   5   13.31    0.39
   1   5   5   13.43    0.37
   1   5   5   13.48    0.37
  -1   5  -5   13.45    0.37
   2  -5   5    9.39    0.32
  -2  -5  -5    9.14    0.32
   2  -5   5    9.51    0.34
   2   5   5    9.80    0.28
   2   5   5    9.04    0.30
  -2   5  -5    9.78    0.28
   2   5   5    9.72    0.28
   3  -5   5    4.95    0.23
   3  -5   5    5.41    0.21
   3   5   5    5.04    0.20
   3   5   5    5.06    0.18
  -3   5  -5    5.16    0.18
   3   5   5    5.06    0.18
   4  -5   5    0.45    0.09
   4  -5   5    0.49    0.08
   4   5   5    0.42    0.06
   4   5   5    0.35    0.07
  -4   5  -5    0.51    0.06
   4   5   5    0.50    0.06
   5  -5   5    2.06    0.14
   5  -5   5    1.85    0.16
   5   5   5    1.91    0.13
   5   5   5    1.82    0.11
   6  -5   5   18.62    0.54
   6  -5   5   17.22    0.59
   6   5   5   17.68    0.51
  -6   5  -5   18.30    0.47
   7  -5   5   27.90    0.76
   7  -5   5   26.53    0.83
   7   5   5   26.48    0.77
  -7   5  -5   25.97    0.71
  -7   5  -5   27.40    0.67
   7   5   5   26.34    0.72
   8  -5   5    0.70    0.13
   8  -5   5    0.96    0.11
  -8   5  -5    0.89    0.11
   8   5   5    0.88    0.10
   8   5   5    0.73    0.11
  -9  -5  -5    9.65    0.31
   9  -5   5   10.76    0.38
   9  -5   5    9.42    0.41
   9   5   5    9.53    0.34
  -9   5  -5    9.55    0.34
   9   5   5    9.47    0.36
 -10  -5  -5   23.50    0.63
  10  -5   5   25.18    0.72
  10  -5   5   23.77    0.80
  10   5   5   24.42    0.74
  10   5   5   23.35    0.67
 -10   5  -5   23.45    0.67
 -11  -5  -5    2.25    0.15
  11  -5   5    2.35    0.19
 -11   5  -5    2.12    0.17
  11   5   5    2.29    0.18
  11   5   5    2.58    0.17
 -12  -5  -5    0.59    0.10
 -12   5  -5    0.46    0.12
  12   5   5    0.49    0.12
  12   5   5    0.44    0.10
 -13  -5  -5    0.22    0.09
 -13   5  -5   -0.01    0.09
 -14  -5  -5    0.65    0.12
 -14   5  -5    0.56    0.13
 -15  -5  -5    0.52    0.12
  15  -6  -5    1.14    0.18
 -15   6   5    1.10    0.14
  14  -6  -5    0.43    0.14
 -14   6   5    0.61    0.12
  13  -6  -5    1.03    0.16
 -13   6   5    1.04    0.13
  12  -6  -5    1.51    0.18
  12  -6  -5    1.52    0.18
 -12   6   5    1.44    0.13
  12   6  -5    1.45    0.13
  11  -6  -5    0.07    0.10
  11  -6  -5    0.00    0.09
 -11   6   5   -0.05    0.07
  11   6  -5   -0.05    0.08
  11   6  -5    0.19    0.08
  10  -6  -5    4.52    0.27
  10  -6  -5    5.03    0.27
  10   6  -5    5.03    0.26
  10   6  -5    4.60    0.22
 -10   6   5    4.84    0.21
   9  -6  -5    1.12    0.13
   9  -6  -5    1.11    0.14
  -9   6   5    1.35    0.12
   9   6  -5    1.52    0.15
   9   6  -5    1.13    0.11
   8  -6  -5    1.03    0.12
  -8  -6   5    0.88    0.12
   8  -6  -5    0.86    0.12
   8   6  -5    0.84    0.10
   8   6  -5    0.96    0.12
  -8   6   5    0.98    0.09
  -7  -6   5   16.60    0.53
   7  -6  -5   15.87    0.54
   7  -6  -5   16.88    0.53
   7   6  -5   16.36    0.48
  -7   6   5   16.52    0.44
   7   6  -5   15.98    0.53
   6  -6  -5    2.75    0.17
  -6  -6   5    3.04    0.17
   6  -6  -5    2.99    0.19
   6   6  -5    2.88    0.15
   6   6  -5    2.67    0.17
  -6   6   5    2.50    0.13
  -6   6   5    3.07    0.14
   5  -6  -5    0.90    0.11
  -5  -6   5    1.21    0.11
   5  -6  -5    1.23    0.11
   5   6  -5    1.14    0.11
  -5   6   5    1.17    0.09
  -5   6   5    1.12    0.10
   5   6  -5    1.14    0.10
   4  -6  -5    0.11    0.06
   4  -6  -5    0.08    0.07
  -4  -6   5    0.11    0.06
   4   6  -5   -0.05    0.04
  -4   6   5    0.06    0.04
  -4   6   5    0.04    0.04
  -4   6   5   -0.04    0.05
   3  -6  -5    0.48    0.09
  -3  -6   5    0.26    0.07
   3  -6  -5    0.34    0.06
  -3   6   5    0.33    0.05
   3   6  -5    0.31    0.06
  -3   6   5    0.25    0.06
   2  -6  -5    0.17    0.04
  -2  -6   5    0.12    0.06
   2  -6  -5    0.28    0.08
  -2   6   5    0.19    0.06
  -2   6   5    0.24    0.05
   2   6  -5    0.14    0.05
   1  -6  -5    9.59    0.28
  -1  -6   5    9.23    0.33
   1  -6  -5    9.25    0.34
  -1   6   5    9.55    0.30
   1   6  -5    9.44    0.30
  -1   6   5    9.85    0.29
   0  -6  -5    5.18    0.17
   0  -6  -5    5.19    0.24
   0  -6   5    5.02    0.22
   0   6   5    5.05    0.20
   0   6   5    5.28    0.18
   0   6  -5    4.83    0.19
   1  -6   5   16.11    0.50
   1  -6   5   16.35    0.52
  -1  -6  -5   16.75    0.46
  -1  -6  -5   16.44    0.52
   1   6   5   16.46    0.48
  -1   6  -5   16.51    0.46
   1   6   5   16.92    0.46
   1   6   5   17.30    0.47
  -2  -6  -5   30.18    0.83
  -2  -6  -5   29.71    0.79
   2  -6   5   29.09    0.86
   2  -6   5   28.93    0.81
  -2   6  -5   29.45    0.75
   2   6   5   28.84    0.79
   2   6   5   29.90    0.78
   2   6   5   30.09    0.79
   3  -6   5    5.62    0.24
   3  -6   5    5.52    0.26
   3   6   5    5.39    0.19
   3   6   5    5.50    0.20
  -3   6  -5    5.57    0.20
   3   6   5    5.57    0.23
   4  -6   5    2.78    0.19
   4  -6   5    2.94    0.18
   4   6   5    3.05    0.14
   4   6   5    3.06    0.17
  -4   6  -5    3.03    0.13
   5  -6   5   13.95    0.48
   5  -6   5   13.68    0.43
   5   6   5   13.25    0.42
   5   6   5   13.22    0.41
  -5   6  -5   11.79    0.36
   6  -6   5    7.62    0.31
   6  -6   5    7.53    0.34
   6   6   5    7.65    0.29
  -6   6  -5    7.68    0.24
   7  -6   5    0.07    0.10
   7  -6   5    0.06    0.08
   7   6   5    0.27    0.07
   7   6   5    0.12    0.08
  -7   6  -5    0.04    0.08
   8  -6   5    0.03    0.09
   8  -6   5    0.14    0.11
   8   6   5    0.09    0.07
   8   6   5    0.02    0.08
  -8   6  -5    0.05    0.08
   9  -6   5    0.90    0.13
   9  -6   5    0.65    0.14
   9   6   5    0.81    0.11
   9   6   5    0.75    0.11
  -9   6  -5    0.95    0.13
  10  -6   5   -0.01    0.09
  10   6   5    0.09    0.08
 -10   6  -5    0.06    0.08
  10   6   5   -0.05    0.08
  11  -6   5   -0.09    0.09
  11   6   5    0.19    0.09
 -11   6  -5   -0.01    0.08
  11   6   5    0.05    0.08
  12   6   5    0.60    0.12
 -12   6  -5    0.80    0.13
 -13   6  -5    0.34    0.12
  15  -7  -5    1.64    0.21
 -15   7   5    1.47    0.17
  14  -7  -5    0.90    0.17
 -14   7   5    1.06    0.14
  13  -7  -5   -0.01    0.10
 -13   7   5    0.02    0.08
  12  -7  -5    1.75    0.19
  12   7  -5    1.54    0.15
 -12   7   5    1.67    0.15
  11  -7  -5    1.46    0.18
  11  -7  -5    1.36    0.17
 -11   7   5    1.17    0.12
  11   7  -5    1.37    0.14
  10  -7  -5    0.84    0.14
  10  -7  -5    0.82    0.14
  10   7  -5    0.91    0.13
  10   7  -5    0.89    0.12
 -10   7   5    0.65    0.10
   9  -7  -5   -0.12    0.09
   9  -7  -5   -0.05    0.09
  -9   7   5   -0.05    0.06
   9   7  -5    0.04    0.08
   9   7  -5   -0.09    0.06
  -8  -7   5    6.18    0.29
   8  -7  -5    6.01    0.30
   8  -7  -5    6.53    0.29
   8   7  -5    6.64    0.27
   8   7  -5    6.25    0.30
  -8   7   5    6.43    0.24
   7  -7  -5    8.12    0.32
   7  -7  -5    7.91    0.34
  -7  -7   5    7.82    0.32
  -7   7   5    7.95    0.26
   7   7  -5    7.61    0.30
   7   7  -5    8.09    0.33
   6  -7  -5   10.39    0.37
  -6  -7   5   10.32    0.37
   6  -7  -5    9.56    0.39
   6   7  -5   10.13    0.37
  -6   7   5    9.95    0.30
  -6   7   5    9.72    0.30
   6   7  -5    9.74    0.34
  -5  -7   5   16.52    0.52
   5  -7  -5   15.79    0.54
   5  -7  -5   16.50    0.51
   5   7  -5   15.96    0.49
  -5   7   5   16.89    0.44
   4  -7  -5    0.17    0.07
  -4  -7   5    0.20    0.08
   4  -7  -5    0.18    0.09
  -4   7   5    0.29    0.07
  -4   7   5    0.28    0.06
   4   7  -5    0.14    0.07
   3  -7  -5   18.35    0.53
  -3  -7   5   17.87    0.57
   3  -7  -5   18.15    0.58
   3   7  -5   19.03    0.53
  -3   7   5   18.99    0.52
   2  -7  -5    2.07    0.11
   2  -7  -5    2.45    0.18
  -2  -7   5    2.03    0.14
  -2   7   5    2.12    0.14
   2   7  -5    2.27    0.14
   1  -7  -5    0.49    0.11
  -1  -7   5    0.65    0.10
   1  -7  -5    0.68    0.06
   1   7  -5    0.69    0.08
  -1   7   5    0.73    0.09
   0  -7   5    1.37    0.13
   0  -7  -5    1.77    0.17
   0  -7  -5    1.60    0.09
   0   7   5    1.93    0.14
   0   7  -5    1.53    0.12
   1  -7   5   58.75    1.58
   1  -7   5   58.52    1.52
  -1  -7  -5   58.33    1.51
  -1  -7  -5   57.89    1.53
   1   7   5   59.18    1.52
  -1   7  -5   57.31    1.42
   1   7   5   57.80    1.44
  -2  -7  -5    1.90    0.11
   2  -7   5    1.89    0.15
   2  -7   5    1.89    0.17
   2   7   5    1.69    0.15
   2   7   5    1.69    0.10
  -2   7  -5    1.99    0.12
   3  -7   5    0.46    0.10
   3  -7   5    0.53    0.11
   3   7   5    0.50    0.07
  -3   7  -5    0.50    0.07
   3   7   5    0.39    0.09
   4  -7   5    0.46    0.11
   4  -7   5    0.44    0.10
   4   7   5    0.49    0.09
  -4   7  -5    0.40    0.07
   4   7   5    0.44    0.07
   5  -7   5    0.38    0.11
   5  -7   5    0.39    0.11
  -5   7  -5    0.46    0.07
   5   7   5    0.49    0.10
   5   7   5    0.57    0.08
   6  -7   5    1.66    0.18
   6  -7   5    2.05    0.18
   6   7   5    1.81    0.13
   6   7   5    1.65    0.15
  -6   7  -5    1.43    0.10
   7  -7   5   17.11    0.61
   7  -7   5   17.37    0.56
   7   7   5   16.06    0.52
   8  -7   5    2.37    0.22
   8  -7   5    2.27    0.20
  -8   7  -5    2.30    0.18
   8   7   5    2.23    0.18
   9  -7   5    0.81    0.14
   9   7   5    0.83    0.12
  -9   7  -5    1.04    0.13
  10  -7   5    0.71    0.14
 -10   7  -5    0.68    0.12
  10   7   5    0.59    0.12
  11   7   5    0.75    0.13
 -11   7  -5    0.94    0.14
  12   7   5    0.01    0.09
 -12   7  -5    0.06    0.10
 -13   7  -5    4.66    0.28
  14  -8  -5    0.33    0.15
 -14   8   5    0.49    0.12
  13  -8  -5    0.34    0.15
  13   8  -5    0.23    0.11
 -13   8   5    0.42    0.11
  12  -8  -5    0.21    0.13
 -12   8   5    0.09    0.09
  12   8  -5    0.27    0.10
  11  -8  -5    1.40    0.19
 -11   8   5    1.77    0.15
  11   8  -5    1.53    0.16
  10  -8  -5    0.91    0.15
  10   8  -5    0.87    0.13
 -10   8   5    0.83    0.11
   9  -8  -5    3.38    0.25
   9   8  -5    3.25    0.20
  -9   8   5    3.30    0.18
   8  -8  -5    0.43    0.12
  -8  -8   5    0.38    0.10
   8   8  -5    0.39    0.10
  -8   8   5    0.45    0.08
   8   8  -5    0.26    0.09
  -7  -8   5    4.42    0.24
   7  -8  -5    3.96    0.26
   7   8  -5    3.91    0.21
  -7   8   5    4.15    0.18
   7   8  -5    3.90    0.23
  -6  -8   5   11.81    0.42
   6  -8  -5   10.89    0.45
   6   8  -5   12.09    0.41
   6   8  -5   12.09    0.43
  -6   8   5   11.70    0.35
   5  -8  -5    1.57    0.17
  -5  -8   5    1.63    0.15
  -5   8   5    1.99    0.14
  -5   8   5    1.43    0.13
   5   8  -5    1.54    0.15
   4  -8  -5   40.51    1.18
  -4  -8   5   42.17    1.19
   4   8  -5   42.12    1.10
  -4   8   5   43.30    1.07
  -4   8   5   43.81    1.01
   3  -8  -5    0.56    0.12
  -3  -8   5    0.55    0.11
  -3   8   5    0.56    0.10
   3   8  -5    0.47    0.09
   2  -8  -5    0.34    0.12
  -2  -8   5    0.26    0.08
   2   8  -5    0.19    0.08
  -2   8   5    0.63    0.10
   1  -8  -5    9.89    0.40
  -1  -8   5    9.75    0.36
   1   8  -5    9.85    0.33
  -1   8   5    9.73    0.34
   0  -8   5   12.19    0.43
   0  -8  -5   11.65    0.45
   0   8   5   11.83    0.39
   0   8  -5   11.86    0.38
  -1  -8  -5    2.25    0.20
   1  -8   5    2.60    0.18
   1  -8   5    2.57    0.20
  -1   8  -5    2.48    0.15
   1   8   5    2.46    0.17
   2  -8   5    4.54    0.25
   2  -8   5    4.67    0.24
   2   8   5    4.99    0.23
  -2   8  -5    4.66    0.20
   3  -8   5    7.95    0.33
   3  -8   5    8.30    0.34
   3   8   5    7.45    0.30
  -3   8  -5    7.12    0.27
   4  -8   5    8.19    0.34
   4  -8   5    7.88    0.35
  -4   8  -5    7.90    0.27
   4   8   5    7.68    0.31
   5  -8   5    1.34    0.15
   5  -8   5    1.10    0.15
   5   8   5    1.03    0.13
  -5   8  -5    1.15    0.10
   6  -8   5    8.74    0.39
   6  -8   5    9.18    0.38
   6   8   5    8.96    0.35
   7  -8   5    0.23    0.12
   7  -8   5    0.26    0.11
   7   8   5    0.15    0.10
   8  -8   5   -0.02    0.10
  -8   8  -5    0.04    0.09
   8   8   5    0.10    0.10
   9  -8   5    0.46    0.13
   9   8   5    0.58    0.12
  -9   8  -5    0.34    0.11
  10  -8   5    0.48    0.14
 -10   8  -5    0.27    0.11
  10   8   5    0.14    0.10
 -11   8  -5    0.85    0.14
  11   8   5    0.61    0.13
 -12   8  -5    0.13    0.11
  12   8   5    0.14    0.11
  13  -9  -5    0.14    0.14
  13   9  -5   -0.01    0.11
  12  -9  -5    0.17    0.13
  12   9  -5    0.07    0.11
  11  -9  -5    0.56    0.16
  11   9  -5    0.62    0.13
  10  -9  -5    0.04    0.11
  10   9  -5    0.02    0.09
   9  -9  -5    0.29    0.13
   9   9  -5    0.43    0.11
   8  -9  -5    0.11    0.11
   8   9  -5    0.13    0.10
  -7  -9   5    3.22    0.21
   7  -9  -5    3.25    0.25
   7   9  -5    3.11    0.21
   7   9  -5    2.98    0.20
  -6  -9   5    0.16    0.09
   6  -9  -5    0.17    0.11
   6   9  -5    0.12    0.09
   6   9  -5    0.18    0.10
   5  -9  -5   -0.10    0.10
  -5  -9   5    0.06    0.09
   5   9  -5   -0.14    0.08
  -5   9   5   -0.05    0.07
  -4  -9   5    0.23    0.10
   4  -9  -5    0.14    0.11
   4   9  -5    0.12    0.09
  -4   9   5    0.11    0.09
  -3  -9   5    0.24    0.09
   3  -9  -5   -0.01    0.11
  -3   9   5    0.01    0.08
   3   9  -5   -0.02    0.08
  -2  -9   5   11.73    0.42
   2  -9  -5   11.41    0.46
   2   9  -5   11.64    0.40
  -2   9   5   11.56    0.39
  -1  -9   5    1.03    0.13
   1  -9  -5    1.09    0.15
  -1   9   5    0.80    0.12
   1   9  -5    0.86    0.12
   0  -9  -5    7.95    0.37
   0  -9   5    8.75    0.34
   0   9   5    8.56    0.32
   0   9  -5    7.87    0.30
  -1  -9  -5    8.61    0.38
   1  -9   5    8.22    0.35
   1  -9   5    8.52    0.35
  -1   9  -5    7.43    0.29
   1   9   5    8.42    0.33
   2  -9   5    0.14    0.09
   2  -9   5   -0.07    0.10
   2   9   5    0.14    0.09
  -2   9  -5    0.09    0.08
   3  -9   5    5.38    0.28
   3  -9   5    5.40    0.29
   3   9   5    4.89    0.25
  -3   9  -5    5.05    0.22
   4  -9   5    7.94    0.36
   4  -9   5    8.14    0.36
  -4   9  -5    7.75    0.29
   4   9   5    7.83    0.33
   5  -9   5   -0.05    0.09
   5  -9   5    0.08    0.11
   5   9   5    0.03    0.09
  -5   9  -5   -0.05    0.06
   6  -9   5    0.19    0.11
   6   9   5   -0.14    0.08
   7  -9   5    1.15    0.16
   7   9   5    1.01    0.14
   8  -9   5    4.71    0.29
  -8   9  -5    4.84    0.25
   8   9   5    4.22    0.25
   9  -9   5    1.56    0.20
   9   9   5    1.25    0.16
  -9   9  -5    1.72    0.17
  10   9   5    1.82    0.19
 -10   9  -5    2.22    0.20
 -11   9  -5    0.84    0.14
  11   9   5    0.72    0.15
  11 -10  -5   -0.05    0.13
  11  10  -5    0.20    0.12
  10 -10  -5    1.84    0.22
  10  10  -5    1.65    0.18
   9 -10  -5    0.03    0.12
   9  10  -5   -0.02    0.10
   8 -10  -5    0.43    0.15
   8  10  -5    0.38    0.12
   7 -10  -5    3.89    0.29
   7  10  -5    4.14    0.24
   6 -10  -5    0.13    0.13
   6  10  -5   -0.01    0.09
   5 -10  -5    2.00    0.20
   5  10  -5    2.37    0.19
  -5  10   5    2.39    0.17
   4 -10  -5    4.00    0.27
  -4 -10   5    4.43    0.24
  -4  10   5    4.13    0.22
   4  10  -5    3.84    0.23
  -3 -10   5   -0.03    0.09
   3 -10  -5   -0.10    0.10
   3  10  -5   -0.03    0.08
  -3  10   5   -0.12    0.08
  -2 -10   5    0.11    0.09
   2 -10  -5   -0.03    0.10
   2  10  -5   -0.03    0.07
  -2  10   5   -0.10    0.07
   1 -10  -5    0.80    0.16
  -1 -10   5    1.01    0.13
   1  10  -5    0.96    0.12
  -1  10   5    0.98    0.12
   0 -10   5    2.75    0.20
   0 -10  -5    2.65    0.22
   0  10   5    2.53    0.19
   0  10  -5    2.42    0.17
   1 -10   5    0.16    0.10
  -1  10  -5    0.06    0.07
   1  10   5   -0.08    0.09
   2 -10   5    0.02    0.10
   2 -10   5   -0.01    0.09
   2  10   5   -0.12    0.08
  -2  10  -5   -0.01    0.08
   3 -10   5   10.14    0.41
   3 -10   5   10.02    0.43
   3  10   5   10.05    0.39
  -3  10  -5    9.66    0.35
   4 -10   5    0.28    0.12
  -4  10  -5    0.42    0.09
   4  10   5    0.41    0.12
   5 -10   5    0.40    0.14
  -5  10  -5    0.30    0.09
   5  10   5    0.16    0.11
   6 -10   5    0.07    0.12
   6  10   5   -0.15    0.10
   7 -10   5    0.98    0.17
   7  10   5    1.30    0.16
   8 -10   5    0.51    0.16
   8  10   5    0.37    0.13
  -8  10  -5    0.57    0.13
   9 -10   5    2.71    0.26
  -9  10  -5    2.83    0.23
   9  10   5    2.98    0.24
  10  10   5    0.06    0.11
   9 -11  -5    0.32    0.16
   9  11  -5    0.55    0.15
   8 -11  -5    0.11    0.14
   8  11  -5   -0.14    0.09
   7 -11  -5   -0.03    0.13
   7  11  -5    0.04    0.10
   6 -11  -5    1.16    0.19
   6  11  -5    0.93    0.14
   5 -11  -5    0.14    0.13
   5  11  -5    0.07    0.09
   4 -11  -5    0.57    0.16
  -4  11   5    0.67    0.12
   4  11  -5    0.46    0.13
   3 -11  -5    0.92    0.17
  -3  11   5    1.07    0.14
   3  11  -5    1.08    0.15
   2 -11  -5    0.18    0.13
  -2  11   5    0.13    0.10
   2  11  -5    0.26    0.10
   1 -11  -5    0.18    0.12
  -1  11   5    0.03    0.10
   1  11  -5    0.06    0.09
   0 -11  -5    0.05    0.11
   0  11  -5    0.16    0.09
   0  11   5   -0.07    0.09
   1  11   5    0.96    0.15
  -1  11  -5    0.94    0.13
   2  11   5    0.02    0.10
  -2  11  -5    0.22    0.09
   3 -11   5   -0.03    0.12
   3  11   5    0.07    0.10
  -3  11  -5    0.09    0.08
   4 -11   5   -0.06    0.12
  -4  11  -5    0.14    0.09
   4  11   5    0.13    0.11
   5 -11   5    0.17    0.13
   5  11   5    0.07    0.11
   6 -11   5   -0.05    0.12
   6  11   5   -0.05    0.10
   7 -11   5    0.61    0.18
   7  11   5    0.43    0.13
   8 -11   5    5.08    0.34
  -8  11  -5    4.35    0.27
   8  11   5    4.85    0.30
   7 -12  -5    0.59    0.18
   7  12  -5    0.43    0.14
   6 -12  -5   -0.22    0.13
   6  12  -5   -0.03    0.11
   5 -12  -5    0.17    0.15
   5  12  -5    0.19    0.12
   4 -12  -5    1.26    0.21
   4  12  -5    1.55    0.18
   3 -12  -5    0.07    0.14
   3  12  -5    0.01    0.11
  -3  12   5    0.00    0.10
   2 -12  -5    0.00    0.13
  -2  12   5    0.05    0.10
   2  12  -5    0.10    0.10
   1 -12  -5    0.78    0.19
   1  12  -5    1.08    0.15
  -1  12   5    0.73    0.14
   0  12   5    0.07    0.11
   0  12  -5    0.01    0.09
   1  12   5    0.96    0.16
  -1  12  -5    1.33    0.15
  -2  12  -5    3.49    0.22
   2  12   5    2.92    0.22
   3  12   5    3.99    0.26
  -3  12  -5    4.40    0.25
   4 -12   5    3.83    0.32
   4  12   5    3.91    0.26
   5 -12   5    1.06    0.20
   5  12   5    1.35    0.19
   6 -12   5    4.33    0.33
   6  12   5    4.85    0.31
   2 -13  -5    0.04    0.15
   2  13  -5   -0.10    0.11
  -2  13   5   -0.14    0.11
  -1  13   5    1.13    0.17
   1  13  -5    1.28    0.17
   0  13   5    1.70    0.20
   0  13  -5    1.50    0.17
  -1  13  -5    2.09    0.20
   1  13   5    2.21    0.22
  17   0  -6    0.09    0.10
 -17   0   6    0.23    0.10
 -16   0   6    0.23    0.10
  16   0  -6    0.13    0.10
  15   0  -6   -0.18    0.07
 -15   0   6   -0.05    0.08
 -14   0   6    6.33    0.27
  13   0  -6   -0.02    0.08
 -13   0   6   -0.09    0.07
  12   0  -6    1.14    0.13
 -12   0   6    1.09    0.12
 -11   0   6   -0.01    0.06
  11   0  -6   -0.06    0.06
 -10   0   6   11.06    0.34
  10   0  -6   10.70    0.39
   9   0  -6    0.19    0.06
  -9   0   6    0.06    0.05
   9   0  -6    0.01    0.03
   8   0  -6    0.71    0.05
   8   0  -6    0.45    0.07
  -8   0   6    0.54    0.06
   7   0  -6    0.00    0.04
   7   0  -6    0.13    0.03
  -7   0   6    0.14    0.03
  -7   0   6   -0.04    0.03
  -6   0   6    2.54    0.09
   6   0  -6    2.55    0.09
   6   0  -6    2.42    0.12
  -6   0   6    2.33    0.10
  -5   0   6    0.05    0.03
   5   0  -6    0.05    0.03
   5   0  -6    0.01    0.03
  -5   0   6   -0.02    0.02
  -5   0   6    0.02    0.02
  -4   0   6  114.92    2.98
   4   0  -6  119.00    2.98
   4   0  -6  117.77    2.99
  -3   0   6   -0.02    0.03
  -3   0   6    0.00    0.02
   3   0  -6    0.02    0.03
   3   0  -6    0.04    0.03
  -2   0   6  834.57   19.75
   2   0  -6  876.80   21.69
   1   0  -6   -0.04    0.03
  -1   0   6    0.00    0.02
  -1   0   6    0.05    0.03
   1   0  -6    0.04    0.02
   0   0  -6  306.98    7.46
   0   0   6  287.39    6.80
   0   0  -6  291.84    7.19
   1   0   6    0.02    0.03
   1   0   6    0.00    0.01
  -1   0  -6    0.02    0.03
  -2   0  -6   31.82    0.82
   2   0   6   30.56    0.82
   2   0   6   30.04    0.75
  -3   0  -6   -0.01    0.03
   3   0   6   -0.01    0.03
   3   0   6    0.00    0.03
  -3   0  -6   -0.01    0.02
   4   0   6   15.80    0.41
  -4   0  -6   16.34    0.46
   4   0   6   15.21    0.46
  -4   0  -6   15.69    0.40
   5   0   6    0.01    0.03
   5   0   6   -0.02    0.04
  -5   0  -6   -0.01    0.03
  -6   0  -6   38.35    0.91
   6   0   6   37.59    1.05
   6   0   6   38.70    0.93
   7   0   6   -0.03    0.04
   7   0   6    0.08    0.06
  -7   0  -6    0.01    0.04
   8   0   6   12.77    0.45
  -8   0  -6   13.24    0.38
   8   0   6   13.37    0.36
   9   0   6   -0.02    0.07
   9   0   6    0.02    0.05
  -9   0  -6    0.03    0.06
 -10   0  -6   13.55    0.41
  10   0   6   13.70    0.49
  11   0   6   -0.04    0.08
 -11   0  -6   -0.04    0.06
  12   0   6    0.47    0.12
 -12   0  -6    0.32    0.09
 -13   0  -6   -0.15    0.07
 -14   0  -6    7.90    0.32
 -15   0  -6   -0.06    0.08
 -17  -1   6    0.23    0.12
  17  -1  -6    0.22    0.12
 -17   1   6    0.39    0.11
  16  -1  -6    0.07    0.10
 -16  -1   6    0.05    0.09
 -16   1   6   -0.02    0.09
  15  -1  -6    1.42    0.17
 -15  -1   6    1.12    0.14
 -15   1   6    1.27    0.14
 -14  -1   6    0.44    0.10
  14  -1  -6    0.35    0.10
 -14   1   6    0.23    0.09
  13  -1  -6    1.52    0.16
  13  -1  -6    1.65    0.16
 -13  -1   6    1.51    0.14
 -13   1   6    1.87    0.14
  13   1  -6    1.78    0.17
 -12  -1   6    2.04    0.15
  12  -1  -6    2.03    0.17
  12  -1  -6    1.89    0.17
  12   1  -6    1.92    0.17
 -12   1   6    1.80    0.14
 -11  -1   6   18.18    0.51
  11  -1  -6   17.37    0.56
  11  -1  -6   17.45    0.58
 -11   1   6   17.71    0.50
  11   1  -6   18.09    0.59
  10  -1  -6    0.28    0.08
  10  -1  -6    0.12    0.07
 -10  -1   6    0.20    0.06
 -10   1   6    0.31    0.07
  10   1  -6    0.27    0.08
   9  -1  -6   10.26    0.35
   9  -1  -6   10.40    0.36
  -9  -1   6   10.10    0.31
   9   1  -6    9.85    0.36
   9   1  -6   10.25    0.28
  -9   1   6   10.21    0.31
   8  -1  -6   12.31    0.30
  -8  -1   6   11.60    0.34
   8  -1  -6   11.62    0.39
  -8   1   6   12.52    0.34
   8   1  -6   12.52    0.32
   8   1  -6   11.86    0.40
   7  -1  -6   62.19    1.57
   7  -1  -6   63.31    1.44
  -7  -1   6   61.60    1.43
   7  -1  -6   61.16    1.63
  -7   1   6   62.02    1.42
   7   1  -6   62.51    1.46
  -7   1   6   62.63    1.44
   7   1  -6   59.82    1.64
   6  -1  -6    0.45    0.06
  -6  -1   6    0.47    0.05
   6  -1  -6    0.59    0.06
   6   1  -6    0.54    0.05
  -6   1   6    0.57    0.05
   6   1  -6    0.64    0.07
  -6   1   6    0.62    0.05
   5  -1  -6   34.85    0.90
   5  -1  -6   35.83    0.93
  -5  -1   6   31.76    0.84
   5  -1  -6   34.86    0.93
  -5  -1   6   34.86    0.94
  -5   1   6   36.54    0.93
  -5   1   6   35.54    0.83
  -5   1   6   35.19    0.82
   5   1  -6   35.78    0.95
   5   1  -6   35.36    0.84
  -4  -1   6    0.10    0.04
   4  -1  -6    0.05    0.03
   4  -1  -6    0.03    0.03
   4  -1  -6    0.01    0.02
  -4  -1   6    0.01    0.03
   4   1  -6    0.02    0.03
   4   1  -6    0.08    0.03
   4   1  -6    0.02    0.02
  -4   1   6    0.02    0.02
  -4   1   6   -0.01    0.02
  -4   1   6    0.08    0.02
   3  -1  -6   35.67    0.95
   3  -1  -6   36.76    0.95
   3  -1  -6   36.57    0.92
  -3  -1   6   36.24    0.96
  -3  -1   6   36.38    0.88
  -3   1   6   36.48    0.87
  -3   1   6   37.07    0.95
   3   1  -6   36.93    0.96
  -2  -1   6   28.01    0.75
   2  -1  -6   28.32    0.74
  -2  -1   6   28.77    0.69
   2  -1  -6   28.54    0.72
   2  -1  -6   28.75    0.74
  -2   1   6   27.61    0.74
   2   1  -6   29.31    0.76
  -2   1   6   27.91    0.68
  -1  -1   6    0.14    0.03
   1  -1  -6    0.19    0.03
  -1  -1   6    0.14    0.03
  -1   1   6    0.03    0.02
   1   1  -6    0.03    0.03
   0  -1   6   12.05    0.32
   0  -1  -6   12.27    0.32
   0  -1   6   11.65    0.35
   0  -1  -6   12.56    0.33
   0   1  -6   12.49    0.36
   0   1   6   11.98    0.32
   0   1   6   12.25    0.33
   1  -1   6   41.19    0.99
  -1  -1  -6   42.21    1.08
  -1  -1  -6   41.99    1.02
   1  -1   6   41.05    1.10
   1   1   6   40.98    1.08
  -1   1  -6   42.87    1.10
   1   1   6   40.79    0.99
   2  -1   6   48.75    1.33
   2  -1   6   50.39    1.25
  -2  -1  -6   50.53    1.14
   2  -1   6   51.00    1.20
  -2  -1  -6   51.95    1.31
   2   1   6   49.92    1.31
   2   1   6   50.34    1.20
  -2   1  -6   51.48    1.33
  -3  -1  -6    0.07    0.03
   3  -1   6    0.03    0.02
  -3  -1  -6    0.04    0.02
   3  -1   6    0.05    0.04
   3  -1   6    0.02    0.02
  -3   1  -6    0.04    0.04
   3   1   6    0.00    0.02
   3   1   6    0.12    0.04
   4  -1   6    5.61    0.18
   4  -1   6    5.83    0.17
   4  -1   6    5.64    0.22
  -4  -1  -6    5.82    0.20
  -4  -1  -6    6.03    0.18
  -4   1  -6    5.54    0.19
   4   1   6    5.71    0.19
   4   1   6    5.51    0.20
   5  -1   6   44.20    1.07
   5  -1   6   42.29    1.03
  -5  -1  -6   42.89    1.00
   5  -1   6   42.86    1.17
   5   1   6   43.28    1.16
  -5   1  -6   42.80    1.02
   5   1   6   43.17    1.04
   6  -1   6    0.39    0.07
  -6  -1  -6    0.54    0.06
   6  -1   6    0.40    0.05
   6  -1   6    0.36    0.05
   6   1   6    0.46    0.07
   6   1   6    0.52    0.06
  -6   1  -6    0.39    0.06
   7  -1   6    0.69    0.06
  -7  -1  -6    0.79    0.08
   7  -1   6    0.50    0.09
   7  -1   6    0.76    0.07
   7   1   6    0.78    0.09
   7   1   6    0.72    0.07
  -7   1  -6    0.59    0.07
   8  -1   6   11.52    0.43
  -8  -1  -6   12.49    0.36
   8  -1   6   12.02    0.33
   8  -1   6   12.33    0.36
   8   1   6   12.47    0.35
  -8   1  -6   11.64    0.36
   8   1   6   12.06    0.42
   9  -1   6    3.87    0.22
   9  -1   6    3.96    0.18
  -9  -1  -6    3.74    0.17
   9  -1   6    3.69    0.15
   9   1   6    3.76    0.16
   9   1   6    3.62    0.20
  -9   1  -6    4.07    0.18
  10  -1   6    0.11    0.09
 -10  -1  -6    0.19    0.07
  10  -1   6    0.13    0.05
  10   1   6    0.07    0.08
  10   1   6    0.24    0.06
 -10   1  -6    0.18    0.07
  11  -1   6    4.92    0.28
 -11  -1  -6    4.70    0.21
 -11   1  -6    4.19    0.21
  11   1   6    4.80    0.26
 -12  -1  -6    0.30    0.08
 -12   1  -6    0.33    0.09
  12   1   6    0.32    0.12
 -13  -1  -6    0.65    0.11
 -13   1  -6    1.02    0.12
 -14  -1  -6    0.84    0.13
 -14   1  -6    0.73    0.12
 -15  -1  -6    2.58    0.20
 -15   1  -6    2.62    0.20
  17  -2  -6    0.09    0.11
 -17   2   6    0.10    0.10
  16  -2  -6    0.35    0.12
 -16  -2   6    0.31    0.11
 -16   2   6    0.08    0.09
  15  -2  -6    0.48    0.13
 -15  -2   6    0.23    0.10
 -15   2   6    0.22    0.10
 -14  -2   6    1.17    0.13
  14  -2  -6    1.20    0.15
 -14   2   6    1.42    0.14
 -13  -2   6    0.04    0.08
  13  -2  -6    0.13    0.09
  13  -2  -6    0.08    0.09
  13   2  -6   -0.07    0.08
 -13   2   6   -0.11    0.07
  12  -2  -6    1.27    0.14
  12  -2  -6    0.86    0.13
 -12  -2   6    1.07    0.11
  12   2  -6    0.97    0.13
 -12   2   6    0.83    0.11
  11  -2  -6    0.84    0.13
  11  -2  -6    0.77    0.12
 -11  -2   6    0.69    0.10
  11   2  -6    0.89    0.13
 -11   2   6    0.66    0.10
 -10  -2   6    2.12    0.14
  10  -2  -6    1.97    0.15
  10  -2  -6    2.20    0.16
 -10   2   6    2.34    0.14
  10   2  -6    2.00    0.11
  10   2  -6    2.08    0.16
   9  -2  -6   31.57    0.90
   9  -2  -6   30.10    0.87
   9   2  -6   31.71    0.78
   9   2  -6   31.36    0.91
  -9   2   6   31.91    0.78
   8  -2  -6   17.51    0.53
   8  -2  -6   17.20    0.53
  -8   2   6   17.78    0.46
   8   2  -6   17.21    0.54
   8   2  -6   18.00    0.46
   7  -2  -6    0.31    0.07
   7  -2  -6    0.35    0.06
  -7   2   6    0.34    0.05
  -7   2   6    0.42    0.03
   7   2  -6    0.35    0.05
   7   2  -6    0.42    0.07
   6  -2  -6   55.68    1.44
  -6  -2   6   55.42    1.50
   6  -2  -6   56.00    1.49
   6   2  -6   56.23    1.51
  -6   2   6   58.87    1.33
   6   2  -6   57.39    1.35
  -6   2   6   58.71    1.49
  -6   2   6   56.70    1.30
  -5  -2   6  205.90    4.75
  -5  -2   6  202.06    5.22
   5  -2  -6  200.75    5.20
   5  -2  -6  204.04    4.96
   5   2  -6  205.22    5.22
  -5   2   6  210.29    4.73
  -5   2   6  212.11    5.20
  -5   2   6  206.07    4.55
   5   2  -6  205.10    4.74
  -4  -2   6    0.03    0.04
   4  -2  -6    0.04    0.03
   4  -2  -6    0.08    0.04
  -4  -2   6    0.08    0.03
  -4   2   6    0.09    0.03
  -4   2   6    0.05    0.02
   4   2  -6    0.09    0.04
   4   2  -6    0.09    0.03
  -4   2   6    0.06    0.03
   3  -2  -6   16.92    0.45
   3  -2  -6   16.94    0.45
  -3  -2   6   16.49    0.47
  -3  -2   6   16.52    0.43
   3  -2  -6   16.36    0.46
   3   2  -6   17.15    0.48
  -3   2   6   16.71    0.45
   3   2  -6   16.79    0.43
  -3   2   6   16.71    0.39
  -3   2   6   16.38    0.42
   2  -2  -6   68.06    1.77
   2  -2  -6   70.92    1.53
   2  -2  -6   66.58    1.69
  -2  -2   6   67.89    1.62
  -2  -2   6   68.39    1.78
   2  -2  -6   67.58    1.76
   2   2  -6   69.07    1.62
  -2   2   6   70.28    1.54
  -2   2   6   68.09    1.61
   2   2  -6   70.69    1.78
  -1  -2   6    1.44    0.09
  -1  -2   6    1.44    0.08
   1  -2  -6    1.41    0.08
  -1   2   6    1.54    0.08
   1   2  -6    1.63    0.10
   0  -2  -6   91.80    2.20
   0  -2   6   89.69    2.12
   0  -2   6   89.21    2.33
   0   2  -6   93.13    2.34
   0   2   6   89.81    2.12
  -1  -2  -6   22.82    0.52
   1  -2   6   22.61    0.64
   1  -2   6   22.30    0.56
  -1  -2  -6   22.83    0.59
  -1  -2  -6   22.54    0.58
   1   2   6   22.67    0.57
   1   2   6   22.45    0.60
  -1   2  -6   23.12    0.64
   2  -2   6   18.85    0.55
  -2  -2  -6   19.05    0.44
   2  -2   6   18.81    0.49
  -2  -2  -6   19.53    0.51
   2  -2   6   19.26    0.48
  -2   2  -6   19.51    0.55
   2   2   6   18.76    0.49
   2   2   6   18.94    0.51
  -3  -2  -6  161.14    3.98
   3  -2   6  152.41    4.02
   3  -2   6  161.72    3.78
  -3  -2  -6  155.38    3.48
   3  -2   6  154.66    3.64
   3   2   6  159.26    3.99
   3   2   6  156.93    3.65
   4  -2   6  157.54    3.66
  -4  -2  -6  164.22    4.02
   4  -2   6  162.42    3.81
  -4  -2  -6  154.05    3.51
   4  -2   6  152.89    4.05
   4   2   6  158.24    3.68
   5  -2   6    0.50    0.05
   5  -2   6    0.61    0.09
   5  -2   6    0.70    0.06
  -5  -2  -6    0.52    0.05
  -5   2  -6    0.58    0.07
   5   2   6    0.54    0.07
   5   2   6    0.61    0.07
   6  -2   6    8.66    0.24
   6  -2   6    7.59    0.31
  -6  -2  -6    8.40    0.25
   6  -2   6    8.79    0.26
  -6   2  -6    8.46    0.27
   6   2   6    8.16    0.26
   6   2   6    8.34    0.29
  -7  -2  -6    5.19    0.19
   7  -2   6    5.54    0.20
   7  -2   6    5.42    0.17
   7  -2   6    5.22    0.25
   7   2   6    4.81    0.21
  -7   2  -6    5.07    0.20
   7   2   6    4.95    0.19
   8  -2   6   16.29    0.46
  -8  -2  -6   15.64    0.43
   8  -2   6   15.33    0.53
   8  -2   6   16.37    0.42
   8   2   6   15.21    0.50
  -8   2  -6   15.31    0.45
   8   2   6   16.35    0.45
   9  -2   6    2.37    0.18
  -9  -2  -6    2.33    0.13
   9  -2   6    2.46    0.14
   9   2   6    2.38    0.14
   9   2   6    2.37    0.17
  -9   2  -6    2.29    0.15
 -10  -2  -6   11.07    0.35
  10  -2   6   11.14    0.45
  10   2   6   11.34    0.43
 -10   2  -6   11.55    0.37
  10   2   6   11.96    0.35
 -11  -2  -6    1.33    0.12
  11  -2   6    1.25    0.16
  11   2   6    1.18    0.14
 -11   2  -6    1.25    0.12
 -12  -2  -6    0.04    0.08
 -12   2  -6    0.12    0.08
  12   2   6    0.20    0.10
 -13  -2  -6    1.04    0.12
 -13   2  -6    1.26    0.14
 -14  -2  -6   -0.01    0.08
 -14   2  -6    0.00    0.10
 -15  -2  -6    0.90    0.14
 -15   2  -6    0.69    0.13
  17  -3  -6    0.23    0.13
  16  -3  -6    0.05    0.10
 -16   3   6   -0.07    0.09
  15  -3  -6    0.40    0.12
 -15   3   6    0.49    0.11
  14  -3  -6    1.06    0.15
 -14   3   6    1.04    0.12
  13  -3  -6    0.21    0.11
  13  -3  -6    0.42    0.11
 -13   3   6    0.18    0.08
  12  -3  -6    0.54    0.11
  12  -3  -6    0.59    0.12
  12   3  -6    0.71    0.12
 -12   3   6    0.38    0.09
  11  -3  -6   22.71    0.70
  11  -3  -6   20.92    0.67
  11   3  -6   22.16    0.71
  11   3  -6   21.97    0.58
 -11   3   6   21.69    0.59
  10  -3  -6    0.04    0.08
  10  -3  -6   -0.01    0.07
  10   3  -6    0.06    0.08
 -10   3   6   -0.10    0.05
  10   3  -6   -0.10    0.05
   9  -3  -6    2.65    0.16
   9  -3  -6    2.40    0.17
   9   3  -6    2.77    0.13
   9   3  -6    2.62    0.17
  -9   3   6    2.73    0.14
   8  -3  -6    0.17    0.06
   8  -3  -6    0.17    0.06
   8   3  -6    0.09    0.04
   8   3  -6    0.17    0.06
  -8   3   6    0.25    0.06
   7  -3  -6    1.52    0.11
   7  -3  -6    1.48    0.12
  -7  -3   6    1.49    0.12
  -7   3   6    1.41    0.09
   7   3  -6    1.63    0.12
  -7   3   6    1.58    0.07
   7   3  -6    1.33    0.09
   6  -3  -6    0.05    0.05
  -6  -3   6    0.20    0.05
   6  -3  -6    0.14    0.05
   6   3  -6    0.12    0.04
  -6   3   6    0.03    0.04
  -6   3   6    0.10    0.04
   6   3  -6    0.08    0.05
  -6   3   6    0.12    0.03
   5  -3  -6    0.55    0.06
   5  -3  -6    0.50    0.07
  -5  -3   6    0.55    0.07
   5   3  -6    0.58    0.07
   5   3  -6    0.55    0.06
  -5   3   6    0.59    0.05
  -5   3   6    0.64    0.06
  -5   3   6    0.63    0.05
   4  -3  -6  177.66    4.46
   4  -3  -6  173.19    4.26
  -4  -3   6  174.15    4.47
  -4   3   6  180.31    3.89
   4   3  -6  172.86    4.07
  -4   3   6  180.43    4.45
  -4   3   6  172.55    4.06
  -3  -3   6    1.44    0.09
  -3  -3   6    1.60    0.09
   3  -3  -6    1.48    0.07
  -3   3   6    1.46    0.08
  -3   3   6    1.38    0.06
   3   3  -6    1.44    0.08
  -3   3   6    1.43    0.07
  -2  -3   6    0.73    0.06
   2  -3  -6    0.58    0.06
   2  -3  -6    0.74    0.04
  -2  -3   6    0.68    0.07
  -2   3   6    0.79    0.04
  -2   3   6    0.73    0.07
   2   3  -6    0.82    0.06
  -2   3   6    0.73    0.04
   1  -3  -6   65.19    1.60
  -1  -3   6   62.77    1.68
  -1  -3   6   64.36    1.53
  -1   3   6   65.16    1.53
   1   3  -6   65.08    1.53
   0  -3   6    5.53    0.21
   0  -3  -6    5.42    0.19
   0  -3   6    5.61    0.18
   0   3   6    5.66    0.19
   0   3  -6    5.85    0.18
   1  -3   6    5.07    0.18
   1  -3   6    5.30    0.18
  -1  -3  -6    5.17    0.19
   1  -3   6    5.12    0.21
   1   3   6    5.84    0.16
   1   3   6    5.34    0.15
   1   3   6    5.31    0.18
  -1   3  -6    5.63    0.18
   1   3   6    5.69    0.13
  -2  -3  -6    0.45    0.04
   2  -3   6    0.30    0.06
   2  -3   6    0.44    0.05
  -2  -3  -6    0.44    0.03
   2  -3   6    0.28    0.05
   2   3   6    0.40    0.04
   2   3   6    0.43    0.04
   2   3   6    0.39    0.05
  -3  -3  -6   12.96    0.36
   3  -3   6   13.07    0.36
   3  -3   6   12.52    0.41
  -3  -3  -6   12.45    0.31
   3  -3   6   12.45    0.34
   3   3   6   12.96    0.36
   3   3   6   13.11    0.36
   3   3   6   12.46    0.36
   4  -3   6    6.41    0.21
  -4  -3  -6    5.86    0.18
   4  -3   6    6.24    0.20
  -4  -3  -6    6.37    0.21
   4  -3   6    5.93    0.25
   4   3   6    5.89    0.21
   4   3   6    6.25    0.21
  -5  -3  -6   17.87    0.45
   5  -3   6   18.11    0.47
   5  -3   6   19.09    0.50
   5  -3   6   17.14    0.56
   5   3   6   17.71    0.49
   6  -3   6   15.62    0.44
   6  -3   6   15.23    0.51
  -6  -3  -6   15.35    0.40
   6  -3   6   15.50    0.41
  -6   3  -6   15.27    0.44
   6   3   6   15.63    0.47
   6   3   6   15.48    0.44
   7  -3   6   24.42    0.60
  -7  -3  -6   24.34    0.60
   7  -3   6   24.58    0.66
   7  -3   6   22.82    0.73
  -7   3  -6   23.09    0.63
   7   3   6   23.54    0.70
   7   3   6   24.77    0.64
   8  -3   6    0.19    0.07
   8  -3   6    0.14    0.09
  -8  -3  -6    0.22    0.06
   8  -3   6    0.23    0.05
   8   3   6    0.10    0.06
  -8   3  -6    0.12    0.07
   8   3   6    0.21    0.07
  -9  -3  -6   -0.06    0.05
   9  -3   6   -0.06    0.08
   9  -3   6   -0.03    0.05
  -9   3  -6   -0.03    0.07
   9   3   6    0.01    0.07
   9   3   6   -0.06    0.07
 -10  -3  -6    8.17    0.29
  10  -3   6    8.53    0.38
 -10   3  -6    8.00    0.30
  10   3   6    8.44    0.29
  10   3   6    8.31    0.34
  11  -3   6   -0.04    0.09
 -11  -3  -6    0.12    0.08
 -11   3  -6    0.16    0.08
  11   3   6    0.09    0.08
  11   3   6    0.14    0.10
 -12  -3  -6    1.94    0.15
  12   3   6    1.68    0.18
 -12   3  -6    1.92    0.16
 -13  -3  -6    2.06    0.16
 -13   3  -6    1.92    0.17
 -14  -3  -6    0.86    0.13
 -14   3  -6    0.67    0.13
 -15  -3  -6   -0.08    0.09
 -15   3  -6    0.01    0.10
  16  -4  -6    0.00    0.10
 -16   4   6    0.11    0.10
  15  -4  -6    2.60    0.22
 -15   4   6    2.93    0.20
  14  -4  -6    2.20    0.21
 -14   4   6    2.54    0.17
  13  -4  -6   13.08    0.50
  13  -4  -6   12.86    0.49
 -13   4   6   12.70    0.41
  12  -4  -6    0.47    0.12
  12  -4  -6    0.51    0.11
 -12   4   6    0.61    0.10
  12   4  -6    0.70    0.12
  11  -4  -6   15.16    0.53
  11  -4  -6   15.72    0.54
 -11   4   6   15.37    0.45
  11   4  -6   16.03    0.55
  11   4  -6   15.05    0.45
  10  -4  -6   15.22    0.53
  10  -4  -6   16.17    0.53
  10   4  -6   16.66    0.55
 -10   4   6   15.26    0.44
  10   4  -6   15.74    0.45
   9  -4  -6    9.90    0.37
   9  -4  -6   10.02    0.36
   9   4  -6   10.23    0.38
  -9   4   6    9.98    0.31
   9   4  -6    9.71    0.31
   8  -4  -6    4.36    0.22
   8  -4  -6    4.19    0.20
   8   4  -6    4.47    0.22
   8   4  -6    4.30    0.18
  -8   4   6    4.44    0.17
   7  -4  -6    0.01    0.06
   7  -4  -6    0.02    0.05
  -7  -4   6    0.08    0.06
   7   4  -6    0.01    0.05
  -7   4   6    0.03    0.04
  -7   4   6    0.12    0.04
   7   4  -6    0.02    0.04
   6  -4  -6    5.47    0.21
  -6  -4   6    5.31    0.22
   6  -4  -6    5.16    0.23
   6   4  -6    4.98    0.22
   6   4  -6    5.58    0.20
  -6   4   6    5.39    0.18
  -6   4   6    5.82    0.17
   5  -4  -6    0.02    0.04
  -5  -4   6    0.06    0.05
   5  -4  -6    0.02    0.04
  -5   4   6    0.04    0.04
  -5   4   6   -0.02    0.03
   5   4  -6    0.04    0.05
   5   4  -6   -0.01    0.03
  -5   4   6    0.09    0.04
  -4  -4   6   26.65    0.77
   4  -4  -6   26.83    0.75
   4  -4  -6   28.13    0.75
  -4   4   6   28.44    0.74
   4   4  -6   27.54    0.70
  -4   4   6   28.11    0.65
   3  -4  -6   25.90    0.72
   3  -4  -6   26.52    0.70
  -3  -4   6   24.38    0.73
   3   4  -6   26.47    0.67
  -3   4   6   27.79    0.70
  -3   4   6   26.29    0.66
  -3   4   6   26.81    0.61
   2  -4  -6   13.77    0.42
  -2  -4   6   13.00    0.42
   2  -4  -6   13.63    0.37
   2   4  -6   14.18    0.38
  -2   4   6   13.96    0.33
  -2   4   6   13.74    0.38
  -2   4   6   14.38    0.37
   1  -4  -6    1.65    0.11
  -1  -4   6    1.57    0.09
   1  -4  -6    1.48    0.05
  -1  -4   6    1.44    0.10
   1   4  -6    1.59    0.09
  -1   4   6    1.52    0.05
  -1   4   6    1.55    0.10
  -1   4   6    1.55    0.05
   0  -4  -6   36.40    0.94
   0  -4   6   35.22    0.98
   0  -4   6   35.49    0.89
   0   4   6   36.29    0.89
   0   4   6   36.09    0.81
   0   4   6   37.28    0.95
   0   4  -6   35.53    0.88
   1  -4   6   16.14    0.51
  -1  -4  -6   16.99    0.48
   1  -4   6   16.86    0.45
   1   4   6   16.48    0.46
   1   4   6   17.14    0.45
  -1   4  -6   17.25    0.44
   1   4   6   16.86    0.45
   2  -4   6   14.56    0.48
   2  -4   6   15.12    0.41
  -2  -4  -6   15.42    0.45
   2   4   6   15.62    0.41
   2   4   6   15.26    0.43
   2   4   6   15.80    0.42
  -2   4  -6   15.21    0.41
   3  -4   6   35.07    0.89
   3  -4   6   34.82    0.85
   3  -4   6   32.63    0.96
  -3   4  -6   34.50    0.84
   3   4   6   33.48    0.86
   3   4   6   34.71    0.89
   3   4   6   33.97    0.90
   4  -4   6    9.19    0.29
   4  -4   6    9.14    0.34
  -4  -4  -6    9.11    0.28
   4  -4   6    8.44    0.26
   4   4   6    8.54    0.28
   4   4   6    8.97    0.27
   4   4   6    8.59    0.29
  -4   4  -6    8.55    0.26
   5  -4   6    0.34    0.06
   5  -4   6    0.20    0.08
  -5  -4  -6    0.25    0.04
   5  -4   6    0.32    0.05
   5   4   6    0.32    0.05
   5   4   6    0.27    0.06
   6  -4   6   15.51    0.44
  -6  -4  -6   14.70    0.39
   6  -4   6   14.93    0.40
   6  -4   6   14.08    0.50
   6   4   6   14.63    0.43
  -6   4  -6   14.90    0.39
   7  -4   6    0.20    0.10
   7  -4   6    0.17    0.06
  -7  -4  -6    0.17    0.05
   7  -4   6    0.15    0.05
  -7   4  -6    0.14    0.04
   7   4   6    0.16    0.06
   7   4   6    0.10    0.07
   8  -4   6    0.33    0.11
  -8  -4  -6    0.28    0.07
   8  -4   6    0.08    0.05
  -8   4  -6    0.31    0.09
   8   4   6    0.29    0.08
   8   4   6    0.06    0.08
  -9  -4  -6    7.98    0.27
   9  -4   6    7.53    0.36
   9   4   6    7.97    0.32
   9   4   6    7.92    0.29
  -9   4  -6    8.06    0.30
  10  -4   6    8.25    0.38
 -10  -4  -6    8.55    0.29
 -10   4  -6    8.12    0.32
  10   4   6    8.49    0.31
  10   4   6    8.50    0.34
 -11  -4  -6    0.81    0.11
  11   4   6    0.86    0.13
  11   4   6    1.03    0.12
 -11   4  -6    0.80    0.12
 -12  -4  -6    0.99    0.12
 -12   4  -6    0.84    0.12
  12   4   6    0.75    0.13
 -13  -4  -6    0.09    0.08
 -13   4  -6    0.00    0.09
 -14  -4  -6    0.02    0.09
 -14   4  -6    0.13    0.11
 -15  -4  -6    0.00    0.09
  16  -5  -6    3.52    0.27
 -16   5   6    3.40    0.23
  15  -5  -6    1.26    0.18
 -15   5   6    1.55    0.15
  14  -5  -6    2.09    0.21
 -14   5   6    1.79    0.16
  13  -5  -6    0.44    0.13
  13  -5  -6    0.47    0.12
 -13   5   6    0.69    0.11
  12  -5  -6    0.00    0.10
  12  -5  -6    0.00    0.09
  12   5  -6    0.01    0.07
 -12   5   6    0.07    0.07
  11  -5  -6    6.11    0.31
  11  -5  -6    6.14    0.30
  11   5  -6    6.55    0.31
  11   5  -6    5.95    0.25
 -11   5   6    6.59    0.25
  10  -5  -6    2.15    0.18
  10  -5  -6    2.30    0.18
  10   5  -6    2.20    0.15
 -10   5   6    2.31    0.14
  10   5  -6    2.19    0.17
   9  -5  -6   13.84    0.48
   9  -5  -6   13.72    0.48
   9   5  -6   14.11    0.42
   9   5  -6   14.95    0.50
  -9   5   6   13.94    0.40
  -8  -5   6    0.25    0.08
   8  -5  -6    0.29    0.09
   8  -5  -6    0.36    0.09
   8   5  -6    0.28    0.08
  -8   5   6    0.38    0.06
   8   5  -6    0.43    0.08
  -7  -5   6   15.00    0.48
   7  -5  -6   14.61    0.46
   7  -5  -6   14.05    0.48
   7   5  -6   14.06    0.42
   7   5  -6   14.93    0.48
  -7   5   6   14.59    0.39
   6  -5  -6    0.17    0.07
   6  -5  -6    0.24    0.07
  -6  -5   6    0.25    0.07
  -6   5   6    0.26    0.05
   6   5  -6    0.20    0.07
   6   5  -6    0.22    0.06
  -6   5   6    0.13    0.04
  -5  -5   6    1.64    0.12
   5  -5  -6    1.81    0.13
   5  -5  -6    1.69    0.11
  -5   5   6    1.74    0.09
  -5   5   6    1.58    0.10
  -5   5   6    1.64    0.10
   5   5  -6    1.73    0.12
  -4  -5   6    0.11    0.06
   4  -5  -6    0.04    0.04
   4  -5  -6    0.07    0.05
   4   5  -6    0.06    0.04
  -4   5   6    0.06    0.03
  -4   5   6    0.04    0.03
  -4   5   6    0.06    0.04
   3  -5  -6    1.03    0.08
  -3  -5   6    0.98    0.09
   3  -5  -6    1.04    0.10
  -3   5   6    1.07    0.07
  -3   5   6    0.87    0.08
  -3   5   6    1.30    0.07
   3   5  -6    0.89    0.08
   2  -5  -6    0.12    0.03
   2  -5  -6    0.09    0.06
   2   5  -6    0.05    0.04
  -2   5   6    0.16    0.05
  -2   5   6    0.14    0.03
  -2   5   6    0.25    0.04
   1  -5  -6    2.08    0.08
  -1  -5   6    1.91    0.12
   1  -5  -6    2.01    0.14
  -1   5   6    2.06    0.11
  -1   5   6    2.09    0.08
   1   5  -6    2.12    0.11
   0  -5  -6    1.33    0.12
   0  -5   6    1.07    0.11
   0  -5  -6    1.35    0.06
   0   5   6    1.33    0.07
   0   5   6    1.36    0.06
   0   5   6    1.20    0.10
   0   5  -6    1.32    0.09
  -1  -5  -6   43.34    1.13
   1  -5   6   43.54    1.12
   1  -5   6   42.49    1.18
   1   5   6   43.17    1.11
  -1   5  -6   43.19    1.06
   1   5   6   44.37    1.12
   1   5   6   42.34    1.07
   2  -5   6   25.61    0.77
   2  -5   6   26.64    0.71
  -2  -5  -6   26.68    0.73
   2   5   6   26.16    0.69
   2   5   6   25.70    0.69
  -2   5  -6   26.17    0.66
   2   5   6   26.33    0.69
   3  -5   6    0.65    0.07
   3  -5   6    0.54    0.08
   3  -5   6    0.67    0.10
   3   5   6    0.54    0.08
  -3   5  -6    0.56    0.06
   3   5   6    0.62    0.06
   3   5   6    0.66    0.06
   4  -5   6    1.15    0.13
   4  -5   6    1.36    0.10
   4  -5   6    1.05    0.10
   4   5   6    1.37    0.09
   4   5   6    1.29    0.08
  -4   5  -6    1.28    0.09
   4   5   6    1.27    0.11
   5  -5   6    2.03    0.11
   5  -5   6    2.14    0.17
  -5   5  -6    1.87    0.10
   5   5   6    1.97    0.11
   5   5   6    1.91    0.14
   6  -5   6    1.02    0.13
   6  -5   6    1.10    0.09
   6  -5   6    0.62    0.08
   6   5   6    0.97    0.10
  -6   5  -6    0.99    0.08
   6   5   6    1.01    0.09
   7  -5   6   14.74    0.39
   7  -5   6   11.44    0.43
   7  -5   6   14.72    0.52
  -7   5  -6   15.18    0.39
  -7   5  -6   13.90    0.43
   7   5   6   14.91    0.44
   7   5   6   13.21    0.44
  -8  -5  -6   19.86    0.52
   8  -5   6   20.20    0.67
   8  -5   6   19.53    0.59
  -8   5  -6   20.32    0.57
   8   5   6   19.47    0.60
   8   5   6   18.86    0.56
   9  -5   6   -0.01    0.10
   9  -5   6    0.01    0.07
  -9  -5  -6    0.02    0.06
   9   5   6   -0.01    0.07
  -9   5  -6    0.00    0.08
   9   5   6    0.08    0.08
 -10  -5  -6   16.14    0.46
  10  -5   6   17.51    0.53
  10   5   6   15.81    0.54
 -10   5  -6   14.66    0.49
  10   5   6   15.51    0.49
 -11  -5  -6    4.16    0.20
 -11   5  -6    4.15    0.23
  11   5   6    3.81    0.23
  11   5   6    3.65    0.21
 -12  -5  -6    1.87    0.15
  12   5   6    1.92    0.19
 -12   5  -6    2.02    0.18
  12   5   6    1.81    0.16
 -13  -5  -6    0.03    0.09
 -13   5  -6   -0.07    0.08
 -14  -5  -6    6.62    0.29
 -14   5  -6    5.69    0.30
  15  -6  -6    0.98    0.17
 -15   6   6    0.67    0.12
  14  -6  -6   -0.09    0.09
 -14   6   6   -0.02    0.08
  13  -6  -6   -0.15    0.09
 -13   6   6   -0.10    0.08
  12  -6  -6    0.30    0.12
  12  -6  -6    0.40    0.13
 -12   6   6    0.40    0.09
  12   6  -6    0.35    0.09
  11  -6  -6    0.17    0.11
  11  -6  -6    0.03    0.10
  11   6  -6    0.07    0.07
 -11   6   6    0.11    0.08
  10  -6  -6    5.31    0.27
  10  -6  -6    5.25    0.28
 -10   6   6    5.43    0.22
  10   6  -6    5.42    0.27
  10   6  -6    5.18    0.23
   9  -6  -6    0.22    0.10
   9  -6  -6    0.23    0.09
   9   6  -6    0.27    0.09
  -9   6   6    0.21    0.07
   9   6  -6    0.11    0.07
   8  -6  -6    0.37    0.09
  -8  -6   6    0.38    0.09
   8  -6  -6    0.33    0.10
   8   6  -6    0.17    0.08
   8   6  -6    0.27    0.08
  -8   6   6    0.20    0.06
  -7  -6   6    3.35    0.19
   7  -6  -6    3.26    0.21
   7  -6  -6    3.60    0.19
   7   6  -6    3.55    0.20
   7   6  -6    3.41    0.18
  -7   6   6    3.43    0.15
   6  -6  -6    0.99    0.11
   6  -6  -6    0.69    0.11
  -6  -6   6    0.80    0.11
  -6   6   6    0.92    0.08
   6   6  -6    0.75    0.11
   6   6  -6    0.73    0.09
  -6   6   6    1.09    0.09
   5  -6  -6    4.09    0.18
   5  -6  -6    3.97    0.21
  -5  -6   6    4.01    0.20
   5   6  -6    4.02    0.18
  -5   6   6    4.16    0.15
   4  -6  -6   12.96    0.40
   4  -6  -6   13.15    0.44
  -4  -6   6   12.83    0.43
  -4   6   6   13.15    0.34
  -4   6   6   12.95    0.37
  -4   6   6   13.75    0.39
   4   6  -6   13.09    0.40
   3  -6  -6    2.01    0.11
   3  -6  -6    2.00    0.15
  -3  -6   6    2.17    0.14
   3   6  -6    2.21    0.13
  -3   6   6    2.14    0.13
  -3   6   6    2.13    0.11
  -3   6   6    2.10    0.09
   2  -6  -6    2.58    0.17
  -2  -6   6    2.40    0.15
   2  -6  -6    2.62    0.11
  -2   6   6    2.36    0.14
   2   6  -6    2.67    0.14
  -2   6   6    2.45    0.11
   1  -6  -6    4.12    0.14
  -1  -6   6    4.10    0.20
   1  -6  -6    4.00    0.21
  -1   6   6    4.10    0.15
  -1   6   6    4.01    0.18
   1   6  -6    4.00    0.17
   0  -6  -6   26.32    0.68
   0  -6   6   24.93    0.76
   0  -6  -6   26.73    0.75
   0   6   6   26.53    0.70
   0   6   6   26.25    0.69
   0   6  -6   25.35    0.67
   0   6   6   25.55    0.69
   1  -6   6    5.27    0.24
  -1  -6  -6    5.61    0.18
   1  -6   6    5.61    0.24
  -1  -6  -6    5.73    0.25
  -1   6  -6    5.47    0.20
   1   6   6    5.76    0.19
   1   6   6    5.62    0.18
   1   6   6    5.40    0.22
   2  -6   6   34.84    0.93
   2  -6   6   33.95    0.98
  -2  -6  -6   33.68    0.94
   2   6   6   34.88    0.90
  -2   6  -6   33.62    0.86
   2   6   6   33.86    0.88
   2   6   6   34.07    0.90
   3  -6   6   14.09    0.45
   3  -6   6   14.24    0.48
   3   6   6   14.03    0.43
  -3   6  -6   14.19    0.40
   3   6   6   13.76    0.41
   4  -6   6    0.84    0.12
   4  -6   6    1.19    0.12
  -4   6  -6    1.10    0.09
   4   6   6    1.08    0.09
   4   6   6    1.33    0.12
   5  -6   6   14.67    0.47
   5  -6   6   14.38    0.51
  -5   6  -6   14.51    0.40
   5   6   6   14.52    0.44
   5   6   6   14.42    0.45
   6  -6   6    1.88    0.16
   6  -6   6    1.40    0.16
   6   6   6    2.00    0.15
  -6   6  -6    1.31    0.09
   6   6   6    1.71    0.12
   7  -6   6   -0.11    0.10
   7  -6   6   -0.03    0.08
   7   6   6   -0.09    0.08
   7   6   6    0.03    0.04
   8  -6   6    0.33    0.12
   8  -6   6    0.20    0.10
   8   6   6    0.22    0.08
   8   6   6    0.45    0.10
  -8   6  -6    0.40    0.10
   9  -6   6    1.06    0.16
   9  -6   6    1.36    0.15
   9   6   6    1.05    0.13
  -9   6  -6    1.25    0.14
 -10   6  -6    2.10    0.17
  10   6   6    1.87    0.16
 -11   6  -6    1.70    0.16
  11   6   6    1.56    0.15
  12   6   6    0.00    0.10
 -12   6  -6    0.10    0.11
 -13   6  -6    0.45    0.12
  15  -7  -6    0.07    0.13
 -15   7   6    0.14    0.11
  14  -7  -6    1.07    0.18
 -14   7   6    0.95    0.13
  13  -7  -6    0.12    0.12
 -13   7   6    0.12    0.09
  12  -7  -6    0.65    0.14
  12   7  -6    0.75    0.12
 -12   7   6    0.58    0.11
  11  -7  -6    0.39    0.12
  11   7  -6    0.40    0.10
 -11   7   6    0.26    0.09
  10  -7  -6    5.07    0.27
  10  -7  -6    4.45    0.27
 -10   7   6    4.57    0.21
  10   7  -6    4.50    0.23
   9  -7  -6    0.19    0.10
  -9  -7   6    0.22    0.10
   9  -7  -6    0.26    0.11
   9   7  -6    0.37    0.09
   9   7  -6    0.46    0.11
  -9   7   6    0.36    0.08
   8  -7  -6    1.78    0.17
   8  -7  -6    1.55    0.16
  -8  -7   6    1.68    0.15
  -8   7   6    1.56    0.12
   8   7  -6    1.74    0.14
   8   7  -6    1.66    0.15
   7  -7  -6    0.09    0.08
  -7  -7   6    0.04    0.08
   7  -7  -6    0.14    0.09
  -7   7   6    0.12    0.06
   7   7  -6    0.15    0.08
   7   7  -6    0.03    0.07
  -6  -7   6    4.74    0.23
   6  -7  -6    4.91    0.22
   6  -7  -6    4.41    0.25
   6   7  -6    4.13    0.21
   6   7  -6    4.68    0.23
  -6   7   6    4.47    0.17
  -6   7   6    4.47    0.19
   5  -7  -6    0.81    0.12
   5  -7  -6    0.69    0.09
  -5  -7   6    0.79    0.11
  -5   7   6    0.47    0.07
   5   7  -6    0.65    0.10
  -5   7   6    0.67    0.07
  -4  -7   6    2.85    0.17
   4  -7  -6    2.87    0.20
   4  -7  -6    2.97    0.15
  -4   7   6    3.05    0.13
  -4   7   6    3.01    0.16
   4   7  -6    2.61    0.16
   3  -7  -6    1.49    0.10
   3  -7  -6    1.48    0.15
  -3  -7   6    1.54    0.14
  -3   7   6    1.68    0.13
   3   7  -6    1.12    0.11
  -3   7   6    1.53    0.10
   2  -7  -6   23.45    0.64
   2  -7  -6   23.78    0.71
  -2  -7   6   23.45    0.71
  -2   7   6   24.35    0.64
   2   7  -6   23.53    0.64
   1  -7  -6    3.38    0.13
   1  -7  -6    3.41    0.21
  -1  -7   6    3.49    0.19
   1   7  -6    3.70    0.17
  -1   7   6    3.37    0.17
   0  -7  -6    4.06    0.22
   0  -7   6    3.76    0.21
   0  -7  -6    3.77    0.14
   0   7  -6    3.99    0.18
   0   7   6    3.70    0.19
   1  -7   6    6.43    0.28
  -1  -7  -6    7.04    0.31
   1  -7   6    6.74    0.29
  -1  -7  -6    6.75    0.22
  -1   7  -6    6.46    0.24
   1   7   6    6.22    0.26
   2  -7   6   13.26    0.44
   2  -7   6   12.77    0.46
   2   7   6   13.04    0.42
  -2   7  -6   12.84    0.38
   3  -7   6    0.16    0.09
   3  -7   6    0.36    0.10
   3   7   6    0.40    0.09
  -3   7  -6    0.39    0.07
   4  -7   6    1.41    0.15
   4  -7   6    1.47    0.14
  -4   7  -6    1.46    0.11
   4   7   6    1.24    0.12
   5  -7   6    6.76    0.32
   5  -7   6    7.09    0.30
  -5   7  -6    6.62    0.24
   5   7   6    7.10    0.29
   6  -7   6   -0.14    0.10
   6  -7   6    0.14    0.09
   6   7   6    0.07    0.08
  -6   7  -6    0.01    0.03
   7  -7   6    0.12    0.11
   7  -7   6    0.04    0.09
   7   7   6    0.05    0.08
   8  -7   6   20.41    0.71
   8  -7   6   20.94    0.64
   8   7   6   18.88    0.59
  -8   7  -6   19.74    0.60
   9  -7   6    1.20    0.15
   9   7   6    1.26    0.14
  -9   7  -6    1.35    0.14
  10   7   6    0.35    0.10
 -10   7  -6    0.35    0.11
 -11   7  -6    3.03    0.21
  11   7   6    3.42    0.22
 -12   7  -6    0.05    0.10
  12   7   6    0.07    0.10
  14  -8  -6   -0.05    0.13
  13  -8  -6    5.21    0.33
  13   8  -6    5.77    0.29
  12  -8  -6    0.37    0.15
  12   8  -6    0.22    0.10
  11  -8  -6    1.69    0.19
  11   8  -6    1.82    0.16
  10  -8  -6    1.81    0.20
  10   8  -6    1.93    0.16
   9  -8  -6    0.78    0.14
   9   8  -6    1.01    0.13
   8  -8  -6    0.23    0.11
  -8  -8   6    0.04    0.09
   8   8  -6    0.10    0.09
   8   8  -6    0.05    0.08
  -7  -8   6    4.87    0.25
   7  -8  -6    4.61    0.28
   7   8  -6    5.03    0.26
   7   8  -6    4.80    0.24
   6  -8  -6    1.36    0.17
  -6  -8   6    1.48    0.15
   6   8  -6    1.94    0.16
   6   8  -6    1.68    0.16
  -5  -8   6   75.54    2.02
   5  -8  -6   72.97    1.98
   5   8  -6   77.55    1.86
  -5   8   6   74.97    1.82
   4  -8  -6    8.32    0.37
  -4  -8   6    8.62    0.34
   4   8  -6    8.59    0.33
  -4   8   6    8.40    0.30
  -3  -8   6   24.82    0.75
   3  -8  -6   23.91    0.76
  -3   8   6   24.83    0.67
   3   8  -6   24.34    0.68
  -2  -8   6   35.84    1.02
   2  -8  -6   34.63    1.02
  -2   8   6   36.25    0.93
   2   8  -6   35.57    0.93
  -1  -8   6    7.86    0.32
   1  -8  -6    7.04    0.33
   1   8  -6    7.58    0.28
  -1   8   6    7.21    0.29
   0  -8  -6    0.07    0.10
   0  -8   6    0.21    0.09
   0   8   6   -0.04    0.08
   0   8  -6    0.04    0.07
   1  -8   6    6.62    0.30
  -1  -8  -6    6.38    0.31
   1  -8   6    6.80    0.30
  -1   8  -6    6.29    0.25
   1   8   6    6.62    0.28
   2  -8   6    1.23    0.14
   2  -8   6    1.24    0.14
  -2   8  -6    1.44    0.13
   2   8   6    1.02    0.12
   3  -8   6    0.14    0.10
   3  -8   6    0.20    0.10
  -3   8  -6    0.14    0.07
   3   8   6    0.25    0.09
   4  -8   6    2.04    0.19
   4  -8   6    2.16    0.19
  -4   8  -6    2.04    0.14
   4   8   6    1.99    0.16
   5  -8   6    0.49    0.12
   5  -8   6    0.38    0.12
   5   8   6    0.44    0.10
  -5   8  -6    0.48    0.08
   6  -8   6    3.05    0.24
   6  -8   6    3.27    0.22
  -6   8  -6    2.81    0.16
   6   8   6    2.86    0.19
   7  -8   6    1.28    0.16
   7   8   6    1.04    0.13
   8  -8   6    1.00    0.15
  -8   8  -6    1.14    0.14
   8   8   6    1.04    0.13
   9  -8   6    0.37    0.13
  -9   8  -6    0.57    0.12
   9   8   6    0.41    0.12
  10   8   6    2.76    0.21
 -10   8  -6    2.63    0.21
  11   8   6    0.07    0.10
 -11   8  -6    0.09    0.10
  12   8   6    1.51    0.16
  12  -9  -6    0.12    0.14
  12   9  -6    0.28    0.12
  11  -9  -6    1.63    0.20
  11   9  -6    1.72    0.17
  10  -9  -6    4.32    0.30
  10   9  -6    3.93    0.24
   9  -9  -6    0.14    0.12
   9   9  -6    0.06    0.09
   8  -9  -6    0.06    0.11
   8   9  -6    0.13    0.09
   7  -9  -6    1.40    0.17
   7   9  -6    1.34    0.14
   6  -9  -6    4.21    0.27
  -6  -9   6    4.43    0.24
   6   9  -6    4.38    0.25
   6   9  -6    3.92    0.23
  -5  -9   6    1.14    0.13
   5  -9  -6    0.94    0.15
   5   9  -6    1.09    0.13
  -5   9   6    1.18    0.12
   4  -9  -6   12.20    0.48
  -4  -9   6   12.49    0.45
   4   9  -6   11.83    0.42
  -4   9   6   12.43    0.40
   3  -9  -6   12.77    0.50
  -3  -9   6   13.66    0.47
  -3   9   6   13.05    0.42
   3   9  -6   12.98    0.44
   2  -9  -6    4.02    0.26
  -2  -9   6    4.06    0.22
   2   9  -6    3.58    0.20
  -2   9   6    3.89    0.21
   1  -9  -6    5.91    0.31
  -1  -9   6    5.85    0.27
   1   9  -6    5.64    0.25
  -1   9   6    5.60    0.25
   0  -9   6    0.00    0.08
   0  -9  -6   -0.21    0.08
   0   9  -6    0.10    0.08
   0   9   6    0.12    0.09
   1  -9   6   12.29    0.45
  -1  -9  -6   11.09    0.46
  -1   9  -6   12.09    0.39
   1   9   6   12.54    0.42
   2  -9   6    0.77    0.12
   2  -9   6    0.71    0.13
   2   9   6    0.80    0.12
  -2   9  -6    0.60    0.10
   3  -9   6    0.24    0.11
   3  -9   6    0.36    0.11
   3   9   6    0.36    0.10
  -3   9  -6    0.21    0.08
   4  -9   6   -0.17    0.09
   4  -9   6    0.07    0.10
  -4   9  -6   -0.06    0.06
   4   9   6    0.02    0.08
   5  -9   6   -0.14    0.09
   5   9   6   -0.01    0.08
  -5   9  -6    0.07    0.07
   6  -9   6    0.21    0.11
   6   9   6    0.16    0.11
   7  -9   6    0.32    0.13
   7   9   6    0.15    0.10
   8  -9   6    5.10    0.30
   8   9   6    4.36    0.25
  -8   9  -6    4.74    0.26
  -9   9  -6    0.75    0.14
   9   9   6    0.82    0.13
 -10   9  -6    0.95    0.15
  10   9   6    0.79    0.15
  11   9   6    2.18    0.20
  11 -10  -6   -0.08    0.14
  11  10  -6   -0.03    0.10
  10 -10  -6   -0.04    0.12
  10  10  -6    0.09    0.11
   9 -10  -6    1.48    0.21
   9  10  -6    1.49    0.17
   8 -10  -6    0.99    0.18
   8  10  -6    1.08    0.15
   7 -10  -6    0.19    0.12
   7  10  -6   -0.07    0.09
   6 -10  -6    0.04    0.11
   6  10  -6    0.02    0.09
   5 -10  -6    0.62    0.15
  -5  10   6    0.55    0.10
   5  10  -6    0.36    0.11
   4 -10  -6    0.05    0.12
   4  10  -6    0.11    0.10
  -4  10   6    0.10    0.08
  -3 -10   6    1.18    0.14
   3 -10  -6    1.03    0.16
   3  10  -6    1.01    0.13
  -3  10   6    1.13    0.13
   2 -10  -6    4.50    0.30
  -2 -10   6    5.00    0.26
  -2  10   6    4.65    0.24
   2  10  -6    4.64    0.24
   1 -10  -6    3.10    0.25
  -1 -10   6    3.32    0.22
   1  10  -6    3.15    0.19
  -1  10   6    3.13    0.20
   0 -10  -6    3.93    0.27
   0 -10   6    4.40    0.25
   0  10  -6    4.03    0.22
   0  10   6    3.79    0.22
  -1 -10  -6    0.30    0.12
   1 -10   6    0.40    0.11
   1  10   6    0.47    0.11
  -1  10  -6    0.40    0.10
   2 -10   6    5.06    0.30
  -2  10  -6    4.91    0.23
   2  10   6    5.27    0.27
   3 -10   6    0.23    0.12
   3  10   6    0.34    0.11
  -3  10  -6    0.47    0.10
   4 -10   6   -0.05    0.11
   4  10   6   -0.01    0.10
  -4  10  -6   -0.12    0.06
   5 -10   6   -0.16    0.11
   5  10   6   -0.09    0.10
  -5  10  -6   -0.05    0.07
   6 -10   6    0.13    0.12
   6  10   6   -0.08    0.10
   7 -10   6    0.32    0.15
   7  10   6    0.49    0.13
  -8  10  -6    6.85    0.32
   8  10   6    6.77    0.34
  -9  10  -6    1.74    0.19
   9  10   6    1.40    0.18
  10  10   6    0.48    0.13
   9 -11  -6    0.10    0.15
   9  11  -6   -0.08    0.10
   8 -11  -6    0.56    0.17
   8  11  -6    0.98    0.16
   7 -11  -6    1.80    0.23
   7  11  -6    1.75    0.19
   6 -11  -6    0.43    0.15
   6  11  -6    0.35    0.12
   5 -11  -6    0.04    0.12
   5  11  -6   -0.07    0.09
   4 -11  -6    0.46    0.15
  -4  11   6    0.49    0.11
   4  11  -6    0.17    0.10
   3 -11  -6    0.01    0.12
  -3  11   6    0.07    0.09
   3  11  -6    0.15    0.10
   2 -11  -6    0.26    0.14
  -2  11   6    0.32    0.10
   2  11  -6    0.40    0.11
   1 -11  -6    6.05    0.35
   1  11  -6    6.64    0.30
  -1  11   6    5.90    0.29
   0 -11  -6    0.56    0.15
   0  11  -6    0.55    0.11
   0  11   6    0.46    0.12
   1  11   6    0.75    0.14
  -1  11  -6    0.86    0.13
   2  11   6   -0.13    0.09
  -2  11  -6    0.10    0.09
   3 -11   6   -0.05    0.12
   3  11   6   -0.13    0.10
  -3  11  -6    0.03    0.08
   4 -11   6    0.53    0.16
  -4  11  -6    0.47    0.10
   4  11   6    0.43    0.13
   5 -11   6    0.96    0.18
   5  11   6    1.05    0.15
   6 -11   6    1.46    0.21
   6  11   6    1.29    0.17
   7 -11   6   -0.05    0.13
   7  11   6    0.09    0.13
   8  11   6    0.20    0.13
   7 -12  -6    0.52    0.19
   7  12  -6    0.66    0.15
   6 -12  -6   -0.12    0.13
   6  12  -6   -0.08    0.10
   5 -12  -6    0.55    0.18
   5  12  -6    0.57    0.14
   4 -12  -6    0.35    0.16
   4  12  -6    0.27    0.12
   3 -12  -6    0.07    0.15
   3  12  -6   -0.06    0.11
  -3  12   6    0.11    0.11
   2 -12  -6    1.36    0.21
  -2  12   6    1.77    0.17
   2  12  -6    1.49    0.17
   1 -12  -6   -0.03    0.13
  -1  12   6    0.00    0.10
   1  12  -6    0.08    0.11
   0  12  -6    1.17    0.15
   0  12   6    1.15    0.17
   1  12   6    0.37    0.12
  -1  12  -6    0.32    0.11
  -2  12  -6    0.12    0.10
   2  12   6   -0.05    0.12
   3  12   6    0.02    0.11
  -3  12  -6    0.00    0.09
   4 -12   6    0.34    0.17
   4  12   6    0.24    0.13
   5 -12   6    1.65    0.23
   5  12   6    1.99    0.20
 -17   0   7    3.12    0.21
  17   0  -7    2.54    0.22
 -16   0   7   -0.09    0.08
  16   0  -7   -0.01    0.09
 -15   0   7    6.03    0.28
  15   0  -7    5.45    0.30
 -14   0   7    0.19    0.09
 -13   0   7    2.26    0.16
  13   0  -7    2.26    0.18
 -12   0   7   -0.11    0.07
  12   0  -7   -0.07    0.08
  11   0  -7   14.97    0.51
 -11   0   7   15.03    0.44
  10   0  -7    0.06    0.07
 -10   0   7   -0.03    0.05
   9   0  -7    2.94    0.16
  -9   0   7    2.96    0.14
   9   0  -7    2.93    0.11
   8   0  -7    0.00    0.02
  -8   0   7    0.02    0.04
   8   0  -7    0.01    0.04
  -7   0   7    2.43    0.12
  -7   0   7    2.62    0.10
   7   0  -7    2.43    0.13
   7   0  -7    2.45    0.09
   6   0  -7    0.15    0.05
  -6   0   7    0.01    0.03
  -6   0   7    0.06    0.04
   5   0  -7    0.02    0.03
   5   0  -7    0.02    0.03
  -5   0   7    0.00    0.01
   4   0  -7   -0.04    0.03
  -4   0   7   -0.01    0.03
  -4   0   7    0.00    0.03
   4   0  -7    0.03    0.03
   3   0  -7   57.89    1.47
   3   0  -7   58.42    1.47
  -3   0   7   57.62    1.34
  -3   0   7   53.98    1.47
   2   0  -7   -0.01    0.03
  -2   0   7    0.00    0.01
  -2   0   7    0.03    0.03
   1   0  -7   21.72    0.54
  -1   0   7   20.92    0.53
   1   0  -7   21.84    0.58
   0   0  -7    0.02    0.01
   0   0   7   -0.03    0.02
   0   0   7   -0.03    0.02
   0   0  -7    0.13    0.04
   1   0   7  230.41    5.54
  -1   0  -7  251.19    6.08
  -2   0  -7   -0.01    0.03
   2   0   7    0.00    0.03
  -3   0  -7   27.46    0.71
   3   0   7   24.55    0.71
   3   0   7   25.26    0.64
  -3   0  -7   26.20    0.62
   4   0   7   -0.03    0.03
   4   0   7    0.01    0.04
  -4   0  -7   -0.01    0.03
   5   0   7   28.60    0.71
   5   0   7   28.20    0.80
  -5   0  -7   28.40    0.69
  -6   0  -7    0.05    0.04
   6   0   7    0.00    0.05
   6   0   7    0.01    0.04
   7   0   7    2.97    0.18
  -7   0  -7    2.99    0.14
   7   0   7    3.16    0.14
   8   0   7    0.04    0.08
   8   0   7    0.04    0.05
  -8   0  -7    0.06    0.06
  -9   0  -7    0.67    0.09
   9   0   7    0.47    0.07
   9   0   7    0.58    0.11
 -10   0  -7    0.07    0.07
  10   0   7    0.01    0.08
  11   0   7    1.65    0.17
 -11   0  -7    1.49    0.13
 -12   0  -7   -0.07    0.06
 -13   0  -7    1.06    0.13
 -14   0  -7   -0.04    0.08
 -15   0  -7    0.57    0.13
  17  -1  -7   -0.02    0.10
 -17  -1   7   -0.08    0.09
 -17   1   7    0.04    0.09
 -16  -1   7   -0.03    0.09
  16  -1  -7   -0.05    0.10
 -16   1   7   -0.04    0.09
 -15  -1   7    1.55    0.15
  15  -1  -7    2.01    0.19
 -15   1   7    1.85    0.16
 -14  -1   7    5.91    0.26
  14  -1  -7    5.63    0.30
 -14   1   7    6.48    0.27
 -13  -1   7    0.12    0.08
  13  -1  -7    0.36    0.10
  13  -1  -7    0.22    0.10
  13   1  -7    0.10    0.09
 -13   1   7    0.41    0.09
  12  -1  -7   57.82    1.61
 -12  -1   7   57.92    1.41
  12  -1  -7   56.78    1.54
  12   1  -7   59.27    1.62
 -12   1   7   58.58    1.40
  11  -1  -7   41.65    1.18
  11  -1  -7   43.25    1.23
 -11  -1   7   44.75    1.08
 -11   1   7   44.26    1.07
  11   1  -7   43.80    1.24
 -10  -1   7   11.10    0.34
  10  -1  -7   11.00    0.39
  10  -1  -7   11.01    0.39
  10   1  -7   11.39    0.40
 -10   1   7   10.93    0.34
  -9  -1   7   10.13    0.31
   9  -1  -7   10.19    0.36
   9  -1  -7    9.66    0.35
   9   1  -7   10.08    0.37
  -9   1   7   10.46    0.31
   9   1  -7   10.46    0.28
   8  -1  -7    9.92    0.35
  -8  -1   7   10.37    0.31
   8  -1  -7   10.44    0.35
   8  -1  -7   10.65    0.27
  -8   1   7   10.29    0.30
   8   1  -7   10.34    0.36
  -8   1   7   10.72    0.27
   8   1  -7   10.65    0.29
  -7  -1   7   12.30    0.33
   7  -1  -7   12.39    0.39
   7  -1  -7   11.72    0.38
   7   1  -7   12.41    0.32
  -7   1   7   12.30    0.31
  -7   1   7   12.07    0.33
   7   1  -7   11.75    0.39
   6  -1  -7    1.20    0.09
   6  -1  -7    1.49    0.11
  -6   1   7    1.22    0.08
   6   1  -7    1.20    0.10
  -6   1   7    1.46    0.07
   6   1  -7    1.42    0.07
  -5  -1   7    9.93    0.31
  -5  -1   7    9.78    0.28
   5  -1  -7   10.21    0.30
   5  -1  -7    9.88    0.30
   5  -1  -7   10.01    0.31
   5   1  -7   10.02    0.27
   5   1  -7    9.71    0.32
  -5   1   7    9.81    0.26
  -5   1   7   10.26    0.30
  -5   1   7   10.40    0.27
  -4  -1   7    3.59    0.13
   4  -1  -7    3.57    0.15
   4  -1  -7    3.67    0.14
   4  -1  -7    3.69    0.13
  -4  -1   7    3.67    0.15
   4   1  -7    3.87    0.15
   4   1  -7    3.73    0.15
  -4   1   7    3.89    0.14
  -4   1   7    3.69    0.12
   3  -1  -7   59.02    1.55
  -3  -1   7   60.38    1.43
   3  -1  -7   61.24    1.55
   3  -1  -7   60.44    1.49
  -3  -1   7   59.70    1.56
  -3   1   7   60.49    1.42
   3   1  -7   61.60    1.57
   2  -1  -7   45.69    1.13
   2  -1  -7   45.93    1.17
  -2  -1   7   45.75    1.09
  -2  -1   7   44.37    1.19
   2  -1  -7   46.27    1.17
   2   1  -7   46.80    1.19
  -2   1   7   44.25    1.17
  -2   1   7   44.95    1.08
   1  -1  -7   29.45    0.74
  -1  -1   7   28.72    0.79
  -1  -1   7   29.58    0.72
   1  -1  -7   29.22    0.77
   1   1  -7   30.40    0.80
  -1   1   7   29.90    0.77
  -1   1   7   29.72    0.72
   0  -1   7   25.78    0.64
   0  -1   7   25.38    0.70
   0  -1  -7   26.16    0.64
   0  -1  -7   26.19    0.68
   0   1   7   24.99    0.64
   0   1   7   25.83    0.68
   0   1  -7   25.93    0.70
   1  -1   7    1.67    0.10
  -1  -1  -7    1.70    0.08
   1  -1   7    1.68    0.08
  -1  -1  -7    1.70    0.07
   1   1   7    1.64    0.08
  -1   1  -7    1.63    0.10
   1   1   7    1.67    0.08
   2  -1   7    0.20    0.05
  -2  -1  -7    0.32    0.04
  -2  -1  -7    0.31    0.03
   2   1   7    0.24    0.04
  -2   1  -7    0.38    0.05
   2   1   7    0.28    0.04
   3  -1   7   40.08    0.95
   3  -1   7   37.70    1.05
   3  -1   7   38.29    0.94
  -3  -1  -7   40.14    1.03
  -3  -1  -7   38.24    0.89
   3   1   7   38.82    0.95
   4  -1   7    8.34    0.22
  -4  -1  -7    7.14    0.21
  -4  -1  -7    7.13    0.25
   4  -1   7    6.86    0.26
   4  -1   7    7.79    0.21
   4   1   7    7.04    0.25
  -4   1  -7    7.39    0.23
   4   1   7    7.36    0.23
   5  -1   7    2.27    0.14
   5  -1   7    2.34    0.11
   5  -1   7    2.49    0.10
  -5  -1  -7    2.40    0.11
   5   1   7    2.28    0.12
   5   1   7    2.24    0.13
  -5   1  -7    2.13    0.12
   6  -1   7    8.58    0.33
   6  -1   7    9.32    0.27
  -6  -1  -7    8.85    0.26
   6  -1   7    8.70    0.26
   6   1   7    9.21    0.28
   6   1   7    8.80    0.31
  -6   1  -7    9.02    0.28
  -7  -1  -7    0.59    0.07
   7  -1   7    0.37    0.06
   7  -1   7    0.36    0.05
   7  -1   7    0.44    0.09
   7   1   7    0.30    0.08
   7   1   7    0.40    0.06
  -7   1  -7    0.42    0.07
   8  -1   7    7.97    0.34
  -8  -1  -7    8.48    0.27
   8  -1   7    8.77    0.28
   8  -1   7    8.64    0.26
   8   1   7    8.33    0.33
  -8   1  -7    8.34    0.28
   8   1   7    8.81    0.27
   9  -1   7   10.31    0.32
  -9  -1  -7    9.55    0.31
   9  -1   7    9.55    0.39
   9  -1   7    9.75    0.29
   9   1   7    9.55    0.37
  -9   1  -7    9.24    0.32
   9   1   7    9.91    0.31
  10  -1   7    2.80    0.21
 -10  -1  -7    2.75    0.16
  10   1   7    2.66    0.14
 -10   1  -7    2.55    0.16
  10   1   7    2.73    0.20
  11  -1   7    3.58    0.24
 -11  -1  -7    3.54    0.18
 -11   1  -7    3.56    0.19
  11   1   7    3.78    0.24
 -12  -1  -7    3.57    0.20
 -12   1  -7    3.66    0.20
  12   1   7    4.11    0.25
 -13  -1  -7    1.18    0.13
 -13   1  -7    1.05    0.13
 -14  -1  -7    0.19    0.09
 -14   1  -7    0.18    0.10
 -15  -1  -7    0.85    0.13
 -15   1  -7    0.93    0.14
  17  -2  -7    0.13    0.11
 -17   2   7    0.17    0.10
  16  -2  -7    0.03    0.11
 -16   2   7    0.23    0.10
 -15  -2   7    1.16    0.14
  15  -2  -7    1.10    0.16
 -15   2   7    1.01    0.13
 -14  -2   7    1.10    0.13
  14  -2  -7    0.86    0.14
 -14   2   7    1.09    0.12
 -13  -2   7    0.04    0.08
  13  -2  -7   -0.08    0.08
  13  -2  -7    0.08    0.09
 -13   2   7    0.06    0.07
  12  -2  -7    0.06    0.09
 -12  -2   7    0.04    0.07
  12  -2  -7    0.01    0.08
 -12   2   7   -0.04    0.07
  12   2  -7   -0.02    0.08
  11  -2  -7   12.75    0.46
  11  -2  -7   13.40    0.47
  11   2  -7   13.70    0.48
 -11   2   7   13.74    0.41
  10  -2  -7   12.48    0.44
  10  -2  -7   12.82    0.44
  10   2  -7   13.02    0.45
 -10   2   7   12.56    0.37
  10   2  -7   12.64    0.35
   9  -2  -7    5.27    0.24
   9  -2  -7    4.95    0.22
  -9   2   7    5.35    0.20
   9   2  -7    5.46    0.24
   9   2  -7    5.05    0.18
   8  -2  -7    3.58    0.19
   8  -2  -7    3.68    0.18
  -8   2   7    3.54    0.15
  -8   2   7    3.61    0.11
   8   2  -7    3.72    0.18
   8   2  -7    3.39    0.14
   7  -2  -7   22.08    0.63
   7  -2  -7   21.04    0.64
   7   2  -7   22.65    0.57
   7   2  -7   22.92    0.66
  -7   2   7   22.69    0.56
  -7   2   7   22.92    0.54
  -6  -2   7    0.06    0.04
   6  -2  -7    0.17    0.05
  -6  -2   7    0.14    0.05
  -6   2   7    0.10    0.04
   6   2  -7    0.15    0.05
  -6   2   7    0.20    0.03
  -6   2   7    0.14    0.04
   6   2  -7    0.12    0.04
   5  -2  -7    6.77    0.21
  -5  -2   7    6.38    0.23
  -5  -2   7    6.51    0.21
   5  -2  -7    6.53    0.23
   5  -2  -7    6.25    0.21
  -5   2   7    6.45    0.19
  -5   2   7    6.82    0.19
   5   2  -7    6.31    0.24
  -5   2   7    6.84    0.22
   5   2  -7    6.56    0.20
   4  -2  -7    5.74    0.19
   4  -2  -7    5.80    0.18
   4  -2  -7    5.97    0.21
  -4  -2   7    5.93    0.21
  -4  -2   7    5.68    0.19
  -4   2   7    5.84    0.16
   4   2  -7    5.91    0.18
  -4   2   7    5.64    0.18
   3  -2  -7   18.76    0.52
   3  -2  -7   19.01    0.51
  -3  -2   7   19.02    0.49
  -3  -2   7   18.70    0.54
   3  -2  -7   19.10    0.51
   3   2  -7   19.20    0.54
   3   2  -7   19.08    0.49
  -3   2   7   19.80    0.45
  -3   2   7   19.41    0.51
  -3   2   7   19.43    0.48
   2  -2  -7   10.62    0.31
   2  -2  -7   10.71    0.29
   2  -2  -7   10.84    0.29
  -2  -2   7   10.44    0.33
  -2  -2   7   10.56    0.30
   2   2  -7   11.63    0.34
  -2   2   7   10.66    0.29
  -1  -2   7   22.51    0.58
   1  -2  -7   22.81    0.60
  -1  -2   7   22.51    0.63
   1   2  -7   23.88    0.64
  -1   2   7   23.10    0.58
   0  -2  -7   30.62    0.77
   0  -2   7   30.33    0.83
   0  -2   7   30.61    0.75
   0  -2  -7   30.74    0.80
   0   2   7   30.36    0.80
   0   2  -7   31.05    0.84
   0   2   7   30.00    0.75
   1  -2   7    9.52    0.27
   1  -2   7    9.27    0.31
  -1  -2  -7    9.47    0.27
  -1  -2  -7    9.88    0.27
  -1  -2  -7    9.85    0.23
   1   2   7    9.17    0.27
   1   2   7    9.48    0.27
  -1   2  -7   10.02    0.32
   2  -2   7   59.76    1.44
   2  -2   7   59.77    1.60
  -2  -2  -7   62.48    1.55
  -2  -2  -7   61.26    1.36
   2  -2   7   60.69    1.47
   2   2   7   59.29    1.44
   2   2   7   60.55    1.56
  -3  -2  -7   24.69    0.58
   3  -2   7   24.11    0.62
   3  -2   7   24.07    0.71
   3  -2   7   25.06    0.62
  -3  -2  -7   25.92    0.67
   3   2   7   24.50    0.67
   3   2   7   25.11    0.63
  -4  -2  -7  107.13    2.66
   4  -2   7  109.24    2.52
   4  -2   7  104.72    2.43
  -4  -2  -7  103.48    2.33
   4  -2   7  100.16    2.70
   4   2   7  104.27    2.45
   4   2   7   99.87    2.67
   5  -2   7    4.59    0.16
   5  -2   7    4.38    0.21
   5  -2   7    4.37    0.16
  -5  -2  -7    4.37    0.15
   5   2   7    4.63    0.17
  -5   2  -7    4.33    0.17
   5   2   7    4.01    0.18
   6  -2   7    9.38    0.27
   6  -2   7    8.53    0.34
  -6  -2  -7    9.02    0.27
   6  -2   7    9.67    0.28
   6   2   7    9.29    0.29
   6   2   7    9.15    0.32
  -6   2  -7    8.79    0.29
   7  -2   7   11.93    0.45
   7  -2   7   13.52    0.38
  -7  -2  -7   13.02    0.36
   7  -2   7   13.11    0.36
  -7   2  -7   12.98    0.38
   7   2   7   12.81    0.43
   7   2   7   13.45    0.38
   8  -2   7    1.19    0.13
   8  -2   7    1.07    0.09
  -8  -2  -7    1.05    0.09
   8  -2   7    1.16    0.11
  -8   2  -7    0.98    0.10
   8   2   7    1.56    0.14
   8   2   7    1.08    0.10
   9  -2   7    0.06    0.09
  -9  -2  -7    0.08    0.06
   9  -2   7   -0.01    0.06
   9   2   7   -0.01    0.07
   9   2   7   -0.03    0.06
  -9   2  -7    0.03    0.06
 -10  -2  -7    0.62    0.09
  10  -2   7    0.66    0.13
  10   2   7    0.58    0.11
  10   2   7    0.75    0.09
 -10   2  -7    0.73    0.11
  11  -2   7    5.72    0.31
 -11  -2  -7    5.75    0.24
 -11   2  -7    5.48    0.25
  11   2   7    6.04    0.29
 -12  -2  -7    1.82    0.15
  12   2   7    1.91    0.18
 -12   2  -7    2.02    0.17
 -13  -2  -7    0.03    0.09
 -13   2  -7    0.02    0.09
 -14  -2  -7    1.10    0.13
 -14   2  -7    1.15    0.14
 -15  -2  -7    1.57    0.16
 -15   2  -7    1.69    0.17
  17  -3  -7    0.30    0.14
 -17   3   7    0.55    0.13
  16  -3  -7    0.45    0.13
 -16   3   7    0.43    0.12
  15  -3  -7    0.74    0.15
 -15   3   7    1.03    0.13
  14  -3  -7    2.45    0.20
 -14   3   7    2.12    0.17
  13  -3  -7    1.04    0.15
  13  -3  -7    1.20    0.15
 -13   3   7    0.91    0.11
  12  -3  -7    0.27    0.10
  12  -3  -7    0.40    0.11
  12   3  -7    0.46    0.11
 -12   3   7    0.37    0.08
  11  -3  -7    1.15    0.13
  11  -3  -7    1.22    0.14
  11   3  -7    1.22    0.11
  11   3  -7    1.29    0.14
 -11   3   7    1.41    0.12
  10  -3  -7   16.40    0.54
  10  -3  -7   15.98    0.53
  10   3  -7   16.63    0.46
  10   3  -7   17.33    0.56
 -10   3   7   16.89    0.46
   9  -3  -7    0.27    0.08
   9  -3  -7    0.37    0.08
  -9   3   7    0.28    0.07
   9   3  -7    0.35    0.08
   9   3  -7    0.29    0.06
   8  -3  -7    8.11    0.31
   8  -3  -7    8.29    0.30
   8   3  -7    8.10    0.31
  -8   3   7    8.19    0.25
   8   3  -7    8.17    0.26
   7  -3  -7   27.00    0.77
   7  -3  -7   27.04    0.77
  -7  -3   7   27.33    0.79
   7   3  -7   27.22    0.80
   7   3  -7   27.49    0.70
  -7   3   7   28.26    0.67
  -7   3   7   28.25    0.66
   6  -3  -7    3.43    0.17
   6  -3  -7    3.34    0.15
  -6  -3   7    3.38    0.17
  -6   3   7    3.76    0.12
  -6   3   7    3.55    0.15
   6   3  -7    3.73    0.14
  -6   3   7    3.53    0.13
   6   3  -7    3.52    0.17
  -5  -3   7    2.39    0.13
   5  -3  -7    2.28    0.11
   5  -3  -7    2.40    0.14
  -5   3   7    2.45    0.11
  -5   3   7    2.64    0.10
  -5   3   7    2.43    0.10
   5   3  -7    2.40    0.13
  -4  -3   7    7.83    0.27
   4  -3  -7    7.68    0.27
  -4  -3   7    7.60    0.24
   4  -3  -7    7.93    0.24
   4   3  -7    8.02    0.24
  -4   3   7    8.21    0.24
  -4   3   7    7.73    0.21
   3  -3  -7   39.23    1.02
   3  -3  -7   39.99    1.03
   3  -3  -7   40.40    1.03
  -3  -3   7   38.83    1.07
  -3  -3   7   38.93    0.97
  -3   3   7   40.37    0.96
  -3   3   7   39.43    1.03
   3   3  -7   40.30    0.97
  -3   3   7   41.02    0.90
  -2  -3   7   51.20    1.25
   2  -3  -7   51.13    1.31
  -2  -3   7   50.40    1.37
   2  -3  -7   52.30    1.37
  -2   3   7   55.12    1.18
   2   3  -7   51.62    1.25
  -2   3   7   52.18    1.24
  -1  -3   7    0.17    0.05
  -1  -3   7    0.00    0.03
   1  -3  -7    0.05    0.03
  -1   3   7    0.02    0.04
   1   3  -7    0.05    0.03
   0  -3  -7    4.85    0.18
   0  -3   7    4.73    0.17
   0  -3   7    4.49    0.19
   0   3   7    4.62    0.17
   0   3  -7    5.14    0.17
   1  -3   7    8.54    0.31
  -1  -3  -7    9.34    0.25
   1  -3   7    9.65    0.27
  -1  -3  -7    9.06    0.28
   1   3   7    8.93    0.25
   1   3   7    9.15    0.25
   1   3   7    9.24    0.28
  -2  -3  -7   40.72    1.03
   2  -3   7   39.40    1.00
   2  -3   7   40.62    0.97
  -2  -3  -7   39.35    0.90
   2  -3   7   38.34    1.09
   2   3   7   40.24    1.03
   2   3   7   40.06    0.99
   2   3   7   40.87    1.04
   3  -3   7    0.39    0.05
  -3  -3  -7    0.47    0.05
   3  -3   7    0.47    0.08
  -3  -3  -7    0.48    0.04
   3  -3   7    0.41    0.06
   3   3   7    0.38    0.07
   3   3   7    0.47    0.05
   4  -3   7   59.80    1.67
   4  -3   7   63.06    1.49
  -4  -3  -7   62.09    1.41
   4  -3   7   63.25    1.54
  -4  -3  -7   63.90    1.62
   4   3   7   62.65    1.51
   4   3   7   62.35    1.62
  -5  -3  -7    1.79    0.09
   5  -3   7    2.01    0.11
   5  -3   7    1.64    0.14
   5  -3   7    1.96    0.11
   5   3   7    2.00    0.11
   5   3   7    1.96    0.12
   6  -3   7    0.13    0.08
   6  -3   7    0.15    0.05
   6  -3   7    0.37    0.05
  -6  -3  -7    0.18    0.05
   6   3   7    0.16    0.06
  -6   3  -7    0.15    0.06
   6   3   7    0.25    0.06
   7  -3   7    3.31    0.14
   7  -3   7    3.19    0.15
  -7  -3  -7    2.99    0.14
   7  -3   7    3.10    0.20
   7   3   7    3.17    0.17
  -7   3  -7    2.90    0.16
   7   3   7    3.33    0.17
   8  -3   7    4.95    0.20
   8  -3   7    4.64    0.17
   8  -3   7    4.35    0.25
  -8  -3  -7    4.67    0.18
   8   3   7    4.46    0.22
  -8   3  -7    4.67    0.21
   8   3   7    4.88    0.21
  -9  -3  -7    9.88    0.32
   9  -3   7    9.55    0.41
   9  -3   7   10.54    0.34
   9   3   7   10.39    0.33
  -9   3  -7    9.47    0.34
   9   3   7    9.68    0.37
 -10  -3  -7    0.40    0.09
  10  -3   7    0.38    0.12
  10   3   7    0.44    0.11
  10   3   7    0.58    0.09
 -10   3  -7    0.51    0.10
 -11  -3  -7    2.82    0.17
  11   3   7    3.18    0.17
  11   3   7    2.64    0.20
 -11   3  -7    2.95    0.18
 -12  -3  -7    1.39    0.13
  12   3   7    1.46    0.17
 -12   3  -7    1.44    0.15
 -13  -3  -7    0.10    0.09
 -13   3  -7   -0.01    0.09
 -14  -3  -7    0.34    0.11
 -14   3  -7    0.31    0.11
 -15  -3  -7    1.25    0.15
  16  -4  -7    0.41    0.13
 -16   4   7    0.34    0.11
  15  -4  -7    0.08    0.11
 -15   4   7    0.03    0.09
  14  -4  -7    0.00    0.10
 -14   4   7    0.02    0.09
  13  -4  -7    1.46    0.17
  13  -4  -7    1.07    0.15
 -13   4   7    1.20    0.12
  12  -4  -7    1.20    0.15
  12  -4  -7    1.31    0.15
 -12   4   7    1.30    0.12
  12   4  -7    1.19    0.15
  11  -4  -7   29.45    0.88
  11  -4  -7   28.32    0.86
  11   4  -7   28.60    0.76
  11   4  -7   30.39    0.90
 -11   4   7   28.66    0.75
  10  -4  -7   10.87    0.40
  10  -4  -7   11.22    0.42
 -10   4   7   11.36    0.34
  10   4  -7   11.04    0.35
  10   4  -7   11.29    0.42
   9  -4  -7    7.81    0.31
   9  -4  -7    7.51    0.32
   9   4  -7    8.16    0.33
  -9   4   7    8.01    0.26
   9   4  -7    7.87    0.27
  -8  -4   7    0.83    0.10
   8  -4  -7    0.96    0.12
   8  -4  -7    1.00    0.10
   8   4  -7    0.94    0.11
   8   4  -7    1.02    0.09
  -8   4   7    1.06    0.08
  -7  -4   7    2.50    0.15
   7  -4  -7    2.64    0.14
   7  -4  -7    2.53    0.16
   7   4  -7    2.61    0.16
  -7   4   7    2.50    0.10
   7   4  -7    2.56    0.13
  -7   4   7    2.70    0.12
   6  -4  -7    0.44    0.06
   6  -4  -7    0.47    0.08
  -6  -4   7    0.42    0.07
   6   4  -7    0.36    0.06
  -6   4   7    0.42    0.05
   6   4  -7    0.36    0.07
  -6   4   7    0.40    0.05
  -6   4   7    0.35    0.06
   5  -4  -7   20.98    0.62
   5  -4  -7   21.71    0.60
  -5  -4   7   21.02    0.63
   5   4  -7   21.80    0.57
  -5   4   7   21.98    0.55
  -5   4   7   22.77    0.60
  -5   4   7   21.98    0.52
   5   4  -7   20.38    0.63
  -4  -4   7    0.25    0.06
   4  -4  -7    0.29    0.05
   4  -4  -7    0.24    0.06
  -4   4   7    0.25    0.05
   4   4  -7    0.31    0.05
  -4   4   7    0.29    0.04
  -4   4   7    0.26    0.04
  -3  -4   7   79.02    2.11
   3  -4  -7   82.38    2.08
   3  -4  -7   79.73    2.03
   3   4  -7   79.44    1.92
  -3   4   7   82.40    2.07
  -3   4   7   83.21    1.81
  -3   4   7   82.62    1.92
  -2  -4   7    5.35    0.20
   2  -4  -7    5.40    0.16
   2  -4  -7    5.39    0.21
  -2  -4   7    5.38    0.21
  -2   4   7    5.53    0.19
  -2   4   7    5.81    0.14
   2   4  -7    5.74    0.19
  -2   4   7    5.47    0.15
  -1  -4   7    0.04    0.04
  -1  -4   7    0.09    0.05
   1  -4  -7    0.02    0.04
  -1   4   7    0.02    0.04
   1   4  -7    0.06    0.03
   0  -4  -7    0.10    0.05
   0  -4   7    0.09    0.05
   0  -4   7    0.09    0.04
   0   4  -7    0.06    0.04
   0   4   7    0.07    0.05
  -1  -4  -7   24.23    0.66
   1  -4   7   23.63    0.70
   1  -4   7   23.88    0.63
   1   4   7   24.00    0.64
   1   4   7   24.59    0.64
   1   4   7   26.59    0.56
   1   4   7   23.82    0.63
  -1   4  -7   23.97    0.62
   2  -4   7   17.66    0.49
  -2  -4  -7   18.65    0.52
   2  -4   7   18.82    0.51
   2  -4   7   17.73    0.56
   2   4   7   18.90    0.49
   2   4   7   18.73    0.49
   2   4   7   18.37    0.50
  -2   4  -7   18.43    0.48
   3  -4   7   42.89    1.07
   3  -4   7   40.93    1.03
  -3  -4  -7   43.03    1.09
   3  -4   7   40.53    1.16
   3   4   7   41.35    1.04
  -3   4  -7   41.98    1.02
   3   4   7   41.66    1.10
   3   4   7   43.05    1.09
  -4  -4  -7   24.96    0.66
   4  -4   7   24.80    0.65
   4  -4   7   23.62    0.62
  -4  -4  -7   23.12    0.57
   4  -4   7   23.07    0.72
   4   4   7   24.02    0.66
   4   4   7   22.91    0.64
   4   4   7   24.78    0.65
  -4   4  -7   24.69    0.61
  -5  -4  -7    0.57    0.05
   5  -4   7    0.71    0.08
   5  -4   7    0.61    0.07
   5  -4   7    0.55    0.10
   5   4   7    0.61    0.07
  -5   4  -7    0.56    0.06
   5   4   7    0.59    0.08
   6  -4   7    5.21    0.20
   6  -4   7    4.97    0.18
   6  -4   7    4.86    0.25
  -6  -4  -7    4.58    0.16
   6   4   7    4.02    0.19
   6   4   7    4.51    0.20
  -7  -4  -7    9.38    0.28
   7  -4   7    9.79    0.32
   7  -4   7    9.45    0.28
   7  -4   7    9.01    0.38
  -7   4  -7    8.96    0.32
   7   4   7    9.01    0.32
   7   4   7    9.16    0.33
  -7   4  -7    9.60    0.28
   8  -4   7   62.19    1.75
  -8  -4  -7   63.08    1.46
   8  -4   7   67.83    1.61
   8   4   7   61.32    1.68
  -8   4  -7   60.64    1.50
   8   4   7   61.34    1.54
  -9  -4  -7   11.89    0.36
   9  -4   7   11.40    0.47
   9   4   7   12.10    0.39
  -9   4  -7   11.42    0.39
   9   4   7   12.09    0.42
 -10  -4  -7    0.34    0.08
  10  -4   7    0.40    0.12
  10   4   7    0.36    0.09
 -10   4  -7    0.47    0.10
  10   4   7    0.35    0.10
 -11  -4  -7    2.52    0.16
  11   4   7    2.32    0.19
  11   4   7    2.46    0.17
 -11   4  -7    2.20    0.18
 -12  -4  -7    2.08    0.15
 -12   4  -7    2.27    0.19
  12   4   7    1.97    0.20
 -13  -4  -7   -0.06    0.08
 -13   4  -7   -0.16    0.08
 -14  -4  -7   -0.01    0.09
 -14   4  -7    0.09    0.10
 -15  -4  -7    0.14    0.10
  16  -5  -7    2.04    0.22
 -16   5   7    1.93    0.18
  15  -5  -7    1.67    0.20
 -15   5   7    1.63    0.16
  14  -5  -7    0.52    0.14
 -14   5   7    0.46    0.10
  13  -5  -7   -0.07    0.10
  13  -5  -7   -0.01    0.09
 -13   5   7   -0.03    0.08
  12  -5  -7    0.40    0.12
  12  -5  -7    0.16    0.10
 -12   5   7    0.41    0.09
  12   5  -7    0.15    0.08
  11  -5  -7   15.66    0.54
  11  -5  -7   14.92    0.54
  11   5  -7   14.94    0.46
 -11   5   7   15.34    0.45
  11   5  -7   15.52    0.55
  10  -5  -7    0.41    0.10
  10  -5  -7    0.18    0.10
  10   5  -7    0.42    0.08
 -10   5   7    0.39    0.08
  10   5  -7    0.40    0.10
   9  -5  -7    2.11    0.16
   9  -5  -7    2.26    0.18
   9   5  -7    2.19    0.17
   9   5  -7    2.14    0.14
  -9   5   7    2.25    0.13
  -8  -5   7   16.71    0.53
   8  -5  -7   16.26    0.51
   8  -5  -7   15.34    0.53
   8   5  -7   15.87    0.47
  -8   5   7   16.32    0.44
   8   5  -7   16.38    0.54
   7  -5  -7    0.18    0.08
  -7  -5   7    0.08    0.07
   7  -5  -7    0.12    0.07
   7   5  -7    0.09    0.07
   7   5  -7    0.11    0.06
  -7   5   7    0.08    0.05
  -7   5   7    0.02    0.04
   6  -5  -7   14.24    0.47
   6  -5  -7   14.68    0.44
  -6  -5   7   14.20    0.46
  -6   5   7   14.30    0.39
  -6   5   7   14.69    0.38
   6   5  -7   14.07    0.42
   6   5  -7   14.02    0.47
  -5  -5   7    3.83    0.19
   5  -5  -7    3.42    0.19
   5  -5  -7    4.06    0.17
  -5   5   7    4.36    0.16
   5   5  -7    4.02    0.17
  -5   5   7    4.20    0.14
  -5   5   7    4.00    0.16
   4  -5  -7   33.58    0.94
   4  -5  -7   34.29    0.92
  -4  -5   7   33.32    0.96
  -4   5   7   34.78    0.86
  -4   5   7   35.80    0.91
   4   5  -7   34.80    0.88
  -4   5   7   35.79    0.80
  -3  -5   7    1.68    0.12
   3  -5  -7    1.68    0.14
   3  -5  -7    1.77    0.09
   3   5  -7    1.89    0.11
  -3   5   7    1.70    0.11
  -3   5   7    1.98    0.08
  -3   5   7    1.86    0.08
  -2  -5   7   47.23    1.32
   2  -5  -7   48.49    1.26
   2  -5  -7   47.53    1.27
  -2   5   7   49.11    1.20
  -2   5   7   51.70    1.26
  -2   5   7   50.56    1.11
   2   5  -7   49.13    1.20
   1  -5  -7    5.20    0.23
   1  -5  -7    5.40    0.15
  -1  -5   7    5.13    0.22
  -1   5   7    5.60    0.20
   1   5  -7    5.29    0.19
  -1   5   7    5.58    0.15
  -1   5   7    5.51    0.14
   0  -5   7    0.33    0.07
   0  -5   7    0.48    0.06
   0  -5  -7    0.34    0.08
   0   5   7    0.45    0.03
   0   5   7    0.36    0.07
   0   5  -7    0.41    0.06
   1  -5   7    0.04    0.07
   1  -5   7    0.04    0.05
  -1  -5  -7    0.12    0.07
   1  -5   7   -0.01    0.05
   1   5   7    0.12    0.06
  -1   5  -7    0.06    0.04
   1   5   7    0.12    0.02
   1   5   7    0.14    0.03
  -2  -5  -7    0.98    0.10
   2  -5   7    0.48    0.09
   2  -5   7    0.44    0.07
   2   5   7    0.41    0.08
   2   5   7    0.46    0.04
  -2   5  -7    0.55    0.06
   2   5   7    0.49    0.05
   3  -5   7    3.71    0.16
   3  -5   7    3.60    0.20
   3   5   7    3.74    0.13
  -3   5  -7    3.34    0.14
   3   5   7    3.59    0.14
   3   5   7    3.46    0.17
   4  -5   7    0.24    0.09
   4  -5   7    0.21    0.07
   4  -5   7    0.21    0.05
   4   5   7    0.29    0.05
   4   5   7    0.33    0.05
  -4   5  -7    0.30    0.05
   4   5   7    0.40    0.08
   5  -5   7    0.74    0.08
   5  -5   7    0.69    0.12
   5  -5   7    0.56    0.08
  -5   5  -7    0.55    0.07
   5   5   7    0.65    0.10
   5   5   7    0.70    0.07
   6  -5   7    0.11    0.06
   6  -5   7    0.10    0.09
   6  -5   7    0.14    0.07
   6   5   7   -0.01    0.06
   6   5   7    0.15    0.06
  -6   5  -7    0.04    0.02
   7  -5   7    4.45    0.21
   7  -5   7    4.12    0.25
   7  -5   7    4.49    0.18
  -7   5  -7    4.31    0.21
  -7   5  -7    4.32    0.17
   7   5   7    4.16    0.20
  -8  -5  -7    0.34    0.07
   8  -5   7    0.15    0.11
   8  -5   7    0.38    0.09
   8   5   7    0.17    0.07
  -8   5  -7    0.31    0.09
   8   5   7    0.26    0.09
  -9  -5  -7    0.10    0.06
   9  -5   7    0.01    0.10
   9   5   7   -0.06    0.07
  -9   5  -7   -0.02    0.08
   9   5   7   -0.12    0.06
 -10  -5  -7    2.37    0.15
  10   5   7    2.14    0.17
 -10   5  -7    2.02    0.17
  10   5   7    2.41    0.18
 -11  -5  -7    0.59    0.10
 -11   5  -7    0.63    0.11
  11   5   7    0.52    0.11
 -12  -5  -7    2.61    0.18
 -12   5  -7    3.01    0.20
  12   5   7    2.53    0.18
 -13   5  -7    1.28    0.15
  15  -6  -7    0.01    0.11
 -15   6   7    0.08    0.10
  14  -6  -7    1.64    0.19
 -14   6   7    1.73    0.16
  13  -6  -7   -0.01    0.10
 -13   6   7    0.01    0.08
  12  -6  -7   -0.04    0.09
  12  -6  -7   -0.04    0.10
 -12   6   7   -0.03    0.07
  12   6  -7    0.12    0.08
  11  -6  -7    3.58    0.24
  11  -6  -7    3.12    0.22
  11   6  -7    3.11    0.19
 -11   6   7    3.30    0.18
  10  -6  -7   -0.09    0.08
  10  -6  -7    0.00    0.09
  10   6  -7   -0.05    0.06
  10   6  -7    0.24    0.10
 -10   6   7    0.03    0.06
   9  -6  -7    0.07    0.08
   9  -6  -7    0.04    0.09
  -9  -6   7   -0.05    0.07
   9   6  -7   -0.09    0.06
  -9   6   7   -0.01    0.06
   9   6  -7    0.10    0.08
   8  -6  -7    8.54    0.35
  -8  -6   7    7.91    0.32
   8  -6  -7    7.76    0.31
  -8   6   7    7.84    0.26
   8   6  -7    7.88    0.33
   8   6  -7    7.78    0.29
   7  -6  -7    1.21    0.12
   7  -6  -7    1.18    0.14
  -7  -6   7    1.11    0.13
  -7   6   7    1.19    0.10
   7   6  -7    1.20    0.12
   7   6  -7    1.13    0.11
   6  -6  -7    2.25    0.15
   6  -6  -7    1.90    0.17
  -6  -6   7    2.17    0.16
   6   6  -7    2.08    0.14
   6   6  -7    2.32    0.16
  -6   6   7    2.32    0.11
  -6   6   7    2.29    0.12
  -5  -6   7    0.64    0.09
   5  -6  -7    0.48    0.09
   5  -6  -7    0.66    0.08
   5   6  -7    0.58    0.08
  -5   6   7    0.57    0.06
  -4  -6   7    7.15    0.28
   4  -6  -7    6.76    0.29
   4  -6  -7    6.90    0.24
   4   6  -7    6.64    0.25
  -4   6   7    6.98    0.20
  -4   6   7    6.98    0.24
   3  -6  -7    0.08    0.04
  -3  -6   7    0.13    0.06
   3  -6  -7    0.04    0.07
  -3   6   7    0.15    0.04
  -3   6   7    0.17    0.06
   3   6  -7    0.13    0.06
   2  -6  -7    3.19    0.12
   2  -6  -7    3.20    0.20
  -2  -6   7    3.60    0.18
  -2   6   7    3.33    0.16
   2   6  -7    3.50    0.16
  -2   6   7    3.33    0.11
   1  -6  -7    1.61    0.15
   1  -6  -7    1.46    0.07
  -1  -6   7    1.29    0.12
  -1   6   7    1.42    0.12
   1   6  -7    1.56    0.11
   0  -6   7    3.00    0.18
   0  -6  -7    3.36    0.20
   0  -6  -7    3.43    0.11
   0   6   7    3.52    0.17
   0   6  -7    3.40    0.15
   0   6   7    3.40    0.11
   1  -6   7    0.54    0.09
   1  -6   7    0.44    0.09
  -1  -6  -7    0.57    0.10
   1   6   7    0.58    0.05
  -1   6  -7    0.59    0.07
   1   6   7    0.59    0.08
   2  -6   7    1.00    0.12
   2  -6   7    0.93    0.10
  -2  -6  -7    1.14    0.12
   2   6   7    1.09    0.07
  -2   6  -7    1.08    0.10
   2   6   7    0.92    0.10
   3  -6   7    0.43    0.10
   3  -6   7    0.43    0.09
   3   6   7    0.45    0.05
   3   6   7    0.48    0.08
  -3   6  -7    0.33    0.06
   4  -6   7    6.34    0.26
   4  -6   7    5.99    0.29
   4   6   7    6.31    0.22
  -4   6  -7    6.54    0.22
   4   6   7    5.95    0.25
   5  -6   7   26.73    0.81
   5  -6   7   22.04    0.71
  -5   6  -7   26.51    0.67
   5   6   7   26.75    0.72
   5   6   7   26.25    0.71
   6  -6   7    1.85    0.18
   6   6   7    2.10    0.16
   7  -6   7    8.97    0.40
   7   6   7    8.82    0.33
   8  -6   7   16.55    0.60
   8   6   7   16.17    0.51
  -8   6  -7   16.33    0.51
  -9   6  -7    4.72    0.24
   9   6   7    4.68    0.24
 -10   6  -7    0.95    0.13
  10   6   7    1.25    0.14
  11   6   7    0.52    0.11
 -11   6  -7    0.55    0.12
  12   6   7    0.57    0.12
 -12   6  -7    0.56    0.12
 -13   6  -7    0.76    0.14
  14  -7  -7    0.16    0.14
  13  -7  -7    0.11    0.12
 -13   7   7    0.15    0.09
  12  -7  -7    0.65    0.14
  12   7  -7    0.79    0.12
 -12   7   7    0.66    0.11
  11  -7  -7    1.01    0.16
 -11   7   7    1.28    0.12
  11   7  -7    1.19    0.13
  10  -7  -7    0.12    0.11
  10   7  -7    0.07    0.07
 -10   7   7   -0.05    0.07
  -9  -7   7    1.21    0.15
   9  -7  -7    1.16    0.15
  -9   7   7    1.22    0.11
   9   7  -7    1.22    0.14
   9   7  -7    1.07    0.12
  -8  -7   7   11.92    0.44
   8  -7  -7   11.64    0.45
   8   7  -7   11.33    0.39
  -8   7   7   12.22    0.35
   8   7  -7   11.71    0.44
   7  -7  -7    0.18    0.09
  -7  -7   7    0.12    0.08
  -7   7   7    0.13    0.06
   7   7  -7    0.10    0.08
   7   7  -7    0.13    0.08
   6  -7  -7    8.35    0.36
  -6  -7   7    8.23    0.33
   6   7  -7    8.77    0.31
  -6   7   7    8.69    0.28
  -6   7   7    8.47    0.26
   6   7  -7    8.51    0.34
  -5  -7   7    0.21    0.09
   5  -7  -7    0.30    0.10
  -5   7   7    0.13    0.07
   5   7  -7    0.09    0.07
  -4  -7   7   51.43    1.41
   4  -7  -7   51.23    1.38
   4   7  -7   50.88    1.29
  -4   7   7   51.64    1.27
   3  -7  -7   40.09    1.12
  -3  -7   7   40.82    1.14
  -3   7   7   40.48    1.02
   3   7  -7   40.59    1.04
  -2  -7   7    3.17    0.19
   2  -7  -7    3.13    0.21
  -2   7   7    3.36    0.17
   2   7  -7    3.28    0.17
  -1  -7   7   -0.05    0.07
   1  -7  -7   -0.14    0.08
  -1   7   7   -0.07    0.06
   1   7  -7    0.03    0.05
   0  -7  -7    1.63    0.16
   0  -7   7    1.36    0.13
   0   7   7    1.27    0.12
   0   7  -7    1.52    0.11
  -1  -7  -7    3.32    0.22
   1  -7   7    3.26    0.20
   1   7   7    3.17    0.18
  -1   7  -7    3.53    0.16
   2  -7   7    0.06    0.08
   2  -7   7    0.10    0.09
   2   7   7    0.01    0.07
  -2   7  -7    0.02    0.06
   3  -7   7    3.36    0.20
   3  -7   7    3.57    0.22
  -3   7  -7    3.29    0.16
   3   7   7    3.17    0.18
   4  -7   7    3.88    0.22
   4  -7   7    3.38    0.23
   4   7   7    3.54    0.20
  -4   7  -7    3.48    0.16
   5  -7   7    0.01    0.09
   5  -7   7   -0.04    0.08
   5   7   7    0.06    0.08
  -5   7  -7   -0.01    0.05
   6  -7   7    0.44    0.12
   6  -7   7    0.44    0.11
   6   7   7    0.40    0.09
  -6   7  -7    0.53    0.07
   7  -7   7    7.93    0.33
   7  -7   7    7.81    0.38
   7   7   7    6.99    0.31
   8   7   7    1.31    0.14
  -8   7  -7    1.49    0.16
  -9   7  -7    1.96    0.17
   9   7   7    2.00    0.16
 -10   7  -7    0.64    0.14
  10   7   7    0.70    0.12
 -11   7  -7    0.88    0.14
  11   7   7    1.08    0.14
 -12   7  -7    0.14    0.10
  12   7   7    0.15    0.10
  14  -8  -7    4.62    0.33
  13  -8  -7    0.19    0.14
  13   8  -7    0.12    0.10
  12  -8  -7    0.15    0.12
  12   8  -7    0.14    0.10
  11  -8  -7    0.00    0.12
  11   8  -7    0.00    0.09
  10  -8  -7    1.32    0.17
  10   8  -7    1.56    0.15
   9  -8  -7    0.78    0.14
   9   8  -7    0.90    0.12
   8  -8  -7    0.13    0.10
   8   8  -7    0.38    0.10
   7  -8  -7    4.63    0.28
  -7  -8   7    4.77    0.26
   7   8  -7    4.79    0.26
   7   8  -7    4.68    0.24
  -6  -8   7    3.02    0.21
   6  -8  -7    2.87    0.22
   6   8  -7    2.91    0.18
   6   8  -7    2.98    0.20
   5  -8  -7    2.32    0.20
  -5  -8   7    2.29    0.18
  -5   8   7    1.61    0.15
   5   8  -7    2.13    0.16
   4  -8  -7   25.38    0.80
  -4  -8   7   26.49    0.79
  -4   8   7   26.97    0.71
   4   8  -7   25.92    0.73
   3  -8  -7    8.56    0.36
  -3  -8   7    8.00    0.33
   3   8  -7    8.20    0.31
  -3   8   7    8.08    0.29
   2  -8  -7    1.71    0.18
  -2  -8   7    1.83    0.16
  -2   8   7    2.03    0.16
   2   8  -7    1.84    0.15
   1  -8  -7    2.64    0.21
  -1  -8   7    2.94    0.20
  -1   8   7    2.89    0.17
   1   8  -7    2.87    0.17
   0  -8  -7   15.05    0.53
   0  -8   7   15.73    0.53
   0   8  -7   14.93    0.46
   0   8   7   14.97    0.47
   1  -8   7   31.65    0.94
  -1  -8  -7   31.48    0.92
   1   8   7   31.50    0.85
  -1   8  -7   30.85    0.82
   2  -8   7   37.60    1.07
   2  -8   7   36.80    1.01
   2   8   7   34.40    0.96
  -2   8  -7   35.38    0.93
   3  -8   7   -0.01    0.09
   3  -8   7    0.02    0.09
   3   8   7   -0.10    0.07
  -3   8  -7    0.02    0.06
   4  -8   7   -0.14    0.09
   4  -8   7   -0.11    0.08
  -4   8  -7   -0.04    0.06
   4   8   7    0.08    0.09
   5  -8   7    7.77    0.37
   5  -8   7    8.35    0.35
  -5   8  -7    7.81    0.28
   5   8   7    7.77    0.32
   6  -8   7    0.05    0.10
   6   8   7   -0.04    0.08
  -6   8  -7    0.01    0.06
   7  -8   7    2.43    0.20
   7   8   7    2.31    0.18
  -8   8  -7    9.80    0.38
   8   8   7    9.92    0.38
  -9   8  -7    1.34    0.16
   9   8   7    1.51    0.16
 -10   8  -7    2.35    0.20
  10   8   7    1.97    0.18
 -11   8  -7    0.10    0.11
  11   8   7    0.01    0.10
  12   8   7    0.35    0.13
  12  -9  -7    2.02    0.23
  12   9  -7    2.19    0.20
  11  -9  -7    1.86    0.22
  11   9  -7    1.75    0.18
  10  -9  -7    2.17    0.22
  10   9  -7    2.09    0.18
   9  -9  -7    1.68    0.20
   9   9  -7    1.92    0.17
   8  -9  -7    0.34    0.13
   8   9  -7    0.32    0.10
   7  -9  -7   -0.02    0.11
   7   9  -7   -0.02    0.08
   6  -9  -7   20.86    0.71
   6   9  -7   21.26    0.64
   5  -9  -7   12.89    0.51
  -5  -9   7   13.95    0.49
   5   9  -7   13.32    0.46
  -5   9   7   13.84    0.43
   4  -9  -7    0.35    0.13
  -4  -9   7    0.33    0.10
  -4   9   7    0.38    0.10
   4   9  -7    0.24    0.10
  -3  -9   7   16.22    0.54
   3  -9  -7   15.02    0.55
   3   9  -7   14.74    0.49
  -3   9   7   15.41    0.48
  -2  -9   7    0.08    0.09
   2  -9  -7    0.02    0.11
  -2   9   7    0.22    0.09
   2   9  -7    0.00    0.07
   1  -9  -7    2.74    0.22
  -1  -9   7    2.65    0.19
  -1   9   7    2.53    0.17
   1   9  -7    2.47    0.16
   0  -9  -7   -0.03    0.09
   0  -9   7    0.07    0.09
   0   9  -7    0.04    0.07
   0   9   7   -0.05    0.07
  -1  -9  -7    2.28    0.20
   1  -9   7    2.29    0.19
  -1   9  -7    2.22    0.16
   1   9   7    2.48    0.18
   2  -9   7    3.05    0.22
   2  -9   7    3.51    0.22
   2   9   7    2.98    0.20
  -2   9  -7    3.01    0.17
   3  -9   7    9.25    0.40
   3  -9   7    9.04    0.37
   3   9   7    8.98    0.35
  -3   9  -7    8.74    0.32
   4  -9   7    7.39    0.34
   4   9   7    7.11    0.32
  -4   9  -7    7.10    0.27
   5  -9   7    0.05    0.10
   5   9   7    0.07    0.09
  -5   9  -7   -0.05    0.07
   6  -9   7    1.33    0.17
   6   9   7    1.45    0.16
   7  -9   7    3.40    0.25
   7   9   7    3.20    0.22
  -8   9  -7    0.41    0.12
   8   9   7    0.33    0.12
   9   9   7    0.72    0.14
  -9   9  -7    0.20    0.12
  10   9   7   -0.03    0.11
 -10   9  -7   -0.05    0.10
  11   9   7    1.33    0.17
  11 -10  -7    0.66    0.17
  11  10  -7    0.56    0.14
  10 -10  -7    0.22    0.15
  10  10  -7    0.24    0.12
   9 -10  -7    0.41    0.15
   9  10  -7    0.48    0.12
   8 -10  -7    0.66    0.16
   8  10  -7    0.72    0.14
   7 -10  -7    0.85    0.17
   7  10  -7    0.85    0.14
   6 -10  -7    0.96    0.17
   6  10  -7    0.84    0.13
   5 -10  -7    0.06    0.11
  -5  10   7    0.13    0.08
   5  10  -7    0.02    0.09
   4 -10  -7    1.45    0.18
   4  10  -7    1.47    0.15
  -4  10   7    1.50    0.14
   3 -10  -7    0.16    0.12
   3  10  -7    0.42    0.10
  -3  10   7    0.44    0.10
   2 -10  -7    0.45    0.13
   2  10  -7    0.87    0.12
  -2  10   7    0.80    0.12
   1 -10  -7    1.15    0.17
  -1  10   7    0.86    0.12
   1  10  -7    0.93    0.12
   0 -10  -7    1.86    0.19
   0  10   7    1.64    0.16
   0  10  -7    1.79    0.16
  -1 -10  -7    1.19    0.16
  -1  10  -7    1.16    0.13
   1  10   7    1.11    0.14
  -2  10  -7    0.02    0.07
   2  10   7    0.09    0.10
   3 -10   7    0.10    0.10
   3  10   7    0.14    0.10
  -3  10  -7    0.08    0.08
   4 -10   7    0.31    0.12
  -4  10  -7    0.16    0.08
   4  10   7    0.02    0.10
   5 -10   7    4.99    0.30
  -5  10  -7    5.55    0.25
   5  10   7    5.23    0.28
   6 -10   7    0.50    0.14
   6  10   7    0.43    0.12
   7  10   7    0.02    0.11
   8  10   7    1.22    0.17
  -8  10  -7    1.48    0.17
   9  10   7    0.05    0.11
   9 -11  -7    1.29    0.21
   9  11  -7    0.89    0.16
   8 -11  -7    0.16    0.15
   8  11  -7    0.17    0.11
   7 -11  -7    1.09    0.19
   7  11  -7    1.71    0.19
   6 -11  -7    1.48    0.21
   6  11  -7    1.44    0.16
   5 -11  -7    0.27    0.14
   5  11  -7    0.49    0.12
   4 -11  -7    0.47    0.15
   4  11  -7    0.33    0.12
  -4  11   7    0.21    0.10
   3 -11  -7   -0.07    0.11
  -3  11   7   -0.02    0.08
   3  11  -7   -0.11    0.08
   2 -11  -7    0.02    0.13
   2  11  -7   -0.13    0.08
  -2  11   7    0.08    0.09
   1 -11  -7    1.79    0.21
  -1  11   7    1.87    0.17
   1  11  -7    1.74    0.16
   0 -11  -7    0.57    0.15
   0  11  -7    0.77    0.13
   0  11   7    0.93    0.14
  -1  11  -7    0.01    0.08
   1  11   7   -0.07    0.09
   2  11   7    0.54    0.13
  -2  11  -7    0.60    0.11
  -3  11  -7    0.05    0.08
   3  11   7    0.28    0.11
   4 -11   7    0.06    0.13
  -4  11  -7    0.12    0.09
   4  11   7   -0.03    0.10
   5 -11   7    0.79    0.17
   5  11   7    0.81    0.15
   6  11   7   -0.07    0.11
   7  11   7    0.04    0.11
   6 -12  -7    1.03    0.21
   6  12  -7    1.33    0.17
   5 -12  -7    1.11    0.21
   5  12  -7    1.06    0.16
   4 -12  -7    0.14    0.16
   4  12  -7    0.24    0.11
   3 -12  -7    2.60    0.26
   3  12  -7    2.19    0.20
  -3  12   7    2.25    0.20
   2 -12  -7    2.46    0.26
  -2  12   7    2.88    0.21
   2  12  -7    2.65    0.22
   1 -12  -7    0.77    0.18
   1  12  -7    0.84    0.14
  -1  12   7    0.86    0.15
   0  12  -7    5.05    0.28
   0  12   7    5.31    0.29
   1  12   7    0.03    0.11
  -1  12  -7   -0.05    0.09
   2  12   7    0.09    0.11
  -2  12  -7    0.11    0.10
   3  12   7    0.07    0.13
  -3  12  -7    0.03    0.09
   4  12   7    0.99    0.17
 -17   0   8   -0.12    0.09
  17   0  -8   -0.01    0.11
 -16   0   8    0.93    0.13
  16   0  -8    1.07    0.16
  15   0  -8   -0.03    0.10
 -15   0   8    0.06    0.08
 -14   0   8    0.07    0.08
 -13   0   8    0.08    0.07
  13   0  -8   -0.04    0.08
  12   0  -8   32.24    0.97
 -12   0   8   32.72    0.84
  11   0  -8    0.04    0.08
 -11   0   8    0.08    0.07
 -10   0   8   32.44    0.81
  10   0  -8   32.27    0.93
   9   0  -8    0.00    0.03
   9   0  -8   -0.04    0.05
  -9   0   8    0.01    0.05
   8   0  -8    6.75    0.26
  -8   0   8    7.05    0.21
   8   0  -8    6.98    0.20
  -8   0   8    7.20    0.23
  -7   0   8    0.05    0.04
   7   0  -8    0.15    0.04
   7   0  -8   -0.05    0.04
  -7   0   8    0.21    0.04
   6   0  -8   84.50    2.03
  -6   0   8   71.82    1.83
   5   0  -8    0.05    0.04
  -5   0   8   -0.03    0.03
   5   0  -8   -0.02    0.03
   4   0  -8   94.64    2.45
  -4   0   8   94.31    2.44
  -4   0   8   96.67    2.23
   4   0  -8   96.83    2.44
  -3   0   8    0.12    0.03
   3   0  -8    0.00    0.03
  -3   0   8   -0.01    0.03
   3   0  -8    0.22    0.04
   2   0  -8  302.08    7.51
   2   0  -8  302.74    7.15
  -2   0   8  289.35    6.85
  -1   0   8    0.00    0.03
   1   0  -8    0.06    0.02
   1   0  -8   -0.06    0.03
  -1   0   8   -0.03    0.03
   0   0   8  171.61    4.93
   0   0  -8  203.63    4.73
   0   0  -8  210.46    4.94
  -1   0  -8   -0.01    0.03
   1   0   8    0.06    0.03
   1   0   8    0.02    0.02
   2   0   8   29.65    0.83
   2   0   8   30.31    0.76
  -2   0  -8   32.59    0.84
  -3   0  -8    0.00    0.04
   3   0   8   -0.04    0.03
  -3   0  -8    0.05    0.03
   3   0   8   -0.02    0.04
   4   0   8    7.80    0.24
   4   0   8    7.99    0.28
  -4   0  -8    7.87    0.23
  -5   0  -8   -0.01    0.04
   5   0   8    0.04    0.04
   6   0   8    0.61    0.07
   6   0   8    0.53    0.09
  -6   0  -8    0.60    0.07
   7   0   8   -0.02    0.07
  -7   0  -8    0.14    0.06
   7   0   8   -0.05    0.04
  -8   0  -8   12.63    0.38
   8   0   8   12.52    0.45
   8   0   8   13.43    0.37
   9   0   8    0.00    0.06
   9   0   8    0.09    0.08
  -9   0  -8   -0.02    0.06
  10   0   8    1.36    0.15
 -10   0  -8    1.14    0.11
 -11   0  -8   -0.02    0.07
  11   0   8   -0.07    0.08
 -12   0  -8    0.34    0.10
 -13   0  -8    0.04    0.08
 -14   0  -8   -0.03    0.09
 -15   0  -8   -0.09    0.10
  17  -1  -8    0.47    0.13
 -17   1   8    0.65    0.13
 -16  -1   8    0.89    0.13
  16  -1  -8    0.91    0.15
 -16   1   8    0.93    0.14
  15  -1  -8    0.73    0.14
 -15  -1   8    0.89    0.12
 -15   1   8    0.86    0.13
  14  -1  -8    0.66    0.13
 -14  -1   8    1.00    0.13
 -14   1   8    0.53    0.10
 -13  -1   8    4.87    0.23
  13  -1  -8    4.29    0.25
  13  -1  -8    4.64    0.26
 -13   1   8    4.93    0.22
  13   1  -8    4.94    0.27
 -12  -1   8    4.43    0.21
  12  -1  -8    4.16    0.24
  12  -1  -8    4.26    0.25
  12   1  -8    4.76    0.26
 -12   1   8    4.35    0.21
 -11  -1   8    1.12    0.11
  11  -1  -8    0.97    0.13
  11  -1  -8    1.49    0.14
 -11   1   8    1.08    0.11
  11   1  -8    1.22    0.13
  10  -1  -8   17.99    0.57
 -10  -1   8   18.40    0.51
  10  -1  -8   18.49    0.58
  10   1  -8   18.77    0.60
 -10   1   8   19.01    0.51
  10   1  -8   18.47    0.48
   9  -1  -8    0.04    0.06
   9  -1  -8    0.03    0.05
   9   1  -8    0.04    0.06
  -9   1   8    0.07    0.05
   9   1  -8    0.02    0.03
   8  -1  -8    2.87    0.16
   8  -1  -8    3.01    0.17
   8  -1  -8    3.07    0.11
  -8   1   8    3.06    0.11
   8   1  -8    3.16    0.12
  -8   1   8    3.15    0.14
   8   1  -8    3.26    0.17
   7  -1  -8    4.03    0.18
   7  -1  -8    4.23    0.19
  -7   1   8    4.04    0.13
  -7   1   8    4.03    0.15
   7   1  -8    4.02    0.14
   7   1  -8    3.91    0.18
   6  -1  -8    0.10    0.05
  -6  -1   8    0.01    0.03
   6  -1  -8    0.05    0.04
  -6  -1   8   -0.02    0.04
   6   1  -8    0.03    0.03
  -6   1   8   -0.02    0.03
  -6   1   8    0.07    0.04
   6   1  -8    0.02    0.04
  -5  -1   8   96.15    2.26
   5  -1  -8   97.55    2.47
  -5  -1   8   95.80    2.49
   5  -1  -8   97.38    2.38
   5  -1  -8   93.59    2.48
  -5   1   8   99.46    2.48
   5   1  -8   97.52    2.50
  -4  -1   8   61.28    1.60
   4  -1  -8   62.04    1.59
   4  -1  -8   60.97    1.59
  -4  -1   8   61.91    1.46
   4  -1  -8   62.04    1.53
  -4   1   8   61.29    1.45
   4   1  -8   61.05    1.61
   4   1  -8   62.94    1.61
  -3  -1   8    2.20    0.10
  -3  -1   8    2.08    0.10
   3  -1  -8    2.15    0.09
   3  -1  -8    2.00    0.10
   3  -1  -8    2.11    0.09
  -3   1   8    2.12    0.09
  -3   1   8    2.15    0.10
   3   1  -8    2.21    0.11
   2  -1  -8    0.74    0.06
  -2  -1   8    1.08    0.07
   2  -1  -8    0.88    0.05
  -2  -1   8    0.81    0.07
   2  -1  -8    0.86    0.06
  -2   1   8    0.86    0.06
  -2   1   8    0.93    0.05
   2   1  -8    0.99    0.08
   1  -1  -8    2.45    0.10
  -1  -1   8    2.42    0.11
  -1  -1   8    2.45    0.11
   1  -1  -8    2.35    0.10
  -1   1   8    2.46    0.11
   1   1  -8    2.59    0.12
  -1   1   8    2.40    0.09
   0  -1  -8    9.34    0.26
   0  -1  -8    9.08    0.25
   0  -1   8    8.89    0.28
   0  -1   8    8.91    0.26
   0   1  -8    8.79    0.29
   0   1   8    8.99    0.26
   0   1   8    8.80    0.26
   1  -1   8    9.22    0.27
   1  -1   8    9.70    0.31
  -1  -1  -8    9.56    0.26
  -1  -1  -8    9.78    0.28
   1   1   8    9.51    0.28
   1   1   8    9.09    0.27
  -1   1  -8    9.83    0.31
   2  -1   8    1.19    0.10
  -2  -1  -8    1.14    0.06
  -2  -1  -8    1.18    0.08
   2  -1   8    1.14    0.08
  -2   1  -8    1.11    0.10
   2   1   8    1.06    0.08
   2   1   8    0.96    0.08
   3  -1   8    7.43    0.27
  -3  -1  -8    7.48    0.21
   3  -1   8    7.40    0.23
  -3  -1  -8    7.79    0.25
   3   1   8    7.11    0.23
   4  -1   8    0.35    0.05
   4  -1   8    0.31    0.03
   4  -1   8    0.26    0.06
  -4  -1  -8    0.21    0.04
  -4  -1  -8    0.18    0.05
   4   1   8    0.22    0.05
   4   1   8    0.18    0.06
  -4   1  -8    0.31    0.05
   5  -1   8    6.60    0.18
   5  -1   8    5.79    0.24
   5  -1   8    6.19    0.20
  -5  -1  -8    5.91    0.19
   5   1   8    5.64    0.23
   5   1   8    6.13    0.21
  -5   1  -8    5.82    0.21
  -6  -1  -8    0.00    0.04
   6  -1   8    0.00    0.03
   6  -1   8    0.04    0.07
   6  -1   8    0.03    0.04
  -6   1  -8    0.05    0.05
   6   1   8   -0.01    0.04
   6   1   8   -0.03    0.06
   7  -1   8   13.90    0.48
  -7  -1  -8   14.83    0.40
   7  -1   8   15.07    0.41
   7  -1   8   14.23    0.40
   7   1   8   14.35    0.47
  -7   1  -8   14.20    0.41
   7   1   8   14.60    0.41
   8  -1   8    1.27    0.10
  -8  -1  -8    1.26    0.11
   8  -1   8    1.07    0.13
   8   1   8    1.22    0.11
  -8   1  -8    1.38    0.11
   8   1   8    1.14    0.13
   9  -1   8    3.91    0.24
   9  -1   8    4.32    0.17
  -9  -1  -8    4.21    0.19
   9   1   8    4.22    0.18
   9   1   8    3.88    0.22
  -9   1  -8    3.84    0.19
 -10  -1  -8    0.97    0.11
  10  -1   8    0.98    0.15
  10   1   8    1.11    0.10
  10   1   8    1.19    0.14
 -10   1  -8    0.88    0.11
  11  -1   8    3.49    0.24
 -11  -1  -8    3.65    0.19
  11   1   8    3.68    0.24
 -11   1  -8    3.68    0.20
 -12  -1  -8    0.64    0.10
 -12   1  -8    0.76    0.11
 -13  -1  -8    0.41    0.11
 -13   1  -8    0.47    0.11
 -14  -1  -8   -0.04    0.08
 -14   1  -8    0.03    0.10
 -15  -1  -8    0.23    0.11
 -15   1  -8    0.20    0.11
  17  -2  -8    0.09    0.11
 -17   2   8    0.04    0.10
  16  -2  -8    0.86    0.15
 -16   2   8    0.85    0.13
  15  -2  -8    4.94    0.29
 -15   2   8    5.02    0.25
  14  -2  -8    2.24    0.20
 -14   2   8    2.40    0.17
  13  -2  -8   12.55    0.48
  13  -2  -8   14.20    0.51
 -13   2   8   13.59    0.42
  12  -2  -8    0.78    0.12
  12  -2  -8    0.88    0.13
  12   2  -8    1.00    0.14
 -12   2   8    1.01    0.11
  11  -2  -8    4.66    0.24
  11  -2  -8    4.69    0.24
  11   2  -8    4.80    0.25
 -11   2   8    4.93    0.21
  10  -2  -8    3.90    0.20
  10  -2  -8    3.80    0.21
  10   2  -8    4.07    0.22
  10   2  -8    3.72    0.15
 -10   2   8    3.90    0.17
   9  -2  -8    3.64    0.18
   9  -2  -8    3.53    0.19
  -9   2   8    3.81    0.16
   9   2  -8    3.60    0.14
   9   2  -8    3.48    0.19
   8  -2  -8    3.02    0.15
   8  -2  -8    2.99    0.17
  -8   2   8    3.20    0.14
   8   2  -8    3.00    0.13
   8   2  -8    3.19    0.17
  -8   2   8    3.15    0.11
   7  -2  -8    4.50    0.20
   7  -2  -8    4.28    0.18
  -7  -2   8    4.31    0.20
  -7   2   8    4.76    0.16
   7   2  -8    4.56    0.16
  -7   2   8    4.55    0.14
   7   2  -8    4.44    0.20
   6  -2  -8  107.96    2.67
   6  -2  -8   99.80    2.68
   6  -2  -8  103.22    2.58
  -6  -2   8  101.04    2.70
  -6  -2   8  105.56    2.45
  -6   2   8  106.86    2.43
   6   2  -8  104.81    2.44
   6   2  -8  100.95    2.70
  -6   2   8  105.64    2.34
  -6   2   8  108.57    2.68
   5  -2  -8   87.50    2.20
   5  -2  -8   86.84    2.13
  -5  -2   8   83.78    2.23
  -5  -2   8   88.46    2.03
   5  -2  -8   84.93    2.21
  -5   2   8   87.28    2.21
   5   2  -8   83.94    2.24
   5   2  -8   87.06    2.02
  -5   2   8   87.77    1.93
  -5   2   8   83.56    2.01
  -4  -2   8    1.60    0.09
   4  -2  -8    1.66    0.11
   4  -2  -8    1.54    0.08
  -4  -2   8    1.65    0.10
   4  -2  -8    1.53    0.08
  -4   2   8    1.58    0.07
   4   2  -8    1.41    0.08
  -4   2   8    1.60    0.08
  -4   2   8    1.51    0.08
  -3  -2   8  166.06    4.33
  -3  -2   8  169.29    3.95
   3  -2  -8  173.26    4.31
   3  -2  -8  171.55    4.12
   3  -2  -8  170.40    4.32
  -3   2   8  172.96    3.95
  -2  -2   8    9.23    0.27
   2  -2  -8    9.19    0.25
   2  -2  -8    9.31    0.28
  -2  -2   8    9.02    0.29
   2  -2  -8    9.20    0.25
  -2   2   8    9.03    0.26
   1  -2  -8   26.03    0.69
   1  -2  -8   26.99    0.60
   1  -2  -8   25.63    0.68
   1  -2  -8   26.94    0.69
  -1  -2   8   26.36    0.66
  -1  -2   8   25.63    0.72
  -1   2   8   26.05    0.69
   1   2  -8   27.30    0.74
  -1   2   8   26.61    0.66
   0  -2   8   17.54    0.46
   0  -2   8   17.40    0.51
   0  -2  -8   18.13    0.41
   0  -2  -8   18.15    0.47
   0  -2  -8   17.54    0.47
   0   2   8   18.04    0.47
   0   2   8   17.69    0.47
   1  -2   8   13.70    0.43
  -1  -2  -8   14.67    0.39
  -1  -2  -8   14.86    0.34
   1  -2   8   13.95    0.38
  -1  -2  -8   14.16    0.39
   1   2   8   14.30    0.39
   1   2   8   14.32    0.39
  -2  -2  -8   20.61    0.53
  -2  -2  -8   19.71    0.46
   2  -2   8   18.99    0.58
   2  -2   8   19.22    0.51
   2   2   8   19.27    0.52
   2   2   8   20.15    0.54
   3  -2   8   99.09    2.38
   3  -2   8   94.29    2.56
  -3  -2  -8  103.78    2.52
  -3  -2  -8   98.79    2.20
   3  -2   8   99.88    2.31
   3   2   8   94.95    2.52
   3   2   8   98.60    2.32
   4  -2   8   14.71    0.38
  -4  -2  -8   14.97    0.42
   4  -2   8   14.30    0.39
  -4  -2  -8   14.27    0.36
   4  -2   8   13.39    0.46
   4   2   8   14.31    0.41
   4   2   8   14.12    0.43
   5  -2   8    3.69    0.14
   5  -2   8    3.65    0.20
   5  -2   8    3.77    0.15
  -5  -2  -8    3.46    0.14
  -5   2  -8    4.01    0.17
   5   2   8    4.15    0.17
   6  -2   8   40.81    0.98
  -6  -2  -8   38.62    0.92
   6  -2   8   38.65    0.95
   6  -2   8   37.34    1.10
  -6   2  -8   38.46    0.95
   6   2   8   38.61    0.97
   6   2   8   38.68    1.06
   7  -2   8    3.50    0.14
   7  -2   8    3.38    0.15
   7  -2   8    3.44    0.21
  -7  -2  -8    3.40    0.15
  -7   2  -8    3.17    0.16
   7   2   8    3.48    0.16
   7   2   8    3.44    0.18
  -8  -2  -8    0.02    0.05
   8  -2   8    0.08    0.05
   8  -2   8    0.03    0.09
   8   2   8    0.15    0.08
   8   2   8    0.18    0.07
  -8   2  -8    0.12    0.07
   9  -2   8   15.23    0.54
  -9  -2  -8   14.93    0.43
   9   2   8   15.09    0.51
   9   2   8   14.78    0.44
  -9   2  -8   14.59    0.45
  10  -2   8    0.15    0.10
 -10  -2  -8    0.20    0.07
  10   2   8    0.16    0.10
  10   2   8    0.16    0.07
 -10   2  -8    0.11    0.08
  11  -2   8    3.81    0.26
 -11  -2  -8    4.11    0.20
  11   2   8    3.70    0.24
 -11   2  -8    3.83    0.20
 -12  -2  -8   -0.05    0.07
  12   2   8    0.00    0.10
 -12   2  -8    0.21    0.09
 -13  -2  -8    1.64    0.15
 -13   2  -8    1.67    0.16
 -14  -2  -8    2.07    0.18
 -14   2  -8    1.73    0.17
 -15  -2  -8    0.17    0.11
  17  -3  -8   -0.01    0.12
 -17   3   8    0.07    0.11
  16  -3  -8    1.70    0.19
 -16   3   8    2.04    0.18
  15  -3  -8    0.15    0.11
 -15   3   8    0.11    0.09
  14  -3  -8    5.69    0.31
 -14   3   8    6.21    0.27
  13  -3  -8    2.35    0.20
  13  -3  -8    2.80    0.22
 -13   3   8    2.65    0.17
  12  -3  -8    2.64    0.21
  12  -3  -8    2.76    0.20
  12   3  -8    3.11    0.21
 -12   3   8    2.47    0.16
  11  -3  -8    2.17    0.16
  11  -3  -8    2.11    0.18
  11   3  -8    2.07    0.18
 -11   3   8    2.16    0.14
  11   3  -8    1.96    0.12
  10  -3  -8    5.04    0.23
  10  -3  -8    4.56    0.24
 -10   3   8    5.02    0.20
  10   3  -8    5.08    0.25
  10   3  -8    4.84    0.19
   9  -3  -8    5.40    0.26
   9  -3  -8    5.35    0.24
   9   3  -8    5.73    0.20
   9   3  -8    5.86    0.26
  -9   3   8    6.11    0.21
   8  -3  -8    7.25    0.28
   8  -3  -8    7.43    0.30
   8   3  -8    7.54    0.30
  -8   3   8    7.96    0.24
   8   3  -8    7.65    0.24
  -7  -3   8    1.55    0.13
   7  -3  -8    1.40    0.11
   7  -3  -8    1.53    0.12
   7   3  -8    1.49    0.10
  -7   3   8    1.63    0.08
  -7   3   8    1.58    0.09
   7   3  -8    1.48    0.12
   6  -3  -8    8.82    0.29
  -6  -3   8    8.68    0.31
   6  -3  -8    8.55    0.31
   6   3  -8    8.83    0.31
  -6   3   8    9.10    0.28
   6   3  -8    8.60    0.27
  -6   3   8    8.70    0.25
  -6   3   8    8.84    0.25
  -5  -3   8    4.59    0.18
   5  -3  -8    4.64    0.17
  -5  -3   8    4.58    0.19
   5  -3  -8    4.84    0.17
   5  -3  -8    4.69    0.20
  -5   3   8    4.60    0.16
   5   3  -8    4.74    0.20
   5   3  -8    4.65    0.17
  -5   3   8    4.68    0.15
  -5   3   8    4.86    0.17
   4  -3  -8    3.49    0.13
  -4  -3   8    3.30    0.14
  -4  -3   8    3.45    0.16
   4  -3  -8    3.37    0.16
  -4   3   8    3.68    0.11
   4   3  -8    3.64    0.14
  -4   3   8    3.52    0.13
  -3  -3   8   10.10    0.33
   3  -3  -8   10.36    0.29
   3  -3  -8   10.20    0.32
   3  -3  -8   10.30    0.28
  -3  -3   8   10.06    0.30
   3   3  -8   10.33    0.30
  -3   3   8   10.17    0.29
  -3   3   8   10.61    0.25
  -2  -3   8    0.41    0.06
   2  -3  -8    0.51    0.06
  -2  -3   8    0.49    0.06
  -2   3   8    0.44    0.06
   2   3  -8    0.50    0.05
  -1  -3   8    2.65    0.12
   1  -3  -8    2.41    0.12
  -1  -3   8    2.32    0.13
   1   3  -8    2.69    0.12
  -1   3   8    2.51    0.12
   0  -3   8    2.35    0.11
   0  -3   8    2.51    0.14
   0  -3  -8    2.47    0.12
   0   3   8    2.65    0.12
   1  -3   8   34.76    0.87
  -1  -3  -8   36.02    0.91
   1  -3   8   34.86    0.97
  -1  -3  -8   35.24    0.90
   1   3   8   35.07    0.91
   1   3   8   34.97    0.91
   1   3   8   34.84    0.88
  -2  -3  -8   27.26    0.71
  -2  -3  -8   26.56    0.62
   2  -3   8   27.28    0.69
   2  -3   8   26.36    0.78
   2  -3   8   27.76    0.69
   2   3   8   27.81    0.72
   2   3   8   27.37    0.70
  -3  -3  -8  164.53    4.14
   3  -3   8  160.81    3.80
  -3  -3  -8  160.95    3.62
   3  -3   8  158.34    4.20
   3  -3   8  167.76    3.93
   3   3   8  168.60    4.15
   3   3   8  163.42    3.81
  -4  -3  -8    9.99    0.27
   4  -3   8    9.87    0.37
  -4  -3  -8   10.61    0.31
   4  -3   8   10.25    0.30
   4  -3   8   10.19    0.30
   4   3   8   10.19    0.32
   4   3   8   10.03    0.32
   5  -3   8   18.59    0.49
   5  -3   8   17.39    0.58
   5  -3   8   18.33    0.48
  -5  -3  -8   17.39    0.45
   5   3   8   18.54    0.53
   5   3   8   18.28    0.51
   6  -3   8    0.06    0.05
  -6  -3  -8   -0.03    0.04
   6  -3   8   -0.02    0.04
   6  -3   8    0.10    0.08
   6   3   8   -0.06    0.06
   6   3   8   -0.01    0.03
  -6   3  -8    0.02    0.06
  -7  -3  -8    2.52    0.13
   7  -3   8    2.67    0.14
   7  -3   8    2.44    0.13
   7  -3   8    2.37    0.19
   7   3   8    2.73    0.16
  -7   3  -8    2.46    0.15
   7   3   8    2.71    0.15
  -8  -3  -8    8.16    0.27
   8  -3   8    8.40    0.26
   8  -3   8    8.58    0.37
   8   3   8    8.08    0.29
   8   3   8    8.06    0.32
  -8   3  -8    7.92    0.29
  -9  -3  -8   10.36    0.33
   9  -3   8   10.67    0.44
   9   3   8   10.31    0.34
  -9   3  -8   10.02    0.35
   9   3   8   10.79    0.40
  10  -3   8    3.16    0.23
 -10  -3  -8    3.05    0.17
 -10   3  -8    3.31    0.19
  10   3   8    3.25    0.18
  10   3   8    2.92    0.20
 -11  -3  -8    1.98    0.14
 -11   3  -8    1.69    0.15
  11   3   8    1.85    0.18
  11   3   8    1.81    0.15
 -12  -3  -8    0.47    0.10
  12   3   8    0.42    0.12
 -12   3  -8    0.49    0.11
 -13  -3  -8    0.13    0.09
 -13   3  -8    0.03    0.09
 -14  -3  -8    0.14    0.10
 -14   3  -8    0.15    0.10
 -15  -3  -8    0.28    0.11
  16  -4  -8    0.97    0.16
 -16   4   8    1.42    0.15
  15  -4  -8    0.34    0.13
 -15   4   8    0.39    0.11
  14  -4  -8    2.26    0.22
 -14   4   8    2.52    0.18
  13  -4  -8    0.20    0.10
  13  -4  -8    0.03    0.10
 -13   4   8   -0.08    0.07
  12  -4  -8   -0.01    0.09
  12  -4  -8   -0.13    0.07
 -12   4   8    0.08    0.07
  11  -4  -8   12.07    0.44
  11  -4  -8   11.10    0.43
  11   4  -8   11.07    0.36
  11   4  -8   11.60    0.45
 -11   4   8   11.92    0.36
  10  -4  -8    5.08    0.25
  10  -4  -8    5.55    0.28
 -10   4   8    5.24    0.21
  10   4  -8    5.12    0.21
  10   4  -8    5.58    0.27
   9  -4  -8    4.99    0.23
   9  -4  -8    5.01    0.25
   9   4  -8    5.21    0.25
   9   4  -8    4.90    0.20
  -9   4   8    4.97    0.19
  -8  -4   8    0.63    0.10
   8  -4  -8    0.45    0.09
   8  -4  -8    0.72    0.09
   8   4  -8    0.88    0.11
   8   4  -8    0.81    0.08
  -8   4   8    0.67    0.07
  -7  -4   8   -0.02    0.06
   7  -4  -8    0.07    0.06
   7  -4  -8   -0.02    0.05
   7   4  -8    0.00    0.04
   7   4  -8   -0.04    0.05
  -7   4   8    0.03    0.04
  -7   4   8   -0.06    0.04
   6  -4  -8    0.00    0.06
   6  -4  -8    0.01    0.05
  -6  -4   8    0.05    0.06
  -6   4   8    0.03    0.04
  -6   4   8   -0.02    0.04
  -6   4   8   -0.01    0.03
   6   4  -8    0.16    0.05
   6   4  -8    0.02    0.05
   5  -4  -8    6.40    0.22
  -5  -4   8    6.05    0.25
   5  -4  -8    6.39    0.25
   5   4  -8    6.48    0.22
  -5   4   8    6.51    0.21
  -5   4   8    6.90    0.19
  -4  -4   8    7.91    0.29
   4  -4  -8    8.40    0.25
   4  -4  -8    7.99    0.29
  -4   4   8    8.09    0.25
  -4   4   8    8.39    0.24
  -4   4   8    8.17    0.21
   4   4  -8    8.36    0.26
  -3  -4   8   43.75    1.21
   3  -4  -8   45.65    1.16
  -3  -4   8   43.72    1.10
   3  -4  -8   45.07    1.15
   3  -4  -8   44.68    1.16
   3   4  -8   44.08    1.10
  -3   4   8   45.46    1.09
  -3   4   8   45.53    1.01
  -3   4   8   44.70    1.15
  -2  -4   8   36.92    0.92
   2  -4  -8   36.77    0.97
  -2  -4   8   36.33    1.01
  -2   4   8   37.34    0.92
   2   4  -8   37.58    0.92
   1  -4  -8    0.40    0.07
  -1  -4   8    0.49    0.06
  -1  -4   8    0.58    0.08
  -1   4   8    0.54    0.07
   1   4  -8    0.63    0.06
   0  -4  -8    1.73    0.12
   0  -4   8    1.73    0.11
   0  -4   8    1.78    0.12
   0   4   8    1.88    0.11
   0   4  -8    2.04    0.11
   1  -4   8    0.71    0.09
   1  -4   8    0.54    0.07
  -1  -4  -8    0.60    0.08
   1   4   8    0.71    0.07
  -1   4  -8    0.61    0.06
   2  -4   8   -0.03    0.04
   2  -4   8    0.00    0.07
  -2  -4  -8    0.00    0.05
   2  -4   8   -0.03    0.04
  -2   4  -8    0.02    0.04
   2   4   8    0.04    0.02
   2   4   8   -0.01    0.05
  -3  -4  -8   17.68    0.47
   3  -4   8   16.39    0.54
   3  -4   8   16.95    0.47
   3  -4   8   17.45    0.47
   3   4   8   16.29    0.48
   3   4   8   17.38    0.47
  -3   4  -8   17.15    0.46
   3   4   8   17.23    0.47
   4  -4   8   31.77    0.82
   4  -4   8   30.65    0.92
  -4  -4  -8   32.63    0.84
  -4  -4  -8   31.10    0.73
   4  -4   8   31.02    0.79
   4   4   8   30.82    0.82
   4   4   8   31.27    0.85
   4   4   8   32.78    0.84
  -4   4  -8   31.78    0.79
   5  -4   8    0.53    0.07
  -5  -4  -8    0.53    0.05
   5  -4   8    0.59    0.11
   5  -4   8    0.45    0.07
   5   4   8    0.45    0.08
  -5   4  -8    0.52    0.06
   5   4   8    0.46    0.06
   6  -4   8    6.49    0.23
   6  -4   8    6.42    0.22
   6  -4   8    5.59    0.28
  -6  -4  -8    6.03    0.19
  -6   4  -8    5.37    0.20
   6   4   8    5.88    0.23
   6   4   8    5.98    0.24
   7  -4   8    7.72    0.27
   7  -4   8    7.67    0.25
  -7  -4  -8    7.57    0.24
   7  -4   8    7.22    0.34
  -7   4  -8    7.29    0.28
  -7   4  -8    7.60    0.24
   7   4   8    7.24    0.28
   8  -4   8    5.87    0.31
  -8  -4  -8    5.72    0.21
   8   4   8    5.40    0.25
  -8   4  -8    5.61    0.25
   8   4   8    5.30    0.24
   9  -4   8    0.60    0.13
  -9  -4  -8    0.61    0.08
  -9   4  -8    0.60    0.10
   9   4   8    0.45    0.10
   9   4   8    0.62    0.11
 -10  -4  -8    4.09    0.19
  10   4   8    4.37    0.21
  10   4   8    4.17    0.24
 -10   4  -8    4.16    0.22
 -11  -4  -8    2.64    0.17
  11   4   8    2.91    0.19
  11   4   8    2.79    0.21
 -11   4  -8    2.70    0.19
 -12  -4  -8    4.50    0.22
 -12   4  -8    4.75    0.25
 -13  -4  -8    2.25    0.18
 -13   4  -8    2.00    0.18
 -14   4  -8    0.45    0.12
  16  -5  -8    7.84    0.41
 -16   5   8    8.21    0.34
  15  -5  -8    0.67    0.16
 -15   5   8    0.65    0.12
  14  -5  -8    1.09    0.17
 -14   5   8    1.10    0.12
  13  -5  -8    0.81    0.15
  13  -5  -8    0.73    0.14
 -13   5   8    0.91    0.11
  12  -5  -8    2.01    0.19
  12  -5  -8    1.92    0.19
 -12   5   8    2.15    0.15
  12   5  -8    2.03    0.15
  11  -5  -8    0.48    0.11
  11  -5  -8    0.61    0.12
 -11   5   8    0.58    0.10
  11   5  -8    0.47    0.09
  11   5  -8    0.57    0.12
  10  -5  -8    2.04    0.18
  10  -5  -8    2.19    0.17
 -10   5   8    2.38    0.14
  10   5  -8    2.24    0.18
  10   5  -8    2.25    0.14
   9  -5  -8    0.15    0.09
  -9  -5   8   -0.01    0.07
   9  -5  -8   -0.02    0.07
   9   5  -8    0.09    0.08
   9   5  -8    0.06    0.06
  -9   5   8    0.04    0.06
  -8  -5   8    2.96    0.18
   8  -5  -8    3.08    0.20
   8  -5  -8    2.93    0.17
   8   5  -8    3.00    0.16
  -8   5   8    3.25    0.14
   8   5  -8    3.09    0.19
   7  -5  -8    0.32    0.09
   7  -5  -8    0.51    0.08
  -7  -5   8    0.38    0.09
   7   5  -8    0.56    0.08
  -7   5   8    0.59    0.06
  -7   5   8    0.46    0.06
   7   5  -8    0.32    0.08
   6  -5  -8    3.68    0.17
   6  -5  -8    3.28    0.19
  -6  -5   8    3.60    0.19
  -6   5   8    3.51    0.13
   6   5  -8    3.70    0.17
   6   5  -8    3.39    0.19
  -6   5   8    3.55    0.15
   5  -5  -8   10.55    0.32
   5  -5  -8    9.50    0.36
  -5  -5   8   10.02    0.35
  -5   5   8   10.30    0.30
   5   5  -8    9.76    0.31
  -5   5   8    9.49    0.26
  -4  -5   8   20.40    0.62
   4  -5  -8   21.20    0.57
   4  -5  -8   20.04    0.61
   4   5  -8   20.49    0.56
  -4   5   8   21.19    0.50
  -4   5   8   21.34    0.56
  -4   5   8   21.31    0.55
  -3  -5   8    3.78    0.20
   3  -5  -8    4.26    0.20
   3  -5  -8    4.44    0.14
   3   5  -8    4.23    0.17
  -3   5   8    4.43    0.18
  -3   5   8    4.50    0.14
  -3   5   8    4.46    0.12
   2  -5  -8   51.22    1.34
  -2  -5   8   49.89    1.39
  -2   5   8   54.99    1.17
  -2   5   8   51.10    1.26
   2   5  -8   51.50    1.26
   1  -5  -8   16.17    0.49
  -1  -5   8   16.63    0.46
  -1  -5   8   16.71    0.51
  -1   5   8   15.68    0.45
   1   5  -8   16.28    0.45
   0  -5   8    0.33    0.08
   0  -5   8    0.39    0.07
   0  -5  -8    0.36    0.08
   0   5   8    0.37    0.07
   0   5  -8    0.32    0.06
  -1  -5  -8   45.99    1.17
   1  -5   8   43.71    1.23
   1  -5   8   44.12    1.10
  -1   5  -8   44.88    1.10
   1   5   8   44.33    1.11
   2  -5   8    1.87    0.13
   2  -5   8    1.94    0.12
   2  -5   8    2.03    0.16
  -2  -5  -8    2.21    0.15
   2   5   8    2.08    0.08
   2   5   8    2.14    0.13
  -2   5  -8    2.11    0.12
   2   5   8    2.02    0.08
   3  -5   8   16.55    0.48
   3  -5   8   16.03    0.54
   3  -5   8   16.65    0.46
   3   5   8   16.80    0.46
   3   5   8   16.43    0.48
  -3   5  -8   16.51    0.45
   4  -5   8    2.04    0.13
   4  -5   8    2.32    0.15
   4  -5   8    2.24    0.17
  -4   5  -8    2.10    0.12
   4   5   8    2.19    0.15
   4   5   8    2.32    0.11
   5  -5   8    1.06    0.13
   5  -5   8    1.28    0.13
   5  -5   8    1.28    0.11
   5   5   8    1.32    0.10
  -5   5  -8    1.35    0.10
   5   5   8    1.22    0.11
   6  -5   8   15.70    0.44
   6  -5   8   15.11    0.54
   6  -5   8   15.91    0.47
   6   5   8   14.93    0.46
   6   5   8   15.29    0.47
  -6   5  -8   15.14    0.42
   7  -5   8    4.17    0.17
  -7  -5  -8    4.08    0.16
   7  -5   8    3.85    0.25
   7   5   8    3.75    0.20
   7   5   8    4.08    0.20
  -7   5  -8    4.03    0.17
  -7   5  -8    3.73    0.21
  -8  -5  -8    1.91    0.12
   8  -5   8    1.43    0.18
  -8   5  -8    1.64    0.15
   8   5   8    1.77    0.14
  -9  -5  -8    3.09    0.16
   9  -5   8    3.29    0.25
   9   5   8    2.90    0.19
  -9   5  -8    2.97    0.19
 -10   5  -8    1.41    0.14
  10   5   8    1.25    0.13
  11   5   8    0.05    0.08
 -11   5  -8    0.21    0.10
 -12   5  -8    0.07    0.09
  12   5   8    0.20    0.09
 -13   5  -8    0.04    0.10
  15  -6  -8    0.14    0.13
 -15   6   8    0.02    0.09
  14  -6  -8    0.58    0.14
 -14   6   8    0.25    0.10
  13  -6  -8   -0.04    0.10
 -13   6   8    0.06    0.08
  12  -6  -8    7.13    0.36
  12   6  -8    7.15    0.29
 -12   6   8    7.19    0.28
  11  -6  -8    0.02    0.09
 -11   6   8    0.10    0.07
  11   6  -8    0.16    0.08
  10  -6  -8   -0.03    0.09
  10   6  -8   -0.03    0.06
 -10   6   8   -0.03    0.06
  10   6  -8    0.13    0.09
  -9  -6   8   19.81    0.64
   9  -6  -8   19.01    0.64
   9  -6  -8   19.09    0.61
   9   6  -8   19.37    0.64
   9   6  -8   18.97    0.56
  -9   6   8   19.79    0.52
  -8  -6   8    2.25    0.17
   8  -6  -8    2.32    0.16
   8  -6  -8    2.23    0.18
   8   6  -8    2.28    0.17
   8   6  -8    2.32    0.15
  -8   6   8    2.34    0.13
  -7  -6   8    2.18    0.16
   7  -6  -8    2.27    0.16
   7  -6  -8    2.16    0.18
   7   6  -8    2.32    0.15
  -7   6   8    2.35    0.12
   7   6  -8    2.19    0.16
   6  -6  -8    5.30    0.26
  -6  -6   8    5.21    0.25
   6  -6  -8    5.94    0.23
   6   6  -8    5.21    0.25
  -6   6   8    5.68    0.20
   6   6  -8    5.29    0.22
  -6   6   8    5.60    0.18
   5  -6  -8   16.21    0.47
   5  -6  -8   15.29    0.52
  -5  -6   8   15.75    0.52
  -5   6   8   15.22    0.44
  -5   6   8   16.93    0.41
   5   6  -8   16.54    0.47
   4  -6  -8    2.25    0.11
  -4  -6   8    2.23    0.15
   4  -6  -8    2.12    0.16
  -4   6   8    2.14    0.13
   4   6  -8    1.91    0.14
  -3  -6   8    0.03    0.07
   3  -6  -8    0.15    0.08
   3   6  -8    0.14    0.06
  -3   6   8    0.15    0.06
   2  -6  -8    4.90    0.24
  -2  -6   8    5.21    0.23
  -2   6   8    5.23    0.21
   2   6  -8    5.27    0.21
   1  -6  -8   18.34    0.57
  -1  -6   8   18.56    0.58
  -1   6   8   18.40    0.52
   1   6  -8   18.55    0.51
   0  -6  -8    3.87    0.22
   0  -6   8    3.83    0.20
   0   6  -8    3.83    0.17
   0   6   8    4.27    0.19
   1  -6   8    0.20    0.08
  -1  -6  -8    0.17    0.09
   1   6   8    0.17    0.07
  -1   6  -8    0.32    0.06
   2  -6   8    0.08    0.07
  -2  -6  -8    0.03    0.08
   2  -6   8   -0.04    0.07
  -2   6  -8    0.02    0.05
   2   6   8    0.00    0.06
   3  -6   8    7.06    0.31
   3   6   8    7.12    0.28
  -3   6  -8    7.07    0.24
   4  -6   8   -0.09    0.09
   4  -6   8   -0.11    0.06
  -4   6  -8    0.02    0.05
   4   6   8   -0.01    0.06
   5  -6   8    2.22    0.16
   5  -6   8    1.81    0.18
  -5   6  -8    2.19    0.12
   5   6   8    2.15    0.16
   6  -6   8    1.43    0.13
   6  -6   8    1.06    0.15
  -6   6  -8    1.38    0.11
   6   6   8    1.21    0.13
   7  -6   8    0.60    0.14
   7   6   8    0.44    0.10
   8  -6   8    0.32    0.12
  -8   6  -8    0.29    0.10
   8   6   8    0.06    0.08
   9   6   8    1.16    0.13
  -9   6  -8    1.15    0.14
 -10   6  -8    0.08    0.09
  10   6   8    0.10    0.09
 -11   6  -8    0.37    0.11
  11   6   8    0.42    0.11
 -12   6  -8    0.92    0.14
  12   6   8    0.78    0.13
  14  -7  -8    1.51    0.20
  13  -7  -8    0.71    0.15
  12  -7  -8    0.44    0.14
  12   7  -8    0.49    0.11
  11  -7  -8    0.02    0.10
  11   7  -8   -0.02    0.08
  10  -7  -8    0.45    0.13
  10   7  -8    0.24    0.09
   9  -7  -8    0.43    0.12
   9   7  -8    0.44    0.09
  -8  -7   8   13.96    0.49
   8  -7  -8   12.56    0.49
   8   7  -8   13.47    0.49
   8   7  -8   13.45    0.43
  -7  -7   8    0.66    0.11
   7  -7  -8    0.66    0.12
   7   7  -8    0.93    0.11
   7   7  -8    0.70    0.12
  -6  -7   8   14.12    0.48
   6  -7  -8   13.56    0.49
   6   7  -8   14.02    0.44
   6   7  -8   13.50    0.48
  -6   7   8   13.26    0.40
  -5  -7   8   16.25    0.54
   5  -7  -8   15.78    0.55
  -5   7   8   16.20    0.46
   5   7  -8   16.37    0.49
  -4  -7   8    8.10    0.32
   4  -7  -8    7.98    0.34
  -4   7   8    7.83    0.28
   4   7  -8    7.92    0.29
   3  -7  -8   11.27    0.43
  -3  -7   8   11.51    0.41
   3   7  -8   11.39    0.37
  -3   7   8   11.52    0.37
   2  -7  -8    0.14    0.10
  -2  -7   8    0.35    0.09
   2   7  -8    0.33    0.08
  -2   7   8    0.52    0.09
   1  -7  -8    6.79    0.31
  -1  -7   8    6.89    0.29
   1   7  -8    6.89    0.25
  -1   7   8    6.60    0.26
   0  -7  -8    0.07    0.09
   0  -7   8    0.09    0.09
   0   7  -8    0.16    0.07
   0   7   8    0.10    0.07
   1  -7   8    1.75    0.15
  -1  -7  -8    1.58    0.15
  -1   7  -8    1.45    0.12
   1   7   8    1.37    0.13
   2  -7   8    0.09    0.08
   2  -7   8    0.10    0.09
   2   7   8    0.00    0.07
  -2   7  -8    0.01    0.06
   3  -7   8    2.14    0.17
   3  -7   8    2.20    0.18
  -3   7  -8    2.20    0.13
   3   7   8    2.00    0.16
   4  -7   8    5.46    0.28
   4  -7   8    5.52    0.25
   4   7   8    5.51    0.25
  -4   7  -8    5.55    0.21
   5  -7   8    1.68    0.16
   5  -7   8    1.92    0.18
   5   7   8    2.05    0.17
  -5   7  -8    1.92    0.13
   6  -7   8    2.31    0.21
   6   7   8    2.48    0.18
  -6   7  -8    2.46    0.14
   7   7   8    6.89    0.29
   8   7   8    0.01    0.08
  -8   7  -8   -0.01    0.09
   9   7   8    2.36    0.19
  -9   7  -8    1.79    0.17
 -10   7  -8    0.26    0.11
  10   7   8    0.16    0.09
  11   7   8    0.17    0.10
 -11   7  -8    0.11    0.10
 -12   7  -8   -0.04    0.10
  12   7   8   -0.03    0.10
  13  -8  -8    1.86    0.22
  13   8  -8    1.81    0.17
  12  -8  -8    0.22    0.13
  12   8  -8    0.20    0.10
  11  -8  -8    0.02    0.11
  11   8  -8    0.03    0.09
  10  -8  -8    0.15    0.11
  10   8  -8    0.13    0.09
   9  -8  -8    0.41    0.12
   9   8  -8    0.35    0.10
   8  -8  -8    1.26    0.16
   8   8  -8    1.18    0.13
  -7  -8   8    1.25    0.14
   7  -8  -8    1.32    0.16
   7   8  -8    0.96    0.13
   7   8  -8    1.13    0.14
   6  -8  -8    1.97    0.19
  -6  -8   8    1.80    0.17
   6   8  -8    2.00    0.15
   6   8  -8    1.78    0.17
  -5  -8   8    0.41    0.11
   5  -8  -8    0.33    0.11
  -5   8   8    0.30    0.09
   5   8  -8    0.61    0.11
  -4  -8   8    5.27    0.27
   4  -8  -8    5.51    0.29
   4   8  -8    5.36    0.24
  -4   8   8    5.29    0.23
   3  -8  -8    0.15    0.10
  -3  -8   8    0.04    0.08
   3   8  -8    0.12    0.08
  -3   8   8    0.10    0.08
  -2  -8   8    8.17    0.34
   2  -8  -8    8.32    0.36
   2   8  -8    7.84    0.30
  -2   8   8    7.71    0.29
   1  -8  -8   31.19    0.92
  -1  -8   8   31.02    0.92
   1   8  -8   31.33    0.83
  -1   8   8   30.37    0.83
   0  -8  -8   14.77    0.53
   0  -8   8   15.52    0.53
   0   8  -8   15.02    0.46
   0   8   8   15.08    0.48
   1  -8   8    0.44    0.11
  -1  -8  -8    0.33    0.12
   1   8   8    0.38    0.10
  -1   8  -8    0.46    0.09
   2  -8   8    1.10    0.14
   2   8   8    0.96    0.12
  -2   8  -8    1.15    0.11
   3  -8   8   28.55    0.87
   3  -8   8   27.80    0.81
   3   8   8   27.04    0.77
  -3   8  -8   27.27    0.74
   4  -8   8    0.14    0.11
   4  -8   8    0.13    0.10
   4   8   8    0.19    0.09
  -4   8  -8    0.20    0.07
   5  -8   8    6.76    0.34
   5  -8   8    7.40    0.32
   5   8   8    6.95    0.30
  -5   8  -8    6.92    0.26
  -6   8  -8    0.08    0.06
   6   8   8   -0.05    0.08
   7   8   8   -0.02    0.09
  -8   8  -8    1.47    0.16
   8   8   8    1.32    0.15
  -9   8  -8    2.29    0.19
   9   8   8    1.85    0.18
  10   8   8    0.43    0.12
 -10   8  -8    0.37    0.12
  11   8   8    0.03    0.10
 -11   8  -8   -0.02    0.11
  12  -9  -8   -0.02    0.12
  12   9  -8    0.01    0.10
  11  -9  -8    0.09    0.12
  11   9  -8    0.05    0.10
  10  -9  -8    0.51    0.15
  10   9  -8    0.51    0.11
   9  -9  -8    5.96    0.34
   9   9  -8    5.17    0.27
   8  -9  -8    1.72    0.20
   8   9  -8    1.70    0.16
   7  -9  -8    0.04    0.11
   7   9  -8    0.06    0.08
   6  -9  -8    0.77    0.15
   6   9  -8    0.60    0.11
   5  -9  -8   20.44    0.70
   5   9  -8   20.23    0.62
  -5   9   8   21.49    0.60
  -4  -9   8    1.29    0.16
   4  -9  -8    1.24    0.17
   4   9  -8    1.77    0.16
  -4   9   8    1.47    0.13
  -3  -9   8   14.92    0.52
   3  -9  -8   13.67    0.53
   3   9  -8   14.01    0.47
  -3   9   8   15.10    0.46
   2  -9  -8    6.88    0.35
  -2  -9   8    7.87    0.33
   2   9  -8    6.93    0.29
  -2   9   8    7.33    0.29
   1  -9  -8    0.01    0.10
  -1  -9   8    0.02    0.10
  -1   9   8    0.00    0.07
   1   9  -8    0.06    0.07
   0  -9   8    3.86    0.24
   0  -9  -8    3.29    0.24
   0   9  -8    3.41    0.19
   0   9   8    3.38    0.20
   1  -9   8    2.66    0.20
  -1  -9  -8    2.06    0.20
   1   9   8    2.17    0.18
  -1   9  -8    2.48    0.16
   2  -9   8    2.48    0.20
  -2   9  -8    2.32    0.16
   2   9   8    2.07    0.17
   3  -9   8    0.75    0.14
  -3   9  -8    0.77    0.10
   3   9   8    0.66    0.12
   4  -9   8    2.27    0.20
  -4   9  -8    2.16    0.15
   4   9   8    2.02    0.17
   5  -9   8    0.00    0.10
  -5   9  -8    0.17    0.08
   5   9   8    0.06    0.09
   6   9   8    3.90    0.24
   7   9   8    0.15    0.11
   8   9   8    0.32    0.12
  -8   9  -8    0.80    0.15
   9   9   8    3.13    0.24
  -9   9  -8    3.35    0.23
  10   9   8    0.63    0.14
  11 -10  -8    0.41    0.17
  11  10  -8    0.17    0.11
  10 -10  -8    1.30    0.21
  10  10  -8    1.74    0.18
   9 -10  -8    1.13    0.19
   9  10  -8    1.29    0.16
   8 -10  -8    0.26    0.14
   8  10  -8    0.47    0.12
   7 -10  -8    0.07    0.12
   7  10  -8    0.05    0.09
   6 -10  -8   -0.04    0.11
   6  10  -8   -0.05    0.09
   5 -10  -8   -0.11    0.11
  -5  10   8    0.03    0.08
   5  10  -8   -0.07    0.08
   4 -10  -8    0.65    0.15
  -4  10   8    0.78    0.12
   4  10  -8    0.48    0.11
   3 -10  -8    0.22    0.13
   3  10  -8    0.21    0.10
  -3  10   8    0.23    0.09
   2 -10  -8   -0.09    0.11
  -2  10   8   -0.01    0.08
   2  10  -8   -0.03    0.07
   1 -10  -8    0.07    0.11
  -1  10   8    0.05    0.09
   1  10  -8    0.26    0.10
   0 -10  -8    0.61    0.14
   0  10   8    0.68    0.12
   0  10  -8    0.53    0.10
  -1 -10  -8   -0.10    0.09
   1  10   8    0.03    0.09
  -1  10  -8   -0.04    0.07
  -2  10  -8    0.12    0.08
   2  10   8    0.04    0.10
   3  10   8    0.37    0.11
  -3  10  -8    0.17    0.09
   4 -10   8   -0.08    0.10
  -4  10  -8   -0.05    0.07
   4  10   8    0.04    0.10
   5 -10   8    0.74    0.15
   5  10   8    0.69    0.13
   6  10   8    0.04    0.11
   7  10   8    0.31    0.12
   8  10   8   -0.01    0.12
  -8  10  -8   -0.05    0.12
   9  10   8    0.36    0.14
   9 -11  -8   -0.10    0.14
   9  11  -8   -0.10    0.11
   8 -11  -8    0.61    0.18
   8  11  -8    0.65    0.14
   7 -11  -8   -0.06    0.13
   7  11  -8   -0.14    0.09
   6 -11  -8   -0.04    0.13
   6  11  -8   -0.10    0.09
   5 -11  -8    0.31    0.14
   5  11  -8    0.23    0.11
   4 -11  -8    0.75    0.17
   4  11  -8    0.71    0.14
  -4  11   8    0.49    0.11
   3 -11  -8    0.37    0.15
  -3  11   8    0.35    0.11
   3  11  -8    0.27    0.11
   2 -11  -8    0.01    0.13
   2  11  -8    0.06    0.09
  -2  11   8    0.13    0.10
   1 -11  -8    0.15    0.13
  -1  11   8    0.18    0.10
   1  11  -8    0.13    0.10
   0 -11  -8    0.20    0.13
   0  11  -8    0.41    0.11
   0  11   8    0.54    0.12
   1  11   8    2.26    0.19
  -1  11  -8    1.97    0.17
  -2  11  -8    0.73    0.12
   2  11   8    0.60    0.13
  -3  11  -8    0.17    0.09
   3  11   8    0.04    0.11
   4  11   8   -0.14    0.10
  -4  11  -8    0.12    0.09
   5  11   8    3.75    0.25
   6  11   8    1.40    0.18
   7  11   8    0.24    0.13
   6 -12  -8    1.70    0.23
   6  12  -8    1.49    0.18
   5 -12  -8    0.16    0.15
   5  12  -8    0.27    0.13
   4 -12  -8    1.09    0.21
   4  12  -8    1.64    0.18
   3 -12  -8    2.42    0.25
  -3  12   8    2.76    0.21
   3  12  -8    2.48    0.21
   2 -12  -8    0.30    0.17
  -2  12   8    0.46    0.13
   2  12  -8    0.18    0.12
   1 -12  -8    3.37    0.29
  -1  12   8    3.84    0.24
   1  12  -8    3.62    0.23
   0  12   8    0.30    0.13
   0  12  -8    0.45    0.12
   1  12   8    2.15    0.20
  -1  12  -8    1.75    0.17
  -2  12  -8   -0.05    0.09
   2  12   8   -0.01    0.12
  -3  12  -8    1.88    0.18
   3  12   8    1.69    0.19
   4  12   8    0.04    0.13
  17   0  -9   -0.02    0.10
 -17   0   9    0.04    0.10
 -16   0   9    0.04    0.09
  16   0  -9   -0.13    0.09
  15   0  -9    3.32    0.24
 -15   0   9    3.76    0.21
 -14   0   9    0.05    0.08
  14   0  -9   -0.01    0.08
  13   0  -9    1.09    0.14
 -13   0   9    1.15    0.12
  12   0  -9   -0.02    0.07
 -12   0   9    0.02    0.07
 -11   0   9   50.36    1.22
  11   0  -9   50.44    1.40
  10   0  -9    0.06    0.08
 -10   0   9    0.07    0.06
   9   0  -9    4.57    0.21
   9   0  -9    4.55    0.15
  -9   0   9    4.42    0.18
  -9   0   9    4.63    0.16
   8   0  -9   -0.02    0.03
  -8   0   9   -0.04    0.04
   8   0  -9   -0.03    0.04
  -7   0   9    2.49    0.11
   7   0  -9    2.27    0.13
  -6   0   9    0.00    0.03
   6   0  -9    0.02    0.04
   5   0  -9    2.59    0.12
  -5   0   9    2.42    0.11
  -5   0   9    2.62    0.12
  -4   0   9   -0.01    0.03
   4   0  -9   -0.03    0.03
   4   0  -9    0.03    0.03
  -4   0   9    0.01    0.03
   3   0  -9    6.73    0.22
  -3   0   9    6.90    0.21
  -2   0   9    0.00    0.03
   2   0  -9   -0.01    0.03
   2   0  -9    0.02    0.04
  -2   0   9    0.08    0.04
   1   0  -9    6.00    0.20
  -1   0   9    5.69    0.19
  -1   0   9    5.46    0.18
   1   0  -9    5.97    0.17
   0   0   9    0.01    0.03
   0   0  -9    0.00    0.04
   0   0   9    0.00    0.03
   0   0  -9    0.04    0.02
   1   0   9   49.54    1.21
  -1   0  -9   51.00    1.32
  -2   0  -9   -0.01    0.03
   2   0   9   -0.02    0.04
   2   0   9   -0.06    0.03
   3   0   9   24.74    0.62
  -3   0  -9   24.13    0.59
   3   0   9   23.16    0.68
  -4   0  -9    0.01    0.04
   4   0   9   -0.01    0.05
   4   0   9    0.02    0.04
   4   0   9    0.01    0.02
  -5   0  -9    0.09    0.05
   5   0   9    0.06    0.06
   5   0   9    0.10    0.03
   5   0   9    0.02    0.04
   6   0   9   -0.05    0.04
  -6   0  -9    0.02    0.05
   6   0   9    0.04    0.07
   7   0   9    9.92    0.38
   7   0   9   10.63    0.32
  -7   0  -9   10.33    0.32
  -8   0  -9   -0.01    0.06
   8   0   9   -0.07    0.05
   8   0   9    0.07    0.08
   9   0   9    3.93    0.23
  -9   0  -9    4.05    0.19
   9   0   9    4.03    0.17
  10   0   9    0.06    0.09
 -10   0  -9   -0.17    0.06
  11   0   9   -0.07    0.09
 -11   0  -9   -0.02    0.06
 -12   0  -9   -0.05    0.08
 -13   0  -9    0.92    0.13
 -14   0  -9    0.05    0.09
 -15   0  -9    0.81    0.14
  17  -1  -9    0.91    0.17
  17   1  -9    0.81    0.15
 -17   1   9    0.91    0.15
  16  -1  -9    0.08    0.10
 -16   1   9   -0.08    0.09
  15  -1  -9    0.77    0.14
 -15   1   9    1.05    0.13
  14  -1  -9    0.70    0.13
 -14  -1   9    0.77    0.12
 -14   1   9    0.99    0.12
  13  -1  -9    3.58    0.23
  13  -1  -9    3.93    0.24
 -13  -1   9    4.10    0.21
  13   1  -9    3.84    0.24
 -13   1   9    4.14    0.20
  12  -1  -9   20.57    0.67
  12  -1  -9   22.02    0.70
 -12   1   9   21.89    0.60
  12   1  -9   22.72    0.71
  11  -1  -9    1.69    0.15
  11  -1  -9    1.62    0.16
 -11   1   9    1.70    0.13
  11   1  -9    2.08    0.17
  10  -1  -9    0.00    0.07
  10  -1  -9   -0.01    0.07
  10   1  -9    0.09    0.05
 -10   1   9    0.08    0.06
  10   1  -9    0.04    0.07
   9  -1  -9    0.96    0.10
   9  -1  -9    0.97    0.11
  -9   1   9    1.00    0.09
   9   1  -9    0.98    0.10
   9   1  -9    1.04    0.08
   8  -1  -9   16.81    0.52
   8  -1  -9   16.65    0.51
  -8  -1   9   17.27    0.45
  -8   1   9   17.17    0.44
  -8   1   9   17.13    0.45
   8   1  -9   17.18    0.45
   8   1  -9   16.86    0.53
   7  -1  -9   44.47    1.18
   7  -1  -9   44.91    1.22
  -7   1   9   45.78    1.06
   7   1  -9   44.69    1.23
   7   1  -9   45.53    1.09
  -7   1   9   46.54    1.08
   6  -1  -9   11.51    0.36
  -6  -1   9   10.75    0.35
   6  -1  -9   10.79    0.34
  -6  -1   9   11.24    0.31
   6   1  -9   11.34    0.31
   6   1  -9   11.28    0.36
  -6   1   9   10.63    0.30
  -5  -1   9   34.77    0.85
  -5  -1   9   33.09    0.93
   5  -1  -9   35.33    0.90
   5  -1  -9   35.25    0.92
   5  -1  -9   34.06    0.92
   5   1  -9   34.30    0.94
  -5   1   9   35.11    0.84
  -4  -1   9   17.70    0.46
  -4  -1   9   17.42    0.50
   4  -1  -9   17.80    0.48
   4  -1  -9   16.97    0.49
   4  -1  -9   17.92    0.49
  -4   1   9   17.62    0.45
   4   1  -9   16.84    0.50
   3  -1  -9    3.79    0.14
  -3  -1   9    3.49    0.14
   3  -1  -9    3.75    0.13
   3  -1  -9    3.68    0.14
  -3   1   9    3.55    0.13
  -3   1   9    3.69    0.14
   3   1  -9    3.74    0.16
   2  -1  -9   19.12    0.52
   2  -1  -9   19.52    0.51
  -2  -1   9   18.92    0.50
  -2  -1   9   18.72    0.54
  -2   1   9   19.20    0.51
   2   1  -9   20.00    0.55
  -2   1   9   19.19    0.50
  -1  -1   9   -0.06    0.04
   1  -1  -9    0.07    0.03
   1  -1  -9    0.00    0.03
  -1  -1   9    0.05    0.04
   1   1  -9   -0.05    0.04
  -1   1   9    0.06    0.03
  -1   1   9   -0.02    0.03
   0  -1  -9   87.67    2.19
   0  -1   9   85.70    2.02
   0  -1  -9   86.46    2.07
   0  -1   9   84.01    2.21
   0   1   9   83.07    2.01
   0   1   9   85.11    2.18
   0   1  -9   87.00    2.21
   1  -1   9   10.28    0.33
  -1  -1  -9   10.66    0.28
   1  -1   9   10.49    0.30
  -1  -1  -9   10.87    0.31
   1   1   9   10.33    0.30
  -1   1  -9   10.66    0.34
   1   1   9   10.47    0.31
  -2  -1  -9    3.16    0.11
  -2  -1  -9    3.07    0.13
   2  -1   9    2.99    0.13
   2  -1   9    3.10    0.15
   2   1   9    3.11    0.14
   2   1   9    3.10    0.13
  -3  -1  -9    3.20    0.14
   3  -1   9    3.02    0.13
   3  -1   9    3.28    0.16
  -3  -1  -9    3.20    0.12
   3   1   9    3.02    0.14
   3   1   9    3.09    0.14
   4  -1   9    0.47    0.06
  -4  -1  -9    0.49    0.05
   4  -1   9    0.51    0.04
   4  -1   9    0.37    0.07
   4   1   9    0.41    0.06
   4   1   9    0.20    0.05
  -5  -1  -9    8.76    0.26
   5  -1   9    9.45    0.25
   5  -1   9    8.77    0.27
   5  -1   9    8.68    0.33
   5   1   9    8.80    0.28
  -5   1  -9    8.35    0.27
   5   1   9    8.77    0.31
   6  -1   9    3.13    0.14
   6  -1   9    2.74    0.18
  -6  -1  -9    3.11    0.14
  -6   1  -9    3.10    0.15
   6   1   9    2.96    0.17
   6   1   9    3.07    0.14
   7  -1   9    0.47    0.10
   7  -1   9    0.59    0.07
  -7  -1  -9    0.66    0.08
   7   1   9    0.56    0.10
  -7   1  -9    0.53    0.08
   7   1   9    0.58    0.08
   8  -1   9   29.54    0.91
   8  -1   9   30.38    0.77
  -8  -1  -9   30.49    0.77
  -8   1  -9   31.12    0.78
   8   1   9   29.63    0.89
   8   1   9   31.65    0.79
   9  -1   9    4.94    0.20
   9  -1   9    5.06    0.28
  -9  -1  -9    5.17    0.21
   9   1   9    4.92    0.26
   9   1   9    5.34    0.21
  -9   1  -9    5.07    0.22
  10  -1   9    0.15    0.10
 -10  -1  -9    0.01    0.06
  10   1   9    0.13    0.06
 -10   1  -9    0.09    0.07
  10   1   9    0.14    0.10
 -11  -1  -9    0.30    0.08
  11  -1   9    0.39    0.12
 -11   1  -9    0.36    0.09
  11   1   9    0.37    0.12
 -12  -1  -9    2.52    0.17
 -12   1  -9    2.40    0.18
 -13  -1  -9   -0.04    0.08
 -13   1  -9    0.03    0.09
 -14  -1  -9    0.13    0.09
 -14   1  -9    0.06    0.10
 -15  -1  -9    0.29    0.12
  17  -2  -9    0.71    0.16
 -17   2   9    0.58    0.13
  16  -2  -9    0.79    0.15
 -16   2   9    0.41    0.12
  15  -2  -9    0.31    0.12
 -15   2   9    0.36    0.11
  14  -2  -9    0.07    0.09
 -14   2   9    0.02    0.08
  13  -2  -9    3.85    0.24
  13  -2  -9    4.05    0.25
 -13   2   9    3.78    0.20
  12  -2  -9    0.38    0.10
  12  -2  -9    0.42    0.10
 -12   2   9    0.52    0.09
  12   2  -9    0.52    0.12
  11  -2  -9    0.91    0.12
  11  -2  -9    0.94    0.12
  11   2  -9    0.82    0.12
 -11   2   9    0.97    0.10
  10  -2  -9   24.78    0.75
  10  -2  -9   24.98    0.76
  10   2  -9   27.17    0.79
 -10   2   9   25.57    0.66
  10   2  -9   25.77    0.66
   9  -2  -9   -0.02    0.06
   9  -2  -9    0.03    0.06
   9   2  -9   -0.03    0.04
   9   2  -9    0.06    0.07
  -9   2   9   -0.03    0.05
   8  -2  -9    1.25    0.12
   8  -2  -9    1.33    0.11
   8   2  -9    1.21    0.11
   8   2  -9    1.17    0.09
  -8   2   9    1.14    0.09
  -8   2   9    1.44    0.08
  -7  -2   9    0.16    0.06
  -7  -2   9    0.22    0.06
   7  -2  -9    0.22    0.06
  -7   2   9    0.22    0.05
   7   2  -9    0.22    0.05
   7   2  -9    0.19    0.06
  -7   2   9    0.21    0.04
   6  -2  -9   49.42    1.33
   6  -2  -9   51.03    1.33
   6  -2  -9   50.80    1.31
  -6  -2   9   50.29    1.36
  -6  -2   9   50.12    1.23
   6   2  -9   51.34    1.37
   6   2  -9   50.73    1.22
  -6   2   9   50.61    1.17
  -6   2   9   51.53    1.33
  -6   2   9   51.00    1.21
   5  -2  -9   12.56    0.35
  -5  -2   9   11.67    0.38
   5  -2  -9   12.73    0.38
  -5  -2   9   11.81    0.35
   5  -2  -9   11.79    0.36
   5   2  -9   12.09    0.39
  -5   2   9   11.99    0.35
  -5   2   9   12.22    0.31
   5   2  -9   12.16    0.34
   4  -2  -9   10.15    0.32
  -4  -2   9   10.13    0.33
  -4  -2   9   10.32    0.30
   4  -2  -9   10.46    0.30
   4  -2  -9   10.05    0.30
   4   2  -9   10.61    0.30
  -4   2   9   10.47    0.29
   3  -2  -9   38.34    0.99
  -3  -2   9   37.38    1.03
  -3  -2   9   38.10    0.94
   3  -2  -9   38.45    0.98
   3  -2  -9   39.17    0.99
  -3   2   9   38.34    0.93
  -2  -2   9  146.48    3.81
   2  -2  -9  147.49    3.80
  -2  -2   9  148.99    3.48
   2  -2  -9  150.33    3.61
   2  -2  -9  152.00    3.80
  -2   2   9  152.23    3.48
   1  -2  -9    2.16    0.11
  -1  -2   9    2.22    0.12
   1  -2  -9    2.32    0.08
   1  -2  -9    2.49    0.07
  -1  -2   9    2.31    0.11
  -1   2   9    2.28    0.11
  -1   2   9    2.32    0.08
   0  -2  -9    0.11    0.04
   0  -2   9    0.10    0.04
   0  -2  -9    0.18    0.02
   0  -2  -9    0.15    0.03
   0  -2   9    0.17    0.06
   0   2   9    0.17    0.05
   0   2   9    0.21    0.03
   1  -2   9   -0.04    0.03
  -1  -2  -9    0.01    0.02
  -1  -2  -9    0.11    0.04
  -1  -2  -9    0.01    0.02
   1  -2   9    0.01    0.05
   1   2   9    0.00    0.04
   1   2   9    0.00    0.03
   2  -2   9    4.82    0.18
  -2  -2  -9    5.00    0.16
  -2  -2  -9    4.66    0.14
   2  -2   9    4.57    0.20
   2   2   9    4.76    0.17
   2   2   9    4.87    0.19
   3  -2   9   61.46    1.71
   3  -2   9   64.39    1.54
  -3  -2  -9   67.43    1.67
  -3  -2  -9   64.73    1.45
   3   2   9   64.14    1.67
   3   2   9   64.16    1.55
  -4  -2  -9   68.56    1.56
  -4  -2  -9   73.05    1.80
   4  -2   9   69.48    1.68
   4  -2   9   66.43    1.84
   4  -2   9   68.48    1.65
   4   2   9   68.35    1.66
   4   2   9   68.97    1.80
   5  -2   9    8.06    0.33
  -5  -2  -9    8.73    0.25
   5  -2   9    8.63    0.27
   5   2   9    8.86    0.28
   6  -2   9    0.07    0.05
   6  -2   9    0.06    0.09
  -6  -2  -9    0.08    0.05
   6   2   9    0.15    0.07
  -6   2  -9    0.11    0.06
   6   2   9    0.18    0.06
  -7  -2  -9    1.32    0.10
   7  -2   9    1.69    0.17
   7  -2   9    1.43    0.11
   7   2   9    1.31    0.12
   7   2   9    1.33    0.13
  -7   2  -9    1.35    0.12
  -8  -2  -9   17.67    0.48
   8  -2   9   18.24    0.48
   8  -2   9   17.18    0.60
   8   2   9   17.71    0.57
  -8   2  -9   17.31    0.51
   8   2   9   18.22    0.51
  -9  -2  -9    0.04    0.06
   9  -2   9    0.00    0.09
  -9   2  -9    0.13    0.08
   9   2   9   -0.02    0.07
   9   2   9   -0.04    0.07
  10  -2   9    3.45    0.24
 -10  -2  -9    3.77    0.19
  10   2   9    3.56    0.22
  10   2   9    3.56    0.18
 -10   2  -9    3.41    0.19
 -11  -2  -9    0.71    0.11
 -11   2  -9    0.69    0.11
  11   2   9    0.69    0.13
 -12  -2  -9    1.47    0.14
 -12   2  -9    1.36    0.14
 -13  -2  -9    1.25    0.13
 -13   2  -9    1.14    0.15
 -14  -2  -9    0.69    0.13
 -14   2  -9    0.49    0.12
  17  -3  -9   -0.10    0.10
 -17   3   9   -0.01    0.10
  16  -3  -9    2.59    0.24
 -16   3   9    2.36    0.18
  15  -3  -9    0.23    0.11
 -15   3   9    0.08    0.10
  14  -3  -9    0.44    0.12
 -14   3   9    0.47    0.11
  13  -3  -9    0.62    0.12
  13  -3  -9    0.63    0.13
 -13   3   9    0.60    0.10
  12  -3  -9    1.23    0.15
  12  -3  -9    1.23    0.14
  12   3  -9    1.13    0.14
 -12   3   9    0.96    0.10
  11  -3  -9   17.29    0.59
  11  -3  -9   18.20    0.59
  11   3  -9   18.37    0.61
  11   3  -9   17.75    0.50
 -11   3   9   18.45    0.50
  10  -3  -9    3.42    0.20
  10  -3  -9    3.80    0.22
  10   3  -9    3.65    0.16
 -10   3   9    3.93    0.17
  10   3  -9    3.83    0.22
   9  -3  -9   13.53    0.45
   9  -3  -9   12.80    0.43
   9   3  -9   12.99    0.38
   9   3  -9   12.85    0.45
  -9   3   9   13.06    0.37
  -8  -3   9    0.52    0.09
   8  -3  -9    0.82    0.09
   8  -3  -9    0.50    0.09
   8   3  -9    0.39    0.08
  -8   3   9    0.68    0.07
   8   3  -9    0.66    0.07
   7  -3  -9   50.01    1.35
  -7  -3   9   50.21    1.38
   7  -3  -9   51.31    1.33
  -7   3   9   51.37    1.18
   7   3  -9   49.78    1.38
  -7   3   9   52.33    1.21
   7   3  -9   50.31    1.23
   6  -3  -9    0.43    0.06
  -6  -3   9    0.41    0.07
   6  -3  -9    0.37    0.06
   6  -3  -9    0.39    0.08
  -6  -3   9    0.52    0.08
   6   3  -9    0.40    0.07
  -6   3   9    0.44    0.05
   6   3  -9    0.34    0.06
  -6   3   9    0.42    0.05
  -6   3   9    0.49    0.06
  -5  -3   9   13.12    0.43
   5  -3  -9   13.57    0.43
  -5  -3   9   13.72    0.39
   5  -3  -9   13.92    0.39
   5  -3  -9   13.68    0.40
   5   3  -9   13.73    0.38
  -5   3   9   14.16    0.34
  -5   3   9   13.94    0.39
   5   3  -9   13.55    0.44
  -4  -3   9    9.77    0.33
   4  -3  -9    9.38    0.32
  -4  -3   9   10.23    0.31
   4  -3  -9   10.20    0.28
   4  -3  -9   10.46    0.29
   4   3  -9    9.84    0.30
  -4   3   9   10.11    0.25
  -4   3   9    9.95    0.29
   3  -3  -9   69.49    1.77
   3  -3  -9   68.62    1.73
   3  -3  -9   70.43    1.77
  -3  -3   9   67.42    1.81
  -3  -3   9   68.12    1.66
   3   3  -9   69.50    1.65
  -3   3   9   70.87    1.65
  -2  -3   9    0.13    0.06
   2  -3  -9    0.26    0.05
  -2  -3   9    0.20    0.05
   2   3  -9    0.18    0.05
  -2   3   9    0.21    0.05
  -1  -3   9    0.00    0.05
   1  -3  -9    0.14    0.05
  -1  -3   9    0.07    0.04
  -1   3   9    0.11    0.04
   0  -3   9   78.73    2.11
   0  -3   9   81.65    1.92
   0  -3  -9   83.37    2.00
   0   3   9   79.94    1.92
   1  -3   9    1.25    0.11
  -1  -3  -9    1.32    0.05
  -1  -3  -9    1.29    0.10
   1  -3   9    1.32    0.09
   1   3   9    1.29    0.06
   1   3   9    1.44    0.10
  -2  -3  -9   52.32    1.33
   2  -3   9   50.05    1.39
   2  -3   9   52.00    1.25
  -2  -3  -9   50.50    1.16
   2   3   9   53.01    1.33
   2   3   9   51.53    1.26
   3  -3   9   10.53    0.31
   3  -3   9    9.96    0.37
   3  -3   9   10.47    0.29
  -3  -3  -9   10.54    0.31
  -3  -3  -9   10.20    0.26
   3   3   9   10.33    0.31
   3   3   9   10.55    0.33
   4  -3   9   15.31    0.43
  -4  -3  -9   15.89    0.45
   4  -3   9   15.23    0.51
  -4  -3  -9   15.25    0.39
   4  -3   9   15.93    0.42
   4   3   9   15.25    0.44
   4   3   9   16.01    0.46
   5  -3   9   22.50    0.71
   5  -3   9   23.31    0.61
  -5  -3  -9   23.75    0.57
   5   3   9   23.53    0.66
   5   3   9   22.94    0.63
  -6  -3  -9    1.27    0.09
   6  -3   9    1.17    0.10
   6  -3   9    1.10    0.14
   6   3   9    1.12    0.10
  -6   3  -9    1.16    0.11
   6   3   9    1.45    0.13
   7  -3   9    0.60    0.12
   7  -3   9    0.68    0.08
  -7  -3  -9    0.58    0.07
   7   3   9    0.42    0.09
   7   3   9    0.55    0.09
  -7   3  -9    0.54    0.09
   8  -3   9    0.10    0.10
  -8  -3  -9   -0.07    0.05
   8  -3   9    0.01    0.06
   8   3   9    0.06    0.07
   8   3   9   -0.01    0.07
  -8   3  -9    0.13    0.07
   9  -3   9    2.51    0.21
  -9  -3  -9    2.27    0.14
   9   3   9    2.08    0.17
   9   3   9    2.23    0.16
  -9   3  -9    2.33    0.17
  10  -3   9    3.07    0.24
 -10  -3  -9    3.31    0.17
  10   3   9    3.46    0.19
 -10   3  -9    3.35    0.19
  10   3   9    3.29    0.22
 -11  -3  -9    1.86    0.15
  11   3   9    2.51    0.21
 -11   3  -9    2.52    0.19
  11   3   9    2.45    0.17
 -12  -3  -9    0.52    0.11
 -12   3  -9    0.63    0.12
 -13  -3  -9    1.41    0.14
 -13   3  -9    1.27    0.15
 -14  -3  -9    0.02    0.09
 -14   3  -9    0.18    0.11
  16  -4  -9    0.37    0.14
 -16   4   9    0.24    0.11
  15  -4  -9    0.10    0.12
 -15   4   9    0.16    0.09
  14  -4  -9    0.09    0.10
 -14   4   9   -0.01    0.08
  13  -4  -9    4.04    0.26
  13  -4  -9    4.31    0.26
 -13   4   9    4.38    0.22
  12  -4  -9    1.49    0.17
  12  -4  -9    1.49    0.16
 -12   4   9    1.30    0.12
  11  -4  -9    0.60    0.11
  11  -4  -9    0.43    0.12
  11   4  -9    0.59    0.12
  11   4  -9    0.49    0.08
 -11   4   9    0.51    0.09
  10  -4  -9    7.56    0.34
  10  -4  -9    8.12    0.32
 -10   4   9    8.36    0.27
  10   4  -9    8.57    0.35
  10   4  -9    7.66    0.27
   9  -4  -9   10.24    0.37
   9  -4  -9   10.20    0.39
  -9   4   9   10.64    0.31
   9   4  -9   10.21    0.33
   9   4  -9   10.43    0.39
  -8  -4   9    1.16    0.12
   8  -4  -9    1.45    0.14
   8  -4  -9    1.12    0.11
  -8   4   9    1.05    0.09
   8   4  -9    1.25    0.10
   8   4  -9    1.36    0.14
   7  -4  -9   11.80    0.38
   7  -4  -9   11.98    0.41
  -7  -4   9   11.64    0.40
  -7   4   9   12.16    0.33
  -7   4   9   11.64    0.32
   7   4  -9   11.27    0.41
   7   4  -9   11.63    0.35
   6  -4  -9    0.12    0.05
   6  -4  -9   -0.03    0.06
  -6  -4   9    0.17    0.07
   6   4  -9    0.18    0.07
  -6   4   9    0.04    0.04
  -6   4   9   -0.02    0.04
   6   4  -9    0.02    0.04
  -6   4   9    0.05    0.04
  -5  -4   9    0.41    0.08
   5  -4  -9    0.25    0.05
   5  -4  -9    0.26    0.04
   5  -4  -9    0.14    0.06
   5   4  -9    0.17    0.05
  -5   4   9    0.28    0.04
  -5   4   9    0.20    0.04
  -5   4   9    0.08    0.04
  -4  -4   9   29.21    0.76
  -4  -4   9   29.19    0.83
   4  -4  -9   29.14    0.76
   4  -4  -9   28.80    0.80
   4  -4  -9   30.28    0.78
   4   4  -9   29.11    0.75
  -4   4   9   29.47    0.74
  -4   4   9   29.52    0.67
  -4   4   9   28.87    0.77
  -3  -4   9   16.88    0.51
   3  -4  -9   17.09    0.45
   3  -4  -9   16.45    0.50
  -3  -4   9   16.73    0.47
  -3   4   9   16.91    0.46
   3   4  -9   17.09    0.46
  -2  -4   9    0.20    0.07
   2  -4  -9    0.28    0.07
  -2  -4   9    0.29    0.06
   2   4  -9    0.25    0.05
  -2   4   9    0.29    0.06
  -1  -4   9   60.21    1.63
   1  -4  -9   62.89    1.55
  -1  -4   9   59.74    1.48
   1   4  -9   61.22    1.48
  -1   4   9   62.26    1.48
   0  -4   9    0.09    0.06
   0  -4  -9    0.09    0.06
   0  -4   9    0.18    0.06
   0   4   9    0.14    0.05
   0   4  -9    0.15    0.05
   1  -4   9   22.07    0.59
  -1  -4  -9   23.31    0.63
   1  -4   9   22.47    0.67
   1   4   9   21.99    0.60
  -1   4  -9   22.33    0.59
   2  -4   9   17.22    0.55
   2  -4   9   17.49    0.48
  -2   4  -9   17.45    0.48
   2   4   9   18.10    0.47
   2   4   9   17.18    0.49
   2   4   9   17.86    0.47
  -3  -4  -9    0.37    0.04
   3  -4   9    0.11    0.08
   3  -4   9    0.31    0.06
   3  -4   9    0.29    0.06
  -3   4  -9    0.24    0.05
   3   4   9    0.36    0.08
   3   4   9    0.27    0.04
   3   4   9    0.28    0.05
   4  -4   9    2.86    0.20
  -4  -4  -9    2.91    0.11
   4  -4   9    2.99    0.15
   4  -4   9    3.17    0.15
  -4   4  -9    3.13    0.14
   4   4   9    2.87    0.16
   4   4   9    3.07    0.14
   5  -4   9   13.12    0.38
  -5  -4  -9   12.62    0.33
   5  -4   9   12.17    0.46
   5  -4   9   12.29    0.37
   5   4   9   12.70    0.39
   5   4   9   13.38    0.40
   6  -4   9    1.62    0.12
   6  -4   9    1.59    0.16
  -6  -4  -9    1.50    0.10
   6   4   9    1.38    0.13
   6   4   9    1.52    0.13
  -7  -4  -9    5.06    0.19
   7  -4   9    5.10    0.20
   7  -4   9    5.19    0.28
  -7   4  -9    5.45    0.24
   7   4   9    4.54    0.22
   7   4   9    5.00    0.23
   8  -4   9    0.24    0.11
  -8  -4  -9    0.22    0.06
  -8   4  -9    0.22    0.08
   8   4   9    0.29    0.09
   8   4   9    0.11    0.07
   9  -4   9    0.85    0.16
  -9  -4  -9    1.05    0.10
   9   4   9    0.98    0.12
   9   4   9    0.85    0.11
  -9   4  -9    0.76    0.11
 -10  -4  -9    0.74    0.10
  10   4   9    0.73    0.11
 -10   4  -9    0.81    0.12
 -11   4  -9    2.14    0.18
  11   4   9    2.12    0.17
 -12   4  -9   11.81    0.43
 -13   4  -9    4.18    0.25
  16  -5  -9    1.99    0.22
 -16   5   9    2.16    0.19
  15  -5  -9    0.31    0.13
 -15   5   9    0.09    0.10
  14  -5  -9    1.22    0.17
 -14   5   9    1.21    0.13
  13  -5  -9    0.03    0.10
 -13   5   9    0.07    0.08
  12  -5  -9    6.40    0.31
  12  -5  -9    6.08    0.32
  12   5  -9    5.69    0.24
 -12   5   9    5.98    0.24
  11  -5  -9   20.44    0.69
  11  -5  -9   22.00    0.69
  11   5  -9   20.46    0.60
 -11   5   9   22.55    0.58
  10  -5  -9    1.39    0.16
  10  -5  -9    1.69    0.15
  10   5  -9    1.61    0.16
 -10   5   9    1.70    0.12
  10   5  -9    1.56    0.13
  -9  -5   9    0.45    0.10
   9  -5  -9    0.38    0.09
   9  -5  -9    0.46    0.11
   9   5  -9    0.37    0.08
  -9   5   9    0.34    0.07
   9   5  -9    0.44    0.10
   8  -5  -9    2.76    0.19
  -8  -5   9    2.67    0.18
   8  -5  -9    2.37    0.16
   8   5  -9    2.56    0.17
  -8   5   9    2.87    0.13
   8   5  -9    2.44    0.15
  -7  -5   9   -0.02    0.07
   7  -5  -9    0.04    0.06
   7  -5  -9   -0.05    0.07
  -7   5   9   -0.04    0.05
  -7   5   9    0.00    0.04
   7   5  -9   -0.02    0.05
   7   5  -9   -0.04    0.06
   6  -5  -9    9.36    0.30
   6  -5  -9    9.14    0.35
  -6  -5   9    8.91    0.34
   6   5  -9    8.64    0.29
  -6   5   9    9.10    0.26
  -6   5   9    9.44    0.28
   6   5  -9    8.72    0.34
   5  -5  -9    0.05    0.05
   5  -5  -9    0.03    0.06
  -5  -5   9   -0.03    0.07
   5   5  -9    0.08    0.05
  -5   5   9    0.10    0.04
   4  -5  -9    0.02    0.04
  -4  -5   9   -0.03    0.06
   4  -5  -9    0.00    0.06
   4   5  -9   -0.06    0.05
  -4   5   9    0.06    0.05
  -4   5   9   -0.02    0.03
  -3  -5   9    0.10    0.07
   3  -5  -9    0.03    0.07
   3   5  -9    0.00    0.05
  -3   5   9    0.07    0.06
  -2  -5   9    5.90    0.25
   2  -5  -9    5.77    0.24
  -2  -5   9    5.79    0.23
   2   5  -9    6.13    0.22
  -2   5   9    6.04    0.22
  -1  -5   9    7.63    0.27
   1  -5  -9    7.71    0.29
  -1  -5   9    7.82    0.30
  -1   5   9    8.16    0.27
   1   5  -9    8.10    0.26
   0  -5   9    1.98    0.12
   0  -5  -9    1.79    0.14
   0  -5   9    1.55    0.13
   0   5  -9    2.04    0.11
   0   5   9    1.92    0.13
  -1  -5  -9    2.85    0.17
   1  -5   9    2.56    0.14
   1  -5   9    2.74    0.18
  -1   5  -9    2.40    0.13
   1   5   9    2.46    0.14
   2  -5   9    3.56    0.20
  -2  -5  -9    3.52    0.19
   2  -5   9    3.19    0.16
  -2   5  -9    3.35    0.15
   2   5   9    3.49    0.17
   3  -5   9    6.33    0.23
   3  -5   9    6.27    0.23
   3  -5   9    5.85    0.28
  -3   5  -9    6.10    0.22
   3   5   9    6.09    0.24
   4  -5   9   15.42    0.44
   4  -5   9   14.65    0.52
   4  -5   9   15.45    0.45
   4   5   9   14.40    0.45
  -4   5  -9   15.15    0.42
   5  -5   9   11.58    0.45
   5  -5   9   12.27    0.36
   5  -5   9   12.09    0.38
  -5   5  -9   11.43    0.35
   5   5   9   11.55    0.38
   6  -5   9   16.63    0.47
   6  -5   9   16.19    0.58
  -6   5  -9   16.39    0.45
   6   5   9   16.22    0.49
   7  -5   9   16.15    0.57
   7  -5   9   15.79    0.44
   7   5   9   15.19    0.48
  -7   5  -9   14.53    0.47
   8  -5   9    4.30    0.27
  -8   5  -9    3.82    0.21
   8   5   9    4.01    0.21
  -9   5  -9    0.03    0.09
   9   5   9   -0.03    0.08
  10   5   9    5.07    0.25
 -10   5  -9    4.92    0.25
 -11   5  -9    0.07    0.10
  11   5   9   -0.09    0.08
 -12   5  -9    0.20    0.11
  12   5   9    0.18    0.10
 -13   5  -9    0.56    0.13
  15  -6  -9    0.19    0.13
  14  -6  -9    1.04    0.17
  13  -6  -9    0.31    0.12
  12  -6  -9    0.29    0.12
  12   6  -9    0.30    0.09
  11  -6  -9    0.08    0.10
  11   6  -9    0.08    0.07
  10  -6  -9    0.09    0.10
  10   6  -9   -0.01    0.07
   9  -6  -9    2.33    0.20
  -9  -6   9    2.62    0.19
   9   6  -9    2.52    0.16
   9   6  -9    2.49    0.19
  -8  -6   9    1.31    0.14
   8  -6  -9    1.09    0.14
   8   6  -9    1.09    0.13
   8   6  -9    1.23    0.12
   7  -6  -9    0.82    0.12
  -7  -6   9    0.94    0.12
   7   6  -9    0.81    0.10
   7   6  -9    0.99    0.12
   6  -6  -9    0.87    0.12
  -6  -6   9    0.89    0.11
   6   6  -9    0.78    0.11
  -6   6   9    0.77    0.09
   6   6  -9    0.75    0.10
   5  -6  -9   13.25    0.47
  -5  -6   9   13.37    0.46
  -5   6   9   13.95    0.40
   5   6  -9   13.80    0.42
  -4  -6   9   80.84    2.09
   4  -6  -9   76.71    2.01
  -4   6   9   78.98    1.88
   4   6  -9   76.82    1.89
   3  -6  -9    9.18    0.35
  -3  -6   9    8.89    0.34
  -3   6   9    9.08    0.30
   3   6  -9    9.22    0.31
  -2  -6   9   47.04    1.30
   2  -6  -9   47.23    1.26
   2   6  -9   46.96    1.18
  -2   6   9   47.84    1.18
   1  -6  -9   14.98    0.49
  -1  -6   9   14.99    0.49
  -1   6   9   14.79    0.44
   1   6  -9   15.00    0.44
   0  -6   9    2.31    0.16
   0  -6  -9    2.18    0.16
   0   6  -9    2.14    0.13
   0   6   9    1.90    0.14
   1  -6   9    0.39    0.08
   1  -6   9    0.72    0.11
  -1  -6  -9    0.34    0.10
  -1   6  -9    0.41    0.07
   1   6   9    0.24    0.08
   2  -6   9    0.13    0.09
   2  -6   9    0.26    0.07
  -2  -6  -9    0.11    0.09
   2   6   9    0.13    0.08
  -2   6  -9    0.24    0.07
   3  -6   9   13.56    0.48
   3  -6   9   13.44    0.42
   3  -6   9   13.31    0.40
  -3   6  -9   13.19    0.39
   3   6   9   13.03    0.42
   4  -6   9    1.12    0.12
   4  -6   9    1.00    0.14
   4  -6   9    1.27    0.12
  -4   6  -9    1.13    0.10
   4   6   9    0.90    0.11
   5  -6   9    2.75    0.15
   5  -6   9    2.58    0.20
   5   6   9    2.30    0.16
  -5   6  -9    2.65    0.14
   6  -6   9    0.82    0.14
   6  -6   9    0.87    0.10
  -6   6  -9    1.01    0.09
   6   6   9    0.93    0.11
   7  -6   9    2.50    0.14
   7  -6   9    2.53    0.22
   7   6   9    2.22    0.17
   8   6   9   -0.12    0.08
  -8   6  -9   -0.08    0.08
   9   6   9    1.36    0.14
  -9   6  -9    1.58    0.15
  10   6   9   -0.05    0.08
 -10   6  -9    0.05    0.09
 -11   6  -9    0.06    0.10
  11   6   9    0.00    0.09
 -12   6  -9   -0.01    0.10
  12   6   9    0.12    0.10
  14  -7  -9    0.52    0.16
  13  -7  -9    4.10    0.30
  12  -7  -9    0.20    0.12
  12   7  -9    0.09    0.08
  11  -7  -9   12.92    0.51
  11   7  -9   12.51    0.43
  10  -7  -9    0.04    0.10
  10   7  -9    0.20    0.08
   9  -7  -9    4.30    0.27
   9   7  -9    4.25    0.22
  -8  -7   9    0.01    0.08
   8  -7  -9    0.05    0.10
   8   7  -9   -0.08    0.07
   8   7  -9    0.06    0.07
  -7  -7   9    0.97    0.13
   7  -7  -9    0.81    0.14
   7   7  -9    1.11    0.14
   7   7  -9    0.93    0.11
  -6  -7   9    0.74    0.11
   6  -7  -9    0.36    0.12
   6   7  -9    0.78    0.11
   6   7  -9    0.60    0.10
   5  -7  -9    1.13    0.14
  -5  -7   9    1.57    0.16
  -5   7   9    1.35    0.13
   5   7  -9    1.43    0.13
  -4  -7   9    2.21    0.17
   4  -7  -9    2.16    0.18
   4   7  -9    1.83    0.15
  -4   7   9    2.00    0.14
  -3  -7   9   45.35    1.26
   3  -7  -9   45.02    1.24
   3   7  -9   44.81    1.15
  -3   7   9   45.32    1.14
  -2  -7   9    1.28    0.14
   2  -7  -9    1.22    0.15
  -2   7   9    1.17    0.11
   2   7  -9    1.23    0.11
  -1  -7   9    0.86    0.12
   1  -7  -9    0.71    0.12
   1   7  -9    0.78    0.09
  -1   7   9    0.83    0.10
   0  -7   9    9.83    0.38
   0  -7  -9   10.22    0.39
   0   7   9    9.80    0.34
   0   7  -9   10.32    0.33
  -1  -7  -9   11.06    0.41
   1  -7   9   11.40    0.42
   1   7   9   10.94    0.37
  -1   7  -9   10.92    0.35
   2  -7   9    4.89    0.26
  -2   7  -9    4.96    0.21
   2   7   9    4.29    0.22
   3  -7   9    9.54    0.39
  -3   7  -9    9.23    0.31
   3   7   9    9.19    0.34
   4  -7   9    0.03    0.09
   4  -7   9    0.08    0.06
  -4   7  -9   -0.03    0.06
   4   7   9   -0.03    0.08
   5  -7   9    0.42    0.13
   5   7   9    0.46    0.10
  -5   7  -9    0.40    0.08
   6  -7   9    0.31    0.12
   6   7   9    0.32    0.09
  -6   7  -9    0.52    0.08
   7   7   9    0.16    0.10
  -8   7  -9    0.93    0.13
   8   7   9    0.89    0.12
   9   7   9    0.17    0.10
  -9   7  -9    0.34    0.12
  10   7   9    1.20    0.15
 -10   7  -9    1.03    0.15
 -11   7  -9    1.67    0.18
  11   7   9    1.34    0.16
  12   7   9    1.00    0.14
  13  -8  -9   -0.04    0.13
  13   8  -9   -0.09    0.09
  12  -8  -9    0.20    0.13
  12   8  -9    0.06    0.09
  11  -8  -9   -0.03    0.11
  11   8  -9   -0.04    0.08
  10  -8  -9    0.45    0.14
  10   8  -9    0.56    0.11
   9  -8  -9    0.04    0.10
   9   8  -9    0.07    0.08
   8  -8  -9   -0.02    0.10
   8   8  -9    0.06    0.08
   7  -8  -9   -0.09    0.09
   7   8  -9   -0.18    0.07
  -6  -8   9    4.29    0.25
   6  -8  -9    4.54    0.28
   6   8  -9    4.63    0.23
   5  -8  -9    0.55    0.12
  -5  -8   9    0.70    0.12
   5   8  -9    0.73    0.11
  -5   8   9    0.59    0.10
  -4  -8   9    1.41    0.15
   4  -8  -9    1.49    0.16
   4   8  -9    1.35    0.13
  -4   8   9    1.40    0.13
  -3  -8   9    4.02    0.23
   3  -8  -9    4.18    0.25
  -3   8   9    3.90    0.20
   3   8  -9    4.00    0.20
   2  -8  -9    0.89    0.14
  -2  -8   9    0.97    0.14
   2   8  -9    0.88    0.11
  -2   8   9    0.91    0.12
  -1  -8   9    3.32    0.21
   1  -8  -9    3.62    0.24
  -1   8   9    3.52    0.20
   1   8  -9    2.93    0.18
   0  -8  -9   16.78    0.58
   0  -8   9   17.89    0.59
   0   8   9   16.52    0.52
   0   8  -9   17.18    0.51
  -1  -8  -9    1.73    0.16
   1  -8   9    1.35    0.15
  -1   8  -9    1.46    0.13
   1   8   9    1.33    0.13
   2  -8   9    3.14    0.22
  -2   8  -9    2.90    0.17
   2   8   9    2.92    0.19
   3  -8   9    0.02    0.09
   3  -8   9    0.08    0.10
  -3   8  -9    0.06    0.07
   3   8   9   -0.13    0.08
   4  -8   9    5.45    0.27
   4  -8   9    5.58    0.30
  -4   8  -9    5.22    0.22
   4   8   9    4.98    0.25
   5   8   9    0.89    0.12
  -5   8  -9    0.89    0.10
   6   8   9    2.12    0.17
  -6   8  -9    2.12    0.14
   7   8   9    1.30    0.15
  -8   8  -9    0.21    0.11
   8   8   9    0.18    0.10
   9   8   9    1.77    0.17
  -9   8  -9    1.59    0.17
  10   8   9    1.71    0.18
 -10   8  -9    1.49    0.17
  11   8   9    0.61    0.13
  12  -9  -9   -0.11    0.12
  12   9  -9   -0.02    0.10
  11  -9  -9    0.54    0.15
  11   9  -9    0.16    0.10
  10  -9  -9    0.51    0.15
  10   9  -9    0.68    0.13
   9  -9  -9    0.14    0.13
   9   9  -9    0.06    0.10
   8  -9  -9    2.25    0.22
   8   9  -9    2.37    0.19
   7  -9  -9    0.42    0.14
   7   9  -9    0.39    0.11
   6  -9  -9    2.22    0.21
   6   9  -9    2.58    0.18
   5  -9  -9   -0.02    0.10
  -5   9   9   -0.05    0.08
   5   9  -9    0.00    0.09
   4  -9  -9    4.61    0.29
   4   9  -9    4.67    0.24
  -4   9   9    5.15    0.23
   3  -9  -9    2.52    0.22
   3   9  -9    2.35    0.17
  -3   9   9    2.57    0.18
  -2  -9   9   -0.04    0.09
   2  -9  -9    0.12    0.11
  -2   9   9    0.20    0.09
   2   9  -9    0.13    0.09
   1  -9  -9    0.10    0.11
  -1  -9   9    0.22    0.11
  -1   9   9    0.22    0.10
   1   9  -9    0.18    0.08
   0  -9  -9    9.01    0.40
   0  -9   9    9.09    0.39
   0   9   9    8.84    0.35
   0   9  -9    9.10    0.33
  -1  -9  -9    0.16    0.12
  -1   9  -9    0.56    0.09
   1   9   9    0.36    0.10
  -2   9  -9    4.38    0.21
   2   9   9    3.94    0.22
   3   9   9   -0.01    0.08
  -3   9  -9    0.06    0.07
   4  -9   9   -0.10    0.10
  -4   9  -9    0.02    0.07
   4   9   9    0.03    0.09
  -5   9  -9    0.12    0.08
   5   9   9    0.11    0.10
   6   9   9    5.04    0.27
   7   9   9    0.80    0.14
  -8   9  -9    0.04    0.11
   8   9   9    0.21    0.11
   9   9   9    7.13    0.34
  -9   9  -9    7.49    0.34
  10   9   9    0.92    0.14
  10 -10  -9    1.90    0.24
  10  10  -9    1.71    0.19
   9 -10  -9    0.26    0.14
   9  10  -9    0.06    0.10
   8 -10  -9    0.25    0.14
   8  10  -9    0.57    0.12
   7 -10  -9    2.00    0.22
   7  10  -9    2.06    0.18
   6 -10  -9    0.02    0.12
   6  10  -9   -0.09    0.08
   5 -10  -9    3.42    0.26
   5  10  -9    3.42    0.22
   4 -10  -9    5.31    0.32
   4  10  -9    5.24    0.27
  -4  10   9    5.34    0.25
   3 -10  -9    0.02    0.11
  -3  10   9    0.34    0.10
   3  10  -9    0.25    0.09
   2 -10  -9   -0.04    0.12
  -2  10   9    0.18    0.10
   2  10  -9    0.13    0.09
   1 -10  -9    1.81    0.19
  -1  10   9    1.51    0.15
   1  10  -9    1.39    0.14
   0 -10  -9    0.02    0.11
   0  10   9    0.17    0.09
   0  10  -9   -0.06    0.08
   1  10   9    4.20    0.24
  -1  10  -9    4.34    0.23
  -2  10  -9    0.08    0.07
   2  10   9   -0.04    0.09
   3  10   9    0.04    0.09
  -3  10  -9   -0.02    0.07
   4  10   9    0.16    0.10
  -4  10  -9    0.03    0.08
   5  10   9    0.82    0.15
   6  10   9    1.78    0.18
   7  10   9    0.32    0.13
   8  10   9    0.24    0.12
   8 -11  -9    0.49    0.18
   8  11  -9    0.78    0.15
   7 -11  -9    0.66    0.18
   7  11  -9    0.36    0.14
   6 -11  -9   -0.05    0.13
   6  11  -9   -0.02    0.09
   5 -11  -9   -0.02    0.12
   5  11  -9    0.00    0.10
   4 -11  -9    0.02    0.13
  -4  11   9   -0.06    0.08
   4  11  -9   -0.11    0.09
   3 -11  -9    0.15    0.13
   3  11  -9   -0.05    0.09
  -3  11   9    0.00    0.09
   2 -11  -9    0.53    0.16
   2  11  -9    0.41    0.11
  -2  11   9    0.29    0.11
   1 -11  -9    0.11    0.14
   1  11  -9    0.04    0.10
  -1  11   9    0.01    0.10
   0 -11  -9   -0.05    0.11
   0  11   9   -0.02    0.09
   0  11  -9    0.14    0.10
   1  11   9    0.16    0.11
  -1  11  -9    0.18    0.10
   2  11   9    0.14    0.11
  -2  11  -9    0.07    0.09
   3  11   9    0.02    0.10
  -3  11  -9    0.01    0.09
   4  11   9    0.35    0.12
  -4  11  -9    0.27    0.10
   5  11   9    0.09    0.12
   6  11   9    1.24    0.17
   5 -12  -9    0.05    0.14
   5  12  -9    0.31    0.12
   4 -12  -9    0.12    0.16
   4  12  -9    0.22    0.12
   3 -12  -9    0.58    0.19
   3  12  -9    0.71    0.15
  -3  12   9    0.94    0.15
   2 -12  -9    0.24    0.16
  -2  12   9    0.36    0.12
   2  12  -9    0.31    0.12
   1 -12  -9    0.48    0.16
   1  12  -9    0.38    0.13
  -1  12   9    0.54    0.14
   0  12  -9    0.35    0.12
   0  12   9    0.23    0.12
  -1  12  -9    0.39    0.11
   1  12   9    0.37    0.14
  -2  12  -9   -0.03    0.09
   2  12   9   -0.01    0.12
   3  12   9    0.30    0.13
  -3  12  -9    0.31    0.11
 -17   0  10   -0.07    0.10
  17   0 -10    0.08    0.11
  16   0 -10    0.07    0.10
 -16   0  10   -0.12    0.09
  15   0 -10   -0.08    0.09
 -15   0  10    0.03    0.09
  14   0 -10    2.54    0.20
 -14   0  10    2.88    0.18
 -13   0  10    0.09    0.07
  13   0 -10    0.10    0.09
  12   0 -10    4.57    0.25
 -12   0  10    4.62    0.21
  11   0 -10   -0.01    0.07
 -11   0  10    0.02    0.07
  10   0 -10  162.75    4.20
   9   0 -10   -0.04    0.04
  -9   0  10    0.01    0.04
   9   0 -10    0.34    0.08
  -8   0  10    1.35    0.09
   8   0 -10    1.35    0.09
   8   0 -10    1.24    0.11
   7   0 -10   -0.03    0.05
  -7   0  10    0.01    0.02
  -6   0  10   55.47    1.32
   6   0 -10   54.49    1.45
   5   0 -10   -0.01    0.04
  -5   0  10   -0.01    0.04
  -5   0  10   -0.01    0.04
  -4   0  10   10.11    0.32
   4   0 -10   11.07    0.33
   4   0 -10   10.85    0.33
  -4   0  10   10.41    0.30
  -3   0  10    0.08    0.04
   3   0 -10    0.04    0.03
   3   0 -10    0.00    0.04
   2   0 -10    0.04    0.04
  -2   0  10    0.06    0.04
  -2   0  10    0.07    0.04
  -1   0  10    0.03    0.03
  -1   0  10   -0.03    0.03
   1   0 -10    0.02    0.04
   1   0 -10    0.02    0.02
   0   0 -10    0.03    0.02
   0   0  10   -0.02    0.04
   0   0  10    0.02    0.04
   0   0 -10    0.01    0.04
   1   0  10    0.01    0.04
  -1   0 -10    0.11    0.05
   1   0  10    0.00    0.03
  -2   0 -10    2.23    0.13
   2   0  10    2.23    0.11
   3   0  10   -0.01    0.05
   3   0  10   -0.01    0.04
  -4   0 -10    9.09    0.26
   4   0  10    8.40    0.27
   4   0  10    8.29    0.31
   5   0  10   -0.08    0.06
  -5   0 -10   -0.05    0.04
   5   0  10   -0.09    0.05
  -6   0 -10   10.26    0.31
   6   0  10   10.17    0.37
   6   0  10   10.34    0.32
   7   0  10   -0.07    0.05
  -7   0 -10   -0.04    0.06
   7   0  10   -0.04    0.07
  -8   0 -10    2.01    0.13
   8   0  10    1.83    0.17
   8   0  10    1.85    0.13
   9   0  10   -0.10    0.08
  -9   0 -10    0.02    0.06
   9   0  10   -0.15    0.05
 -10   0 -10    1.82    0.14
  10   0  10    1.58    0.17
  11   0  10   -0.02    0.10
 -11   0 -10   -0.02    0.07
 -12   0 -10    0.09    0.09
 -13   0 -10   -0.01    0.08
 -14   0 -10    0.12    0.10
  17  -1 -10    1.05    0.17
  17   1 -10    1.39    0.19
 -17   1  10    1.19    0.16
  16  -1 -10    0.16    0.12
 -16   1  10    0.18    0.10
  15  -1 -10    0.44    0.12
 -15   1  10    0.41    0.10
  14  -1 -10    0.39    0.12
 -14   1  10    0.41    0.10
  13  -1 -10    0.08    0.08
  13  -1 -10    0.12    0.08
 -13   1  10    0.02    0.08
  13   1 -10    0.05    0.09
  12  -1 -10    1.37    0.15
  12  -1 -10    1.23    0.14
  12   1 -10    1.59    0.16
 -12   1  10    1.41    0.13
  11  -1 -10    6.60    0.29
  11  -1 -10    6.22    0.29
  11   1 -10    6.90    0.30
 -11   1  10    6.94    0.26
  10  -1 -10    2.91    0.18
  10  -1 -10    2.64    0.17
 -10   1  10    2.70    0.15
  10   1 -10    2.72    0.17
  10   1 -10    2.44    0.12
   9  -1 -10    0.34    0.05
   9  -1 -10    0.18    0.07
   9  -1 -10    0.28    0.08
  -9  -1  10    0.19    0.06
   9   1 -10    0.18    0.07
   9   1 -10    0.30    0.05
  -9   1  10    0.18    0.06
   8  -1 -10   14.93    0.47
   8  -1 -10   15.14    0.47
   8   1 -10   14.94    0.48
  -8   1  10   15.81    0.40
  -8   1  10   15.12    0.41
   8   1 -10   14.95    0.41
   7  -1 -10    0.03    0.05
   7  -1 -10    0.02    0.05
  -7  -1  10   -0.01    0.04
   7   1 -10    0.08    0.06
  -7   1  10    0.01    0.04
   7   1 -10    0.02    0.04
   6  -1 -10   30.47    0.82
  -6  -1  10   30.25    0.85
   6  -1 -10   31.33    0.84
  -6  -1  10   31.21    0.77
   6   1 -10   30.65    0.86
   5  -1 -10   43.74    1.09
  -5  -1  10   42.05    1.13
  -5  -1  10   42.51    1.03
   5  -1 -10   41.18    1.12
   5  -1 -10   43.11    1.11
  -5   1  10   41.79    1.02
   5   1 -10   41.08    1.13
   4  -1 -10    3.90    0.15
   4  -1 -10    3.78    0.15
   4  -1 -10    4.05    0.16
  -4  -1  10    3.57    0.15
  -4  -1  10    3.84    0.16
  -4   1  10    3.75    0.15
  -4   1  10    3.88    0.15
  -3  -1  10   24.09    0.66
   3  -1 -10   24.48    0.65
   3  -1 -10   24.50    0.63
   3  -1 -10   23.93    0.64
  -3  -1  10   23.55    0.61
  -3   1  10   23.47    0.61
  -3   1  10   23.42    0.64
   2  -1 -10   18.29    0.50
   2  -1 -10   18.13    0.48
  -2  -1  10   18.17    0.48
  -2  -1  10   17.57    0.51
  -2   1  10   18.01    0.49
   2   1 -10   18.65    0.53
  -2   1  10   17.52    0.48
  -1  -1  10   57.93    1.52
   1  -1 -10   58.28    1.51
  -1  -1  10   57.74    1.40
   1  -1 -10   58.09    1.43
   1   1 -10   59.67    1.54
  -1   1  10   57.87    1.40
  -1   1  10   59.26    1.50
   0  -1 -10   26.39    0.67
   0  -1  10   26.39    0.67
   0  -1  10   25.86    0.73
   0  -1 -10   27.47    0.71
   0   1  10   25.93    0.67
   0   1 -10   26.50    0.65
   0   1  10   26.41    0.71
   0   1 -10   26.84    0.74
  -1  -1 -10   32.52    0.78
  -1  -1 -10   33.33    0.85
   1  -1  10   31.35    0.87
   1  -1  10   30.59    0.79
   1   1  10   30.47    0.79
   1   1  10   31.60    0.85
  -2  -1 -10   33.46    0.77
   2  -1  10   32.63    0.82
   2  -1  10   31.02    0.90
  -2  -1 -10   35.14    0.89
   2   1  10   32.68    0.89
   2   1  10   32.29    0.83
  -3  -1 -10   39.81    1.02
  -3  -1 -10   38.34    0.88
   3  -1  10   37.33    0.94
   3  -1  10   37.08    1.04
   3   1  10   37.35    1.02
   3   1  10   36.63    0.94
   4  -1  10   11.86    0.35
  -4  -1 -10   12.71    0.33
   4  -1  10   11.83    0.41
   4   1  10   12.06    0.36
   5  -1  10    3.21    0.15
  -5  -1 -10    3.23    0.14
   5  -1  10    3.06    0.18
   5   1  10    3.25    0.15
   5   1  10    3.19    0.17
  -5   1 -10    3.11    0.15
   6  -1  10    4.38    0.23
   6  -1  10    4.74    0.18
  -6  -1 -10    4.75    0.18
   6   1  10    4.63    0.19
  -6   1 -10    4.52    0.19
   6   1  10    4.62    0.22
  -7  -1 -10    1.18    0.11
   7  -1  10    1.34    0.14
   7  -1  10    1.40    0.11
   7   1  10    1.10    0.12
  -7   1 -10    1.35    0.11
   7   1  10    1.19    0.11
   8  -1  10   16.92    0.47
   8  -1  10   17.13    0.58
  -8  -1 -10   16.47    0.47
   8   1  10   16.95    0.48
  -8   1 -10   16.02    0.48
   8   1  10   16.78    0.56
   9  -1  10    1.41    0.16
  -9  -1 -10    1.65    0.13
   9  -1  10    1.53    0.12
  -9   1 -10    1.64    0.13
   9   1  10    1.55    0.16
   9   1  10    1.83    0.13
 -10  -1 -10    2.91    0.17
  10  -1  10    3.35    0.24
  10   1  10    3.48    0.18
  10   1  10    3.25    0.22
 -10   1 -10    3.30    0.18
 -11  -1 -10   -0.06    0.06
 -11   1 -10   -0.01    0.08
  11   1  10   -0.11    0.10
 -12  -1 -10    0.80    0.11
 -12   1 -10    0.77    0.12
 -13  -1 -10   -0.06    0.09
 -13   1 -10   -0.03    0.09
 -14  -1 -10    4.42    0.24
 -14   1 -10    4.21    0.24
  17  -2 -10    0.25    0.12
 -17   2  10    0.27    0.11
  16  -2 -10    0.15    0.12
 -16   2  10    0.03    0.09
  15  -2 -10    1.40    0.17
 -15   2  10    1.35    0.15
  14  -2 -10    0.08    0.10
 -14   2  10    0.20    0.09
  13  -2 -10    0.34    0.11
  13  -2 -10    0.69    0.12
 -13   2  10    0.71    0.11
  12  -2 -10    1.43    0.14
  12  -2 -10    1.06    0.14
 -12   2  10    1.39    0.13
  12   2 -10    1.36    0.15
  11  -2 -10    0.23    0.08
  11  -2 -10    0.13    0.09
 -11   2  10    0.34    0.07
  11   2 -10    0.36    0.10
  10  -2 -10    3.14    0.18
  10  -2 -10    3.27    0.20
 -10   2  10    3.24    0.16
  10   2 -10    3.10    0.14
  10   2 -10    3.32    0.20
   9  -2 -10   15.67    0.50
   9  -2 -10   14.79    0.49
   9   2 -10   16.05    0.51
   9   2 -10   15.35    0.42
  -9   2  10   15.76    0.43
  -8  -2  10    3.13    0.15
   8  -2 -10    2.99    0.18
   8  -2 -10    3.01    0.16
  -8   2  10    3.28    0.13
  -8   2  10    3.16    0.14
   8   2 -10    3.36    0.18
   8   2 -10    2.78    0.13
  -7  -2  10    0.07    0.05
   7  -2 -10    0.16    0.05
  -7  -2  10    0.11    0.06
  -7   2  10    0.21    0.05
   7   2 -10    0.21    0.05
   7   2 -10    0.17    0.06
  -7   2  10    0.10    0.04
   6  -2 -10    3.55    0.18
   6  -2 -10    3.64    0.16
  -6  -2  10    3.82    0.16
  -6  -2  10    3.74    0.18
   6   2 -10    3.75    0.15
   6   2 -10    3.81    0.18
   5  -2 -10    2.12    0.10
  -5  -2  10    2.42    0.12
  -5  -2  10    2.03    0.12
   5  -2 -10    2.25    0.11
   5  -2 -10    1.83    0.13
  -5   2  10    2.08    0.10
   5   2 -10    2.07    0.11
   5   2 -10    2.08    0.13
  -4  -2  10    2.35    0.13
   4  -2 -10    2.44    0.10
   4  -2 -10    2.49    0.10
   4  -2 -10    2.22    0.13
  -4  -2  10    2.32    0.13
  -4   2  10    2.35    0.11
   3  -2 -10    0.97    0.08
   3  -2 -10    1.01    0.07
   3  -2 -10    0.96    0.06
  -3  -2  10    1.01    0.08
  -3  -2  10    1.03    0.09
  -3   2  10    1.18    0.08
   2  -2 -10   18.17    0.48
   2  -2 -10   17.81    0.49
  -2  -2  10   17.73    0.52
   2  -2 -10   18.28    0.48
  -2  -2  10   17.95    0.48
  -2   2  10   18.00    0.48
  -2   2  10   18.18    0.48
   1  -2 -10    3.66    0.15
  -1  -2  10    3.69    0.16
   1  -2 -10    4.03    0.13
  -1  -2  10    3.88    0.16
  -1   2  10    3.93    0.12
  -1   2  10    3.82    0.15
   0  -2 -10   18.90    0.50
   0  -2  10   19.06    0.50
   0  -2  10   18.70    0.55
   0   2  10   18.65    0.50
   0   2  10   18.05    0.50
   1  -2  10    1.61    0.10
  -1  -2 -10    1.51    0.09
  -1  -2 -10    1.64    0.08
   1  -2  10    1.64    0.12
  -1  -2 -10    1.64    0.07
   1   2  10    1.66    0.08
   1   2  10    1.64    0.11
  -2  -2 -10    0.62    0.05
   2  -2  10    0.72    0.07
  -2  -2 -10    0.72    0.06
   2  -2  10    0.68    0.09
   2   2  10    0.67    0.08
   2   2  10    0.80    0.07
   3  -2  10    0.63    0.07
  -3  -2 -10    0.75    0.06
   3  -2  10    0.62    0.09
  -3  -2 -10    0.73    0.07
   3   2  10    0.75    0.08
   3   2  10    0.80    0.08
  -4  -2 -10    2.97    0.12
   4  -2  10    2.90    0.14
   4  -2  10    2.56    0.17
  -4  -2 -10    2.97    0.14
   4   2  10    2.91    0.16
   4   2  10    2.83    0.15
  -5  -2 -10    2.20    0.11
   5  -2  10    1.91    0.16
   5  -2  10    2.29    0.12
   5   2  10    2.30    0.14
   5   2  10    2.17    0.13
  -6  -2 -10    7.70    0.24
   6  -2  10    7.68    0.25
   6  -2  10    7.44    0.32
   6   2  10    7.48    0.27
   6   2  10    6.90    0.28
  -6   2 -10    7.96    0.27
  -7  -2 -10   14.03    0.40
   7  -2  10   13.57    0.50
   7  -2  10   14.31    0.41
   7   2  10   14.63    0.43
   7   2  10   14.53    0.47
  -7   2 -10   13.99    0.43
   8  -2  10   -0.05    0.09
   8  -2  10   -0.07    0.06
  -8  -2 -10    0.03    0.06
   8   2  10    0.03    0.08
  -8   2 -10   -0.03    0.07
   8   2  10   -0.05    0.06
   9  -2  10   12.73    0.50
  -9  -2 -10   13.41    0.40
   9   2  10   13.88    0.49
  -9   2 -10   13.15    0.42
   9   2  10   14.00    0.42
  10  -2  10    0.24    0.12
 -10  -2 -10    0.33    0.08
  10   2  10    0.14    0.10
 -10   2 -10    0.35    0.09
  10   2  10    0.36    0.08
 -11  -2 -10    7.70    0.29
 -11   2 -10    7.87    0.31
  11   2  10    7.81    0.36
 -12  -2 -10    0.13    0.09
 -12   2 -10   -0.03    0.09
 -13  -2 -10    0.49    0.11
 -13   2 -10    0.42    0.12
 -14  -2 -10    0.05    0.10
 -14   2 -10    0.05    0.11
  16  -3 -10    0.48    0.14
 -16   3  10    0.65    0.13
  15  -3 -10    0.69    0.14
 -15   3  10    0.83    0.13
  14  -3 -10    2.90    0.22
 -14   3  10    2.71    0.18
  13  -3 -10    0.13    0.09
  13  -3 -10   -0.12    0.08
 -13   3  10    0.07    0.08
  12  -3 -10    3.32    0.23
  12  -3 -10    3.75    0.23
  12   3 -10    3.42    0.23
 -12   3  10    3.63    0.19
  11  -3 -10    0.93    0.12
  11  -3 -10    0.71    0.12
 -11   3  10    0.95    0.10
  11   3 -10    1.13    0.11
  11   3 -10    0.89    0.13
  10  -3 -10    1.17    0.13
  10  -3 -10    1.16    0.12
 -10   3  10    1.23    0.11
  10   3 -10    1.29    0.11
  10   3 -10    1.35    0.14
   9  -3 -10   14.39    0.47
   9  -3 -10   14.71    0.49
   9   3 -10   15.16    0.51
   9   3 -10   14.87    0.42
  -9   3  10   15.07    0.41
   8  -3 -10    0.29    0.07
  -8  -3  10    0.42    0.08
   8  -3 -10    0.27    0.08
   8   3 -10    0.28    0.06
   8   3 -10    0.37    0.08
  -8   3  10    0.32    0.05
  -8   3  10    0.44    0.06
  -7  -3  10    3.99    0.18
  -7  -3  10    4.13    0.20
   7  -3 -10    3.99    0.17
   7  -3 -10    4.19    0.20
   7   3 -10    3.95    0.20
  -7   3  10    4.20    0.15
   7   3 -10    3.99    0.17
  -7   3  10    4.05    0.15
   6  -3 -10    4.33    0.16
  -6  -3  10    4.52    0.18
   6  -3 -10    4.40    0.17
  -6  -3  10    4.35    0.20
   6  -3 -10    4.18    0.20
  -6   3  10    4.40    0.15
  -6   3  10    4.17    0.16
   6   3 -10    3.97    0.20
  -6   3  10    4.11    0.15
   6   3 -10    4.38    0.17
  -5  -3  10   10.32    0.32
   5  -3 -10    9.78    0.34
  -5  -3  10   10.32    0.35
   5  -3 -10   10.62    0.30
   5  -3 -10   10.32    0.31
   5   3 -10   10.40    0.31
  -5   3  10   10.50    0.27
  -5   3  10   10.37    0.30
  -4  -3  10    2.35    0.13
  -4  -3  10    3.16    0.15
   4  -3 -10    2.83    0.10
   4  -3 -10    2.45    0.10
   4  -3 -10    2.45    0.14
  -4   3  10    2.32    0.12
   4   3 -10    2.45    0.12
   3  -3 -10    2.17    0.08
  -3  -3  10    2.16    0.12
  -3  -3  10    2.07    0.12
   3  -3 -10    2.13    0.08
   3  -3 -10    1.95    0.12
  -3   3  10    1.98    0.11
   3   3 -10    1.95    0.11
  -2  -3  10   -0.03    0.06
  -2  -3  10    0.00    0.04
   2  -3 -10    0.08    0.05
  -2   3  10   -0.01    0.04
   2   3 -10   -0.03    0.04
   1  -3 -10   38.70    0.97
  -1  -3  10   36.62    1.03
  -1  -3  10   37.62    0.94
  -1   3  10   38.10    0.94
   0  -3  10   79.86    2.12
   0  -3 -10   83.31    2.00
   0  -3  10   80.21    1.93
   0   3  10   81.09    1.93
  -1  -3 -10   14.21    0.41
   1  -3  10   13.68    0.45
  -1  -3 -10   14.93    0.38
   1  -3  10   13.94    0.40
   1   3  10   13.98    0.41
   1   3  10   14.47    0.38
   2  -3  10    0.13    0.05
  -2  -3 -10    0.27    0.04
   2  -3  10    0.10    0.07
  -2  -3 -10    0.11    0.03
   2   3  10    0.18    0.06
   2   3  10    0.10    0.04
  -3  -3 -10   23.88    0.55
   3  -3  10   23.67    0.62
  -3  -3 -10   24.29    0.64
   3  -3  10   22.62    0.71
   3   3  10   23.92    0.65
   3   3  10   23.02    0.63
  -4  -3 -10    5.33    0.16
   4  -3  10    4.97    0.25
  -4  -3 -10    5.19    0.19
   4  -3  10    5.16    0.19
   4   3  10    5.36    0.22
   4   3  10    5.16    0.20
   5  -3  10   24.49    0.64
  -5  -3 -10   24.65    0.59
   5  -3  10   24.49    0.75
   5   3  10   24.45    0.66
   5   3  10   24.15    0.69
  -6  -3 -10    1.88    0.11
   6  -3  10    1.60    0.16
   6  -3  10    1.76    0.12
   6   3  10    1.80    0.14
  -6   3 -10    1.74    0.14
   6   3  10    1.89    0.14
  -7  -3 -10    7.65    0.25
   7  -3  10    7.87    0.35
   7  -3  10    8.38    0.27
  -7   3 -10    8.02    0.30
   7   3  10    8.24    0.30
   8  -3  10    1.80    0.12
  -8  -3 -10    1.88    0.12
   8  -3  10    2.07    0.19
  -8   3 -10    1.71    0.15
   8   3  10    1.95    0.15
   8   3  10    1.85    0.15
  -9  -3 -10   15.77    0.44
   9  -3  10   14.80    0.56
  -9   3 -10   14.60    0.47
   9   3  10   15.04    0.52
   9   3  10   15.28    0.47
 -10  -3 -10    0.89    0.10
  10   3  10    0.60    0.12
  10   3  10    0.70    0.10
 -10   3 -10    0.56    0.11
 -11  -3 -10    7.52    0.28
  11   3  10    7.14    0.29
 -11   3 -10    6.71    0.30
 -12  -3 -10    1.54    0.15
 -12   3 -10    1.45    0.16
 -13   3 -10    0.21    0.11
  16  -4 -10    2.64    0.24
 -16   4  10    2.87    0.21
  15  -4 -10    0.10    0.11
 -15   4  10    0.27    0.10
  14  -4 -10    0.41    0.13
 -14   4  10    0.60    0.11
  13  -4 -10    0.45    0.12
  13  -4 -10    0.21    0.10
 -13   4  10    0.21    0.09
  12  -4 -10    0.99    0.14
  12  -4 -10    0.92    0.14
 -12   4  10    0.99    0.11
  11  -4 -10    3.90    0.22
  11  -4 -10    3.75    0.25
 -11   4  10    3.95    0.19
  11   4 -10    4.40    0.25
  11   4 -10    3.82    0.18
  10  -4 -10    4.66    0.23
  10  -4 -10    4.80    0.26
  10   4 -10    4.77    0.25
 -10   4  10    4.94    0.20
  10   4 -10    4.38    0.20
   9  -4 -10    9.76    0.34
   9  -4 -10    8.94    0.36
  -9  -4  10    9.05    0.36
   9   4 -10    9.03    0.36
   9   4 -10    8.79    0.30
  -9   4  10    9.52    0.29
  -8  -4  10   20.88    0.65
   8  -4 -10   20.45    0.64
   8  -4 -10   20.90    0.62
  -8   4  10   21.65    0.53
   8   4 -10   20.99    0.57
   8   4 -10   20.15    0.65
   7  -4 -10    1.79    0.15
   7  -4 -10    1.90    0.12
  -7  -4  10    1.89    0.14
   7   4 -10    1.68    0.12
  -7   4  10    1.93    0.10
   7   4 -10    1.93    0.14
  -7   4  10    2.18    0.11
   6  -4 -10   32.34    0.89
  -6  -4  10   31.02    0.90
   6  -4 -10   33.22    0.87
  -6   4  10   31.66    0.79
   6   4 -10   31.74    0.81
  -6   4  10   32.56    0.75
   6   4 -10   30.16    0.91
   5  -4 -10   10.34    0.36
   5  -4 -10   10.25    0.30
  -5  -4  10   10.40    0.33
  -5  -4  10   10.22    0.36
   5  -4 -10   10.32    0.31
  -5   4  10   10.29    0.27
  -5   4  10   10.34    0.31
   5   4 -10   10.32    0.32
   4  -4 -10    8.30    0.24
  -4  -4  10    8.55    0.28
  -4  -4  10    7.57    0.29
   4  -4 -10    7.75    0.29
   4  -4 -10    8.03    0.23
  -4   4  10    7.95    0.26
   4   4 -10    8.37    0.27
  -3  -4  10    0.20    0.06
  -3  -4  10    0.30    0.07
   3  -4 -10    0.23    0.07
   3   4 -10    0.14    0.05
  -3   4  10    0.19    0.06
   2  -4 -10   22.91    0.65
  -2  -4  10   23.68    0.63
  -2  -4  10   22.89    0.68
   2   4 -10   23.66    0.62
  -2   4  10   23.37    0.61
   1  -4 -10    2.20    0.14
  -1  -4  10    2.03    0.14
  -1  -4  10    2.09    0.13
   1   4 -10    2.00    0.12
  -1   4  10    2.13    0.12
   0  -4  10    8.64    0.28
   0  -4 -10    8.45    0.29
   0  -4  10    8.23    0.31
   0   4 -10    8.30    0.27
   0   4  10    8.42    0.28
   1  -4  10    0.48    0.07
   1  -4  10    0.48    0.10
  -1  -4 -10    0.51    0.08
  -1   4 -10    0.45    0.06
   1   4  10    0.55    0.08
   2  -4  10    6.18    0.27
   2  -4  10    6.13    0.22
   2   4  10    6.21    0.19
  -2   4 -10    6.22    0.22
   2   4  10    5.87    0.23
   3  -4  10    1.22    0.10
  -3  -4 -10    1.14    0.06
   3  -4  10    1.12    0.13
   3   4  10    1.42    0.09
   3   4  10    1.39    0.13
   4  -4  10   25.42    0.66
   4  -4  10   23.98    0.76
  -4  -4 -10   24.58    0.58
   4   4  10   24.93    0.68
   4   4  10   24.61    0.67
  -5  -4 -10    0.38    0.05
   5  -4  10    0.25    0.10
   5  -4  10    0.32    0.07
   5   4  10    0.27    0.08
   5   4  10    0.30    0.07
  -6  -4 -10   13.73    0.36
   6  -4  10   13.63    0.40
   6  -4  10   13.13    0.50
   6   4  10   13.85    0.43
   6   4  10   13.80    0.44
   7  -4  10    5.88    0.31
   7  -4  10    6.26    0.23
  -7   4 -10    6.02    0.26
   7   4  10    6.18    0.25
   8  -4  10   -0.06    0.10
   8  -4  10   -0.08    0.05
  -8   4 -10    0.05    0.07
   8   4  10    0.03    0.08
   9   4  10    2.96    0.19
  -9   4 -10    2.97    0.19
  10   4  10    0.13    0.09
 -10   4 -10    0.09    0.09
  11   4  10    0.53    0.11
 -11   4 -10    0.39    0.11
 -12   4 -10    0.07    0.10
 -13   4 -10    0.37    0.12
  15  -5 -10    2.20    0.22
  14  -5 -10    0.31    0.13
 -14   5  10    0.16    0.09
  13  -5 -10    1.90    0.20
 -13   5  10    2.27    0.16
  12  -5 -10    3.27    0.24
 -12   5  10    3.59    0.19
  12   5 -10    3.41    0.18
  11  -5 -10    1.91    0.19
  11   5 -10    2.05    0.14
 -11   5  10    1.88    0.14
  10  -5 -10    0.02    0.08
  10   5 -10   -0.05    0.08
  10   5 -10    0.05    0.06
 -10   5  10    0.09    0.06
   9  -5 -10    6.50    0.31
  -9  -5  10    6.37    0.29
  -9   5  10    6.46    0.22
   9   5 -10    6.58    0.30
   9   5 -10    6.25    0.25
  -8  -5  10   17.44    0.58
   8  -5 -10   17.52    0.58
   8   5 -10   18.00    0.51
   8   5 -10   17.62    0.59
  -8   5  10   18.36    0.47
  -7  -5  10    0.93    0.11
   7  -5 -10    0.84    0.12
   7   5 -10    0.93    0.10
  -7   5  10    1.11    0.10
   7   5 -10    0.92    0.11
  -7   5  10    1.02    0.08
   6  -5 -10    5.83    0.26
  -6  -5  10    5.37    0.25
   6   5 -10    5.66    0.26
   6   5 -10    5.80    0.22
  -5  -5  10    0.01    0.07
   5  -5 -10    0.02    0.07
   5   5 -10    0.03    0.06
  -5   5  10    0.06    0.06
   4  -5 -10   34.43    0.96
  -4  -5  10   34.91    1.00
   4   5 -10   35.56    0.90
  -4   5  10   36.19    0.89
   3  -5 -10    3.12    0.19
  -3  -5  10    3.13    0.17
  -3  -5  10    3.04    0.17
   3   5 -10    3.40    0.16
  -3   5  10    3.05    0.16
   2  -5 -10    0.08    0.07
  -2  -5  10    0.67    0.09
  -2  -5  10    0.25    0.07
  -2   5  10    0.14    0.07
   2   5 -10    0.30    0.07
  -1  -5  10    1.16    0.10
  -1  -5  10    1.14    0.12
   1  -5 -10    1.32    0.12
   1   5 -10    1.11    0.10
  -1   5  10    0.94    0.09
   0  -5  10    1.81    0.14
   0  -5 -10    1.88    0.15
   0  -5  10    1.92    0.12
   0   5 -10    1.80    0.11
   0   5  10    1.75    0.13
   1  -5  10    3.66    0.17
  -1  -5 -10    3.90    0.20
   1  -5  10    4.12    0.21
  -1   5 -10    3.86    0.17
   1   5  10    4.06    0.19
   2  -5  10    9.70    0.37
   2  -5  10    9.49    0.31
   2   5  10    8.99    0.32
  -2   5 -10    9.62    0.30
   3  -5  10    9.79    0.38
   3  -5  10    9.62    0.31
   3  -5  10    9.50    0.31
  -3   5 -10    9.23    0.30
   3   5  10    9.58    0.33
   4  -5  10    1.66    0.17
   4  -5  10    1.76    0.13
   4   5  10    1.65    0.14
  -4   5 -10    1.73    0.12
   5  -5  10    0.13    0.07
   5  -5  10    0.08    0.10
  -5   5 -10    0.17    0.06
   5   5  10    0.14    0.08
   6  -5  10    1.96    0.19
   6  -5  10    2.43    0.14
   6   5  10    1.95    0.15
  -6   5 -10    2.56    0.13
   7  -5  10    0.10    0.06
   7  -5  10    0.17    0.11
   7   5  10    0.11    0.08
  -7   5 -10    0.20    0.06
  -7   5 -10    0.14    0.09
   8  -5  10    0.53    0.13
  -8   5 -10    0.57    0.11
   8   5  10    0.40    0.10
  -9   5 -10    2.72    0.19
   9   5  10    2.22    0.17
  10   5  10    1.28    0.14
 -10   5 -10    1.18    0.15
  11   5  10    0.10    0.09
 -11   5 -10    0.05    0.09
 -12   5 -10   -0.09    0.09
  15  -6 -10    3.43    0.28
  14  -6 -10   -0.04    0.12
  13  -6 -10    0.75    0.16
  12  -6 -10    0.18    0.12
  12   6 -10    0.07    0.08
  11  -6 -10    2.32    0.21
  11   6 -10    2.40    0.16
  10  -6 -10    3.79    0.26
  10   6 -10    3.54    0.19
  -9  -6  10    0.10    0.09
   9  -6 -10   -0.01    0.08
   9   6 -10   -0.02    0.07
   9   6 -10   -0.02    0.06
   8  -6 -10    0.09    0.09
  -8  -6  10    0.12    0.09
   8   6 -10    0.04    0.08
   8   6 -10    0.18    0.07
   7  -6 -10   11.81    0.45
  -7  -6  10   12.49    0.44
   7   6 -10   11.87    0.39
   7   6 -10   12.37    0.45
  -6  -6  10    2.97    0.19
   6  -6 -10    2.82    0.20
   6   6 -10    2.85    0.16
  -5  -6  10    3.30    0.20
   5  -6 -10    3.50    0.22
   5   6 -10    3.65    0.18
  -5   6  10    3.36    0.17
  -4  -6  10   11.34    0.40
   4  -6 -10   11.00    0.41
  -4   6  10   10.81    0.35
   4   6 -10   11.01    0.36
  -3  -6  10    6.96    0.29
   3  -6 -10    6.94    0.30
   3   6 -10    7.01    0.26
  -3   6  10    6.97    0.26
  -2  -6  10   47.09    1.31
   2  -6 -10   46.46    1.26
   2   6 -10   48.20    1.18
  -2   6  10   46.64    1.18
   1  -6 -10    3.61    0.21
  -1  -6  10    4.45    0.22
  -1   6  10    4.11    0.20
   1   6 -10    4.22    0.19
   0  -6  10   18.58    0.60
   0  -6  10   18.88    0.54
   0  -6 -10   18.89    0.58
   0   6  10   18.20    0.54
   0   6 -10   19.18    0.53
   1  -6  10   10.78    0.35
   1  -6  10   10.44    0.40
  -1  -6 -10   10.93    0.39
  -1   6 -10   10.54    0.34
   1   6  10   10.73    0.36
   2  -6  10    4.17    0.23
   2  -6  10    4.04    0.19
   2   6  10    4.28    0.21
  -2   6 -10    3.91    0.18
   3  -6  10    1.38    0.13
   3  -6  10    1.66    0.14
   3  -6  10    1.34    0.15
  -3   6 -10    1.51    0.12
   3   6  10    1.22    0.12
   4  -6  10    1.25    0.16
   4  -6  10    1.15    0.11
  -4   6 -10    1.27    0.11
   4   6  10    1.34    0.13
   5  -6  10    1.82    0.13
   5  -6  10    1.51    0.17
   5   6  10    1.76    0.15
  -5   6 -10    1.63    0.12
   6  -6  10    1.75    0.13
   6  -6  10    1.36    0.17
   6   6  10    1.17    0.13
  -6   6 -10    1.59    0.12
   7  -6  10    0.59    0.09
   7   6  10    0.62    0.11
  -7   6 -10    0.58    0.08
  -8   6 -10    0.58    0.11
   8   6  10    0.29    0.10
  -9   6 -10    1.61    0.16
   9   6  10    1.53    0.15
 -10   6 -10    1.20    0.15
  10   6  10    1.31    0.14
  11   6  10    2.79    0.19
 -11   6 -10    2.53    0.20
 -12   6 -10    0.36    0.12
  12   6  10    0.64    0.13
  14  -7 -10    0.53    0.16
  13  -7 -10    0.49    0.15
  12  -7 -10    0.04    0.12
  12   7 -10   -0.09    0.08
  11  -7 -10   -0.01    0.11
  11   7 -10   -0.11    0.07
  10  -7 -10    0.66    0.14
  10   7 -10    0.50    0.11
   9  -7 -10    0.16    0.11
   9   7 -10    0.02    0.08
   8  -7 -10    2.81    0.22
   8   7 -10    2.73    0.18
  -7  -7  10    0.17    0.09
   7  -7 -10    0.16    0.10
   7   7 -10    0.07    0.07
   7   7 -10    0.16    0.09
   6  -7 -10    1.60    0.16
  -6  -7  10    1.97    0.16
   6   7 -10    1.72    0.14
  -5  -7  10    6.81    0.30
   5  -7 -10    6.65    0.31
   5   7 -10    6.69    0.27
  -5   7  10    6.58    0.25
  -4  -7  10   51.32    1.43
   4  -7 -10   50.17    1.39
   4   7 -10   51.11    1.30
  -4   7  10   52.77    1.28
   3  -7 -10   17.11    0.57
  -3  -7  10   17.52    0.57
  -3   7  10   17.44    0.51
   3   7 -10   16.86    0.51
   2  -7 -10   13.57    0.48
  -2  -7  10   13.85    0.48
  -2   7  10   13.49    0.42
   2   7 -10   13.25    0.42
   1  -7 -10    0.89    0.13
  -1  -7  10    0.65    0.12
   1   7 -10    0.90    0.11
  -1   7  10    0.89    0.11
   0  -7  10    7.63    0.33
   0  -7 -10    7.71    0.32
   0   7  10    6.86    0.28
   0   7 -10    7.30    0.27
   1  -7  10   -0.01    0.09
  -1  -7 -10    0.03    0.08
  -1   7 -10    0.02    0.07
   1   7  10   -0.15    0.07
   2  -7  10   16.77    0.57
  -2   7 -10   15.81    0.47
   2   7  10   15.55    0.49
   3  -7  10    4.41    0.26
   3   7  10    3.95    0.21
  -3   7 -10    4.03    0.19
   4  -7  10   12.32    0.47
   4   7  10   11.51    0.40
  -4   7 -10   11.75    0.37
   5  -7  10    0.13    0.11
  -5   7 -10    0.03    0.06
   5   7  10   -0.01    0.08
  -6   7 -10    3.79    0.18
   6   7  10    3.23    0.20
   7   7  10    1.18    0.14
   8   7  10   -0.07    0.08
  -8   7 -10   -0.07    0.09
  -9   7 -10    0.58    0.12
   9   7  10    0.31    0.10
 -10   7 -10    1.65    0.17
  10   7  10    1.33    0.16
  11   7  10    2.15    0.18
 -11   7 -10    2.28    0.20
  13  -8 -10    0.06    0.14
  13   8 -10    0.42    0.12
  12  -8 -10   -0.07    0.12
  12   8 -10   -0.02    0.09
  11  -8 -10    0.05    0.11
  11   8 -10    0.12    0.09
  10  -8 -10   -0.04    0.11
  10   8 -10   -0.17    0.07
   9  -8 -10    0.28    0.12
   9   8 -10    0.13    0.08
   8  -8 -10    0.18    0.12
   8   8 -10    0.50    0.11
   7  -8 -10   15.38    0.57
   7   8 -10   15.34    0.49
   6  -8 -10    0.94    0.15
   6   8 -10    1.12    0.12
  -6   8  10    0.88    0.11
   5  -8 -10    7.14    0.35
  -5  -8  10    7.54    0.33
  -5   8  10    7.45    0.28
   5   8 -10    7.22    0.29
  -4  -8  10    1.75    0.17
   4  -8 -10    1.62    0.17
   4   8 -10    1.78    0.15
  -4   8  10    1.89    0.15
   3  -8 -10   -0.06    0.09
  -3  -8  10   -0.03    0.08
  -3   8  10    0.00    0.07
   3   8 -10   -0.01    0.07
   2  -8 -10    0.17    0.11
  -2  -8  10    0.19    0.10
  -2   8  10    0.16    0.09
   2   8 -10    0.30    0.08
  -1  -8  10    8.15    0.34
   1  -8 -10    7.90    0.35
   1   8 -10    7.63    0.29
  -1   8  10    7.69    0.30
   0  -8 -10    0.09    0.10
   0  -8  10    0.22    0.10
   0   8 -10    0.20    0.08
   0   8  10    0.17    0.08
  -1  -8 -10    0.35    0.11
   1  -8  10    0.47    0.12
   1   8  10    0.32    0.10
  -1   8 -10    0.26    0.08
   2  -8  10    2.48    0.21
  -2   8 -10    2.27    0.15
   2   8  10    2.06    0.17
   3  -8  10    0.56    0.13
  -3   8 -10    0.49    0.09
   3   8  10    0.51    0.10
  -4   8 -10    0.04    0.07
   4   8  10    0.04    0.08
   5   8  10    3.56    0.21
  -5   8 -10    3.67    0.19
  -6   8 -10    0.03    0.07
   6   8  10   -0.03    0.08
   7   8  10   -0.14    0.08
   8   8  10    2.27    0.19
  -8   8 -10    1.95    0.19
   9   8  10   -0.06    0.10
  -9   8 -10    0.10    0.11
  10   8  10    0.12    0.11
  12  -9 -10    0.94    0.19
  12   9 -10    1.22    0.16
  11  -9 -10    0.23    0.15
  11   9 -10    0.16    0.11
  10  -9 -10    0.53    0.16
  10   9 -10    0.33    0.11
   9  -9 -10    0.16    0.13
   9   9 -10    0.12    0.09
   8  -9 -10    0.37    0.14
   8   9 -10    0.28    0.11
   7  -9 -10    0.16    0.12
   7   9 -10    0.18    0.09
   6  -9 -10    0.14    0.11
   6   9 -10    0.45    0.10
   5  -9 -10   -0.07    0.09
  -5   9  10    0.07    0.08
   5   9 -10    0.05    0.08
   4  -9 -10   -0.17    0.09
  -4   9  10   -0.07    0.08
   4   9 -10   -0.01    0.08
   3  -9 -10    0.86    0.16
  -3   9  10    1.12    0.13
   3   9 -10    1.27    0.13
   2  -9 -10   17.67    0.62
   2   9 -10   16.97    0.53
  -2   9  10   17.23    0.53
   1  -9 -10    2.95    0.23
   1   9 -10    3.33    0.19
  -1   9  10    3.12    0.19
   0  -9 -10    0.12    0.11
   0   9  10    0.19    0.09
   0   9 -10    0.23    0.08
  -1  -9 -10    2.98    0.24
   1   9  10    3.62    0.22
  -1   9 -10    3.75    0.19
   2   9  10    3.12    0.21
  -2   9 -10    2.60    0.17
  -3   9 -10    1.09    0.12
   3   9  10    0.88    0.13
  -4   9 -10    0.01    0.07
   4   9  10    0.26    0.10
  -5   9 -10    0.63    0.10
   5   9  10    0.44    0.11
   6   9  10    1.60    0.17
   7   9  10    0.39    0.12
   8   9  10    1.02    0.16
  -8   9 -10    1.21    0.17
   9   9  10    0.38    0.12
  10 -10 -10    0.71    0.19
  10  10 -10    0.35    0.13
   9 -10 -10    1.80    0.22
   9  10 -10    1.85    0.18
   8 -10 -10    1.07    0.19
   8  10 -10    1.24    0.15
   7 -10 -10    0.13    0.13
   7  10 -10    0.14    0.10
   6 -10 -10    0.16    0.13
   6  10 -10    0.28    0.10
   5 -10 -10    1.72    0.21
   5  10 -10    1.60    0.16
   4 -10 -10   12.72    0.53
  -4  10  10   12.81    0.43
   4  10 -10   12.21    0.45
   3 -10 -10   -0.14    0.12
   3  10 -10    0.00    0.08
  -3  10  10    0.04    0.09
   2 -10 -10    0.28    0.14
   2  10 -10    0.14    0.09
  -2  10  10    0.24    0.10
   1 -10 -10    0.59    0.16
   1  10 -10    0.79    0.12
  -1  10  10    0.65    0.12
   0 -10 -10   -0.09    0.11
   0  10 -10    0.00    0.08
   0  10  10   -0.09    0.08
  -1  10 -10    0.11    0.09
   1  10  10    0.01    0.09
   2  10  10    0.28    0.12
  -2  10 -10    0.24    0.09
  -3  10 -10    0.22    0.09
   3  10  10    0.37    0.11
  -4  10 -10    0.30    0.09
   4  10  10    0.35    0.11
   5  10  10    0.85    0.14
   6  10  10   -0.03    0.10
   7  10  10    2.19    0.21
   8  10  10    0.73    0.15
   8 -11 -10    0.00    0.15
   8  11 -10   -0.13    0.10
   7 -11 -10    5.27    0.36
   7  11 -10    5.71    0.31
   6 -11 -10    0.09    0.13
   6  11 -10   -0.04    0.09
   5 -11 -10    0.69    0.17
   5  11 -10    0.72    0.13
   4 -11 -10    3.17    0.27
  -4  11  10    3.33    0.21
   4  11 -10    3.05    0.23
   3 -11 -10    0.18    0.13
   3  11 -10    0.17    0.10
  -3  11  10    0.08    0.10
   2 -11 -10    8.30    0.42
  -2  11  10    8.40    0.35
   2  11 -10    8.46    0.36
   1 -11 -10    0.36    0.14
   1  11 -10    0.25    0.11
  -1  11  10    0.19    0.11
   0 -11 -10    1.18    0.19
   0  11  10    1.48    0.17
   0  11 -10    1.26    0.15
   1  11  10    0.31    0.11
  -1  11 -10    0.36    0.11
  -2  11 -10    2.95    0.20
   2  11  10    3.04    0.22
  -3  11 -10    1.08    0.14
   3  11  10    1.13    0.16
   4  11  10    0.15    0.12
  -4  11 -10    0.08    0.09
   5  11  10    0.11    0.12
   4 -12 -10   -0.21    0.13
   4  12 -10    0.08    0.11
   3 -12 -10    0.07    0.16
   3  12 -10    0.02    0.10
  -3  12  10    0.29    0.12
   2 -12 -10    0.00    0.14
  -2  12  10   -0.03    0.11
   2  12 -10    0.02    0.10
   1 -12 -10    0.33    0.17
   1  12 -10    0.41    0.12
  -1  12  10    0.40    0.12
   0  12 -10    1.26    0.15
   0  12  10    1.31    0.17
  -1  12 -10    0.66    0.13
   1  12  10    0.58    0.15
  -2  12 -10    0.03    0.10
   2  12  10   -0.15    0.11
  17   0 -11    2.68    0.24
  16   0 -11   -0.11    0.09
  15   0 -11   -0.12    0.08
  14   0 -11   -0.02    0.09
  13   0 -11   -0.02    0.08
  13   0 -11    0.11    0.09
  12   0 -11   -0.07    0.07
  11   0 -11   41.45    1.18
  10   0 -11    0.27    0.09
   9   0 -11   65.97    1.80
   9   0 -11   67.59    1.60
  -9   0  11   68.26    1.60
  -8   0  11   -0.01    0.05
   8   0 -11    0.01    0.04
   8   0 -11   -0.01    0.05
  -7   0  11   27.68    0.70
   7   0 -11   28.17    0.79
   6   0 -11    0.01    0.05
  -6   0  11    0.20    0.05
   5   0 -11  113.19    2.94
  -5   0  11  115.54    2.94
  -5   0  11  115.49    2.69
  -4   0  11    0.00    0.04
   4   0 -11    0.01    0.04
   4   0 -11   -0.08    0.04
  -4   0  11    0.03    0.03
  -3   0  11  139.42    3.33
   3   0 -11  144.00    3.45
   3   0 -11  145.65    3.64
   2   0 -11   -0.04    0.04
  -2   0  11    0.01    0.04
   2   0 -11    0.03    0.03
  -2   0  11    0.01    0.04
   1   0 -11   28.04    0.75
  -1   0  11   26.74    0.73
  -1   0  11   26.10    0.69
   1   0 -11   26.92    0.68
   0   0  11   -0.05    0.04
   0   0 -11   -0.01    0.02
   0   0  11   -0.04    0.04
   0   0 -11   -0.08    0.04
  -1   0 -11   69.51    1.76
   1   0  11   65.48    1.61
   2   0  11    0.01    0.05
   2   0  11   -0.02    0.03
   3   0  11    1.54    0.12
   3   0  11    1.38    0.10
   4   0  11   -0.07    0.04
   4   0  11   -0.10    0.06
  -4   0 -11    0.04    0.04
  -5   0 -11    1.43    0.10
   5   0  11    1.37    0.13
   5   0  11    1.32    0.10
  -6   0 -11   -0.05    0.05
   6   0  11   -0.02    0.06
   6   0  11   -0.06    0.08
  -7   0 -11    0.36    0.08
   7   0  11    0.53    0.08
   7   0  11    0.48    0.11
   8   0  11    0.01    0.06
   8   0  11    0.00    0.08
  -8   0 -11    0.00    0.06
  -9   0 -11    8.72    0.30
   9   0  11    8.58    0.29
   9   0  11    8.94    0.38
 -10   0 -11   -0.06    0.07
  10   0  11    0.04    0.09
 -11   0 -11    0.47    0.10
 -12   0 -11   -0.07    0.07
 -13   0 -11    0.00    0.09
 -14   0 -11    0.04    0.10
  17  -1 -11    0.15    0.12
 -17   1  11    0.34    0.11
  17   1 -11    0.39    0.14
  16  -1 -11    1.32    0.17
 -16   1  11    1.46    0.16
  15  -1 -11    3.84    0.27
 -15   1  11    4.20    0.23
  14  -1 -11    6.84    0.33
 -14   1  11    6.99    0.29
  13  -1 -11    0.65    0.12
  13  -1 -11    0.81    0.13
 -13   1  11    0.64    0.10
  12  -1 -11    0.16    0.09
  12  -1 -11    0.29    0.09
 -12   1  11    0.25    0.08
  12   1 -11    0.06    0.08
  11  -1 -11    7.57    0.32
  11  -1 -11    7.78    0.33
  11   1 -11    7.74    0.33
 -11   1  11    8.48    0.28
  10  -1 -11    7.56    0.30
  10  -1 -11    7.39    0.31
  10   1 -11    7.30    0.24
  10   1 -11    7.59    0.31
 -10   1  11    8.09    0.27
   9  -1 -11   34.15    0.97
   9  -1 -11   33.54    0.95
  -9  -1  11   33.47    0.86
   9   1 -11   35.49    0.99
  -9   1  11   34.89    0.85
   9   1 -11   34.96    0.85
  -8  -1  11    0.66    0.08
   8  -1 -11    0.61    0.09
   8  -1 -11    0.67    0.08
  -8   1  11    0.66    0.07
   8   1 -11    0.57    0.07
   8   1 -11    0.51    0.08
   7  -1 -11    3.87    0.17
   7  -1 -11    3.87    0.18
  -7  -1  11    3.87    0.18
  -7  -1  11    3.80    0.16
   7   1 -11    3.90    0.19
   7   1 -11    3.85    0.15
  -6  -1  11   37.28    0.92
  -6  -1  11   36.95    1.01
   6  -1 -11   36.98    1.00
   6  -1 -11   37.36    0.98
  -6   1  11   37.24    0.91
   6   1 -11   36.81    1.02
  -5  -1  11    5.26    0.19
   5  -1 -11    5.18    0.21
  -5  -1  11    5.16    0.20
   5  -1 -11    5.29    0.20
   5  -1 -11    5.24    0.19
  -5   1  11    5.27    0.18
   5   1 -11    4.86    0.20
  -4  -1  11   84.50    2.20
  -4  -1  11   85.37    2.02
   4  -1 -11   83.40    2.18
   4  -1 -11   87.99    2.19
   4  -1 -11   86.38    2.10
  -4   1  11   82.93    2.01
  -4   1  11   85.13    2.18
   3  -1 -11  117.39    2.79
   3  -1 -11  114.04    2.92
  -3  -1  11  113.95    2.69
  -3  -1  11  114.24    2.94
   3  -1 -11  116.51    2.92
  -3   1  11  115.68    2.92
  -3   1  11  111.68    2.69
   2  -1 -11   40.99    1.08
  -2  -1  11   40.06    1.01
  -2  -1  11   39.48    1.09
   2  -1 -11   40.90    1.03
  -2   1  11   43.57    1.07
  -2   1  11   40.94    1.01
   1  -1 -11   40.30    0.99
  -1  -1  11   38.86    0.98
   1  -1 -11   39.66    1.04
  -1  -1  11   39.51    1.06
  -1   1  11   38.86    0.98
  -1   1  11   40.48    1.03
   0  -1  11    1.71    0.11
   0  -1 -11    1.83    0.09
   0  -1 -11    1.84    0.10
   0  -1  11    1.74    0.11
   0   1  11    1.90    0.09
   0   1 -11    1.68    0.06
   0   1  11    1.70    0.11
   1  -1  11   -0.01    0.05
   1  -1  11   -0.04    0.05
  -1  -1 -11   -0.03    0.04
   1   1  11    0.01    0.04
   1   1  11   -0.07    0.04
   2  -1  11   22.04    0.65
  -2  -1 -11   22.43    0.54
   2  -1  11   22.42    0.59
  -2  -1 -11   23.48    0.63
   2   1  11   21.97    0.63
   2   1  11   21.88    0.59
   3  -1  11    2.96    0.14
   3  -1  11    2.93    0.17
  -3  -1 -11    2.99    0.12
   3   1  11    3.02    0.15
   3   1  11    3.04    0.15
   4  -1  11   25.60    0.66
   4  -1  11   24.29    0.74
  -4  -1 -11   26.57    0.63
   4   1  11   25.31    0.67
   5  -1  11    0.15    0.08
   5  -1  11    0.12    0.06
  -5  -1 -11    0.10    0.05
   5   1  11    0.19    0.07
  -5   1 -11    0.22    0.06
   5   1  11    0.03    0.07
   6  -1  11   12.19    0.44
  -6  -1 -11   12.75    0.36
   6  -1  11   12.32    0.37
   6   1  11   12.27    0.38
  -6   1 -11   12.33    0.37
   6   1  11   12.18    0.42
   7  -1  11    6.87    0.31
   7  -1  11    6.96    0.24
  -7  -1 -11    7.03    0.24
  -7   1 -11    6.27    0.24
   7   1  11    6.33    0.28
   7   1  11    6.56    0.25
  -8  -1 -11    0.17    0.07
   8  -1  11    0.02    0.06
   8  -1  11    0.05    0.10
   8   1  11   -0.11    0.08
  -8   1 -11    0.07    0.07
   8   1  11    0.05    0.06
  -9  -1 -11    0.88    0.10
   9  -1  11    1.03    0.14
   9  -1  11    0.97    0.09
   9   1  11    1.00    0.11
  -9   1 -11    0.82    0.10
   9   1  11    0.75    0.13
 -10  -1 -11    0.25    0.08
  10  -1  11    0.23    0.11
 -10   1 -11    0.25    0.08
  10   1  11    0.13    0.07
  10   1  11    0.25    0.11
 -11  -1 -11    0.02    0.07
 -11   1 -11    0.08    0.08
  11   1  11   -0.08    0.10
 -12  -1 -11    0.57    0.11
 -12   1 -11    0.52    0.11
 -13  -1 -11    1.34    0.14
 -13   1 -11    1.15    0.15
 -14  -1 -11    2.36    0.20
 -14   1 -11    2.41    0.21
  16  -2 -11   -0.08    0.09
 -16   2  11   -0.02    0.09
  15  -2 -11    0.68    0.14
 -15   2  11    0.62    0.12
  14  -2 -11    0.44    0.12
 -14   2  11    0.39    0.10
  13  -2 -11    0.52    0.12
  13  -2 -11    0.43    0.11
 -13   2  11    0.63    0.10
  12  -2 -11   15.31    0.53
  12  -2 -11   13.61    0.52
  12   2 -11   16.54    0.56
 -12   2  11   16.19    0.46
  11  -2 -11    6.97    0.31
  11  -2 -11    7.26    0.31
 -11   2  11    7.42    0.27
  11   2 -11    7.48    0.32
  10  -2 -11    2.88    0.20
  10  -2 -11    2.99    0.18
 -10   2  11    2.91    0.15
  10   2 -11    3.07    0.20
  10   2 -11    3.02    0.14
   9  -2 -11    0.00    0.06
   9  -2 -11   -0.04    0.06
   9   2 -11   -0.02    0.05
  -9   2  11   -0.09    0.05
   9   2 -11    0.03    0.06
  -8  -2  11   12.97    0.44
  -8  -2  11   13.04    0.39
   8  -2 -11   13.88    0.45
   8  -2 -11   13.17    0.42
   8   2 -11   13.56    0.45
  -8   2  11   13.32    0.37
  -8   2  11   14.10    0.37
   8   2 -11   13.29    0.38
  -7  -2  11    2.78    0.14
   7  -2 -11    3.03    0.17
  -7  -2  11    2.68    0.15
   7  -2 -11    2.78    0.14
   7   2 -11    2.68    0.13
   7   2 -11    2.63    0.16
  -7   2  11    2.88    0.13
  -6  -2  11    0.75    0.08
   6  -2 -11    0.80    0.07
  -6  -2  11    0.80    0.09
   6  -2 -11    0.72    0.09
  -6   2  11    0.74    0.07
   6   2 -11    0.89    0.08
   6   2 -11    0.84    0.09
   5  -2 -11    5.00    0.20
   5  -2 -11    4.61    0.17
  -5  -2  11    4.36    0.18
   5  -2 -11    4.71    0.17
  -5  -2  11    4.43    0.19
  -5   2  11    4.64    0.17
   5   2 -11    4.50    0.20
   5   2 -11    4.71    0.18
   4  -2 -11   18.87    0.53
  -4  -2  11   18.30    0.54
  -4  -2  11   17.73    0.50
   4  -2 -11   19.12    0.51
   4  -2 -11   18.48    0.51
  -4   2  11   18.73    0.49
   3  -2 -11    0.20    0.03
  -3  -2  11    0.19    0.06
   3  -2 -11    0.07    0.05
   3  -2 -11    0.18    0.04
  -3  -2  11    0.17    0.06
  -3   2  11    0.13    0.05
   2  -2 -11    0.18    0.04
   2  -2 -11    0.16    0.03
  -2  -2  11    0.12    0.05
  -2  -2  11    0.21    0.05
   2  -2 -11    0.04    0.04
  -2   2  11    0.27    0.05
  -2   2  11    0.12    0.03
  -1  -2  11    0.42    0.07
   1  -2 -11    0.25    0.05
  -1  -2  11    0.19    0.05
   1  -2 -11    0.30    0.04
  -1   2  11    0.16    0.05
  -1   2  11    0.30    0.03
   0  -2  11    4.87    0.19
   0  -2  11    5.04    0.21
   0  -2 -11    5.26    0.18
   0  -2 -11    5.52    0.17
   0   2  11    5.18    0.16
   0   2  11    5.00    0.19
   1  -2  11   12.25    0.41
  -1  -2 -11   12.88    0.35
  -1  -2 -11   13.38    0.36
   1  -2  11   12.21    0.36
  -1  -2 -11   12.96    0.31
   1   2  11   11.96    0.37
   1   2  11   12.36    0.36
  -2  -2 -11    6.63    0.18
   2  -2  11    6.24    0.22
  -2  -2 -11    6.32    0.21
   2  -2  11    6.25    0.26
   2   2  11    6.30    0.23
   2   2  11    6.14    0.21
  -3  -2 -11    7.06    0.23
   3  -2  11    6.36    0.27
  -3  -2 -11    6.82    0.20
   3  -2  11    6.77    0.24
   3   2  11    6.86    0.25
   3   2  11    6.78    0.24
   4  -2  11    4.43    0.22
   4  -2  11    4.22    0.18
  -4  -2 -11    4.44    0.15
   4   2  11    4.33    0.19
   4   2  11    4.42    0.19
  -5  -2 -11    3.38    0.14
   5  -2  11    3.50    0.20
   5  -2  11    3.28    0.16
   5   2  11    3.24    0.18
   5   2  11    3.53    0.18
   6  -2  11   26.29    0.70
  -6  -2 -11   27.82    0.67
   6  -2  11   26.39    0.82
  -6   2 -11   26.94    0.70
   6   2  11   27.61    0.73
   7  -2  11    3.91    0.23
   7  -2  11    3.85    0.17
  -7  -2 -11    3.93    0.17
   7   2  11    3.81    0.19
  -7   2 -11    3.57    0.18
   7   2  11    3.70    0.21
  -8  -2 -11    2.68    0.15
   8  -2  11    2.48    0.15
   8  -2  11    2.31    0.19
   8   2  11    2.55    0.18
   8   2  11    2.31    0.16
  -8   2 -11    2.43    0.16
  -9  -2 -11    3.91    0.19
   9  -2  11    3.78    0.25
   9   2  11    3.95    0.20
  -9   2 -11    4.01    0.20
   9   2  11    3.94    0.24
 -10  -2 -11    0.20    0.08
  10   2  11    0.11    0.08
 -10   2 -11   -0.03    0.08
  10   2  11   -0.05    0.09
 -11  -2 -11   -0.14    0.07
 -11   2 -11    0.03    0.09
  11   2  11    0.00    0.11
 -12  -2 -11    4.89    0.24
 -12   2 -11    4.08    0.23
 -13   2 -11    0.02    0.09
 -14   2 -11    5.76    0.29
  16  -3 -11    0.02    0.12
 -16   3  11    0.07    0.10
  15  -3 -11    0.07    0.10
 -15   3  11    0.27    0.10
  14  -3 -11    1.17    0.16
 -14   3  11    1.32    0.14
  13  -3 -11    0.31    0.11
  13  -3 -11    0.35    0.11
 -13   3  11    0.34    0.10
  12  -3 -11    2.94    0.21
  12  -3 -11    3.40    0.21
 -12   3  11    3.42    0.18
  11  -3 -11    0.13    0.09
  11  -3 -11    0.19    0.09
  11   3 -11    0.34    0.10
 -11   3  11    0.22    0.07
  11   3 -11    0.15    0.06
  10  -3 -11    3.28    0.21
  10  -3 -11    3.07    0.18
  10   3 -11    3.30    0.21
  10   3 -11    3.49    0.16
 -10   3  11    3.58    0.16
   9  -3 -11    0.05    0.06
   9  -3 -11    0.00    0.07
   9   3 -11    0.09    0.05
   9   3 -11    0.14    0.08
  -9   3  11    0.19    0.06
  -8  -3  11    1.39    0.13
   8  -3 -11    1.61    0.11
   8  -3 -11    1.51    0.14
  -8   3  11    1.59    0.10
   8   3 -11    1.45    0.13
   8   3 -11    1.62    0.11
  -8   3  11    1.54    0.10
  -7  -3  11    1.90    0.14
   7  -3 -11    2.10    0.12
   7  -3 -11    1.96    0.15
  -7  -3  11    1.96    0.13
   7   3 -11    1.89    0.12
  -7   3  11    1.88    0.10
  -7   3  11    1.91    0.11
   7   3 -11    2.08    0.14
  -6  -3  11   10.03    0.35
   6  -3 -11    9.80    0.35
  -6  -3  11    9.64    0.31
   6  -3 -11   10.18    0.31
   6  -3 -11   10.08    0.30
   6   3 -11    9.63    0.31
   6   3 -11    9.70    0.35
   5  -3 -11    0.06    0.04
  -5  -3  11   -0.09    0.05
  -5  -3  11   -0.08    0.05
   5  -3 -11    0.02    0.03
   5  -3 -11   -0.03    0.05
   5   3 -11   -0.01    0.04
  -5   3  11    0.11    0.05
   4  -3 -11    3.59    0.13
  -4  -3  11    3.52    0.17
   4  -3 -11    3.64    0.17
   4  -3 -11    3.60    0.13
  -4  -3  11    3.54    0.17
   4   3 -11    3.49    0.16
  -4   3  11    3.59    0.15
   3  -3 -11    4.49    0.14
  -3  -3  11    4.29    0.18
   3  -3 -11    4.40    0.19
   3  -3 -11    4.72    0.14
  -3  -3  11    4.43    0.19
   3   3 -11    4.50    0.18
  -3   3  11    4.66    0.18
  -2  -3  11    2.00    0.12
  -2  -3  11    1.84    0.13
   2  -3 -11    2.05    0.12
  -2   3  11    2.02    0.12
  -1  -3  11    0.18    0.07
   1  -3 -11    0.22    0.06
  -1  -3  11    0.21    0.06
  -1   3  11    0.23    0.06
   0  -3  11   20.74    0.56
   0  -3 -11   21.63    0.57
   0  -3  11   19.89    0.62
   0   3  11   20.97    0.56
   1  -3  11    6.07    0.25
  -1  -3 -11    6.29    0.18
   1  -3  11    6.00    0.22
  -1  -3 -11    6.20    0.22
   1   3  11    6.26    0.23
   1   3  11    6.01    0.18
  -2  -3 -11    0.14    0.03
   2  -3  11    0.07    0.05
  -2  -3 -11    0.16    0.03
   2  -3  11    0.18    0.08
   2   3  11    0.30    0.07
   2   3  11    0.24    0.05
   3  -3  11    4.13    0.22
  -3  -3 -11    4.39    0.13
   3  -3  11    4.26    0.18
   3   3  11    4.47    0.19
   3   3  11    4.35    0.17
   4  -3  11    4.84    0.19
   4  -3  11    4.15    0.23
  -4  -3 -11    4.76    0.15
   4   3  11    4.46    0.20
   4   3  11    4.44    0.19
  -5  -3 -11   10.27    0.28
   5  -3  11   10.36    0.32
   5  -3  11   10.04    0.40
   5   3  11   10.38    0.34
   5   3  11   10.21    0.34
   6  -3  11    5.69    0.22
   6  -3  11    5.36    0.28
  -6  -3 -11    5.62    0.20
   6   3  11    5.88    0.24
  -6   3 -11    5.48    0.24
   6   3  11    6.06    0.25
  -7  -3 -11   17.16    0.45
   7  -3  11   17.06    0.47
   7  -3  11   16.37    0.58
   7   3  11   15.12    0.52
  -7   3 -11   16.43    0.49
   7   3  11   17.83    0.51
   8  -3  11   10.80    0.33
   8  -3  11    9.71    0.43
  -8  -3 -11   10.53    0.32
  -8   3 -11   10.24    0.36
   8   3  11   10.65    0.36
   8   3  11   10.35    0.39
   9  -3  11    7.40    0.38
  -9  -3 -11    8.11    0.28
   9   3  11    7.91    0.30
  -9   3 -11    7.82    0.31
  10   3  11    4.38    0.21
 -10   3 -11    3.26    0.20
  11   3  11    4.12    0.23
 -11   3 -11    4.10    0.23
 -12   3 -11    0.56    0.12
 -13   3 -11    1.27    0.16
  16  -4 -11    2.54    0.25
 -16   4  11    2.80    0.21
  15  -4 -11    0.73    0.15
 -15   4  11    0.83    0.13
  14  -4 -11    0.26    0.13
 -14   4  11    0.24    0.09
  13  -4 -11    0.15    0.11
 -13   4  11    0.20    0.09
  12  -4 -11    0.42    0.12
 -12   4  11    0.50    0.09
  11  -4 -11    4.79    0.25
  11  -4 -11    4.96    0.28
 -11   4  11    4.95    0.21
  11   4 -11    4.82    0.21
  11   4 -11    4.74    0.26
  10  -4 -11    0.15    0.09
  10  -4 -11    0.02    0.07
  10   4 -11   -0.01    0.06
 -10   4  11    0.06    0.06
  10   4 -11    0.03    0.08
   9  -4 -11    0.68    0.11
   9  -4 -11    0.93    0.11
  -9  -4  11    0.84    0.12
   9   4 -11    0.76    0.08
   9   4 -11    1.20    0.13
  -9   4  11    1.06    0.10
   8  -4 -11    1.01    0.10
  -8  -4  11    1.29    0.13
   8  -4 -11    0.90    0.12
  -8   4  11    0.99    0.09
   8   4 -11    0.86    0.09
   8   4 -11    1.14    0.12
   7  -4 -11    1.57    0.11
  -7  -4  11    1.58    0.14
   7  -4 -11    1.74    0.16
  -7   4  11    1.68    0.09
   7   4 -11    1.55    0.14
  -7   4  11    1.54    0.11
   7   4 -11    1.43    0.11
  -6  -4  11    2.62    0.16
   6  -4 -11    2.64    0.13
  -6  -4  11    2.83    0.16
   6  -4 -11    2.49    0.17
   6   4 -11    2.41    0.16
   6   4 -11    2.73    0.15
  -6   4  11    2.50    0.10
   5  -4 -11    5.70    0.19
   5  -4 -11    5.24    0.24
  -5  -4  11    5.48    0.22
  -5  -4  11    5.43    0.24
   5   4 -11    5.57    0.21
  -5   4  11    5.68    0.20
   4  -4 -11   57.06    1.49
  -4  -4  11   55.60    1.55
  -4  -4  11   57.76    1.42
   4  -4 -11   60.05    1.49
  -4   4  11   58.60    1.40
   4   4 -11   57.96    1.41
  -3  -4  11    0.05    0.06
  -3  -4  11    0.13    0.06
   3  -4 -11    0.03    0.05
   3   4 -11    0.09    0.05
  -3   4  11   -0.02    0.05
   2  -4 -11    0.56    0.08
  -2  -4  11    0.62    0.08
  -2  -4  11    0.50    0.08
   2   4 -11    0.52    0.07
  -2   4  11    0.54    0.08
   1  -4 -11    5.96    0.24
  -1  -4  11    5.76    0.22
  -1  -4  11    5.69    0.25
  -1   4  11    6.08    0.22
   1   4 -11    6.23    0.22
   0  -4  11    0.84    0.11
   0  -4  11    1.14    0.10
   0  -4 -11    0.95    0.10
   0   4  11    0.85    0.09
   0   4 -11    1.14    0.09
  -1  -4 -11    3.36    0.17
   1  -4  11    3.24    0.19
   1  -4  11    3.43    0.16
   1   4  11    3.55    0.18
  -1   4 -11    3.49    0.16
   2  -4  11   32.58    0.95
   2  -4  11   32.37    0.84
   2   4  11   33.17    0.85
   3  -4  11   16.85    0.47
   3  -4  11   16.34    0.55
   3   4  11   16.59    0.49
   4  -4  11   14.54    0.43
   4  -4  11   14.78    0.52
   4   4  11   14.88    0.45
   5  -4  11    1.91    0.13
   5  -4  11    1.51    0.17
   5   4  11    1.59    0.15
   6  -4  11    0.12    0.11
   6  -4  11   -0.06    0.06
   6   4  11    0.13    0.08
   7  -4  11    2.11    0.19
   7  -4  11    1.90    0.13
  -7   4 -11    1.94    0.15
   7   4  11    1.81    0.14
   8  -4  11    0.61    0.14
   8  -4  11    0.52    0.08
   8   4  11    0.41    0.10
  -8   4 -11    0.61    0.11
  -9   4 -11    0.11    0.09
   9   4  11   -0.02    0.08
  10   4  11    0.22    0.09
 -10   4 -11    0.15    0.09
  11   4  11    1.90    0.17
 -11   4 -11    1.65    0.16
 -12   4 -11    0.12    0.11
  15  -5 -11    3.92    0.29
  14  -5 -11    1.75    0.20
  13  -5 -11    0.42    0.13
  12  -5 -11    0.05    0.10
  12   5 -11    0.26    0.08
  11  -5 -11    0.76    0.14
  11   5 -11    0.78    0.10
 -10  -5  11    2.64    0.19
  10  -5 -11    2.65    0.20
  10   5 -11    2.47    0.19
  10   5 -11    2.32    0.15
   9  -5 -11    9.53    0.39
  -9  -5  11   10.28    0.39
   9   5 -11   10.09    0.40
   9   5 -11    9.91    0.33
   8  -5 -11    0.48    0.11
  -8  -5  11    0.52    0.10
   8   5 -11    0.39    0.10
   8   5 -11    0.53    0.08
   7  -5 -11    0.15    0.08
  -7  -5  11    0.00    0.07
   7   5 -11   -0.03    0.05
   7   5 -11    0.05    0.07
  -7   5  11   -0.03    0.05
  -6  -5  11    0.51    0.10
   6  -5 -11    0.48    0.10
   6   5 -11    0.55    0.10
  -6   5  11    0.26    0.05
   6   5 -11    0.62    0.09
   5  -5 -11    0.84    0.11
  -5  -5  11    0.83    0.12
   5   5 -11    0.73    0.09
  -5   5  11    0.68    0.09
  -4  -5  11    1.32    0.12
  -4  -5  11    1.29    0.13
   4  -5 -11    1.22    0.13
  -4   5  11    1.01    0.10
   4   5 -11    1.19    0.11
  -3  -5  11   79.68    2.11
   3  -5 -11   78.94    2.01
  -3  -5  11   79.26    1.93
   3   5 -11   78.66    1.91
  -3   5  11   80.46    1.91
   2  -5 -11   -0.05    0.07
  -2  -5  11   -0.02    0.08
  -2  -5  11    0.01    0.06
   2   5 -11    0.03    0.06
  -2   5  11   -0.03    0.06
  -1  -5  11    0.24    0.07
   1  -5 -11    0.19    0.08
  -1  -5  11    0.26    0.08
  -1   5  11    0.15    0.07
   1   5 -11    0.07    0.06
   0  -5  11    0.51    0.10
   0  -5 -11    0.59    0.10
   0  -5  11    0.72    0.09
   0   5 -11    0.69    0.08
   0   5  11    0.63    0.09
  -1  -5 -11    9.76    0.34
   1  -5  11    9.09    0.31
   1  -5  11    9.67    0.37
  -1   5 -11    9.34    0.31
   1   5  11    9.51    0.33
   2  -5  11    3.59    0.21
   2  -5  11    3.68    0.18
  -2   5 -11    3.74    0.17
   2   5  11    3.62    0.19
   3  -5  11    1.31    0.15
   3  -5  11    1.16    0.11
  -3   5 -11    1.28    0.11
   3   5  11    1.23    0.12
   4  -5  11    0.02    0.07
   4  -5  11    0.12    0.11
  -4   5 -11    0.13    0.07
   4   5  11    0.16    0.09
   5  -5  11    2.56    0.21
   5  -5  11    2.51    0.15
   5   5  11    2.51    0.17
  -5   5 -11    2.37    0.14
   6  -5  11    0.03    0.06
   6  -5  11    0.01    0.09
   6   5  11    0.04    0.07
  -6   5 -11    0.07    0.06
   7  -5  11    0.11    0.12
   7  -5  11    0.06    0.07
  -7   5 -11    0.10    0.06
   7   5  11   -0.07    0.07
  -7   5 -11    0.10    0.09
  -8   5 -11    0.42    0.10
   8   5  11    0.57    0.11
  -9   5 -11    0.21    0.10
   9   5  11   -0.03    0.08
 -10   5 -11    0.84    0.13
  10   5  11    0.89    0.13
  11   5  11    1.85    0.17
 -11   5 -11    1.39    0.16
 -12   5 -11    0.33    0.12
  15  -6 -11    1.38    0.21
  14  -6 -11   -0.09    0.10
  13  -6 -11    0.18    0.12
  12  -6 -11    2.52    0.23
  12   6 -11    2.81    0.18
  11  -6 -11    0.26    0.12
  11   6 -11    0.45    0.09
  10  -6 -11    0.18    0.10
  10   6 -11    0.02    0.08
   9  -6 -11    6.68    0.33
   9   6 -11    6.77    0.27
   8  -6 -11    0.04    0.08
  -8  -6  11    0.04    0.08
   8   6 -11   -0.11    0.06
   8   6 -11    0.01    0.08
  -7  -6  11    3.96    0.22
   7  -6 -11    3.88    0.23
   7   6 -11    3.57    0.19
   7   6 -11    3.75    0.22
   6  -6 -11    2.63    0.19
  -6  -6  11    2.79    0.18
  -6   6  11    2.26    0.14
   6   6 -11    2.50    0.16
   5  -6 -11    0.38    0.10
  -5  -6  11    0.33    0.09
  -5   6  11    0.32    0.08
   5   6 -11    0.41    0.08
   4  -6 -11   13.02    0.46
  -4  -6  11   13.29    0.46
   4   6 -11   13.47    0.42
  -4   6  11   13.45    0.41
   3  -6 -11    0.13    0.09
  -3  -6  11    0.13    0.09
   3   6 -11    0.10    0.07
  -3   6  11    0.01    0.08
  -2  -6  11    6.42    0.26
   2  -6 -11    6.36    0.29
  -2  -6  11    6.38    0.28
  -2   6  11    6.35    0.25
   2   6 -11    6.28    0.25
  -1  -6  11   11.29    0.41
  -1  -6  11   10.64    0.36
   1  -6 -11   10.77    0.39
  -1   6  11   10.60    0.36
   1   6 -11   10.86    0.35
   0  -6  11    0.15    0.08
   0  -6 -11    0.30    0.10
   0  -6  11    0.27    0.09
   0   6  11    0.07    0.07
   0   6 -11    0.18    0.07
   1  -6  11    0.80    0.12
  -1  -6 -11    0.94    0.12
   1  -6  11    0.85    0.10
   1   6  11    0.82    0.10
  -1   6 -11    0.72    0.09
   2  -6  11   -0.07    0.07
   2  -6  11    0.15    0.09
  -2   6 -11    0.02    0.06
   2   6  11    0.06    0.07
   3  -6  11    2.06    0.19
   3  -6  11    1.69    0.13
   3   6  11    1.92    0.16
  -3   6 -11    1.64    0.12
   4  -6  11    1.10    0.11
   4  -6  11    1.18    0.15
  -4   6 -11    1.15    0.11
   4   6  11    1.10    0.12
   5  -6  11    4.35    0.20
   5  -6  11    4.35    0.27
   5   6  11    4.24    0.22
  -5   6 -11    4.36    0.19
   6  -6  11    0.08    0.10
   6  -6  11    0.01    0.07
   6   6  11   -0.07    0.07
  -6   6 -11    0.05    0.06
   7  -6  11    1.74    0.14
   7   6  11    1.57    0.15
  -8   6 -11    0.14    0.10
   8   6  11    0.03    0.09
   9   6  11    3.78    0.22
  -9   6 -11    3.65    0.22
  10   6  11    0.10    0.10
 -10   6 -11   -0.07    0.10
  11   6  11   -0.12    0.09
 -11   6 -11    0.01    0.10
  12   6  11    0.68    0.14
  14  -7 -11    0.45    0.16
  13  -7 -11   -0.03    0.11
  12  -7 -11    0.15    0.12
  12   7 -11   -0.07    0.08
  11  -7 -11    1.11    0.17
  11   7 -11    1.26    0.14
  10  -7 -11   -0.07    0.09
  10   7 -11   -0.01    0.07
   9  -7 -11    0.43    0.13
   9   7 -11    0.33    0.09
   8  -7 -11    2.75    0.22
   8   7 -11    2.95    0.18
  -7  -7  11    1.08    0.13
   7  -7 -11    1.21    0.15
   7   7 -11    1.06    0.13
   7   7 -11    0.96    0.12
   6  -7 -11    4.29    0.26
  -6  -7  11    5.04    0.26
  -6   7  11    4.96    0.21
   6   7 -11    5.07    0.23
  -5  -7  11    8.17    0.34
   5  -7 -11    7.73    0.35
  -5   7  11    8.11    0.29
   5   7 -11    8.24    0.30
  -4  -7  11    1.53    0.16
   4  -7 -11    1.46    0.16
   4   7 -11    1.45    0.13
  -4   7  11    1.41    0.13
  -3  -7  11   13.51    0.48
   3  -7 -11   13.05    0.48
  -3   7  11   13.83    0.43
   3   7 -11   13.59    0.43
   2  -7 -11    1.13    0.14
  -2  -7  11    1.25    0.14
  -2   7  11    1.04    0.12
   2   7 -11    1.20    0.12
   1  -7 -11    3.68    0.22
  -1  -7  11    3.82    0.22
  -1   7  11    3.61    0.19
   1   7 -11    3.62    0.19
   0  -7  11    0.34    0.10
   0  -7 -11    0.30    0.11
   0   7 -11    0.18    0.08
   0   7  11    0.23    0.09
  -1  -7 -11   13.27    0.47
   1  -7  11   13.83    0.50
   1   7  11   13.23    0.44
  -1   7 -11   13.25    0.42
   2  -7  11    4.79    0.26
   2   7  11    4.19    0.22
  -2   7 -11    4.41    0.21
   3  -7  11    3.56    0.24
  -3   7 -11    3.58    0.18
   3   7  11    3.29    0.21
   4  -7  11    4.99    0.29
   4   7  11    5.08    0.25
  -4   7 -11    4.92    0.21
  -5   7 -11    8.59    0.30
   5   7  11    8.46    0.34
   6   7  11    0.07    0.08
  -6   7 -11    0.12    0.07
   7   7  11    1.93    0.18
   8   7  11    1.14    0.14
  -8   7 -11    1.44    0.16
  -9   7 -11    0.07    0.10
   9   7  11   -0.05    0.09
  10   7  11   -0.10    0.09
 -10   7 -11    0.02    0.11
  11   7  11   -0.01    0.10
  13  -8 -11   -0.11    0.12
  13   8 -11    0.02    0.10
  12  -8 -11    0.65    0.16
  12   8 -11    0.65    0.13
  11  -8 -11   -0.11    0.10
  11   8 -11   -0.13    0.07
  10  -8 -11    1.26    0.18
  10   8 -11    1.07    0.13
   9  -8 -11    0.11    0.11
   9   8 -11   -0.11    0.08
   8  -8 -11    0.17    0.11
   8   8 -11    0.26    0.10
   7  -8 -11    5.16    0.30
   7   8 -11    5.20    0.26
   6  -8 -11    5.09    0.29
  -6   8  11    5.31    0.23
   6   8 -11    5.19    0.25
   5  -8 -11    0.55    0.13
   5   8 -11    0.67    0.11
  -5   8  11    0.37    0.09
  -4  -8  11    6.34    0.31
   4  -8 -11    6.27    0.32
   4   8 -11    6.05    0.27
  -4   8  11    6.47    0.26
  -3  -8  11    8.80    0.36
   3  -8 -11    7.73    0.36
  -3   8  11    8.26    0.31
   3   8 -11    8.23    0.31
  -2  -8  11   16.81    0.56
   2  -8 -11   15.68    0.56
   2   8 -11   16.10    0.50
  -2   8  11   15.28    0.49
   1  -8 -11   -0.05    0.09
  -1  -8  11   -0.05    0.09
  -1   8  11    0.06    0.08
   1   8 -11    0.01    0.07
   0  -8 -11    7.16    0.33
   0  -8  11    7.71    0.34
   0   8  11    6.75    0.29
   0   8 -11    7.04    0.28
  -1  -8 -11    0.10    0.10
   1  -8  11    0.06    0.10
   1   8  11    0.17    0.09
  -1   8 -11    0.13    0.08
   2   8  11    0.03    0.08
  -2   8 -11    0.01    0.07
  -3   8 -11   -0.04    0.07
   3   8  11    0.03    0.08
   4   8  11    5.25    0.26
  -4   8 -11    5.46    0.23
   5   8  11    0.15    0.09
  -5   8 -11    0.05    0.07
   6   8  11    2.80    0.20
   7   8  11   -0.05    0.09
   8   8  11    3.84    0.24
  -8   8 -11    4.18    0.26
   9   8  11    0.00    0.09
  -9   8 -11    0.07    0.11
  10   8  11    0.15    0.10
  11  -9 -11    0.24    0.14
  11   9 -11    0.30    0.12
  10  -9 -11    0.10    0.13
  10   9 -11    0.11    0.09
   9  -9 -11   -0.19    0.11
   9   9 -11   -0.04    0.08
   8  -9 -11    1.19    0.18
   8   9 -11    1.32    0.15
   7  -9 -11    2.48    0.24
   7   9 -11    2.57    0.19
   6  -9 -11    1.76    0.19
   6   9 -11    1.73    0.16
   5  -9 -11    0.32    0.13
   5   9 -11    0.07    0.08
  -5   9  11    0.33    0.09
   4  -9 -11    0.51    0.14
  -4   9  11    0.61    0.11
   4   9 -11    0.56    0.11
   3  -9 -11    0.22    0.12
   3   9 -11    0.33    0.10
  -3   9  11    0.36    0.10
   2  -9 -11    5.86    0.31
   2   9 -11    5.47    0.26
  -2   9  11    5.31    0.25
   1  -9 -11    2.75    0.23
   1   9 -11    3.11    0.19
  -1   9  11    2.92    0.20
   0  -9 -11    0.20    0.12
   0   9  11    0.25    0.09
   0   9 -11    0.17    0.09
  -1  -9 -11    2.52    0.22
  -1   9 -11    2.34    0.16
   1   9  11    2.46    0.19
  -2   9 -11    0.63    0.10
   2   9  11    0.57    0.12
   3   9  11    1.13    0.14
  -3   9 -11    1.12    0.12
  -4   9 -11    0.20    0.08
   4   9  11    0.11    0.10
  -5   9 -11    2.24    0.16
   5   9  11    2.17    0.19
   6   9  11    1.20    0.16
   7   9  11    0.04    0.11
   8   9  11    0.93    0.16
   9   9  11   -0.03    0.11
  10 -10 -11    1.03    0.20
  10  10 -11    1.32    0.16
   9 -10 -11    0.11    0.15
   9  10 -11    0.05    0.11
   8 -10 -11    0.77    0.18
   8  10 -11    0.96    0.14
   7 -10 -11    0.72    0.16
   7  10 -11    0.44    0.12
   6 -10 -11    0.52    0.15
   6  10 -11    0.55    0.13
   5 -10 -11    1.58    0.20
   5  10 -11    1.56    0.16
   4 -10 -11    7.37    0.40
  -4  10  11    8.16    0.32
   4  10 -11    7.66    0.33
   3 -10 -11    6.97    0.38
  -3  10  11    7.82    0.32
   3  10 -11    7.96    0.33
   2 -10 -11    1.95    0.21
   2  10 -11    1.70    0.17
  -2  10  11    1.94    0.18
   1 -10 -11    3.22    0.26
   1  10 -11    3.61    0.22
  -1  10  11    3.69    0.22
   0 -10 -11    0.02    0.12
   0  10  11    0.14    0.10
   0  10 -11   -0.04    0.08
  -1  10 -11    1.26    0.13
   1  10  11    1.46    0.15
  -2  10 -11    0.11    0.09
   2  10  11    0.10    0.10
  -3  10 -11    0.10    0.08
   3  10  11   -0.02    0.10
  -4  10 -11    0.16    0.09
   4  10  11    0.11    0.11
   5  10  11   -0.10    0.10
   6  10  11    0.44    0.13
   7  10  11    2.38    0.21
   7 -11 -11    0.56    0.18
   7  11 -11    0.37    0.13
   6 -11 -11    0.15    0.14
   6  11 -11   -0.11    0.10
   5 -11 -11   -0.27    0.13
   5  11 -11    0.01    0.10
   4 -11 -11    1.92    0.24
  -4  11  11    1.40    0.16
   4  11 -11    1.32    0.16
   3 -11 -11    1.02    0.19
  -3  11  11    0.96    0.14
   3  11 -11    0.73    0.14
   2 -11 -11    1.27    0.21
   2  11 -11    1.45    0.16
  -2  11  11    1.27    0.16
   1 -11 -11    1.24    0.20
  -1  11  11    1.24    0.16
   1  11 -11    0.98    0.14
   0 -11 -11    2.33    0.23
   0  11  11    2.16    0.20
   0  11 -11    1.99    0.17
  -1  11 -11    1.34    0.15
   1  11  11    1.33    0.17
   2  11  11    0.71    0.14
  -2  11 -11    0.79    0.13
   3  11  11   -0.01    0.10
  -3  11 -11   -0.15    0.07
   4  11  11   -0.02    0.11
  -4  11 -11    0.32    0.11
  -2  12  11    3.39    0.23
   2  12 -11    3.40    0.24
  -1  12  11    0.73    0.15
   1  12 -11    0.73    0.15
  16   0 -12    0.66    0.14
  15   0 -12   -0.04    0.10
  14   0 -12    1.04    0.14
  13   0 -12    0.03    0.08
  13   0 -12   -0.07    0.07
  12   0 -12    0.15    0.09
  12   0 -12    0.04    0.08
  11   0 -12    0.02    0.07
  10   0 -12   49.70    1.38
   9   0 -12    0.11    0.05
  -9   0  12    0.08    0.06
   9   0 -12    0.13    0.07
   8   0 -12    1.39    0.12
   7   0 -12    0.04    0.05
  -7   0  12    0.01    0.05
   6   0 -12   25.46    0.73
  -6   0  12   26.39    0.67
  -6   0  12   25.66    0.72
   5   0 -12    0.01    0.05
  -5   0  12    0.02    0.05
   5   0 -12    0.03    0.05
  -5   0  12    0.08    0.05
   4   0 -12   60.38    1.60
  -4   0  12   60.46    1.47
   4   0 -12   62.67    1.53
  -3   0  12    0.11    0.06
   3   0 -12    0.01    0.05
   3   0 -12   -0.05    0.04
  -3   0  12    0.01    0.05
  -2   0  12   10.80    0.33
  -2   0  12   10.79    0.33
   2   0 -12   11.38    0.35
   2   0 -12   11.46    0.32
   1   0 -12   -0.05    0.05
  -1   0  12   -0.01    0.04
   1   0 -12    0.00    0.03
  -1   0  12    0.03    0.05
   0   0  12    1.40    0.10
   0   0  12    1.39    0.10
   0   0 -12    1.52    0.12
   0   0 -12    1.44    0.06
   1   0  12    0.15    0.06
   1   0  12   -0.05    0.04
   2   0  12    1.09    0.10
   3   0  12    0.00    0.06
   3   0  12   -0.09    0.04
  -4   0 -12    0.05    0.05
   4   0  12    0.05    0.07
   4   0  12   -0.08    0.05
  -5   0 -12    0.02    0.05
   5   0  12   -0.02    0.07
   5   0  12   -0.06    0.05
   6   0  12   10.38    0.34
   6   0  12   10.15    0.39
  -6   0 -12   10.79    0.33
   7   0  12   -0.07    0.09
   7   0  12    0.07    0.07
  -7   0 -12   -0.04    0.06
  -8   0 -12    8.80    0.30
   8   0  12    8.30    0.36
   8   0  12    8.40    0.29
  -9   0 -12    0.11    0.07
   9   0  12   -0.09    0.06
   9   0  12   -0.03    0.09
  10   0  12    4.37    0.27
 -10   0 -12    5.55    0.24
 -11   0 -12   -0.04    0.07
 -12   0 -12   -0.01    0.09
 -13   0 -12   -0.07    0.08
  16  -1 -12    0.81    0.15
  16   1 -12    0.79    0.15
  15  -1 -12    1.02    0.16
  14  -1 -12    0.03    0.10
  13  -1 -12    1.04    0.14
  13  -1 -12    1.04    0.14
  12  -1 -12    3.56    0.22
  12  -1 -12    3.54    0.21
  12   1 -12    3.97    0.24
  11  -1 -12    2.62    0.18
  11  -1 -12    2.40    0.18
  11   1 -12    2.44    0.19
  10  -1 -12    8.14    0.33
  10  -1 -12    8.13    0.32
 -10  -1  12    8.24    0.27
  10   1 -12    8.25    0.33
  10   1 -12    8.15    0.26
   9  -1 -12    0.47    0.08
   9  -1 -12    0.32    0.09
   9   1 -12    0.45    0.09
   9   1 -12    0.50    0.07
  -9   1  12    0.55    0.07
  -8  -1  12   29.48    0.75
   8  -1 -12   28.42    0.83
   8  -1 -12   28.76    0.82
   8   1 -12   29.31    0.75
  -8   1  12   30.20    0.74
   8   1 -12   29.68    0.85
   7  -1 -12    2.05    0.14
  -7  -1  12    2.09    0.13
  -7  -1  12    2.20    0.12
   7  -1 -12    2.06    0.13
   7   1 -12    2.09    0.12
   7   1 -12    2.06    0.13
  -7   1  12    1.97    0.11
   6  -1 -12    1.69    0.11
   6  -1 -12    1.84    0.13
  -6  -1  12    1.64    0.11
  -6  -1  12    2.01    0.12
  -6   1  12    1.84    0.11
   6   1 -12    1.91    0.12
  -5  -1  12    0.21    0.06
   5  -1 -12    0.30    0.06
  -5  -1  12    0.18    0.06
   5  -1 -12    0.17    0.06
  -5   1  12    0.22    0.06
   5   1 -12    0.22    0.06
   4  -1 -12    0.02    0.05
   4  -1 -12    0.01    0.04
  -4  -1  12    0.04    0.05
  -4  -1  12   -0.03    0.05
   4  -1 -12    0.02    0.05
  -4   1  12   -0.01    0.05
  -4   1  12    0.09    0.05
   3  -1 -12   12.15    0.36
  -3  -1  12   11.78    0.35
   3  -1 -12   12.04    0.35
   3  -1 -12   11.90    0.35
  -3  -1  12   11.67    0.37
  -3   1  12   11.61    0.34
  -3   1  12   11.80    0.34
   2  -1 -12    3.22    0.13
  -2  -1  12    3.37    0.15
   2  -1 -12    3.11    0.14
  -2  -1  12    3.11    0.15
  -2   1  12    3.08    0.14
  -2   1  12    3.33    0.13
  -1  -1  12   24.73    0.65
   1  -1 -12   25.24    0.68
   1  -1 -12   24.85    0.64
  -1  -1  12   24.86    0.70
   1   1 -12   25.38    0.63
  -1   1  12   24.67    0.65
  -1   1  12   24.57    0.67
   0  -1  12   40.98    1.04
   0  -1  12   41.75    1.13
   0  -1 -12   42.90    1.04
   0  -1 -12   43.35    1.11
   0   1  12   40.93    1.04
   0   1  12   41.98    1.10
   1  -1  12   59.71    1.44
   1  -1  12   58.23    1.58
  -1  -1 -12   62.61    1.56
   1   1  12   58.65    1.55
   1   1  12   58.40    1.44
   2  -1  12    0.34    0.08
  -2  -1 -12    0.19    0.06
  -2  -1 -12    0.24    0.05
   2  -1  12    0.28    0.06
   2   1  12    0.21    0.06
   2   1  12    0.16    0.06
   3  -1  12   17.16    0.55
  -3  -1 -12   18.01    0.45
   3  -1  12   17.36    0.49
   3   1  12   17.64    0.53
   3   1  12   17.86    0.50
   4  -1  12    0.00    0.07
   4  -1  12   -0.03    0.06
  -4  -1 -12   -0.01    0.05
   4   1  12    0.06    0.06
   4   1  12   -0.02    0.05
   5  -1  12    0.21    0.09
  -5  -1 -12    0.18    0.06
   5  -1  12    0.25    0.07
  -5   1 -12    0.22    0.07
   5   1  12    0.27    0.07
   5   1  12    0.13    0.07
   6  -1  12    3.18    0.16
   6  -1  12    2.87    0.19
  -6  -1 -12    3.16    0.15
   6   1  12    3.12    0.17
   6   1  12    2.87    0.19
  -6   1 -12    3.22    0.17
   7  -1  12    0.79    0.13
  -7  -1 -12    0.86    0.09
   7  -1  12    0.88    0.10
  -7   1 -12    1.04    0.11
   7   1  12    1.01    0.13
   7   1  12    0.85    0.10
   8  -1  12    1.87    0.13
   8  -1  12    1.78    0.18
  -8  -1 -12    1.63    0.13
   8   1  12    1.98    0.18
  -8   1 -12    1.83    0.13
   8   1  12    1.85    0.13
   9  -1  12    1.94    0.14
  -9  -1 -12    2.05    0.14
   9  -1  12    2.06    0.20
   9   1  12    2.17    0.15
   9   1  12    2.14    0.19
  -9   1 -12    1.84    0.15
 -10  -1 -12    0.31    0.09
 -10   1 -12    0.42    0.10
  10   1  12    0.32    0.09
  10   1  12    0.21    0.12
 -11  -1 -12    1.01    0.12
 -11   1 -12    0.72    0.12
 -12  -1 -12    0.01    0.09
 -12   1 -12    0.11    0.10
 -13  -1 -12    0.04    0.10
 -13   1 -12   -0.07    0.10
  16  -2 -12    1.52    0.20
 -16   2  12    1.33    0.16
  15  -2 -12    0.34    0.12
 -15   2  12    0.23    0.09
  14  -2 -12    3.16    0.23
 -14   2  12    3.53    0.20
  13  -2 -12    4.00    0.24
  13  -2 -12    3.61    0.24
 -13   2  12    3.99    0.21
  12  -2 -12    0.29    0.10
  12  -2 -12    0.25    0.10
  12   2 -12    0.30    0.10
 -12   2  12    0.43    0.09
  11  -2 -12    9.21    0.35
  11  -2 -12    8.14    0.35
  11   2 -12    9.50    0.38
 -11   2  12    8.99    0.30
  10  -2 -12    0.51    0.11
  10  -2 -12    0.55    0.09
  10   2 -12    0.64    0.11
  10   2 -12    0.66    0.08
 -10   2  12    0.67    0.08
  -9  -2  12    2.71    0.15
   9  -2 -12    2.69    0.18
   9  -2 -12    2.59    0.16
   9   2 -12    2.93    0.18
   9   2 -12    2.64    0.14
  -8  -2  12    0.01    0.07
   8  -2 -12   -0.14    0.06
   8  -2 -12   -0.12    0.05
  -8  -2  12   -0.07    0.05
   8   2 -12   -0.07    0.04
   8   2 -12    0.08    0.07
  -8   2  12    0.06    0.05
  -7  -2  12    0.01    0.05
  -7  -2  12    0.02    0.06
   7  -2 -12   -0.03    0.05
   7  -2 -12    0.03    0.05
   7   2 -12   -0.01    0.05
   7   2 -12    0.10    0.05
  -7   2  12    0.00    0.02
  -6  -2  12    0.02    0.06
   6  -2 -12    0.02    0.04
   6  -2 -12    0.07    0.06
  -6  -2  12    0.06    0.06
   6   2 -12    0.10    0.05
  -6   2  12    0.13    0.05
   6   2 -12    0.06    0.05
   5  -2 -12   22.04    0.59
  -5  -2  12   20.87    0.62
  -5  -2  12   21.60    0.57
   5  -2 -12   20.67    0.59
   5  -2 -12   21.82    0.61
   5   2 -12   20.42    0.62
  -5   2  12   21.28    0.56
  -4  -2  12    2.16    0.12
   4  -2 -12    2.04    0.10
   4  -2 -12    1.91    0.13
   4  -2 -12    2.03    0.11
  -4  -2  12    2.01    0.12
  -4   2  12    2.07    0.12
  -3  -2  12   -0.01    0.05
   3  -2 -12   -0.01    0.04
   3  -2 -12   -0.01    0.03
   3  -2 -12   -0.04    0.04
  -3  -2  12   -0.03    0.05
  -3   2  12    0.00    0.04
   2  -2 -12    6.83    0.23
   2  -2 -12    7.12    0.22
   2  -2 -12    6.83    0.21
  -2  -2  12    6.54    0.25
  -2  -2  12    6.84    0.24
  -2   2  12    6.93    0.21
  -2   2  12    7.55    0.24
  -1  -2  12    5.00    0.20
   1  -2 -12    4.97    0.17
  -1  -2  12    4.88    0.20
   1  -2 -12    4.73    0.18
  -1   2  12    5.03    0.16
  -1   2  12    4.87    0.19
   0  -2  12    4.47    0.19
   0  -2 -12    4.88    0.17
   0  -2 -12    5.04    0.16
   0  -2  12    4.59    0.20
   0   2  12    4.67    0.15
   0   2  12    4.74    0.19
  -1  -2 -12    0.26    0.05
  -1  -2 -12    0.38    0.06
  -1  -2 -12    0.32    0.04
   1  -2  12    0.26    0.06
   1  -2  12    0.75    0.10
   1   2  12    0.35    0.07
   1   2  12    0.52    0.06
   2  -2  12   27.14    0.71
   2  -2  12   26.18    0.79
  -2  -2 -12   29.31    0.75
  -2  -2 -12   27.84    0.64
   2   2  12   27.21    0.75
   2   2  12   26.47    0.72
   3  -2  12    8.91    0.29
  -3  -2 -12    9.39    0.25
   3  -2  12    8.79    0.34
   3   2  12    9.11    0.31
   3   2  12    8.78    0.30
   4  -2  12    4.14    0.22
   4  -2  12    4.62    0.19
  -4  -2 -12    4.88    0.16
   4   2  12    4.40    0.20
   4   2  12    4.53    0.20
   5  -2  12    9.15    0.30
  -5  -2 -12    9.49    0.28
   5  -2  12    8.73    0.37
   5   2  12    9.51    0.34
   5   2  12    9.80    0.32
   6  -2  12   12.43    0.38
  -6  -2 -12   12.50    0.35
   6  -2  12   12.07    0.45
  -6   2 -12   11.72    0.38
   6   2  12   12.69    0.40
   7  -2  12    0.15    0.07
  -7  -2 -12    0.14    0.06
   7  -2  12    0.21    0.11
  -7   2 -12    0.11    0.07
   7   2  12    0.11    0.07
   7   2  12    0.10    0.08
   8  -2  12   -0.05    0.06
  -8  -2 -12   -0.04    0.06
   8  -2  12    0.06    0.10
  -8   2 -12   -0.03    0.07
   8   2  12   -0.15    0.08
   8   2  12    0.02    0.08
   9  -2  12    0.18    0.11
  -9  -2 -12    0.13    0.07
  -9   2 -12    0.17    0.09
   9   2  12    0.14    0.10
   9   2  12    0.19    0.08
 -10  -2 -12    3.97    0.20
 -10   2 -12    4.21    0.22
  10   2  12    4.29    0.22
 -11   2 -12    0.23    0.09
 -12   2 -12    0.12    0.10
 -13   2 -12    0.83    0.14
  16  -3 -12    0.67    0.16
 -16   3  12    0.33    0.12
  15  -3 -12    0.18    0.11
 -15   3  12    0.10    0.10
  14  -3 -12    0.20    0.11
 -14   3  12    0.44    0.10
  13  -3 -12    1.24    0.16
  13  -3 -12    1.14    0.15
 -13   3  12    1.14    0.12
  12  -3 -12    1.36    0.15
  12  -3 -12    1.29    0.14
 -12   3  12    1.17    0.12
  11  -3 -12    0.63    0.10
  11  -3 -12    0.57    0.12
 -11   3  12    0.43    0.08
  11   3 -12    0.47    0.11
  11   3 -12    0.45    0.08
  10  -3 -12    1.41    0.13
  10  -3 -12    1.48    0.15
 -10   3  12    1.50    0.12
  10   3 -12    1.73    0.12
  10   3 -12    1.81    0.17
   9  -3 -12    5.83    0.27
   9  -3 -12    6.37    0.25
  -9  -3  12    6.29    0.28
  -9   3  12    6.36    0.22
   9   3 -12    5.93    0.22
   9   3 -12    5.81    0.28
   8  -3 -12    1.90    0.13
  -8  -3  12    1.56    0.13
   8  -3 -12    1.79    0.15
  -8  -3  12    1.84    0.14
   8   3 -12    1.63    0.12
  -8   3  12    1.74    0.11
  -8   3  12    1.74    0.11
   8   3 -12    1.60    0.14
  -7  -3  12    0.12    0.07
  -7  -3  12    0.20    0.06
   7  -3 -12    0.08    0.07
   7  -3 -12    0.16    0.05
   7   3 -12    0.15    0.07
   7   3 -12    0.24    0.06
  -7   3  12    0.11    0.05
  -6  -3  12    2.85    0.16
  -6  -3  12    2.99    0.15
   6  -3 -12    3.12    0.14
   6  -3 -12    2.95    0.17
   6   3 -12    2.82    0.16
   6   3 -12    2.80    0.14
  -6   3  12    2.90    0.14
  -5  -3  12    4.15    0.19
   5  -3 -12    4.11    0.20
   5  -3 -12    4.13    0.15
  -5  -3  12    4.03    0.20
  -5   3  12    4.14    0.17
   5   3 -12    4.53    0.18
   4  -3 -12   16.57    0.44
   4  -3 -12   15.72    0.48
  -4  -3  12   16.24    0.50
  -4  -3  12   15.70    0.46
  -4   3  12   15.91    0.45
   4   3 -12   16.11    0.46
  -3  -3  12   -0.04    0.05
  -3  -3  12    0.06    0.06
   3  -3 -12    0.07    0.02
   3  -3 -12    0.01    0.05
  -3   3  12   -0.04    0.05
   3   3 -12   -0.07    0.05
  -2  -3  12    1.69    0.12
   2  -3 -12    1.78    0.12
  -2  -3  12    1.69    0.12
  -2   3  12    1.71    0.11
  -1  -3  12    2.64    0.16
  -1  -3  12    2.48    0.14
   1  -3 -12    2.69    0.14
  -1   3  12    2.53    0.14
   0  -3  12    6.05    0.25
   0  -3 -12    6.56    0.23
   0  -3  12    6.07    0.22
   0   3  12    5.80    0.23
   1  -3  12    2.30    0.16
   1  -3  12    2.59    0.14
  -1  -3 -12    2.58    0.14
   1   3  12    2.45    0.09
   1   3  12    2.42    0.14
   2  -3  12    4.13    0.22
   2  -3  12    4.18    0.18
   2   3  12    4.33    0.15
   2   3  12    4.15    0.19
   3  -3  12    6.20    0.23
   3  -3  12    6.49    0.28
   3   3  12    5.97    0.25
   3   3  12    6.00    0.22
   4  -3  12    4.84    0.20
   4  -3  12    5.05    0.26
   4   3  12    4.95    0.22
   5  -3  12    6.47    0.24
   5  -3  12    6.43    0.30
   5   3  12    6.58    0.26
   6  -3  12   14.34    0.42
   6  -3  12   14.22    0.52
   6   3  12   14.06    0.44
  -6   3 -12   14.11    0.44
   7  -3  12    0.04    0.11
   7  -3  12    0.10    0.06
  -7   3 -12    0.19    0.08
   7   3  12    0.22    0.08
   8  -3  12    7.69    0.27
   8  -3  12    7.37    0.36
  -8   3 -12    7.21    0.29
   8   3  12    7.12    0.28
   9   3  12    4.49    0.22
  -9   3 -12    3.94    0.22
  10   3  12    0.48    0.10
 -10   3 -12    0.38    0.10
  11   3  12    0.17    0.09
 -11   3 -12    0.05    0.09
 -12   3 -12    0.02    0.10
 -13   3 -12    0.16    0.12
  16  -4 -12    2.76    0.27
  15  -4 -12    1.83    0.21
  14  -4 -12    0.44    0.14
  13  -4 -12    2.18    0.20
  12  -4 -12    2.22    0.20
  11  -4 -12    1.38    0.15
  11   4 -12    1.43    0.13
  10  -4 -12    1.70    0.17
  10   4 -12    1.85    0.17
  10   4 -12    1.70    0.13
   9  -4 -12   19.82    0.65
  -9  -4  12   21.83    0.67
   9   4 -12   21.19    0.67
   9   4 -12   19.88    0.57
  -8  -4  12    3.53    0.20
   8  -4 -12    3.34    0.21
   8   4 -12    3.08    0.16
   8   4 -12    3.26    0.20
  -7  -4  12    7.92    0.32
   7  -4 -12    7.88    0.33
   7   4 -12    8.19    0.33
   7   4 -12    8.24    0.28
  -7   4  12    8.42    0.26
  -6  -4  12   23.59    0.72
  -6  -4  12   24.41    0.66
   6  -4 -12   23.96    0.71
   6   4 -12   23.45    0.73
   6   4 -12   23.90    0.65
  -6   4  12   24.93    0.63
  -5  -4  12    4.60    0.21
   5  -4 -12    4.49    0.22
  -5  -4  12    4.34    0.21
  -5   4  12    4.46    0.18
   5   4 -12    4.49    0.19
   4  -4 -12   19.26    0.58
  -4  -4  12   19.85    0.60
  -4  -4  12   19.22    0.55
  -4   4  12   19.89    0.54
   4   4 -12   19.50    0.54
  -3  -4  12    0.53    0.09
  -3  -4  12    0.66    0.09
   3  -4 -12    0.78    0.09
  -3   4  12    0.83    0.09
   3   4 -12    0.64    0.08
   2  -4 -12    0.24    0.07
  -2  -4  12    0.34    0.08
  -2  -4  12    0.20    0.08
   2   4 -12    0.30    0.07
   1  -4 -12    5.53    0.22
  -1  -4  12    5.66    0.22
  -1  -4  12    5.27    0.24
  -1   4  12    5.32    0.21
   1   4 -12    5.61    0.21
   0  -4  12    3.52    0.20
   0  -4  12    3.65    0.18
   0  -4 -12    3.65    0.18
   0   4  12    3.38    0.17
   0   4 -12    3.60    0.17
   1  -4  12   -0.03    0.06
   1  -4  12   -0.12    0.07
  -1  -4 -12   -0.02    0.06
   1   4  12    0.10    0.07
   2  -4  12    2.78    0.15
   2  -4  12    2.65    0.19
   2   4  12    2.88    0.17
   3  -4  12    7.34    0.27
   3  -4  12    7.62    0.33
   3   4  12    7.51    0.29
   4  -4  12   70.07    1.70
   4  -4  12   70.43    1.92
   4   4  12   69.65    1.72
   5  -4  12   10.54    0.42
   5  -4  12   10.24    0.34
   5   4  12   10.55    0.36
   6  -4  12    2.45    0.21
   6  -4  12    2.34    0.15
   6   4  12    2.69    0.17
   7  -4  12    4.29    0.28
   7  -4  12    4.38    0.20
  -7   4 -12    4.39    0.22
   7   4  12    4.32    0.22
   8  -4  12   10.78    0.35
   8   4  12   10.50    0.37
  -8   4 -12   10.22    0.37
   9   4  12    0.14    0.09
  -9   4 -12    0.16    0.09
  10   4  12    1.72    0.15
 -10   4 -12    1.54    0.15
 -11   4 -12    0.68    0.13
  11   4  12    0.96    0.13
 -12   4 -12    1.45    0.16
  15  -5 -12    0.05    0.14
  14  -5 -12    1.26    0.18
  13  -5 -12    0.32    0.13
  12  -5 -12    0.62    0.14
  12   5 -12    0.68    0.10
  11  -5 -12    0.00    0.10
  11   5 -12    0.06    0.07
  10  -5 -12    0.71    0.13
  10   5 -12    0.99    0.11
   9  -5 -12    2.90    0.21
  -9  -5  12    2.94    0.20
   9   5 -12    3.21    0.21
   9   5 -12    2.80    0.17
  -8  -5  12    0.91    0.12
   8  -5 -12    0.95    0.14
   8   5 -12    0.83    0.12
   8   5 -12    0.83    0.09
  -7  -5  12    5.52    0.26
   7  -5 -12    5.72    0.28
  -7   5  12    5.70    0.21
   7   5 -12    5.47    0.27
   7   5 -12    5.47    0.23
   6  -5 -12   12.61    0.46
  -6  -5  12   13.95    0.47
  -6   5  12   14.19    0.40
   6   5 -12   13.81    0.42
  -5  -5  12    0.10    0.08
  -5  -5  12    0.00    0.07
   5  -5 -12    0.18    0.09
   5   5 -12    0.13    0.07
  -5   5  12   -0.03    0.06
  -4  -5  12    8.67    0.34
  -4  -5  12    9.10    0.32
   4  -5 -12    8.91    0.34
   4   5 -12    8.88    0.30
  -4   5  12    8.99    0.30
  -3  -5  12    7.60    0.30
   3  -5 -12    7.42    0.30
  -3  -5  12    7.43    0.28
   3   5 -12    7.33    0.27
  -3   5  12    7.27    0.27
  -2  -5  12   15.45    0.51
  -2  -5  12   15.22    0.46
   2  -5 -12   14.90    0.48
   2   5 -12   15.57    0.45
  -2   5  12   15.26    0.45
  -1  -5  12   57.40    1.43
  -1  -5  12   57.90    1.57
   1  -5 -12   58.07    1.49
   1   5 -12   58.20    1.42
  -1   5  12   56.88    1.42
   0  -5 -12   11.63    0.40
   0  -5  12   12.02    0.38
   0  -5  12   11.78    0.43
   0   5  12   11.93    0.38
   0   5 -12   11.87    0.37
   1  -5  12   12.71    0.46
   1  -5  12   13.01    0.40
  -1  -5 -12   13.13    0.42
  -1   5 -12   12.33    0.39
   1   5  12   12.64    0.40
   2  -5  12    8.17    0.29
   2  -5  12    8.44    0.35
   2   5  12    8.37    0.31
  -2   5 -12    8.12    0.28
   3  -5  12    1.91    0.15
   3  -5  12    1.79    0.17
  -3   5 -12    1.79    0.13
   3   5  12    1.93    0.15
   4  -5  12    3.16    0.22
   4  -5  12    2.96    0.17
  -4   5 -12    2.96    0.16
   4   5  12    2.99    0.19
   5  -5  12    3.70    0.25
   5  -5  12    4.25    0.20
   5   5  12    4.07    0.22
  -5   5 -12    4.09    0.19
   6  -5  12    1.07    0.11
   6  -5  12    1.21    0.16
   6   5  12    1.11    0.12
  -6   5 -12    1.10    0.10
   7  -5  12    2.57    0.16
   7   5  12    2.25    0.17
  -7   5 -12    2.29    0.18
  -7   5 -12    2.35    0.15
   8   5  12    0.60    0.11
  -8   5 -12    0.60    0.11
  -9   5 -12    0.94    0.14
   9   5  12    0.91    0.12
  10   5  12    0.02    0.09
 -10   5 -12    0.28    0.11
 -11   5 -12   -0.06    0.10
  11   5  12    0.00    0.09
  14  -6 -12    0.68    0.16
  13  -6 -12    0.81    0.16
  12  -6 -12   -0.22    0.10
  12   6 -12   -0.10    0.07
  11  -6 -12    3.24    0.25
  11   6 -12    3.24    0.19
  10  -6 -12   18.75    0.65
  10   6 -12   18.02    0.55
   9  -6 -12    0.25    0.11
   9   6 -12    0.35    0.09
   8  -6 -12    0.27    0.11
  -8  -6  12    0.37    0.10
   8   6 -12    0.26    0.10
   8   6 -12    0.25    0.08
   7  -6 -12    0.31    0.11
  -7  -6  12    0.42    0.10
   7   6 -12    0.45    0.08
   7   6 -12    0.23    0.09
  -6  -6  12    3.34    0.21
   6  -6 -12    2.92    0.21
   6   6 -12    3.05    0.17
  -6   6  12    3.46    0.17
  -5  -6  12    4.25    0.23
   5  -6 -12    4.15    0.23
   5   6 -12    4.05    0.20
  -5   6  12    4.24    0.19
   4  -6 -12    0.16    0.09
  -4  -6  12    0.01    0.09
   4   6 -12    0.24    0.08
  -4   6  12    0.18    0.08
  -3  -6  12   51.03    1.41
   3  -6 -12   51.39    1.36
  -3  -6  12   51.00    1.29
  -3   6  12   50.37    1.27
   3   6 -12   51.05    1.28
  -2  -6  12   19.29    0.61
  -2  -6  12   18.51    0.55
   2  -6 -12   18.80    0.59
   2   6 -12   18.32    0.54
  -2   6  12   18.37    0.54
   1  -6 -12   18.28    0.57
  -1  -6  12   18.70    0.54
  -1  -6  12   18.25    0.60
   1   6 -12   18.10    0.53
  -1   6  12   18.07    0.53
   0  -6 -12    1.30    0.14
   0  -6  12    1.19    0.12
   0  -6  12    1.29    0.14
   0   6  12    1.37    0.13
   0   6 -12    1.45    0.12
  -1  -6 -12   11.07    0.39
   1  -6  12   10.07    0.35
   1  -6  12   11.09    0.42
  -1   6 -12   10.20    0.34
   1   6  12   10.06    0.36
   2  -6  12    5.48    0.24
   2  -6  12    5.43    0.28
   2   6  12    5.55    0.24
  -2   6 -12    5.35    0.22
   3  -6  12   15.16    0.46
   3  -6  12   15.73    0.55
  -3   6 -12   14.96    0.45
   3   6  12   15.04    0.48
   4  -6  12    0.08    0.10
   4  -6  12   -0.06    0.07
   4   6  12   -0.05    0.07
  -4   6 -12   -0.06    0.07
   5  -6  12    0.98    0.11
   5  -6  12    0.96    0.16
   5   6  12    1.04    0.12
  -5   6 -12    1.06    0.11
   6  -6  12    0.34    0.09
   6   6  12    0.25    0.09
  -6   6 -12    0.29    0.08
   7  -6  12    0.05    0.07
   7   6  12    0.19    0.09
  -8   6 -12    1.15    0.14
   8   6  12    1.12    0.13
   9   6  12   -0.05    0.08
  -9   6 -12    0.18    0.10
 -10   6 -12    2.04    0.19
  10   6  12    1.66    0.16
  11   6  12    0.38    0.12
 -11   6 -12    0.62    0.14
  13  -7 -12    0.08    0.13
  12  -7 -12    0.69    0.16
  12   7 -12    0.75    0.12
  11  -7 -12    0.00    0.11
  11   7 -12    0.10    0.08
  10  -7 -12    0.18    0.12
  10   7 -12    0.12    0.09
   9  -7 -12    0.54    0.14
   9   7 -12    0.66    0.11
   8  -7 -12    2.91    0.23
   8   7 -12    3.51    0.19
   7  -7 -12    0.30    0.11
   7   7 -12    0.53    0.10
   6  -7 -12    6.17    0.31
  -6  -7  12    6.37    0.30
   6   7 -12    6.68    0.28
  -6   7  12    6.81    0.25
   5  -7 -12    0.25    0.10
  -5  -7  12    0.27    0.10
   5   7 -12    0.34    0.09
  -5   7  12    0.13    0.08
   4  -7 -12    4.97    0.27
  -4  -7  12    5.29    0.27
   4   7 -12    5.60    0.24
  -4   7  12    5.13    0.23
   3  -7 -12    6.35    0.31
  -3  -7  12    6.92    0.31
  -3   7  12    6.96    0.27
   3   7 -12    6.80    0.27
   2  -7 -12   -0.05    0.09
  -2  -7  12   -0.01    0.08
   2   7 -12    0.05    0.08
  -2   7  12    0.18    0.09
   1  -7 -12    0.51    0.12
  -1  -7  12    0.75    0.12
  -1   7  12    0.68    0.11
   1   7 -12    0.63    0.10
   0  -7 -12   -0.15    0.08
   0  -7  12   -0.02    0.10
   0   7  12   -0.08    0.07
   0   7 -12    0.02    0.07
   1  -7  12    6.72    0.32
  -1  -7 -12    7.20    0.31
  -1   7 -12    6.93    0.27
   1   7  12    6.54    0.28
   2  -7  12   13.72    0.44
   2  -7  12   14.29    0.52
  -2   7 -12   13.42    0.43
   2   7  12   13.51    0.45
   3  -7  12    6.96    0.28
   3  -7  12    7.05    0.35
  -3   7 -12    7.27    0.27
   3   7  12    6.91    0.29
   4  -7  12    2.89    0.18
  -4   7 -12    2.80    0.17
   4   7  12    2.78    0.19
   5  -7  12    0.64    0.10
   5   7  12    0.55    0.12
  -5   7 -12    0.55    0.10
   6  -7  12    1.62    0.14
  -6   7 -12    1.59    0.13
   6   7  12    1.62    0.15
   7   7  12    0.62    0.12
  -8   7 -12    3.41    0.22
   8   7  12    2.94    0.21
   9   7  12    0.01    0.09
  -9   7 -12   -0.15    0.10
  10   7  12    0.18    0.10
  12  -8 -12    1.31    0.21
  12   8 -12    1.15    0.14
  11  -8 -12    1.51    0.20
  11   8 -12    1.53    0.16
  10  -8 -12   -0.10    0.10
  10   8 -12   -0.02    0.08
   9  -8 -12    0.76    0.16
   9   8 -12    0.79    0.12
   8  -8 -12    0.29    0.12
   8   8 -12    0.24    0.10
   7  -8 -12    0.26    0.12
   7   8 -12    0.04    0.09
   6  -8 -12    0.57    0.14
   6   8 -12    0.37    0.09
  -6   8  12    0.41    0.09
   5  -8 -12    0.65    0.14
   5   8 -12    0.64    0.11
  -5   8  12    0.57    0.10
   4  -8 -12    0.03    0.11
  -4   8  12    0.17    0.09
   4   8 -12    0.13    0.09
   3  -8 -12    5.77    0.31
  -3   8  12    5.71    0.25
   3   8 -12    5.87    0.26
   2  -8 -12    0.62    0.14
   2   8 -12    0.70    0.11
  -2   8  12    0.47    0.11
   1  -8 -12    0.24    0.11
   1   8 -12    0.61    0.10
  -1   8  12    0.42    0.11
   0  -8 -12    0.08    0.10
   0   8 -12    0.07    0.08
   0   8  12    0.01    0.08
  -1  -8 -12    0.33    0.11
   1   8  12    0.36    0.10
  -1   8 -12    0.24    0.08
   2   8  12    0.00    0.08
  -2   8 -12   -0.01    0.07
  -3   8 -12    0.03    0.07
   3   8  12   -0.09    0.08
  -4   8 -12    0.04    0.07
   4   8  12    0.05    0.09
   5   8  12    1.46    0.15
  -5   8 -12    1.52    0.14
   6   8  12    0.16    0.11
   7   8  12    1.22    0.16
   8   8  12    0.16    0.12
  -8   8 -12    0.56    0.14
   9   8  12    0.15    0.11
  11  -9 -12    0.30    0.16
  11   9 -12    0.56    0.13
  10  -9 -12    0.58    0.17
  10   9 -12    0.59    0.13
   9  -9 -12    0.09    0.12
   9   9 -12    0.09    0.10
   8  -9 -12    0.40    0.15
   8   9 -12    0.54    0.12
   7  -9 -12    1.36    0.19
   7   9 -12    1.63    0.16
   6  -9 -12    0.02    0.12
   6   9 -12    0.03    0.09
   5  -9 -12    0.22    0.12
   5   9 -12    0.07    0.10
  -5   9  12    0.30    0.09
   4  -9 -12    2.22    0.22
  -4   9  12    2.32    0.18
   4   9 -12    2.65    0.19
   3  -9 -12    0.56    0.14
  -3   9  12    0.72    0.12
   3   9 -12    0.82    0.12
   2  -9 -12    0.72    0.14
  -2   9  12    0.83    0.12
   2   9 -12    0.70    0.11
   1  -9 -12    2.50    0.23
   1   9 -12    2.67    0.19
  -1   9  12    2.74    0.20
   0  -9 -12    3.07    0.23
   0   9  12    3.08    0.20
   0   9 -12    3.00    0.19
  -1  -9 -12   -0.21    0.09
  -1   9 -12   -0.03    0.08
   1   9  12    0.07    0.10
  -2   9 -12    0.44    0.10
   2   9  12    0.40    0.11
   3   9  12    1.42    0.16
  -3   9 -12    1.20    0.13
   4   9  12    0.87    0.14
  -4   9 -12    0.93    0.12
   5   9  12    0.55    0.13
  -5   9 -12    0.69    0.11
   6   9  12    0.17    0.11
   7   9  12   -0.08    0.10
   8   9  12    1.93    0.19
   9 -10 -12    1.60    0.22
   9  10 -12    1.95    0.19
   8 -10 -12    1.85    0.22
   8  10 -12    1.78    0.19
   7 -10 -12    1.52    0.20
   7  10 -12    1.82    0.18
   6 -10 -12    2.43    0.24
   6  10 -12    2.68    0.20
   5 -10 -12    0.27    0.14
   5  10 -12    0.28    0.12
   4 -10 -12    4.71    0.31
  -4  10  12    5.01    0.25
   4  10 -12    4.64    0.26
   3 -10 -12    0.40    0.14
  -3  10  12    0.57    0.12
   3  10 -12    0.42    0.11
   2 -10 -12    0.15    0.13
  -2  10  12    0.10    0.10
   2  10 -12    0.21    0.10
   1 -10 -12    0.09    0.12
   1  10 -12    0.10    0.09
  -1  10  12    0.06    0.10
   0 -10 -12   -0.05    0.11
   0  10  12   -0.05    0.09
   0  10 -12    0.03    0.09
   1  10  12    0.11    0.10
  -1  10 -12    0.09    0.09
   2  10  12    0.91    0.14
  -2  10 -12    0.67    0.11
   3  10  12    0.03    0.10
  -3  10 -12    0.01    0.08
  -4  10 -12    0.25    0.10
   4  10  12    0.15    0.11
   5  10  12    0.02    0.11
   6  10  12    0.62    0.15
   7 -11 -12    2.08    0.25
   7  11 -12    2.50    0.22
   6 -11 -12    1.03    0.19
   6  11 -12    1.48    0.18
   5 -11 -12    0.10    0.15
   5  11 -12    0.03    0.11
   4 -11 -12   -0.11    0.13
  -4  11  12    0.06    0.11
   4  11 -12    0.02    0.10
   3 -11 -12    1.73    0.23
   3  11 -12    1.82    0.19
  -3  11  12    1.65    0.17
   2 -11 -12    2.19    0.24
   2  11 -12    2.68    0.21
  -2  11  12    2.70    0.22
   1 -11 -12    0.00    0.13
  -1  11  12   -0.06    0.10
   1  11 -12   -0.02    0.09
   0 -11 -12    0.75    0.17
   0  11  12    0.64    0.14
   0  11 -12    0.84    0.14
   1  11  12    1.76    0.18
  -1  11 -12    1.44    0.15
   2  11  12   -0.08    0.10
  -2  11 -12    0.07    0.10
   3  11  12    0.18    0.13
  -3  11 -12    0.25    0.10
  16   0 -13   -0.03    0.11
  15   0 -13    0.38    0.12
  14   0 -13   -0.13    0.08
  13   0 -13   -0.02    0.08
  12   0 -13   -0.08    0.07
  12   0 -13   -0.03    0.08
  11   0 -13   11.77    0.43
  11   0 -13   11.53    0.43
  10   0 -13    0.02    0.08
  10   0 -13    0.19    0.08
   9   0 -13   31.23    0.90
   9   0 -13   30.72    0.88
   9   0 -13   31.23    0.79
  -8   0  13   -0.07    0.05
   8   0 -13    0.00    0.06
   8   0 -13    0.04    0.07
   7   0 -13    2.85    0.16
   7   0 -13    3.13    0.17
  -7   0  13    3.09    0.15
  -6   0  13    0.03    0.05
  -6   0  13    0.00    0.05
   6   0 -13    0.01    0.05
   6   0 -13   -0.02    0.05
   5   0 -13   19.27    0.53
  -5   0  13   18.64    0.51
   5   0 -13   18.20    0.54
   4   0 -13    0.02    0.04
  -4   0  13   -0.04    0.05
   4   0 -13    0.00    0.05
  -4   0  13    0.00    0.03
  -3   0  13   25.37    0.68
  -3   0  13   25.68    0.71
   3   0 -13   26.85    0.68
   2   0 -13   -0.03    0.03
  -2   0  13   -0.08    0.05
  -2   0  13   -0.05    0.05
  -1   0  13   30.45    0.82
  -1   0  13   29.78    0.78
   1   0 -13   30.26    0.75
   0   0  13   -0.01    0.05
   0   0  13   -0.03    0.05
   1   0  13    1.38    0.11
   1   0  13    1.35    0.11
   2   0  13    0.00    0.03
   2   0  13   -0.04    0.05
   3   0  13    7.49    0.29
   3   0  13    8.60    0.28
   4   0  13    0.07    0.06
   4   0  13    0.00    0.08
  -4   0 -13    0.01    0.05
   5   0  13   66.33    1.66
  -5   0 -13   71.65    1.59
   5   0  13   66.76    1.83
  -6   0 -13    0.04    0.06
   6   0  13    0.08    0.07
   6   0  13   -0.13    0.08
   7   0  13   15.92    0.48
  -7   0 -13   16.51    0.47
   7   0  13   15.86    0.55
   8   0  13   -0.06    0.09
   8   0  13   -0.02    0.07
  -8   0 -13    0.07    0.07
   9   0  13    0.36    0.12
  -9   0 -13    0.26    0.08
   9   0  13    0.23    0.08
 -10   0 -13    0.13    0.09
  10   0  13   -0.04    0.10
 -11   0 -13    0.10    0.09
 -12   0 -13    0.00    0.09
 -13   0 -13    0.43    0.11
  16  -1 -13    3.13    0.26
  16   1 -13    3.52    0.26
  15  -1 -13    0.12    0.10
  14  -1 -13    3.76    0.25
  13  -1 -13    0.48    0.11
  13  -1 -13    0.46    0.11
  12  -1 -13    0.79    0.12
  12  -1 -13    0.77    0.11
  12   1 -13    0.91    0.13
  11  -1 -13    1.88    0.17
  11  -1 -13    1.81    0.15
  11   1 -13    1.66    0.16
 -10  -1  13    0.41    0.07
  10  -1 -13    0.55    0.09
  10  -1 -13    0.33    0.09
  10   1 -13    0.42    0.10
  10   1 -13    0.56    0.07
   9  -1 -13    4.32    0.23
  -9  -1  13    4.22    0.18
   9  -1 -13    4.27    0.21
   9   1 -13    4.37    0.18
  -9   1  13    4.73    0.18
   9   1 -13    4.51    0.22
   8  -1 -13   37.13    1.04
   8  -1 -13   38.15    1.06
  -8  -1  13   38.59    0.96
   8   1 -13   38.65    0.96
   8   1 -13   39.16    1.08
   7  -1 -13    1.95    0.13
   7  -1 -13    2.23    0.15
  -7  -1  13    1.94    0.14
  -7  -1  13    2.31    0.13
   7   1 -13    2.03    0.14
  -7   1  13    2.28    0.12
  -6  -1  13    7.55    0.25
  -6  -1  13    7.67    0.28
   6  -1 -13    7.43    0.26
   6  -1 -13    7.51    0.28
  -6   1  13    7.69    0.25
   6   1 -13    7.49    0.28
   5  -1 -13    0.18    0.06
  -5  -1  13    0.00    0.05
  -5  -1  13    0.01    0.05
   5  -1 -13    0.02    0.04
  -5   1  13   -0.04    0.05
   5   1 -13    0.00    0.05
  -4  -1  13   11.76    0.35
  -4  -1  13   10.21    0.33
   4  -1 -13   10.82    0.34
   4  -1 -13   10.58    0.33
   4  -1 -13   10.75    0.34
  -4   1  13   10.76    0.33
  -4   1  13   10.13    0.32
  -3  -1  13    1.81    0.11
   3  -1 -13    2.31    0.12
   3  -1 -13    1.75    0.10
  -3  -1  13    1.71    0.12
   3  -1 -13    1.78    0.11
  -3   1  13    1.85    0.12
  -3   1  13    1.87    0.10
   2  -1 -13   31.12    0.81
  -2  -1  13   30.74    0.80
   2  -1 -13   31.85    0.85
  -2  -1  13   31.11    0.86
  -2   1  13   30.39    0.80
   2   1 -13   33.06    0.80
  -2   1  13   31.77    0.84
  -1  -1  13    0.03    0.06
   1  -1 -13   -0.04    0.03
  -1  -1  13    0.08    0.05
   1  -1 -13   -0.02    0.05
  -1   1  13    0.07    0.06
   1   1 -13    0.06    0.03
  -1   1  13   -0.02    0.04
   0  -1 -13    3.34    0.15
   0  -1  13    3.17    0.16
   0  -1  13    2.97    0.15
   0   1  13    3.41    0.16
   0   1  13    3.42    0.14
  -1  -1 -13    0.69    0.08
   1  -1  13    0.88    0.09
   1  -1  13    0.71    0.09
   1   1  13    0.66    0.07
   1   1  13    0.67    0.08
   2  -1  13   -0.05    0.05
  -2  -1 -13   -0.01    0.04
   2  -1  13   -0.04    0.06
   2   1  13   -0.07    0.05
   2   1  13   -0.01    0.05
  -3  -1 -13    3.04    0.13
   3  -1  13    2.76    0.17
   3  -1  13    3.31    0.16
   3   1  13    3.00    0.16
   3   1  13    3.13    0.16
   4  -1  13    9.77    0.37
  -4  -1 -13   10.09    0.29
   4  -1  13    9.87    0.32
   4   1  13    9.59    0.34
   4   1  13   10.06    0.33
  -5  -1 -13    5.55    0.20
   5  -1  13    5.59    0.27
   5  -1  13    5.63    0.23
   5   1  13    5.46    0.23
  -5   1 -13    5.46    0.22
   6  -1  13    7.14    0.27
   6  -1  13    6.74    0.31
  -6  -1 -13    7.42    0.25
   6   1  13    7.13    0.27
  -6   1 -13    7.50    0.27
   6   1  13    7.08    0.30
   7  -1  13    6.93    0.26
  -7  -1 -13    7.15    0.25
   7  -1  13    6.83    0.32
  -7   1 -13    6.79    0.26
   7   1  13    7.04    0.27
   7   1  13    6.82    0.30
  -8  -1 -13    0.47    0.09
   8  -1  13    0.54    0.13
   8  -1  13    0.34    0.08
  -8   1 -13    0.57    0.09
   8   1  13    0.58    0.12
   8   1  13    0.42    0.09
   9  -1  13    1.38    0.17
  -9  -1 -13    1.70    0.14
   9  -1  13    1.38    0.12
   9   1  13    1.87    0.18
  -9   1 -13    1.68    0.15
   9   1  13    1.75    0.14
 -10  -1 -13    0.13    0.08
  10   1  13    0.23    0.09
 -10   1 -13    0.38    0.10
 -11  -1 -13    1.00    0.13
 -11   1 -13    0.78    0.12
 -12   1 -13    1.40    0.15
 -13   1 -13    0.60    0.13
  16  -2 -13    0.12    0.12
  15  -2 -13    0.29    0.12
  14  -2 -13    0.69    0.14
  13  -2 -13    7.17    0.33
  13  -2 -13    7.02    0.34
  12  -2 -13    4.10    0.25
  12  -2 -13    4.53    0.24
  11  -2 -13    0.08    0.07
  11  -2 -13    0.12    0.08
  11   2 -13    0.02    0.09
  10  -2 -13    0.08    0.07
  10  -2 -13    0.29    0.09
  10   2 -13    0.16    0.08
  10   2 -13    0.12    0.06
  -9  -2  13    2.98    0.16
   9  -2 -13    2.70    0.19
   9  -2 -13    2.78    0.16
   9   2 -13    2.96    0.15
   9   2 -13    2.93    0.19
   8  -2 -13    6.46    0.25
   8  -2 -13    6.71    0.28
  -8  -2  13    6.11    0.24
  -8  -2  13    6.61    0.27
   8   2 -13    6.42    0.23
   8   2 -13    6.60    0.28
  -8   2  13    6.71    0.22
   7  -2 -13    0.15    0.07
   7  -2 -13    0.07    0.05
  -7  -2  13    0.01    0.06
  -7  -2  13    0.09    0.07
   7   2 -13   -0.01    0.05
   7   2 -13    0.06    0.06
  -7   2  13   -0.04    0.05
   6  -2 -13    5.63    0.23
  -6  -2  13    5.66    0.23
   6  -2 -13    5.24    0.20
  -6  -2  13    5.73    0.22
  -6   2  13    5.74    0.20
   6   2 -13    5.26    0.23
   6   2 -13    5.60    0.21
  -5  -2  13    0.26    0.07
   5  -2 -13    0.33    0.05
  -5  -2  13    0.24    0.06
   5  -2 -13    0.34    0.07
  -5   2  13    0.25    0.06
   5   2 -13    0.26    0.06
  -4  -2  13    7.66    0.28
  -4  -2  13    7.56    0.26
   4  -2 -13    7.95    0.27
   4  -2 -13    7.83    0.24
  -4   2  13    7.47    0.26
  -3  -2  13    9.12    0.32
  -3  -2  13    9.11    0.30
   3  -2 -13    9.53    0.30
   3  -2 -13    9.43    0.28
  -3   2  13    9.72    0.30
  -3   2  13    9.70    0.28
   2  -2 -13    0.35    0.04
  -2  -2  13    0.16    0.07
   2  -2 -13    0.32    0.05
   2  -2 -13    0.28    0.06
  -2   2  13    0.24    0.06
  -2   2  13    0.30    0.04
  -1  -2  13    0.47    0.08
  -1  -2  13    0.42    0.07
   1  -2 -13    0.56    0.06
  -1   2  13    0.43    0.07
  -1   2  13    0.43    0.05
   0  -2  13    3.36    0.16
   0  -2 -13    3.54    0.14
   0  -2  13    3.21    0.17
   0   2  13    3.34    0.12
   0   2  13    3.32    0.16
   1  -2  13    0.07    0.05
   1  -2  13   -0.09    0.07
  -1  -2 -13    0.11    0.03
   1   2  13    0.09    0.05
   1   2  13   -0.01    0.05
   2  -2  13   19.50    0.54
  -2  -2 -13   20.11    0.48
   2  -2  13   19.43    0.61
   2   2  13   20.01    0.56
   2   2  13   18.94    0.55
   3  -2  13   15.56    0.52
   3  -2  13   16.34    0.47
  -3  -2 -13   16.44    0.41
   3   2  13   15.81    0.48
   3   2  13   15.88    0.47
   4  -2  13   13.07    0.47
   4  -2  13   14.21    0.41
  -4  -2 -13   13.98    0.36
   4   2  13   13.45    0.42
   4   2  13   13.52    0.43
  -5  -2 -13    0.36    0.07
   5  -2  13    0.27    0.07
   5  -2  13    0.39    0.11
   5   2  13    0.46    0.09
   5   2  13    0.18    0.08
  -6  -2 -13    8.72    0.27
   6  -2  13    7.98    0.35
   6  -2  13    8.05    0.29
  -6   2 -13    8.15    0.30
   6   2  13    8.29    0.31
   7  -2  13    2.05    0.14
   7  -2  13    2.17    0.19
  -7   2 -13    2.03    0.15
   7   2  13    2.31    0.16
   8  -2  13    5.96    0.24
   8  -2  13    5.89    0.31
   8   2  13    5.69    0.25
  -8   2 -13    5.60    0.25
  -9   2 -13    0.22    0.09
   9   2  13    0.05    0.08
 -10   2 -13    1.56    0.14
  10   2  13    1.51    0.14
 -11   2 -13    1.76    0.16
 -12   2 -13    4.77    0.26
 -13   2 -13    2.43    0.20
  16  -3 -13    4.70    0.31
  15  -3 -13    5.61    0.32
 -15   3  13    5.49    0.26
  14  -3 -13    3.90    0.27
 -14   3  13    4.35    0.22
  13  -3 -13    1.56    0.18
 -13   3  13    1.50    0.13
  12  -3 -13    2.11    0.19
 -12   3  13    2.43    0.16
  11  -3 -13    0.06    0.08
  11   3 -13    0.06    0.06
 -11   3  13    0.03    0.06
  11   3 -13    0.08    0.09
  10  -3 -13   11.30    0.42
  10   3 -13   10.74    0.35
  10   3 -13   11.50    0.43
 -10   3  13   11.28    0.34
   9  -3 -13    0.40    0.09
  -9  -3  13    0.22    0.08
   9   3 -13    0.29    0.07
   9   3 -13    0.35    0.09
  -8  -3  13    0.67    0.10
  -8  -3  13    0.37    0.08
   8  -3 -13    0.60    0.10
   8   3 -13    0.48    0.09
   8   3 -13    0.34    0.07
  -8   3  13    0.58    0.07
  -7  -3  13    1.01    0.10
  -7  -3  13    1.07    0.11
   7  -3 -13    1.05    0.11
   7   3 -13    1.03    0.12
   7   3 -13    1.10    0.10
   6  -3 -13    0.49    0.09
  -6  -3  13    0.77    0.10
  -6  -3  13    0.71    0.10
  -6   3  13    0.69    0.08
   6   3 -13    0.90    0.09
   6   3 -13    0.68    0.10
  -5  -3  13    0.77    0.09
  -5  -3  13    0.73    0.09
   5  -3 -13    0.72    0.09
   5   3 -13    0.75    0.09
  -5   3  13    0.70    0.08
   4  -3 -13   10.53    0.34
  -4  -3  13    9.90    0.33
  -4  -3  13    9.97    0.35
  -4   3  13   10.05    0.32
   4   3 -13    9.73    0.32
  -3  -3  13    5.89    0.23
  -3  -3  13    6.01    0.25
   3  -3 -13    6.16    0.24
  -3   3  13    6.48    0.23
  -2  -3  13    0.84    0.09
   2  -3 -13    0.83    0.08
  -2  -3  13    0.82    0.09
  -2   3  13    0.85    0.09
   1  -3 -13    2.32    0.13
  -1  -3  13    2.38    0.15
  -1  -3  13    2.25    0.14
  -1   3  13    2.29    0.14
   0  -3  13    0.07    0.06
   0  -3 -13    0.15    0.06
   0  -3  13    0.05    0.07
   0   3  13    0.01    0.06
   1  -3  13    3.51    0.20
   1  -3  13    3.27    0.17
  -1  -3 -13    3.70    0.16
   1   3  13    3.44    0.17
   2  -3  13    9.34    0.31
   2  -3  13    9.27    0.35
   2   3  13    9.22    0.32
   3  -3  13    0.40    0.08
   3  -3  13    0.21    0.09
   3   3  13    0.28    0.08
   4  -3  13    0.31    0.10
   4  -3  13    0.33    0.08
   4   3  13    0.34    0.09
   5  -3  13    0.20    0.11
   5  -3  13    0.09    0.07
   5   3  13    0.31    0.09
   6  -3  13    0.10    0.11
   6  -3  13    0.12    0.07
  -6   3 -13    0.18    0.08
   6   3  13    0.17    0.08
   7  -3  13    0.18    0.07
   7  -3  13    0.15    0.11
  -7   3 -13    0.24    0.09
   7   3  13    0.17    0.08
   8  -3  13   15.00    0.56
   8  -3  13   14.95    0.45
  -8   3 -13   14.54    0.47
   8   3  13   14.48    0.47
  -9   3 -13    1.63    0.15
   9   3  13    1.86    0.16
  10   3  13    2.53    0.18
 -10   3 -13    2.24    0.17
 -11   3 -13    0.95    0.14
  11   3  13    1.13    0.14
 -12   3 -13    0.08    0.10
  15  -4 -13    2.88    0.25
  14  -4 -13    1.75    0.20
  13  -4 -13    0.61    0.14
  12  -4 -13    3.31    0.23
  11  -4 -13    2.56    0.21
  11   4 -13    2.56    0.15
  10  -4 -13    0.16    0.09
  10   4 -13    0.09    0.06
  10   4 -13    0.12    0.09
   9  -4 -13    0.09    0.08
  -9  -4  13   -0.04    0.07
   9   4 -13    0.04    0.06
   9   4 -13    0.04    0.08
  -8  -4  13    0.09    0.08
   8  -4 -13    0.02    0.08
   8   4 -13    0.03    0.06
   8   4 -13   -0.04    0.07
   7  -4 -13    1.76    0.16
  -7  -4  13    1.87    0.14
  -7  -4  13    1.90    0.16
   7   4 -13    1.70    0.15
   7   4 -13    1.97    0.13
  -6  -4  13    0.27    0.08
   6  -4 -13    0.26    0.08
  -6  -4  13    0.35    0.09
   6   4 -13    0.38    0.08
   6   4 -13    0.40    0.09
  -6   4  13    0.31    0.07
  -5  -4  13    6.69    0.26
   5  -4 -13    6.21    0.27
  -5  -4  13    6.79    0.28
  -5   4  13    6.48    0.24
   5   4 -13    6.74    0.25
  -4  -4  13    7.22    0.27
   4  -4 -13    6.51    0.27
  -4  -4  13    6.90    0.28
  -4   4  13    6.77    0.25
   4   4 -13    7.34    0.26
  -3  -4  13    0.80    0.10
  -3  -4  13    0.73    0.10
   3  -4 -13    0.84    0.10
   3   4 -13    0.77    0.09
  -3   4  13    0.67    0.09
  -2  -4  13    0.02    0.06
  -2  -4  13    0.06    0.07
   2  -4 -13   -0.03    0.06
  -2   4  13   -0.05    0.06
   2   4 -13   -0.07    0.05
  -1  -4  13    3.85    0.18
   1  -4 -13    3.88    0.19
  -1  -4  13    3.85    0.20
  -1   4  13    3.62    0.18
   1   4 -13    3.41    0.17
   0  -4  13    1.41    0.13
   0  -4  13    1.33    0.13
   0  -4 -13    1.32    0.13
   0   4  13    1.33    0.12
   1  -4  13    0.27    0.09
  -1  -4 -13    0.38    0.08
   1  -4  13    0.30    0.08
   1   4  13    0.23    0.07
   2  -4  13   20.85    0.67
   2  -4  13   21.47    0.59
   2   4  13   20.51    0.59
   3  -4  13   11.04    0.36
   3  -4  13   10.81    0.42
   3   4  13   11.04    0.37
   4  -4  13    9.24    0.32
   4  -4  13    9.37    0.39
   4   4  13    9.15    0.34
   5  -4  13    0.02    0.10
   5  -4  13    0.03    0.07
   5   4  13   -0.03    0.07
   6  -4  13    0.47    0.14
   6  -4  13    0.81    0.10
   6   4  13    0.63    0.10
   7  -4  13    3.70    0.27
   7  -4  13    3.95    0.19
  -7   4 -13    3.88    0.22
   7   4  13    3.91    0.21
   8  -4  13    0.92    0.11
  -8   4 -13    0.98    0.13
   8   4  13    0.72    0.11
   9   4  13    0.53    0.11
  -9   4 -13    0.49    0.11
  10   4  13    0.27    0.10
 -10   4 -13    0.33    0.11
 -11   4 -13    1.20    0.15
  11   4  13    1.20    0.15
 -12   4 -13    0.58    0.13
  15  -5 -13    1.71    0.22
  14  -5 -13   -0.01    0.11
  13  -5 -13    2.05    0.21
  12  -5 -13    0.73    0.14
  12   5 -13    0.70    0.10
  11  -5 -13    0.03    0.09
  11   5 -13    0.07    0.07
  10  -5 -13    0.13    0.10
  10   5 -13    0.09    0.06
  -9  -5  13    1.75    0.17
   9  -5 -13    1.09    0.14
   9   5 -13    1.15    0.15
   9   5 -13    1.32    0.12
   8  -5 -13   -0.02    0.08
  -8  -5  13    0.04    0.09
   8   5 -13    0.07    0.08
   8   5 -13   -0.11    0.05
   7  -5 -13    0.08    0.09
  -7  -5  13    0.43    0.10
   7   5 -13    0.41    0.10
   7   5 -13    0.35    0.08
  -6  -5  13    2.18    0.17
   6  -5 -13    2.23    0.18
   6   5 -13    2.04    0.14
  -6   5  13    2.10    0.14
  -5  -5  13    0.55    0.10
   5  -5 -13    0.75    0.11
  -5  -5  13    0.66    0.10
   5   5 -13    0.67    0.09
  -5   5  13    0.54    0.09
  -4  -5  13    1.15    0.12
   4  -5 -13    1.27    0.13
  -4  -5  13    1.23    0.13
  -4   5  13    1.16    0.11
   4   5 -13    1.23    0.11
   3  -5 -13   13.97    0.47
  -3  -5  13   14.25    0.49
  -3  -5  13   14.53    0.45
  -3   5  13   14.73    0.44
   3   5 -13   14.53    0.44
   2  -5 -13   12.06    0.41
  -2  -5  13   11.44    0.38
  -2  -5  13   11.60    0.42
   2   5 -13   12.10    0.38
  -2   5  13   12.21    0.38
  -1  -5  13    4.23    0.23
  -1  -5  13    4.40    0.22
   1  -5 -13    4.42    0.22
   1   5 -13    4.60    0.21
  -1   5  13    4.49    0.21
   0  -5  13   23.31    0.73
   0  -5  13   23.44    0.66
   0  -5 -13   24.06    0.68
   0   5  13   23.30    0.66
   0   5 -13   23.67    0.65
   1  -5  13    8.68    0.31
  -1  -5 -13    9.33    0.33
   1  -5  13    8.95    0.37
  -1   5 -13    9.06    0.31
   1   5  13    8.23    0.31
   2  -5  13    9.33    0.33
   2  -5  13    9.87    0.39
  -2   5 -13    9.05    0.32
   2   5  13    9.56    0.34
   3  -5  13    7.54    0.34
   3  -5  13    7.34    0.28
  -3   5 -13    7.58    0.28
   3   5  13    7.10    0.29
   4  -5  13    8.41    0.31
   4  -5  13    8.38    0.37
   4   5  13    8.67    0.33
  -4   5 -13    8.25    0.30
   5  -5  13   -0.11    0.11
   5  -5  13   -0.08    0.07
  -5   5 -13   -0.04    0.07
   5   5  13    0.08    0.09
   6  -5  13    7.78    0.29
   6  -5  13    7.67    0.37
  -6   5 -13    7.38    0.27
   6   5  13    6.86    0.30
   7  -5  13    0.17    0.08
  -7   5 -13    0.05    0.09
  -7   5 -13    0.18    0.08
   7   5  13    0.11    0.09
   8   5  13    0.30    0.10
  -8   5 -13    0.33    0.11
  -9   5 -13    0.69    0.13
   9   5  13    0.60    0.12
  10   5  13    0.64    0.13
 -10   5 -13    0.67    0.13
  11   5  13    0.05    0.10
 -11   5 -13    0.04    0.10
  14  -6 -13    0.21    0.14
  13  -6 -13   -0.07    0.11
  12  -6 -13    1.54    0.20
  12   6 -13    1.68    0.15
  11  -6 -13    0.14    0.11
  11   6 -13    0.13    0.08
  10  -6 -13    2.95    0.24
  10   6 -13    2.52    0.18
   9  -6 -13   11.75    0.46
   9   6 -13   11.22    0.39
   8  -6 -13    0.98    0.15
   8   6 -13    1.06    0.12
   7  -6 -13    7.79    0.35
  -7  -6  13    8.16    0.34
   7   6 -13    7.79    0.30
   7   6 -13    7.85    0.34
  -6  -6  13    6.40    0.29
   6  -6 -13    6.61    0.31
   6   6 -13    6.34    0.26
  -6   6  13    6.71    0.25
   5  -6 -13    0.01    0.09
  -5  -6  13   -0.14    0.07
  -5   6  13    0.06    0.07
   5   6 -13    0.06    0.08
   4  -6 -13    5.58    0.27
  -4  -6  13    5.72    0.27
   4   6 -13    5.65    0.24
  -4   6  13    5.77    0.24
  -3  -6  13   12.67    0.42
  -3  -6  13   12.42    0.45
   3  -6 -13   12.60    0.45
   3   6 -13   12.91    0.41
  -3   6  13   12.93    0.41
   2  -6 -13    7.88    0.32
  -2  -6  13    7.92    0.33
  -2  -6  13    7.48    0.30
  -2   6  13    7.37    0.29
   2   6 -13    7.89    0.29
   1  -6 -13   22.57    0.68
  -1  -6  13   22.19    0.64
  -1  -6  13   23.73    0.72
   1   6 -13   21.93    0.63
  -1   6  13   21.87    0.63
   0  -6 -13   15.23    0.49
   0  -6  13   14.96    0.47
   0  -6  13   14.51    0.51
   0   6 -13   14.53    0.45
   0   6  13   14.28    0.46
   1  -6  13    0.05    0.09
   1  -6  13    0.06    0.07
  -1  -6 -13   -0.02    0.08
  -1   6 -13   -0.02    0.07
   1   6  13   -0.02    0.08
   2  -6  13    1.54    0.14
   2  -6  13    1.38    0.16
  -2   6 -13    1.38    0.13
   2   6  13    1.67    0.15
   3  -6  13    9.80    0.40
   3  -6  13    9.07    0.33
   3   6  13    8.21    0.33
  -3   6 -13    9.37    0.32
   4  -6  13    0.33    0.09
   4  -6  13    0.55    0.14
   4   6  13    0.50    0.10
  -4   6 -13    0.46    0.09
   5  -6  13    6.86    0.27
   5   6  13    6.40    0.28
  -5   6 -13    6.35    0.26
   6  -6  13    4.54    0.22
   6   6  13    4.35    0.24
  -6   6 -13    4.51    0.21
   7  -6  13    0.33    0.09
   7   6  13    0.37    0.11
   8   6  13   -0.07    0.09
  -8   6 -13    0.07    0.10
  -9   6 -13    0.34    0.12
   9   6  13    0.34    0.11
 -10   6 -13    0.04    0.11
  10   6  13    0.20    0.11
  11   6  13    0.00    0.10
  13  -7 -13    0.24    0.14
  12  -7 -13    0.04    0.13
  12   7 -13    0.10    0.09
  11  -7 -13    0.68    0.15
  11   7 -13    0.76    0.12
  10  -7 -13    0.05    0.11
  10   7 -13   -0.06    0.08
   9  -7 -13    0.16    0.12
   9   7 -13    0.08    0.09
   8  -7 -13    0.62    0.13
   8   7 -13    0.43    0.10
   7  -7 -13   -0.16    0.09
   7   7 -13    0.08    0.08
   6  -7 -13    3.40    0.24
   6   7 -13    3.36    0.19
  -6   7  13    3.48    0.18
  -5  -7  13    0.08    0.09
   5  -7 -13    0.13    0.10
   5   7 -13    0.20    0.08
  -5   7  13    0.25    0.09
   4  -7 -13    0.87    0.14
  -4  -7  13    0.91    0.14
   4   7 -13    0.69    0.10
  -4   7  13    1.00    0.12
   3  -7 -13    0.16    0.10
  -3  -7  13    0.08    0.09
   3   7 -13    0.29    0.09
  -3   7  13    0.12    0.08
   2  -7 -13    1.07    0.14
  -2  -7  13    1.17    0.14
  -2   7  13    0.98    0.12
   2   7 -13    1.27    0.13
  -1  -7  13    4.32    0.25
   1  -7 -13    4.51    0.25
   1   7 -13    4.07    0.21
  -1   7  13    4.30    0.22
   0  -7 -13   -0.09    0.08
   0  -7  13    0.06    0.09
   0  -7  13   -0.15    0.08
   0   7 -13    0.08    0.07
   0   7  13    0.07    0.08
  -1  -7 -13    1.97    0.18
   1  -7  13    1.75    0.16
   1  -7  13    1.69    0.18
  -1   7 -13    1.87    0.15
   1   7  13    1.75    0.15
   2  -7  13    6.30    0.27
  -2   7 -13    6.15    0.25
   2   7  13    6.32    0.28
   3  -7  13    5.95    0.26
   3   7  13    5.46    0.27
  -3   7 -13    5.72    0.24
   4  -7  13   -0.08    0.07
  -4   7 -13   -0.08    0.07
   4   7  13   -0.03    0.08
   5  -7  13    0.16    0.09
   5   7  13    0.14    0.09
  -5   7 -13    0.20    0.08
   6  -7  13    0.18    0.09
  -6   7 -13    0.05    0.07
   6   7  13    0.06    0.10
   7   7  13    0.95    0.14
  -8   7 -13   -0.03    0.10
   8   7  13   -0.07    0.09
   9   7  13    2.79    0.21
  -9   7 -13    2.53    0.22
  10   7  13    1.05    0.16
  12  -8 -13    0.37    0.17
  12   8 -13    0.59    0.12
  11  -8 -13    0.59    0.16
  11   8 -13    0.44    0.11
  10  -8 -13    0.19    0.13
  10   8 -13    0.04    0.09
   9  -8 -13    1.96    0.21
   9   8 -13    1.83    0.17
   8  -8 -13    0.12    0.12
   8   8 -13    0.04    0.09
   7  -8 -13    0.67    0.14
   7   8 -13    0.49    0.11
   6  -8 -13    0.16    0.11
   6   8 -13    0.44    0.11
   5  -8 -13    0.25    0.12
   5   8 -13    0.65    0.11
  -5   8  13    0.63    0.10
   4  -8 -13    1.45    0.17
  -4   8  13    1.64    0.15
   4   8 -13    1.63    0.15
   3  -8 -13   -0.09    0.09
   3   8 -13    0.03    0.07
  -3   8  13   -0.01    0.08
   2  -8 -13    0.51    0.12
  -2   8  13    0.57    0.11
   2   8 -13    0.52    0.10
   1  -8 -13    0.73    0.14
  -1   8  13    0.68    0.12
   1   8 -13    0.74    0.11
   0  -8 -13    5.22    0.28
   0   8  13    5.05    0.24
   0   8 -13    4.78    0.24
  -1  -8 -13   -0.06    0.10
  -1   8 -13   -0.09    0.07
   1   8  13    0.06    0.08
   2   8  13    1.12    0.13
  -2   8 -13    1.19    0.13
   3   8  13    1.01    0.13
  -3   8 -13    0.88    0.11
  -4   8 -13    1.39    0.13
   4   8  13    1.33    0.15
  -5   8 -13    0.24    0.09
   5   8  13    0.15    0.11
   6   8  13    0.04    0.09
   7   8  13    0.29    0.12
   8   8  13    0.15    0.11
  -8   8 -13    0.32    0.12
   9   8  13    0.13    0.12
  10  -9 -13    0.55    0.17
  10   9 -13    0.54    0.13
   9  -9 -13    0.19    0.13
   9   9 -13    0.54    0.13
   8  -9 -13    0.46    0.16
   8   9 -13    0.39    0.11
   7  -9 -13    0.04    0.11
   7   9 -13   -0.03    0.09
   6  -9 -13    0.26    0.13
   6   9 -13    0.28    0.10
   5  -9 -13   -0.10    0.10
  -5   9  13    0.08    0.09
   5   9 -13    0.11    0.10
   4  -9 -13    0.42    0.14
   4   9 -13    0.51    0.11
  -4   9  13    0.33    0.10
   3  -9 -13    2.38    0.23
   3   9 -13    2.70    0.19
  -3   9  13    2.79    0.19
   2  -9 -13    0.85    0.16
  -2   9  13    0.87    0.12
   2   9 -13    1.21    0.14
   1  -9 -13    1.30    0.17
  -1   9  13    1.31    0.15
   1   9 -13    1.41    0.15
   0  -9 -13    0.68    0.14
   0   9  13    0.59    0.12
   0   9 -13    0.50    0.10
  -1   9 -13    0.74    0.12
   1   9  13    0.64    0.12
   2   9  13    0.68    0.12
  -2   9 -13    0.97    0.13
   3   9  13    0.60    0.12
  -3   9 -13    0.58    0.11
   4   9  13    0.23    0.11
  -4   9 -13    0.12    0.09
  -5   9 -13   -0.02    0.08
   5   9  13   -0.16    0.08
   6   9  13    0.46    0.12
   7   9  13    0.26    0.12
   9 -10 -13    1.21    0.21
   9  10 -13    1.27    0.17
   8 -10 -13    1.22    0.20
   8  10 -13    1.37    0.17
   7 -10 -13    2.72    0.26
   7  10 -13    2.17    0.21
   6 -10 -13    1.11    0.18
   6  10 -13    1.25    0.15
   5 -10 -13    0.62    0.16
   5  10 -13    1.15    0.16
   4 -10 -13    0.77    0.16
  -4  10  13    0.86    0.13
   4  10 -13    1.01    0.15
   3 -10 -13   -0.10    0.11
   3  10 -13   -0.01    0.09
  -3  10  13    0.00    0.10
   2 -10 -13    0.02    0.13
  -2  10  13    0.20    0.10
   2  10 -13    0.04    0.09
   1 -10 -13    6.06    0.34
   1  10 -13    5.41    0.27
  -1  10  13    5.07    0.28
   0 -10 -13    0.03    0.12
   0  10  13    0.02    0.10
   0  10 -13   -0.08    0.09
  -1  10 -13    0.23    0.10
   1  10  13    0.27    0.12
   2  10  13    1.66    0.17
  -2  10 -13    1.69    0.15
   3  10  13    4.47    0.27
  -3  10 -13    4.39    0.24
   4  10  13    0.92    0.15
  -4  10 -13    0.76    0.12
   5  10  13    0.01    0.11
   5 -11 -13   -0.05    0.13
   5  11 -13    0.14    0.12
   4 -11 -13    1.03    0.19
   4  11 -13    0.98    0.15
  -4  11  13    0.87    0.14
   3 -11 -13    6.67    0.40
  -3  11  13    6.97    0.32
   3  11 -13    7.39    0.34
   2 -11 -13    2.72    0.26
   2  11 -13    3.41    0.24
  -2  11  13    3.00    0.23
   1 -11 -13    0.00    0.13
   1  11 -13    0.14    0.10
  -1  11  13   -0.13    0.10
   0  11 -13    0.52    0.12
   0  11  13    0.38    0.13
  -1  11 -13   -0.05    0.09
   1  11  13   -0.04    0.11
  -2  11 -13    0.09    0.10
   2  11  13    0.07    0.12
  16   0 -14    0.11    0.10
  15   0 -14   -0.03    0.09
  14   0 -14    0.80    0.13
  13   0 -14   -0.06    0.08
  12   0 -14    4.74    0.26
  12   0 -14    5.12    0.27
  11   0 -14    0.04    0.07
  11   0 -14    0.00    0.08
  10   0 -14   10.27    0.39
  10   0 -14   10.66    0.39
   9   0 -14    0.06    0.07
  -9   0  14    0.09    0.05
   9   0 -14    0.06    0.05
   9   0 -14   -0.03    0.07
  -8   0  14    9.86    0.31
   8   0 -14    9.96    0.36
   8   0 -14    9.55    0.35
   7   0 -14   -0.05    0.05
   7   0 -14    0.30    0.08
  -7   0  14   -0.07    0.05
  -6   0  14   24.70    0.71
   6   0 -14   24.58    0.71
   6   0 -14   24.88    0.69
  -6   0  14   24.96    0.66
  -5   0  14    0.03    0.03
   5   0 -14    0.01    0.05
  -5   0  14   -0.01    0.05
   5   0 -14   -0.02    0.04
   4   0 -14    6.45    0.23
   4   0 -14    6.37    0.23
  -4   0  14    5.50    0.22
  -4   0  14    6.20    0.23
   3   0 -14   -0.03    0.04
  -3   0  14   -0.12    0.05
  -3   0  14    0.04    0.06
  -2   0  14   71.77    1.84
  -2   0  14   67.83    1.70
   2   0 -14   72.31    1.73
  -1   0  14    0.00    0.05
  -1   0  14    0.14    0.06
   0   0  14    6.57    0.24
   0   0  14    6.46    0.24
   1   0  14   -0.03    0.06
   1   0  14    0.00    0.06
   2   0  14    4.03    0.20
   2   0  14    5.37    0.21
   3   0  14   -0.01    0.05
   3   0  14   -0.02    0.06
   4   0  14   13.67    0.43
  -4   0 -14   14.99    0.41
   4   0  14   14.02    0.47
  -5   0 -14   -0.01    0.06
   5   0  14    0.11    0.09
   5   0  14    0.07    0.07
  -6   0 -14    4.53    0.20
   6   0  14    4.18    0.24
   6   0  14    4.28    0.21
   7   0  14   -0.04    0.07
   7   0  14    0.00    0.09
  -7   0 -14    0.00    0.07
   8   0  14    0.57    0.13
   8   0  14    0.40    0.09
  -8   0 -14    0.37    0.09
   9   0  14   -0.07    0.07
   9   0  14   -0.05    0.10
  -9   0 -14    0.06    0.07
 -10   0 -14    0.79    0.12
 -11   0 -14   -0.04    0.09
  16  -1 -14    0.34    0.13
  16   1 -14    0.44    0.14
  15  -1 -14    0.13    0.11
  15   1 -14   -0.01    0.10
  14  -1 -14    0.44    0.12
  13  -1 -14    0.40    0.11
  13  -1 -14    0.37    0.11
  12  -1 -14    0.47    0.10
  12  -1 -14    0.38    0.11
  12   1 -14    0.40    0.10
  11  -1 -14    0.08    0.08
  11  -1 -14    0.08    0.08
  11   1 -14    0.00    0.08
  10  -1 -14    9.76    0.38
  10  -1 -14   10.12    0.37
  10   1 -14    9.93    0.31
  10   1 -14   10.08    0.39
   9  -1 -14    8.51    0.32
   9  -1 -14    7.98    0.33
  -9  -1  14    8.42    0.29
   9   1 -14    8.24    0.27
  -9   1  14    9.18    0.28
   9   1 -14    8.04    0.32
  -8  -1  14   11.50    0.36
   8  -1 -14   10.68    0.38
   8  -1 -14   12.28    0.41
   8   1 -14   11.99    0.35
   8   1 -14   11.28    0.40
  -8   1  14   11.53    0.35
  -7  -1  14   62.90    1.54
  -7  -1  14   62.48    1.68
   7  -1 -14   62.81    1.67
   7  -1 -14   64.81    1.63
   7   1 -14   61.50    1.69
  -7   1  14   64.36    1.53
  -6  -1  14    1.54    0.12
  -6  -1  14    1.52    0.12
   6  -1 -14    1.47    0.11
   6  -1 -14    1.47    0.13
  -6   1  14    1.55    0.12
   6   1 -14    1.54    0.12
  -5  -1  14    2.60    0.14
   5  -1 -14    2.86    0.15
  -5  -1  14    2.60    0.14
   5  -1 -14    2.83    0.14
  -5   1  14    2.69    0.15
   5   1 -14    2.68    0.15
  -5   1  14    2.70    0.13
   4  -1 -14    5.41    0.20
   4  -1 -14    5.52    0.21
  -4  -1  14    5.23    0.21
  -4  -1  14    5.40    0.22
  -4   1  14    5.77    0.20
  -4   1  14    5.48    0.21
   3  -1 -14   26.52    0.74
   3  -1 -14   27.30    0.72
  -3  -1  14   26.52    0.76
  -3  -1  14   27.85    0.72
  -3   1  14   26.02    0.71
  -3   1  14   27.33    0.73
   3   1 -14   28.50    0.71
  -2  -1  14    2.07    0.13
   2  -1 -14    2.11    0.11
  -2  -1  14    2.22    0.13
  -2   1  14    2.21    0.11
   2   1 -14    2.35    0.11
  -2   1  14    2.17    0.13
  -1  -1  14    1.14    0.10
  -1  -1  14    1.18    0.10
  -1   1  14    1.15    0.10
  -1   1  14    1.24    0.09
   0  -1  14    0.03    0.06
   0  -1  14   -0.06    0.05
   0   1  14    0.02    0.06
   0   1  14    0.08    0.05
   1  -1  14    0.68    0.09
   1  -1  14    0.65    0.08
   1   1  14    0.65    0.09
   1   1  14    0.72    0.08
   2  -1  14    0.02    0.07
  -2  -1 -14    0.02    0.05
   2  -1  14   -0.01    0.06
   2   1  14    0.01    0.07
   2   1  14    0.11    0.06
   3  -1  14    0.09    0.07
  -3  -1 -14    0.00    0.05
   3  -1  14    0.31    0.09
   3   1  14    0.08    0.07
   3   1  14   -0.05    0.07
   4  -1  14    0.76    0.10
  -4  -1 -14    1.00    0.09
   4  -1  14    0.86    0.12
   4   1  14    1.04    0.11
   4   1  14    0.87    0.10
  -5  -1 -14   14.87    0.41
   5  -1  14   14.43    0.44
   5  -1  14   15.17    0.51
   5   1  14   14.33    0.45
  -5   1 -14   14.71    0.43
   6  -1  14    0.95    0.14
   6  -1  14    0.73    0.10
  -6  -1 -14    0.82    0.09
   6   1  14    0.92    0.11
  -6   1 -14    0.86    0.10
   6   1  14    0.93    0.12
  -7  -1 -14    5.64    0.23
   7  -1  14    5.58    0.24
   7  -1  14    5.81    0.30
   7   1  14    5.84    0.28
  -7   1 -14    6.47    0.25
   7   1  14    5.51    0.25
   8  -1  14    1.64    0.14
   8  -1  14    1.57    0.16
  -8   1 -14    1.81    0.14
   8   1  14    1.58    0.14
   9  -1  14   -0.04    0.11
   9  -1  14   -0.04    0.07
   9   1  14    0.03    0.07
  -9   1 -14    0.01    0.08
 -10   1 -14    0.22    0.09
  10   1  14    0.03    0.08
 -11   1 -14    2.81    0.20
 -12   1 -14    3.18    0.22
  16  -2 -14    0.18    0.12
  15  -2 -14    1.92    0.20
  14  -2 -14    0.45    0.12
  13  -2 -14    0.04    0.10
  12  -2 -14    0.20    0.10
  11  -2 -14    2.57    0.19
  11   2 -14    2.68    0.20
  10  -2 -14    5.74    0.28
  10  -2 -14    5.73    0.26
 -10  -2  14    5.80    0.23
  10   2 -14    5.70    0.22
  10   2 -14    5.73    0.28
   9  -2 -14    7.62    0.31
  -9  -2  14    7.45    0.27
   9  -2 -14    7.06    0.28
   9   2 -14    7.34    0.31
   9   2 -14    7.35    0.26
   8  -2 -14    3.48    0.20
  -8  -2  14    3.43    0.19
  -8  -2  14    3.61    0.18
   8  -2 -14    3.44    0.18
   8   2 -14    3.51    0.17
   8   2 -14    3.75    0.20
   7  -2 -14    1.73    0.14
  -7  -2  14    1.95    0.14
   7  -2 -14    1.94    0.13
  -7  -2  14    2.15    0.15
   7   2 -14    1.94    0.15
  -7   2  14    2.14    0.13
   7   2 -14    2.21    0.14
  -6  -2  14    9.79    0.32
  -6  -2  14   10.11    0.35
   6  -2 -14   10.12    0.32
   6  -2 -14   10.43    0.36
   6   2 -14   10.04    0.32
   6   2 -14    9.66    0.35
  -6   2  14    9.63    0.31
   5  -2 -14    0.02    0.04
   5  -2 -14    0.04    0.06
  -5  -2  14    0.30    0.07
  -5  -2  14    0.11    0.07
  -5   2  14   -0.07    0.05
  -4  -2  14    2.74    0.16
   4  -2 -14    2.88    0.15
   4  -2 -14    2.88    0.12
  -4  -2  14    2.79    0.16
  -4   2  14    2.67    0.15
  -3  -2  14    1.32    0.11
  -3  -2  14    1.11    0.10
   3  -2 -14    1.39    0.08
   3  -2 -14    1.47    0.11
  -3   2  14    1.50    0.08
  -3   2  14    1.44    0.11
   2  -2 -14    1.52    0.11
   2  -2 -14    1.47    0.08
  -2  -2  14    1.73    0.12
  -2  -2  14    1.35    0.12
  -2   2  14    1.35    0.11
  -2   2  14    1.65    0.08
  -1  -2  14    2.53    0.15
  -1  -2  14    2.50    0.15
   1  -2 -14    2.73    0.13
  -1   2  14    2.67    0.15
   0  -2  14    4.87    0.20
   0  -2  14    4.91    0.22
   0   2  14    4.92    0.21
   1  -2  14    6.55    0.24
   1  -2  14    6.24    0.26
   1   2  14    6.05    0.24
   2  -2  14    0.33    0.07
   2  -2  14    0.13    0.09
   2   2  14    0.29    0.08
   3  -2  14    8.98    0.35
   3  -2  14    9.00    0.30
   3   2  14    8.98    0.31
   4  -2  14    4.28    0.24
   4  -2  14    4.10    0.20
   4   2  14    4.32    0.21
   5  -2  14   22.18    0.62
   5  -2  14   22.34    0.71
  -5   2 -14   22.58    0.61
   5   2  14   22.20    0.63
   6  -2  14   -0.01    0.10
   6  -2  14    0.08    0.08
  -6   2 -14   -0.04    0.07
   6   2  14    0.11    0.08
   7  -2  14    9.75    0.33
   7  -2  14    9.62    0.41
  -7   2 -14    9.89    0.34
   7   2  14    9.76    0.34
   8  -2  14    3.48    0.25
   8  -2  14    3.63    0.19
  -8   2 -14    3.57    0.20
   8   2  14    3.82    0.20
  -9   2 -14    0.06    0.08
   9   2  14    0.03    0.08
 -10   2 -14    0.23    0.09
  10   2  14    0.21    0.10
 -11   2 -14    1.99    0.17
 -12   2 -14    2.71    0.21
  15  -3 -14    0.72    0.16
  14  -3 -14    0.25    0.12
  13  -3 -14    0.30    0.12
  12  -3 -14   -0.03    0.08
  11  -3 -14    5.46    0.28
  11   3 -14    5.50    0.22
  10  -3 -14    0.30    0.10
  10   3 -14    0.33    0.10
  10   3 -14    0.15    0.06
  -9  -3  14    0.75    0.10
  -9  -3  14    0.81    0.12
   9  -3 -14    0.86    0.13
   9   3 -14    0.88    0.09
   9   3 -14    0.84    0.12
  -8  -3  14    0.24    0.08
   8  -3 -14    0.12    0.08
  -8  -3  14    0.08    0.08
   8   3 -14    0.15    0.08
  -8   3  14    0.10    0.05
   8   3 -14    0.18    0.07
  -7  -3  14    7.87    0.29
  -7  -3  14    8.19    0.32
   7  -3 -14    7.82    0.32
   7   3 -14    8.12    0.32
   7   3 -14    7.79    0.28
  -7   3  14    8.17    0.27
  -6  -3  14    6.16    0.26
   6  -3 -14    6.31    0.27
  -6  -3  14    6.16    0.25
   6   3 -14    5.74    0.26
  -6   3  14    5.97    0.22
   6   3 -14    5.63    0.23
   5  -3 -14    6.46    0.26
  -5  -3  14    6.02    0.25
  -5  -3  14    6.29    0.24
  -5   3  14    6.09    0.23
   5   3 -14    6.07    0.23
   4  -3 -14    2.83    0.16
  -4  -3  14    2.89    0.16
  -4  -3  14    2.98    0.17
   4   3 -14    3.04    0.16
  -4   3  14    2.97    0.16
   3  -3 -14    0.52    0.08
  -3  -3  14    0.37    0.08
  -3  -3  14    0.45    0.08
  -3   3  14    0.32    0.07
   2  -3 -14    5.24    0.22
  -2  -3  14    5.55    0.23
  -2  -3  14    6.68    0.26
  -2   3  14    5.74    0.23
   1  -3 -14    0.00    0.06
  -1  -3  14    0.25    0.07
  -1  -3  14   -0.03    0.06
  -1   3  14   -0.01    0.06
   0  -3  14    1.48    0.12
   0  -3  14    1.71    0.14
   0   3  14    1.58    0.13
   1  -3  14   -0.04    0.06
   1  -3  14    0.04    0.08
   1   3  14   -0.03    0.06
   2  -3  14    1.64    0.13
   2  -3  14    1.57    0.15
   2   3  14    1.67    0.14
   3  -3  14    3.50    0.18
   3  -3  14    3.52    0.21
   3   3  14    3.68    0.19
   4  -3  14    0.32    0.08
   4  -3  14    0.47    0.11
   4   3  14    0.38    0.09
   5  -3  14    8.95    0.32
   5  -3  14    9.69    0.39
   5   3  14    9.73    0.34
   6  -3  14    0.52    0.09
   6  -3  14    0.56    0.13
   6   3  14    0.77    0.11
  -6   3 -14    0.73    0.11
   7  -3  14    2.49    0.16
   7  -3  14    2.89    0.22
   7   3  14    2.66    0.17
  -7   3 -14    2.74    0.18
   8  -3  14    1.02    0.11
   8   3  14    1.00    0.12
  -8   3 -14    0.97    0.13
  -9   3 -14   -0.04    0.09
   9   3  14   -0.03    0.08
 -10   3 -14    0.33    0.10
  10   3  14    0.63    0.12
 -11   3 -14    0.83    0.13
  11   3  14    0.94    0.14
 -12   3 -14    0.43    0.12
  15  -4 -14    0.21    0.14
  14  -4 -14    0.18    0.13
  13  -4 -14    0.70    0.14
  12  -4 -14    2.08    0.20
  11  -4 -14    2.10    0.20
  11   4 -14    1.60    0.13
  10  -4 -14    6.33    0.31
  10   4 -14    6.15    0.24
   9  -4 -14    0.98    0.13
  -9  -4  14    1.12    0.13
   9   4 -14    0.95    0.10
   9   4 -14    1.01    0.13
  -8  -4  14    1.65    0.14
   8  -4 -14    1.65    0.16
   8   4 -14    1.71    0.13
  -7  -4  14    0.22    0.09
  -7  -4  14    0.43    0.10
   7  -4 -14    0.39    0.09
  -7   4  14    0.25    0.07
   7   4 -14    0.25    0.09
   7   4 -14    0.22    0.08
  -6  -4  14    5.54    0.23
   6  -4 -14    5.05    0.25
  -6  -4  14    5.49    0.25
   6   4 -14    4.96    0.25
   6   4 -14    5.25    0.22
  -6   4  14    5.71    0.22
  -5  -4  14    1.52    0.14
  -5  -4  14    1.73    0.14
   5  -4 -14    1.56    0.14
  -5   4  14    1.66    0.13
   5   4 -14    1.64    0.12
   4  -4 -14   11.23    0.39
  -4  -4  14   11.59    0.41
  -4  -4  14   11.85    0.38
  -4   4  14   12.02    0.37
   4   4 -14   11.62    0.37
   3  -4 -14    1.07    0.11
  -3  -4  14    1.07    0.12
  -3  -4  14    1.11    0.11
   3   4 -14    0.99    0.10
  -3   4  14    1.09    0.11
   2  -4 -14    0.61    0.09
  -2  -4  14    0.60    0.10
  -2  -4  14    0.50    0.09
   2   4 -14    0.57    0.09
  -2   4  14    0.52    0.09
  -1  -4  14    0.15    0.07
   1  -4 -14    0.25    0.08
  -1  -4  14    0.08    0.08
   1   4 -14    0.15    0.07
  -1   4  14    0.09    0.08
   0  -4  14    0.07    0.07
   0  -4  14   -0.06    0.08
   0  -4 -14    0.03    0.07
   0   4  14    0.09    0.07
   1  -4  14    3.83    0.19
   1  -4  14    3.79    0.23
   1   4  14    3.93    0.20
   2  -4  14   15.37    0.46
   2  -4  14   14.92    0.52
   2   4  14   14.77    0.46
   3  -4  14   15.46    0.53
   3  -4  14   14.26    0.45
   3   4  14   14.04    0.46
   4  -4  14    1.03    0.14
   4  -4  14    0.81    0.10
   4   4  14    0.93    0.11
   5  -4  14    0.08    0.11
   5  -4  14    0.13    0.08
   5   4  14   -0.02    0.08
   6  -4  14    0.41    0.09
   6  -4  14    0.48    0.14
   6   4  14    0.64    0.11
   7  -4  14    0.07    0.07
  -7   4 -14    0.10    0.09
   7   4  14    0.02    0.08
   8  -4  14    0.46    0.09
  -8   4 -14    0.50    0.12
   8   4  14    0.60    0.11
   9   4  14    0.02    0.09
  -9   4 -14    0.06    0.10
 -10   4 -14    0.94    0.14
  10   4  14    1.27    0.15
  11   4  14    0.32    0.11
 -11   4 -14    0.14    0.11
  14  -5 -14    2.89    0.26
  13  -5 -14   -0.03    0.10
  12  -5 -14    0.55    0.14
  12   5 -14    0.62    0.10
  11  -5 -14    0.12    0.11
  11   5 -14    0.10    0.07
  10  -5 -14    0.01    0.09
  10   5 -14    0.07    0.07
   9  -5 -14    0.05    0.10
   9   5 -14    0.17    0.08
   8  -5 -14    0.25    0.10
  -8  -5  14    0.16    0.09
   8   5 -14    0.14    0.07
   8   5 -14    0.29    0.09
   7  -5 -14    2.05    0.18
  -7  -5  14    1.96    0.16
  -7   5  14    2.13    0.13
   7   5 -14    1.99    0.17
   7   5 -14    1.89    0.14
   6  -5 -14   11.30    0.42
  -6  -5  14   11.83    0.43
  -6  -5  14   11.30    0.39
  -6   5  14   11.96    0.37
   6   5 -14   11.59    0.38
  -5  -5  14   20.48    0.65
   5  -5 -14   20.84    0.64
  -5  -5  14   20.21    0.60
  -5   5  14   20.66    0.57
   5   5 -14   20.01    0.58
  -4  -5  14    7.79    0.30
  -4  -5  14    7.44    0.32
   4  -5 -14    7.59    0.31
   4   5 -14    7.71    0.28
  -4   5  14    7.79    0.28
  -3  -5  14    0.09    0.08
   3  -5 -14    0.05    0.07
  -3  -5  14    0.03    0.08
   3   5 -14    0.00    0.07
  -3   5  14    0.09    0.07
  -2  -5  14    8.15    0.31
   2  -5 -14    7.98    0.31
  -2  -5  14    7.62    0.32
  -2   5  14    7.70    0.29
   2   5 -14    8.23    0.30
   1  -5 -14   14.03    0.46
  -1  -5  14   13.32    0.44
  -1  -5  14   14.14    0.49
  -1   5  14   14.59    0.44
   1   5 -14   13.62    0.43
   0  -5  14    0.12    0.08
   0  -5  14    0.32    0.10
   0  -5 -14    0.24    0.08
   0   5  14    0.25    0.09
   0   5 -14    0.07    0.07
  -1  -5 -14    0.75    0.11
   1  -5  14    0.64    0.10
   1  -5  14    0.50    0.11
  -1   5 -14    0.54    0.09
   1   5  14    0.84    0.11
   2  -5  14    8.36    0.36
   2  -5  14    8.23    0.31
  -2   5 -14    8.34    0.30
   2   5  14    8.37    0.32
   3  -5  14    1.70    0.17
   3  -5  14    1.42    0.13
   3   5  14    1.49    0.14
  -3   5 -14    1.70    0.13
   4  -5  14    3.89    0.20
   4  -5  14    3.97    0.25
  -4   5 -14    3.52    0.19
   4   5  14    3.61    0.20
   5  -5  14    2.74    0.18
   5  -5  14    2.28    0.21
  -5   5 -14    2.32    0.15
   5   5  14    2.50    0.18
   6  -5  14    3.54    0.20
  -6   5 -14    3.20    0.18
   6   5  14    3.23    0.20
   7  -5  14    0.34    0.09
  -7   5 -14    0.23    0.08
   7   5  14    0.48    0.11
  -7   5 -14    0.29    0.10
  -8   5 -14    0.11    0.10
   8   5  14    0.03    0.09
   9   5  14    0.65    0.13
  -9   5 -14    0.61    0.13
 -10   5 -14    0.32    0.12
  10   5  14    0.19    0.11
  11   5  14    0.88    0.14
  14  -6 -14    0.40    0.16
  13  -6 -14    0.00    0.11
  12  -6 -14    5.52    0.33
  12   6 -14    5.44    0.26
  11  -6 -14    2.52    0.22
  11   6 -14    2.09    0.17
  10  -6 -14    4.46    0.28
  10   6 -14    4.63    0.23
   9  -6 -14    0.89    0.15
   9   6 -14    1.13    0.12
   8  -6 -14    3.87    0.26
   8   6 -14    3.74    0.20
   7  -6 -14   -0.08    0.09
   7   6 -14    0.06    0.08
  -6  -6  14    0.17    0.09
   6  -6 -14    0.16    0.09
  -6   6  14    0.18    0.08
   6   6 -14    0.17    0.08
   5  -6 -14    0.28    0.10
  -5  -6  14    0.25    0.10
   5   6 -14    0.17    0.08
  -5   6  14    0.26    0.08
   4  -6 -14   -0.17    0.06
  -4  -6  14    0.04    0.08
  -4  -6  14    0.09    0.09
  -4   6  14   -0.03    0.07
   4   6 -14   -0.03    0.07
   3  -6 -14    6.53    0.30
  -3  -6  14    7.11    0.31
  -3  -6  14    6.88    0.29
  -3   6  14    6.84    0.27
   3   6 -14    6.82    0.27
  -2  -6  14    3.44    0.20
  -2  -6  14    3.12    0.21
   2  -6 -14    3.24    0.21
   2   6 -14    3.42    0.19
  -2   6  14    3.12    0.18
  -1  -6  14    2.04    0.17
  -1  -6  14    1.54    0.16
   1  -6 -14    1.74    0.16
   1   6 -14    1.89    0.15
  -1   6  14    2.01    0.16
   0  -6 -14    3.99    0.22
   0  -6  14    4.28    0.22
   0  -6  14    4.37    0.25
   0   6  14    4.27    0.22
   0   6 -14    4.60    0.21
   1  -6  14   -0.01    0.09
  -1  -6 -14   -0.16    0.07
   1  -6  14    0.00    0.07
  -1   6 -14   -0.05    0.06
   1   6  14   -0.11    0.07
   2  -6  14    0.38    0.12
   2  -6  14    0.37    0.10
  -2   6 -14    0.31    0.08
   2   6  14    0.25    0.10
   3  -6  14    6.47    0.32
   3  -6  14    6.21    0.27
  -3   6 -14    5.86    0.25
   3   6  14    5.65    0.27
   4  -6  14    0.04    0.08
  -4   6 -14    0.18    0.08
   4   6  14   -0.05    0.08
   5  -6  14    0.12    0.09
  -5   6 -14    0.24    0.09
   5   6  14    0.25    0.10
   6  -6  14    2.72    0.18
  -6   6 -14    2.48    0.16
   6   6  14    2.22    0.18
   7  -6  14    2.30    0.17
   7   6  14    2.17    0.19
  -8   6 -14    0.19    0.11
   8   6  14    0.05    0.10
   9   6  14    3.62    0.23
  -9   6 -14    3.80    0.25
  10   6  14    0.78    0.14
  13  -7 -14    1.33    0.20
  12  -7 -14    0.13    0.13
  12   7 -14   -0.04    0.08
  11  -7 -14    0.74    0.17
  11   7 -14    0.94    0.12
  10  -7 -14   -0.10    0.11
  10   7 -14   -0.02    0.08
   9  -7 -14    1.33    0.18
   9   7 -14    1.35    0.14
   8  -7 -14    0.06    0.11
   8   7 -14    0.02    0.08
   7  -7 -14    3.38    0.24
   7   7 -14    3.54    0.21
   6  -7 -14    0.04    0.09
   6   7 -14    0.04    0.08
  -6   7  14    0.13    0.08
   5  -7 -14    0.44    0.11
  -5   7  14    0.31    0.09
   5   7 -14    0.39    0.09
   4  -7 -14   20.96    0.69
  -4   7  14   22.75    0.63
   4   7 -14   21.61    0.64
   3  -7 -14    2.37    0.20
   3   7 -14    2.42    0.17
  -3   7  14    2.41    0.17
   2  -7 -14   10.62    0.41
  -2  -7  14   10.09    0.41
   2   7 -14   10.45    0.37
  -2   7  14    9.94    0.36
  -1  -7  14    3.64    0.23
  -1  -7  14    3.73    0.21
   1  -7 -14    3.82    0.24
   1   7 -14    3.91    0.20
  -1   7  14    3.81    0.21
   0  -7  14    2.86    0.18
   0  -7 -14    2.71    0.20
   0   7 -14    2.80    0.18
   0   7  14    2.67    0.18
   1  -7  14    0.25    0.09
  -1  -7 -14    0.37    0.11
   1   7  14    0.43    0.10
  -1   7 -14    0.47    0.09
   2  -7  14    1.47    0.15
  -2   7 -14    1.73    0.15
   2   7  14    1.78    0.16
   3  -7  14    0.18    0.09
   3   7  14    0.27    0.10
  -3   7 -14    0.12    0.08
   4  -7  14    0.17    0.09
   4   7  14    0.06    0.09
  -4   7 -14    0.01    0.08
   5  -7  14    2.26    0.17
  -5   7 -14    2.05    0.16
   5   7  14    2.06    0.17
   6  -7  14    2.78    0.19
  -6   7 -14    2.64    0.17
   6   7  14    2.40    0.19
   7   7  14    1.25    0.15
   8   7  14    0.22    0.11
  -8   7 -14    0.09    0.12
   9   7  14    2.62    0.22
  11  -8 -14    0.47    0.15
  11   8 -14    0.37    0.12
  10  -8 -14    0.20    0.13
  10   8 -14    0.11    0.10
   9  -8 -14    1.39    0.19
   9   8 -14    1.35    0.15
   8  -8 -14    0.73    0.16
   8   8 -14    0.92    0.13
   7  -8 -14    2.38    0.23
   7   8 -14    2.62    0.19
   6  -8 -14   -0.10    0.11
   6   8 -14   -0.01    0.09
   5  -8 -14   11.66    0.48
   5   8 -14   12.57    0.44
  -5   8  14   12.50    0.41
   4  -8 -14    0.07    0.11
   4   8 -14   -0.05    0.08
  -4   8  14   -0.02    0.08
   3  -8 -14   10.96    0.44
  -3   8  14   10.55    0.38
   3   8 -14   10.80    0.39
   2  -8 -14    0.02    0.10
  -2   8  14    0.04    0.08
   2   8 -14    0.12    0.08
   1  -8 -14    1.22    0.16
  -1   8  14    1.12    0.13
   1   8 -14    1.32    0.14
   0  -8 -14    0.04    0.10
   0   8  14    0.10    0.09
   0   8 -14    0.05    0.08
  -1  -8 -14    3.02    0.22
   1   8  14    2.72    0.19
  -1   8 -14    2.57    0.17
  -2   8 -14   -0.05    0.07
   2   8  14    0.18    0.10
  -3   8 -14    3.01    0.19
   3   8  14    2.66    0.20
   4   8  14   -0.20    0.08
  -4   8 -14   -0.06    0.08
   5   8  14   -0.03    0.09
  -5   8 -14    0.05    0.08
   6   8  14    0.14    0.10
   7   8  14    1.29    0.16
   8   8  14    0.17    0.11
  10  -9 -14    2.07    0.25
  10   9 -14    2.26    0.20
   9  -9 -14    0.26    0.14
   9   9 -14   -0.08    0.10
   8  -9 -14    0.29    0.15
   8   9 -14    0.29    0.11
   7  -9 -14    0.44    0.15
   7   9 -14    0.36    0.12
   6  -9 -14    1.67    0.20
   6   9 -14    1.66    0.16
   5  -9 -14    7.38    0.39
   5   9 -14    7.68    0.33
  -5   9  14    7.93    0.32
   4  -9 -14    1.65    0.19
   4   9 -14    2.40    0.18
  -4   9  14    2.22    0.18
   3  -9 -14    0.55    0.15
   3   9 -14    0.22    0.10
  -3   9  14    0.46    0.12
   2  -9 -14    6.15    0.33
  -2   9  14    5.99    0.28
   2   9 -14    5.97    0.28
   1  -9 -14    5.02    0.30
   1   9 -14    5.00    0.26
  -1   9  14    5.27    0.26
   0  -9 -14    0.10    0.11
   0   9 -14    0.09    0.09
   0   9  14   -0.02    0.10
   1   9  14   -0.01    0.09
  -1   9 -14   -0.03    0.08
   2   9  14    0.27    0.11
  -2   9 -14    0.44    0.10
  -3   9 -14    0.08    0.09
   3   9  14    0.27    0.11
  -4   9 -14    0.11    0.09
   4   9  14    0.12    0.10
  -5   9 -14    0.25    0.10
   5   9  14   -0.02    0.10
   6   9  14    1.04    0.16
   8 -10 -14    4.68    0.34
   8  10 -14    4.91    0.28
   7 -10 -14    2.20    0.25
   7  10 -14    2.11    0.20
   6 -10 -14    0.87    0.18
   6  10 -14    0.53    0.13
   5 -10 -14   -0.08    0.12
   5  10 -14   -0.10    0.10
   4 -10 -14    1.69    0.22
  -4  10  14    1.58    0.16
   4  10 -14    1.79    0.18
   3 -10 -14    0.39    0.16
  -3  10  14    0.52    0.12
   3  10 -14    0.55    0.12
   2 -10 -14    0.87    0.17
  -2  10  14    1.08    0.15
   2  10 -14    1.04    0.14
   1 -10 -14   -0.12    0.12
   1  10 -14    0.16    0.10
  -1  10  14   -0.07    0.10
   0 -10 -14   -0.17    0.11
   0  10  14    0.00    0.11
   0  10 -14    0.21    0.10
  -1  10 -14    2.76    0.20
   1  10  14    3.04    0.21
   2  10  14   -0.05    0.11
  -2  10 -14   -0.04    0.09
  -3  10 -14    0.09    0.09
   3  10  14   -0.06    0.10
  -4  10 -14    0.69    0.12
   4  10  14    0.72    0.15
   4  11 -14    0.00    0.10
  -4  11  14    0.02    0.10
   3 -11 -14    0.40    0.17
   3  11 -14    0.28    0.13
  -3  11  14    0.26    0.12
   2 -11 -14    4.61    0.33
  -2  11  14    4.66    0.27
   2  11 -14    4.45    0.27
   1 -11 -14    1.79    0.22
   1  11 -14    2.47    0.21
  -1  11  14    2.48    0.22
   0  11 -14    2.72    0.21
   0  11  14    3.03    0.23
  16   0 -15   -0.11    0.10
  15   0 -15    0.00    0.09
  14   0 -15   -0.05    0.09
  13   0 -15    2.80    0.21
  12   0 -15   -0.07    0.08
  12   0 -15   -0.02    0.07
  11   0 -15    3.69    0.22
  11   0 -15    4.30    0.23
  10   0 -15    0.00    0.07
  10   0 -15   -0.12    0.06
  -9   0  15    0.32    0.07
   9   0 -15    0.21    0.08
   9   0 -15    0.26    0.09
   8   0 -15   -0.02    0.06
   8   0 -15   -0.13    0.06
  -8   0  15   -0.14    0.06
  -7   0  15   23.70    0.63
   7   0 -15   23.54    0.67
   7   0 -15   22.62    0.68
  -6   0  15    0.08    0.06
   6   0 -15    0.15    0.06
  -6   0  15   -0.01    0.06
   6   0 -15   -0.01    0.06
   5   0 -15    5.63    0.22
   5   0 -15    5.49    0.22
  -5   0  15    5.26    0.22
  -4   0  15    0.00    0.05
   4   0 -15   -0.04    0.04
   4   0 -15   -0.02    0.04
  -4   0  15    0.08    0.05
   3   0 -15    0.30    0.06
  -3   0  15    0.11    0.06
  -3   0  15    0.34    0.08
  -1   0  15  105.97    2.56
  -1   0  15  109.21    2.77
   0   0  15    0.06    0.07
   0   0  15   -0.10    0.06
   1   0  15   57.52    1.48
   1   0  15   53.06    1.37
   2   0  15    0.01    0.07
   2   0  15    0.02    0.06
  -3   0 -15    4.62    0.18
   3   0  15    4.00    0.19
  -4   0 -15   -0.03    0.06
   4   0  15   -0.09    0.07
   4   0  15   -0.01    0.07
  -5   0 -15    0.53    0.09
   5   0  15    0.58    0.09
   5   0  15    0.53    0.12
  -6   0 -15   -0.15    0.06
   6   0  15   -0.18    0.07
   6   0  15    0.10    0.09
  -7   0 -15    6.02    0.24
   7   0  15    5.74    0.29
   7   0  15    6.09    0.26
   8   0  15   -0.09    0.07
  -8   0 -15   -0.06    0.07
   9   0  15    0.96    0.12
  16  -1 -15   -0.13    0.09
  16   1 -15    0.13    0.12
  15  -1 -15    0.16    0.11
  15   1 -15    0.15    0.10
  14  -1 -15    0.34    0.12
  14   1 -15    0.40    0.12
  13  -1 -15    3.06    0.23
  12  -1 -15    0.29    0.10
  12  -1 -15    0.24    0.10
  11  -1 -15    2.72    0.19
  11  -1 -15    2.61    0.18
  11   1 -15    2.91    0.20
  10  -1 -15    5.43    0.27
  10  -1 -15    5.61    0.25
 -10  -1  15    5.81    0.23
  10   1 -15    5.56    0.21
  10   1 -15    5.45    0.26
   9  -1 -15    0.39    0.08
  -9  -1  15    0.21    0.07
   9  -1 -15    0.25    0.08
   9   1 -15    0.22    0.09
   9   1 -15    0.36    0.07
   8  -1 -15   32.21    0.92
   8  -1 -15   32.26    0.93
  -8  -1  15   33.36    0.86
   8   1 -15   32.53    0.85
   8   1 -15   33.37    0.95
  -8   1  15   33.73    0.85
  -7  -1  15    3.23    0.17
  -7  -1  15    3.14    0.17
   7  -1 -15    3.23    0.17
   7  -1 -15    3.40    0.19
   7   1 -15    3.10    0.18
  -7   1  15    3.20    0.16
   6  -1 -15    2.41    0.16
   6  -1 -15    2.35    0.14
  -6  -1  15    2.14    0.14
  -6  -1  15    2.44    0.15
  -6   1  15    2.36    0.14
   6   1 -15    2.13    0.15
   5  -1 -15    8.00    0.28
  -5  -1  15    8.24    0.29
   5  -1 -15    8.75    0.30
  -5  -1  15    8.57    0.30
  -5   1  15    8.32    0.28
   5   1 -15    8.22    0.30
  -5   1  15    8.36    0.28
  -4  -1  15    6.37    0.24
   4  -1 -15    6.07    0.22
   4  -1 -15    6.62    0.24
  -4  -1  15    6.29    0.24
  -4   1  15    6.37    0.24
  -4   1  15    6.53    0.23
   4   1 -15    6.67    0.23
  -3  -1  15    0.78    0.09
  -3  -1  15    0.88    0.09
   3  -1 -15    0.81    0.08
   3  -1 -15    0.86    0.08
  -3   1  15    0.83    0.09
  -3   1  15    0.86    0.08
  -2  -1  15    0.26    0.07
  -2  -1  15    0.19    0.07
  -2   1  15    0.25    0.06
  -2   1  15    0.34    0.07
  -1  -1  15    9.01    0.31
  -1  -1  15    9.19    0.32
  -1   1  15    8.73    0.31
  -1   1  15    9.72    0.29
   0  -1  15   10.23    0.34
   0  -1  15   10.73    0.36
   0   1  15   10.52    0.34
   0   1  15   10.68    0.33
   1  -1  15    3.66    0.19
   1  -1  15    3.45    0.18
   1   1  15    3.51    0.16
   1   1  15    3.53    0.18
   2  -1  15    0.35    0.09
   2  -1  15    0.51    0.09
   2   1  15    0.40    0.08
   2   1  15    0.42    0.08
   3  -1  15   -0.01    0.08
   3  -1  15    0.12    0.07
   3   1  15    0.11    0.07
   4  -1  15   11.30    0.41
   4  -1  15   11.41    0.37
   4   1  15   11.22    0.38
  -4   1 -15   11.40    0.36
   5  -1  15    1.05    0.11
   5  -1  15    1.28    0.14
   5   1  15    1.35    0.13
  -5   1 -15    1.13    0.11
   6  -1  15   11.26    0.39
   6  -1  15   12.14    0.46
  -6   1 -15   12.31    0.38
   6   1  15   11.89    0.40
   7  -1  15    8.50    0.31
   7  -1  15    7.93    0.36
  -7   1 -15    8.13    0.30
   7   1  15    7.93    0.31
   8  -1  15    4.92    0.23
   8  -1  15    4.80    0.29
   8   1  15    4.88    0.23
  -8   1 -15    4.85    0.23
   9  -1  15    0.63    0.10
   9   1  15    0.51    0.10
  -9   1 -15    0.46    0.11
 -10   1 -15    0.92    0.12
  10   1  15    0.95    0.13
 -11   1 -15   -0.04    0.09
 -12   1 -15    0.07    0.10
  15  -2 -15    0.15    0.11
  14  -2 -15    0.15    0.11
  13  -2 -15    6.46    0.33
  12  -2 -15    3.14    0.22
  11  -2 -15    3.24    0.22
  11   2 -15    3.23    0.22
  10  -2 -15    2.07    0.17
 -10  -2  15    1.94    0.14
  10   2 -15    2.10    0.13
  10   2 -15    2.03    0.17
  -9  -2  15   11.48    0.37
   9  -2 -15   11.22    0.41
   9   2 -15   11.65    0.36
   9   2 -15   11.06    0.42
   8  -2 -15    0.19    0.09
  -8  -2  15    0.04    0.08
  -8  -2  15    0.15    0.07
   8   2 -15    0.19    0.07
   8   2 -15    0.27    0.08
  -8   2  15    0.29    0.07
   7  -2 -15   27.40    0.78
  -7  -2  15   27.38    0.79
  -7  -2  15   26.05    0.72
  -7   2  15   27.35    0.71
   7   2 -15   26.57    0.72
   7   2 -15   26.47    0.80
  -6  -2  15    3.87    0.20
   6  -2 -15    4.17    0.21
  -6  -2  15    4.10    0.19
  -6   2  15    4.16    0.18
   6   2 -15    4.08    0.21
  -5  -2  15    8.40    0.30
   5  -2 -15    8.48    0.31
  -5  -2  15    8.17    0.30
  -5   2  15    8.24    0.28
   4  -2 -15    3.42    0.17
  -4  -2  15    3.66    0.18
  -4  -2  15    3.64    0.18
  -4   2  15    3.55    0.17
   3  -2 -15    1.34    0.11
  -3  -2  15    1.31    0.12
  -3  -2  15    1.25    0.11
  -3   2  15    1.36    0.11
  -2  -2  15    3.56    0.18
  -2  -2  15    3.43    0.18
  -2   2  15    3.72    0.18
  -1  -2  15    4.01    0.19
  -1  -2  15    4.15    0.20
  -1   2  15    3.83    0.19
   0  -2  15    0.68    0.10
   0  -2  15    0.52    0.09
   0   2  15    0.60    0.09
   1  -2  15    0.03    0.06
   1  -2  15   -0.07    0.07
   1   2  15   -0.03    0.06
   2  -2  15    1.78    0.14
   2  -2  15    1.60    0.16
   2   2  15    1.59    0.13
   3  -2  15    0.02    0.09
   3  -2  15   -0.04    0.06
   3   2  15   -0.01    0.07
   4  -2  15    0.11    0.08
   4  -2  15    0.20    0.10
   4   2  15   -0.12    0.07
   5  -2  15    0.31    0.09
   5  -2  15    0.32    0.11
  -5   2 -15    0.47    0.10
   5   2  15    0.28    0.09
   6  -2  15   -0.03    0.10
   6  -2  15    0.08    0.08
  -6   2 -15    0.19    0.08
   6   2  15    0.09    0.08
   7  -2  15    0.25    0.09
   7  -2  15    0.23    0.11
  -7   2 -15    0.47    0.09
   7   2  15    0.21    0.10
   8  -2  15    0.14    0.08
  -8   2 -15    0.18    0.09
   8   2  15    0.09    0.09
   9   2  15    0.52    0.11
  -9   2 -15    0.53    0.10
 -10   2 -15    0.10    0.10
  10   2  15    0.13    0.09
 -11   2 -15    2.48    0.20
  15  -3 -15    9.09    0.43
  14  -3 -15    2.57    0.22
  13  -3 -15   -0.02    0.09
  12  -3 -15    0.14    0.10
  11  -3 -15    3.46    0.23
  11   3 -15    3.94    0.19
  10  -3 -15    0.49    0.11
  10   3 -15    0.31    0.10
  10   3 -15    0.46    0.08
  -9  -3  15    2.21    0.16
  -9  -3  15    2.17    0.17
   9  -3 -15    2.09    0.17
   9   3 -15    1.89    0.16
   9   3 -15    1.99    0.14
  -8  -3  15   -0.02    0.07
  -8  -3  15    0.10    0.08
   8  -3 -15    0.04    0.08
  -8   3  15    0.04    0.04
   8   3 -15    0.16    0.06
   8   3 -15    0.02    0.07
  -7  -3  15    3.27    0.19
  -7  -3  15    3.43    0.19
   7  -3 -15    3.20    0.21
   7   3 -15    3.48    0.20
   7   3 -15    3.29    0.18
  -7   3  15    3.46    0.16
  -6  -3  15    0.01    0.06
   6  -3 -15   -0.06    0.07
  -6  -3  15    0.04    0.07
  -6   3  15   -0.05    0.06
   6   3 -15    0.04    0.06
   6   3 -15    0.00    0.07
  -5  -3  15    0.18    0.07
   5  -3 -15    0.35    0.08
  -5  -3  15    0.26    0.08
   5   3 -15    0.24    0.07
  -5   3  15    0.28    0.07
  -4  -3  15    0.02    0.07
   4  -3 -15    0.04    0.06
  -4  -3  15   -0.17    0.07
  -4   3  15    0.03    0.06
  -3  -3  15   14.38    0.43
   3  -3 -15   13.28    0.42
  -3  -3  15   13.13    0.45
  -3   3  15   13.42    0.41
  -2  -3  15   19.74    0.57
  -2  -3  15   19.89    0.61
   2  -3 -15   19.77    0.57
  -2   3  15   20.27    0.56
  -1  -3  15    6.72    0.28
  -1  -3  15    6.92    0.27
  -1   3  15    6.87    0.26
   0  -3  15    0.95    0.10
   0  -3  15    1.14    0.12
   0   3  15    0.88    0.10
   1  -3  15    1.67    0.15
   1  -3  15    1.51    0.12
   1   3  15    1.47    0.13
   2  -3  15    1.16    0.11
   2  -3  15    1.23    0.13
   2   3  15    1.11    0.12
   3  -3  15    1.04    0.13
   3  -3  15    1.05    0.11
   3   3  15    1.02    0.12
   4  -3  15    6.63    0.31
   4  -3  15    6.26    0.26
   4   3  15    6.21    0.26
   5  -3  15    3.58    0.19
   5  -3  15    3.65    0.24
   5   3  15    3.25    0.19
   6  -3  15    0.56    0.14
   6  -3  15    0.48    0.10
   6   3  15    0.44    0.10
  -6   3 -15    0.47    0.10
   7  -3  15    1.15    0.12
   7   3  15    1.06    0.13
  -7   3 -15    1.15    0.13
   8  -3  15    1.21    0.12
   8   3  15    1.11    0.14
  -8   3 -15    1.21    0.13
  -9   3 -15    2.02    0.17
   9   3  15    2.23    0.18
  10   3  15    2.07    0.18
 -10   3 -15    2.03    0.18
 -11   3 -15   -0.06    0.10
  15  -4 -15    0.16    0.13
  14  -4 -15    0.32    0.13
  13  -4 -15    0.19    0.13
  12  -4 -15   -0.13    0.09
  11  -4 -15    0.54    0.13
  11   4 -15    0.61    0.10
  10  -4 -15    0.09    0.09
  10   4 -15    0.11    0.07
  -9  -4  15    0.36    0.11
   9  -4 -15    0.45    0.11
   9   4 -15    0.43    0.09
   9   4 -15    0.29    0.10
  -8  -4  15   -0.10    0.07
  -8  -4  15    0.00    0.08
   8  -4 -15    0.02    0.08
   8   4 -15   -0.13    0.06
   8   4 -15    0.12    0.08
  -7  -4  15    7.60    0.30
  -7  -4  15    7.77    0.32
   7  -4 -15    7.45    0.33
   7   4 -15    7.63    0.32
  -7   4  15    7.96    0.27
   7   4 -15    7.44    0.28
  -6  -4  15    1.82    0.16
   6  -4 -15    2.08    0.17
  -6  -4  15    1.88    0.15
   6   4 -15    1.89    0.14
   6   4 -15    2.00    0.16
  -6   4  15    1.93    0.14
   5  -4 -15    3.22    0.20
  -5  -4  15    3.23    0.19
  -5  -4  15    3.60    0.19
  -5   4  15    3.24    0.17
   5   4 -15    3.24    0.17
   4  -4 -15    4.79    0.23
  -4  -4  15    4.85    0.22
  -4  -4  15    5.01    0.24
   4   4 -15    4.85    0.21
  -4   4  15    5.01    0.21
   3  -4 -15   13.18    0.44
  -3  -4  15   13.50    0.46
  -3  -4  15   13.75    0.43
  -3   4  15   14.00    0.42
   3   4 -15   13.53    0.42
  -2  -4  15    1.59    0.14
   2  -4 -15    1.49    0.13
  -2  -4  15    1.77    0.14
  -2   4  15    1.56    0.14
   2   4 -15    1.65    0.13
  -1  -4  15   35.94    0.94
  -1  -4  15   35.13    1.02
   1  -4 -15   35.84    0.95
  -1   4  15   35.71    0.93
   1   4 -15   35.47    0.93
   0  -4  15    0.96    0.11
   0  -4  15    0.76    0.12
   0   4  15    0.71    0.10
   1  -4  15   16.20    0.50
   1  -4  15   16.49    0.55
   1   4  15   16.61    0.50
   2  -4  15    6.10    0.25
   2  -4  15    5.77    0.29
   2   4  15    5.56    0.26
   3  -4  15    0.10    0.08
   3  -4  15   -0.02    0.09
   3   4  15    0.06    0.08
   4  -4  15    0.23    0.09
   4  -4  15    0.44    0.12
   4   4  15    0.15    0.08
   5  -4  15   -0.08    0.10
   5  -4  15   -0.01    0.08
   5   4  15   -0.02    0.09
   6  -4  15   -0.03    0.07
   6   4  15   -0.09    0.08
   7  -4  15   -0.06    0.07
   7   4  15   -0.05    0.08
  -7   4 -15   -0.07    0.08
  -8   4 -15    1.75    0.16
   8   4  15    1.74    0.16
  -9   4 -15    0.32    0.11
   9   4  15    0.43    0.12
  10   4  15    0.15    0.10
 -10   4 -15    0.09    0.10
 -11   4 -15    0.48    0.12
  11   4  15    0.37    0.12
  14  -5 -15    0.58    0.15
  13  -5 -15    0.06    0.11
  12  -5 -15    0.17    0.12
  11  -5 -15    0.23    0.12
  11   5 -15    0.15    0.08
  10  -5 -15    0.25    0.11
  10   5 -15    0.28    0.08
   9  -5 -15    5.90    0.31
   9   5 -15    4.92    0.23
   8  -5 -15   14.93    0.53
   8   5 -15   14.59    0.46
   7  -5 -15    0.89    0.13
  -7  -5  15    0.98    0.12
  -7  -5  15    0.98    0.13
  -7   5  15    0.91    0.10
   7   5 -15    0.87    0.12
   7   5 -15    1.01    0.11
  -6  -5  15    0.68    0.11
  -6  -5  15    0.86    0.12
   6  -5 -15    0.77    0.12
   6   5 -15    0.85    0.10
  -6   5  15    0.92    0.10
  -5  -5  15    4.09    0.21
   5  -5 -15    4.12    0.23
  -5  -5  15    3.90    0.22
   5   5 -15    4.22    0.20
  -5   5  15    4.07    0.20
  -4  -5  15    5.91    0.26
   4  -5 -15    5.35    0.26
  -4  -5  15    5.82    0.27
  -4   5  15    5.71    0.24
   4   5 -15    5.73    0.25
   3  -5 -15    0.99    0.12
  -3  -5  15    0.97    0.12
  -3  -5  15    0.73    0.11
  -3   5  15    1.09    0.12
   3   5 -15    0.74    0.10
  -2  -5  15    2.55    0.18
  -2  -5  15    2.44    0.18
   2  -5 -15    2.47    0.18
  -2   5  15    2.50    0.17
   2   5 -15    2.06    0.16
   1  -5 -15    0.37    0.10
  -1  -5  15    0.42    0.10
  -1  -5  15    0.35    0.10
  -1   5  15    0.57    0.10
   1   5 -15    0.38    0.09
   0  -5  15    5.08    0.26
   0  -5  15    4.74    0.23
   0   5  15    4.96    0.23
   0   5 -15    5.02    0.23
   1  -5  15    5.02    0.24
   1  -5  15    5.14    0.27
  -1   5 -15    5.13    0.23
   1   5  15    5.05    0.25
   2  -5  15    0.81    0.11
   2  -5  15    0.61    0.13
  -2   5 -15    0.71    0.10
   2   5  15    1.07    0.13
   3  -5  15    0.25    0.09
   3  -5  15    0.18    0.11
  -3   5 -15    0.02    0.08
   3   5  15    0.08    0.08
   4  -5  15    4.55    0.22
   4  -5  15    4.92    0.29
  -4   5 -15    4.83    0.22
   4   5  15    4.74    0.25
   5  -5  15    5.38    0.24
  -5   5 -15    5.14    0.23
   5   5  15    5.55    0.26
   6  -5  15   12.32    0.41
   6   5  15   11.71    0.42
  -6   5 -15   11.76    0.39
   7  -5  15    2.37    0.17
   7   5  15    2.31    0.19
  -7   5 -15    2.39    0.19
  -7   5 -15    2.22    0.16
   8   5  15    0.87    0.13
  -8   5 -15    0.71    0.13
   9   5  15    1.09    0.15
  -9   5 -15    0.98    0.15
  10   5  15    1.90    0.18
 -10   5 -15    2.17    0.19
  13  -6 -15    0.77    0.18
  12  -6 -15   -0.02    0.12
  12   6 -15   -0.02    0.08
  11  -6 -15    0.30    0.13
  11   6 -15    0.39    0.10
  10  -6 -15    2.18    0.21
  10   6 -15    2.33    0.16
   9  -6 -15    0.11    0.11
   9   6 -15    0.11    0.08
   8  -6 -15    2.76    0.22
   8   6 -15    2.60    0.18
   7  -6 -15    1.99    0.20
   7   6 -15    1.95    0.16
   6  -6 -15    1.37    0.15
  -6   6  15    1.46    0.13
   6   6 -15    1.42    0.13
  -5  -6  15    2.12    0.18
   5  -6 -15    1.83    0.18
  -5  -6  15    2.53    0.18
   5   6 -15    2.43    0.17
  -5   6  15    2.48    0.16
  -4  -6  15    0.10    0.09
   4  -6 -15    0.23    0.10
  -4  -6  15    0.18    0.10
  -4   6  15    0.24    0.09
   4   6 -15    0.30    0.09
  -3  -6  15    1.85    0.17
   3  -6 -15    2.04    0.17
  -3  -6  15    1.88    0.17
   3   6 -15    1.57    0.15
  -3   6  15    1.83    0.15
   2  -6 -15    2.28    0.18
  -2  -6  15    2.26    0.17
  -2  -6  15    2.47    0.19
   2   6 -15    2.38    0.16
  -2   6  15    1.99    0.16
   1  -6 -15    1.67    0.16
  -1  -6  15    1.69    0.17
  -1  -6  15    1.51    0.15
   1   6 -15    1.74    0.14
  -1   6  15    1.65    0.14
   0  -6  15    2.18    0.16
   0  -6  15    2.50    0.20
   0   6 -15    2.21    0.16
   0   6  15    2.13    0.16
   1  -6  15    2.29    0.17
   1  -6  15    2.46    0.21
   1   6  15    2.33    0.17
  -1   6 -15    2.44    0.16
   2  -6  15    5.00    0.25
  -2   6 -15    5.03    0.23
   2   6  15    4.78    0.24
   3  -6  15    4.96    0.25
   3   6  15    5.05    0.25
  -3   6 -15    4.95    0.23
   4  -6  15    5.40    0.25
   4   6  15    5.10    0.25
  -4   6 -15    5.19    0.23
   5  -6  15    0.20    0.09
  -5   6 -15    0.00    0.08
   5   6  15    0.06    0.09
   6  -6  15   -0.11    0.08
  -6   6 -15    0.02    0.08
   6   6  15    0.03    0.09
   7   6  15    3.19    0.21
  -8   6 -15    0.07    0.11
   8   6  15    0.04    0.10
   9   6  15    3.62    0.24
  -9   6 -15    3.33    0.23
  12  -7 -15   -0.05    0.11
  12   7 -15    0.05    0.09
  11  -7 -15    0.27    0.13
  11   7 -15    0.18    0.09
  10  -7 -15    0.06    0.12
  10   7 -15   -0.04    0.08
   9  -7 -15    2.53    0.24
   9   7 -15    2.38    0.18
   8  -7 -15    4.92    0.31
   8   7 -15    5.09    0.25
   7  -7 -15    0.06    0.11
   7   7 -15    0.08    0.08
   6  -7 -15   -0.01    0.10
   6   7 -15    0.06    0.08
  -6   7  15    0.04    0.08
   5  -7 -15    1.27    0.15
  -5   7  15    1.32    0.13
   5   7 -15    1.66    0.15
   4  -7 -15    0.27    0.11
   4   7 -15    0.28    0.10
  -4   7  15    0.30    0.09
   3  -7 -15    0.05    0.10
  -3   7  15    0.07    0.09
   3   7 -15    0.26    0.08
  -2  -7  15   -0.02    0.08
   2  -7 -15    0.01    0.09
   2   7 -15    0.00    0.08
  -2   7  15    0.05    0.09
   1  -7 -15    2.87    0.21
  -1  -7  15    2.55    0.19
  -1   7  15    2.37    0.17
   1   7 -15    2.53    0.18
   0  -7  15    0.00    0.09
   0  -7 -15   -0.13    0.09
   0   7 -15    0.05    0.08
   0   7  15   -0.04    0.09
   1  -7  15    0.02    0.08
   1   7  15    0.04    0.09
  -1   7 -15    0.06    0.08
   2  -7  15    0.01    0.09
   2   7  15    0.04    0.08
  -2   7 -15    0.00    0.08
   3  -7  15   -0.05    0.08
   3   7  15    0.07    0.09
  -3   7 -15    0.10    0.09
   4  -7  15    0.77    0.12
   4   7  15    0.41    0.11
  -4   7 -15    0.53    0.11
   5  -7  15    0.02    0.09
  -5   7 -15    0.10    0.08
   5   7  15    0.00    0.09
   6  -7  15    0.26    0.10
  -6   7 -15    0.08    0.08
   6   7  15    0.40    0.11
   7   7  15   -0.01    0.09
  -8   7 -15    0.10    0.12
   8   7  15    0.02    0.10
  11  -8 -15    1.52    0.22
  11   8 -15    1.60    0.16
  10  -8 -15    1.73    0.22
  10   8 -15    1.75    0.17
   9  -8 -15    0.63    0.16
   9   8 -15    0.59    0.12
   8  -8 -15    2.39    0.23
   8   8 -15    2.02    0.18
   7  -8 -15   -0.03    0.10
   7   8 -15   -0.01    0.09
   6  -8 -15    0.40    0.13
   6   8 -15    0.22    0.10
   5  -8 -15    7.01    0.35
   5   8 -15    6.72    0.31
  -5   8  15    7.11    0.29
   4  -8 -15    0.27    0.13
   4   8 -15    0.35    0.10
  -4   8  15    0.13    0.09
   3  -8 -15    0.09    0.11
   3   8 -15    0.05    0.09
  -3   8  15    0.18    0.10
   2  -8 -15    1.27    0.17
  -2   8  15    1.21    0.14
   2   8 -15    1.60    0.15
   1  -8 -15    0.22    0.11
   1   8 -15    0.34    0.10
  -1   8  15    0.12    0.10
   0  -8 -15    4.00    0.25
   0   8 -15    3.85    0.22
   0   8  15    3.69    0.22
  -1   8 -15    1.70    0.15
   1   8  15    1.58    0.16
  -2   8 -15    2.13    0.16
   2   8  15    2.12    0.18
  -3   8 -15    0.03    0.09
   3   8  15    0.07    0.09
  -4   8 -15    2.22    0.17
   4   8  15    2.25    0.19
   5   8  15   -0.02    0.09
  -5   8 -15    0.05    0.09
   6   8  15    3.18    0.23
   7   8  15   -0.06    0.10
   9  -9 -15    3.22    0.29
   9   9 -15    3.54    0.24
   8  -9 -15    6.81    0.39
   8   9 -15    7.18    0.33
   7  -9 -15    1.46    0.20
   7   9 -15    1.60    0.17
   6  -9 -15    0.03    0.13
   6   9 -15    0.04    0.09
   5  -9 -15    2.19    0.22
  -5   9  15    2.29    0.18
   5   9 -15    2.30    0.20
   4  -9 -15    0.06    0.13
  -4   9  15    0.20    0.10
   4   9 -15    0.33    0.12
   3  -9 -15    0.41    0.14
  -3   9  15    0.44    0.11
   3   9 -15    0.44    0.12
   2  -9 -15    1.92    0.20
  -2   9  15    1.75    0.17
   2   9 -15    2.38    0.18
   1  -9 -15    0.38    0.14
  -1   9  15    0.65    0.13
   1   9 -15    0.31    0.10
   0  -9 -15   -0.08    0.10
   0   9 -15   -0.05    0.08
   0   9  15   -0.01    0.09
   1   9  15    0.81    0.13
  -1   9 -15    0.87    0.13
  -2   9 -15   -0.09    0.08
   2   9  15   -0.03    0.09
  -3   9 -15   -0.02    0.09
   3   9  15   -0.10    0.09
  -4   9 -15   -0.04    0.08
   4   9  15    0.09    0.11
  -5   9 -15    0.02    0.09
   5   9  15   -0.09    0.10
   7 -10 -15    1.00    0.19
   7  10 -15    1.18    0.17
   6 -10 -15    0.22    0.15
   6  10 -15    0.28    0.12
   5 -10 -15    0.28    0.16
   5  10 -15    0.51    0.13
   4 -10 -15   -0.16    0.12
  -4  10  15   -0.09    0.09
   4  10 -15    0.02    0.10
   3 -10 -15    1.71    0.21
   3  10 -15    1.68    0.18
  -3  10  15    1.70    0.17
   2 -10 -15   -0.10    0.13
   2  10 -15    0.08    0.11
  -2  10  15   -0.10    0.10
   1 -10 -15    1.34    0.19
   1  10 -15    1.61    0.16
  -1  10  15    1.28    0.15
   0 -10 -15   -0.10    0.11
   0  10  15   -0.18    0.08
   0  10 -15   -0.08    0.09
  -1  10 -15    0.40    0.12
   1  10  15    0.40    0.12
  -2  10 -15    1.27    0.15
   2  10  15    1.21    0.16
  -3  10 -15   -0.04    0.09
   3  10  15    0.04    0.10
  15   0 -16   -0.02    0.10
  14   0 -16    0.23    0.10
  13   0 -16   -0.01    0.09
  12   0 -16    6.26    0.30
  12   0 -16    5.90    0.30
  11   0 -16   -0.05    0.08
  11   0 -16    0.05    0.08
  10   0 -16    0.40    0.10
  10   0 -16    0.19    0.09
   9   0 -16    0.00    0.07
  -9   0  16   -0.02    0.06
   9   0 -16    0.01    0.07
   8   0 -16    1.24    0.12
   8   0 -16    1.22    0.12
  -8   0  16    1.27    0.11
   7   0 -16    0.00    0.06
  -7   0  16   -0.05    0.06
   7   0 -16   -0.02    0.06
   6   0 -16    5.82    0.24
   6   0 -16    6.39    0.25
  -6   0  16    6.00    0.24
  -5   0  16    0.04    0.06
  -5   0  16    0.01    0.06
   5   0 -16    0.01    0.06
   5   0 -16    0.01    0.05
  -4   0  16   26.19    0.72
  -4   0  16   24.91    0.68
   4   0 -16   24.81    0.72
  -3   0  16   -0.04    0.06
  -3   0  16   -0.01    0.05
  -2   0  16   -0.05    0.07
  -2   0  16   -0.07    0.06
   0   0  16    3.17    0.16
   0   0  16    3.27    0.17
   1   0  16    0.14    0.07
   2   0  16    2.96    0.17
   2   0  16    2.85    0.17
   3   0  16   -0.06    0.05
  -3   0 -16   -0.17    0.06
   3   0  16   -0.09    0.07
  -4   0 -16   34.75    0.84
   4   0  16   32.66    0.89
  -5   0 -16   -0.11    0.07
   5   0  16   -0.06    0.07
   6   0  16    0.01    0.08
   7   0  16    0.01    0.08
   8   0  16    0.23    0.09
   9   0  16   -0.15    0.08
  15  -1 -16    1.13    0.18
  15   1 -16    1.11    0.17
  14  -1 -16    0.11    0.10
  14   1 -16    0.02    0.10
  13  -1 -16    2.55    0.21
  13   1 -16    2.34    0.21
  12  -1 -16    0.16    0.10
  12   1 -16    0.20    0.10
  11  -1 -16    0.13    0.09
  11   1 -16    0.21    0.10
  10  -1 -16    0.72    0.12
 -10  -1  16    0.69    0.09
  10   1 -16    0.56    0.10
  10   1 -16    0.55    0.08
   9  -1 -16    9.14    0.36
  -9  -1  16    9.85    0.33
  -9   1  16    9.63    0.31
   9   1 -16    9.19    0.36
   9   1 -16    9.42    0.32
   8  -1 -16    4.60    0.23
  -8  -1  16    4.93    0.21
   8   1 -16    4.44    0.20
  -8   1  16    4.92    0.20
   8   1 -16    4.38    0.23
  -7  -1  16    2.73    0.16
   7  -1 -16    2.79    0.18
  -7  -1  16    2.65    0.16
  -7   1  16    2.54    0.15
   7   1 -16    2.60    0.16
  -6  -1  16   18.08    0.53
   6  -1 -16   18.99    0.56
  -6  -1  16   18.24    0.56
   6   1 -16   18.61    0.54
  -6   1  16   17.94    0.51
   6   1 -16   17.73    0.56
   5  -1 -16    7.95    0.29
  -5  -1  16    7.75    0.29
  -5  -1  16    7.34    0.27
   5   1 -16    7.98    0.28
  -5   1  16    7.84    0.28
   5   1 -16    7.43    0.29
   4  -1 -16    3.53    0.17
  -4  -1  16    3.66    0.18
  -4  -1  16    3.53    0.18
  -4   1  16    3.85    0.18
  -3  -1  16    0.32    0.07
  -3  -1  16    0.28    0.07
  -3   1  16    0.18    0.07
  -2  -1  16    0.61    0.08
  -2  -1  16    0.61    0.10
  -2   1  16    0.66    0.09
  -1  -1  16    2.75    0.16
  -1  -1  16    2.44    0.15
  -1   1  16    2.47    0.15
   0  -1  16    0.13    0.06
   0  -1  16    0.10    0.07
   0   1  16    0.13    0.07
   1  -1  16    0.03    0.07
   1  -1  16   -0.01    0.06
   1   1  16    0.09    0.07
   2  -1  16    4.36    0.22
   2  -1  16    4.22    0.21
   2   1  16    4.34    0.21
   3  -1  16    3.75    0.19
   3  -1  16    3.78    0.21
   3   1  16    3.72    0.20
   4  -1  16    1.48    0.14
   4  -1  16    1.74    0.17
  -4   1 -16    1.62    0.14
   4   1  16    1.66    0.14
   5  -1  16    2.63    0.20
   5  -1  16    2.54    0.17
   5   1  16    2.58    0.17
  -5   1 -16    2.79    0.16
   6  -1  16    4.84    0.27
   6  -1  16    4.84    0.23
   6   1  16    4.97    0.24
  -6   1 -16    4.86    0.22
   7  -1  16    0.06    0.11
   7  -1  16   -0.10    0.07
  -7   1 -16    0.22    0.09
   7   1  16    0.05    0.08
   8  -1  16    0.54    0.11
   8  -1  16    0.33    0.13
  -8   1 -16    0.50    0.10
   8   1  16    0.49    0.11
   9  -1  16    2.64    0.18
  -9   1 -16    2.73    0.19
   9   1  16    2.73    0.19
  10   1  16    0.43    0.11
  15  -2 -16    9.95    0.46
  14  -2 -16    0.26    0.12
  13  -2 -16    2.38    0.21
  12  -2 -16    2.39    0.21
  11  -2 -16    3.29    0.23
 -10  -2  16    0.03    0.07
  10  -2 -16    0.15    0.08
  10   2 -16    0.06    0.06
  10   2 -16    0.01    0.08
   9  -2 -16    7.34    0.32
  -9  -2  16    7.52    0.29
   9   2 -16    7.44    0.27
   9   2 -16    7.66    0.33
  -8  -2  16    1.41    0.14
   8  -2 -16    1.63    0.15
  -8  -2  16    1.50    0.13
   8   2 -16    1.54    0.14
   8   2 -16    1.48    0.13
  -8   2  16    1.64    0.13
  -7  -2  16    1.31    0.12
  -7  -2  16    1.35    0.13
   7  -2 -16    1.63    0.15
   7   2 -16    1.10    0.11
  -7   2  16    1.58    0.13
   7   2 -16    1.43    0.14
  -6  -2  16    6.01    0.26
  -6  -2  16    6.10    0.25
   6  -2 -16    6.03    0.26
   6   2 -16    5.80    0.26
  -6   2  16    5.84    0.23
  -5  -2  16    2.04    0.14
   5  -2 -16    1.74    0.14
  -5  -2  16    2.02    0.15
  -5   2  16    1.77    0.13
   4  -2 -16    2.35    0.15
  -4  -2  16    2.31    0.15
  -4  -2  16    2.24    0.14
  -4   2  16    2.46    0.14
  -3  -2  16    0.37    0.08
  -3  -2  16    0.47    0.08
  -3   2  16    0.49    0.08
  -2  -2  16    8.77    0.31
  -2  -2  16    9.36    0.33
  -2   2  16    9.11    0.31
  -1  -2  16    0.45    0.08
  -1  -2  16    0.71    0.10
  -1   2  16    0.64    0.10
   0  -2  16    4.12    0.21
   0  -2  16    3.87    0.19
   0   2  16    4.33    0.20
   1  -2  16   -0.05    0.07
   1  -2  16   -0.03    0.07
   1   2  16   -0.08    0.06
   2  -2  16    0.01    0.07
   2  -2  16    0.09    0.09
   2   2  16   -0.03    0.07
   3  -2  16    1.18    0.14
   3  -2  16    1.17    0.12
   3   2  16    1.36    0.13
   4  -2  16   13.41    0.42
   4  -2  16   13.06    0.48
   4   2  16   12.98    0.43
   5  -2  16    0.80    0.11
   5  -2  16    1.09    0.15
   5   2  16    1.03    0.13
  -5   2 -16    0.79    0.11
   6  -2  16    0.51    0.09
   6  -2  16    0.57    0.14
   6   2  16    0.46    0.10
  -6   2 -16    0.55    0.10
   7  -2  16    3.05    0.18
   7  -2  16    2.68    0.23
   7   2  16    2.67    0.19
  -7   2 -16    2.60    0.17
   8  -2  16    0.26    0.09
  -8   2 -16    0.18    0.09
   8   2  16    0.31    0.09
   9   2  16    0.56    0.12
  -9   2 -16    0.59    0.11
 -10   2 -16    3.42    0.22
  10   2  16    3.77    0.22
 -11   2 -16    2.57    0.20
  15  -3 -16    0.24    0.13
  14  -3 -16    3.98    0.28
  13  -3 -16    2.65    0.23
  12  -3 -16    0.30    0.11
  11  -3 -16    0.97    0.15
  11   3 -16    0.77    0.10
 -10  -3  16    1.55    0.13
  10  -3 -16    1.48    0.15
  10   3 -16    1.41    0.13
  -9  -3  16    0.55    0.10
   9  -3 -16    0.41    0.11
  -9  -3  16    0.48    0.11
   9   3 -16    0.40    0.11
   9   3 -16    0.41    0.09
  -8  -3  16   -0.06    0.08
  -8  -3  16   -0.08    0.07
   8  -3 -16    0.00    0.08
   8   3 -16   -0.01    0.08
   8   3 -16    0.04    0.07
  -8   3  16    0.15    0.07
  -7  -3  16   33.84    0.89
  -7  -3  16   34.01    0.97
   7  -3 -16   33.42    0.94
  -7   3  16   34.06    0.87
   7   3 -16   32.99    0.88
   7   3 -16   31.85    0.97
   6  -3 -16    4.01    0.22
  -6  -3  16    3.89    0.20
  -6  -3  16    4.17    0.21
   6   3 -16    3.75    0.21
  -6   3  16    4.13    0.19
   6   3 -16    4.22    0.20
  -5  -3  16    6.24    0.27
  -5  -3  16    6.10    0.26
   5  -3 -16    6.15    0.27
  -5   3  16    6.38    0.24
   5   3 -16    6.35    0.26
  -4  -3  16    2.31    0.15
  -4  -3  16    2.16    0.15
   4  -3 -16    2.20    0.15
  -4   3  16    2.29    0.15
   3  -3 -16    0.22    0.07
  -3  -3  16    0.33    0.08
  -3  -3  16    0.18    0.08
  -3   3  16    0.19    0.07
  -2  -3  16    1.26    0.13
  -2  -3  16    1.24    0.12
  -2   3  16    1.15    0.11
  -1  -3  16    3.45    0.18
  -1  -3  16    3.44    0.19
  -1   3  16    3.35    0.18
   0  -3  16    7.50    0.28
   0  -3  16    8.10    0.32
   0   3  16    6.95    0.28
   1  -3  16   12.89    0.42
   1  -3  16   13.67    0.47
   1   3  16   13.45    0.43
   2  -3  16    0.09    0.10
   2  -3  16    0.18    0.08
   2   3  16    0.38    0.09
   3  -3  16    0.87    0.13
   3  -3  16    0.70    0.11
   3   3  16    0.94    0.12
   4  -3  16    0.42    0.09
   4  -3  16    0.44    0.13
   4   3  16    0.44    0.10
   5  -3  16    0.08    0.07
   5  -3  16    0.06    0.10
   5   3  16    0.05    0.09
   6  -3  16    0.22    0.09
   6  -3  16   -0.07    0.10
   6   3  16    0.05    0.09
  -6   3 -16    0.07    0.08
   7  -3  16    0.18    0.09
  -7   3 -16    0.30    0.10
   7   3  16    0.34    0.10
   8  -3  16    0.62    0.11
  -8   3 -16    0.92    0.12
   8   3  16    1.03    0.13
   9   3  16   -0.06    0.08
  -9   3 -16   -0.08    0.09
 -10   3 -16    1.58    0.16
  10   3  16    1.84    0.17
  14  -4 -16   -0.05    0.12
  13  -4 -16   -0.01    0.11
  12  -4 -16    0.20    0.11
  11  -4 -16    0.33    0.12
  11   4 -16    0.59    0.10
  10  -4 -16    0.73    0.14
  10   4 -16    0.75    0.10
   9  -4 -16    0.03    0.09
   9   4 -16    0.05    0.07
  -8  -4  16    0.66    0.11
  -8  -4  16    0.66    0.11
   8  -4 -16    0.53    0.11
   8   4 -16    0.66    0.11
   8   4 -16    0.39    0.09
  -7  -4  16    0.80    0.12
  -7  -4  16    0.62    0.10
   7  -4 -16    0.53    0.11
   7   4 -16    0.51    0.09
  -7   4  16    0.69    0.09
   7   4 -16    0.71    0.12
   6  -4 -16    0.34    0.10
  -6  -4  16    0.36    0.10
  -6  -4  16    0.32    0.10
   6   4 -16    0.30    0.09
  -6   4  16    0.46    0.09
   5  -4 -16    0.01    0.07
  -5  -4  16    0.02    0.07
  -5  -4  16   -0.09    0.08
   5   4 -16    0.10    0.07
  -5   4  16   -0.08    0.07
   4  -4 -16    3.87    0.21
  -4  -4  16    4.19    0.21
  -4  -4  16    4.14    0.22
  -4   4  16    4.17    0.20
   4   4 -16    4.03    0.20
   3  -4 -16   14.62    0.46
  -3  -4  16   14.38    0.46
  -3  -4  16   14.22    0.48
  -3   4  16   14.51    0.44
   3   4 -16   13.87    0.45
  -2  -4  16    1.04    0.13
  -2  -4  16    1.13    0.12
  -2   4  16    1.07    0.11
   2   4 -16    1.01    0.11
  -1  -4  16    4.55    0.22
  -1  -4  16    4.42    0.23
  -1   4  16    4.52    0.22
   0  -4  16    0.94    0.13
   0  -4  16    0.93    0.11
   0   4  16    0.79    0.11
   1  -4  16   13.35    0.43
   1  -4  16   13.68    0.48
   1   4  16   13.20    0.44
   2  -4  16   10.80    0.42
   2  -4  16   10.67    0.37
   2   4  16   10.43    0.37
   3  -4  16    2.16    0.20
   3  -4  16    2.19    0.16
   3   4  16    1.93    0.16
   4  -4  16   13.65    0.51
   4  -4  16   12.73    0.43
   4   4  16   12.49    0.43
   5  -4  16    0.97    0.12
   5   4  16    1.05    0.13
   6  -4  16    2.82    0.18
   6   4  16    2.94    0.20
   7  -4  16    0.92    0.12
   7   4  16    0.75    0.13
  -7   4 -16    0.93    0.13
   8   4  16    0.01    0.09
  -8   4 -16   -0.07    0.08
   9   4  16    1.82    0.17
  -9   4 -16    1.75    0.17
 -10   4 -16    0.10    0.11
  10   4  16    0.11    0.11
  14  -5 -16    1.19    0.20
  13  -5 -16    0.52    0.16
  12  -5 -16    0.02    0.11
  11  -5 -16    1.83    0.20
  11   5 -16    1.64    0.15
  10  -5 -16    3.97    0.27
  10   5 -16    3.76    0.21
   9  -5 -16    0.22    0.11
   9   5 -16    0.06    0.08
   8  -5 -16    7.11    0.34
   8   5 -16    6.35    0.27
   7  -5 -16    1.44    0.16
  -7  -5  16    1.25    0.13
  -7  -5  16    1.54    0.16
   7   5 -16    1.07    0.12
  -7   5  16    1.52    0.14
   6  -5 -16   -0.14    0.07
  -6  -5  16   -0.07    0.08
  -6  -5  16    0.00    0.08
  -6   5  16   -0.10    0.06
   6   5 -16   -0.11    0.06
  -5  -5  16    0.37    0.10
  -5  -5  16    0.47    0.10
   5  -5 -16    0.31    0.10
  -5   5  16    0.40    0.09
   5   5 -16    0.28    0.08
   4  -5 -16    0.37    0.10
  -4  -5  16    0.58    0.11
  -4  -5  16    0.40    0.11
   4   5 -16    0.72    0.11
  -4   5  16    0.58    0.10
   3  -5 -16   -0.07    0.07
  -3  -5  16    0.23    0.10
  -3  -5  16    0.16    0.09
   3   5 -16    0.07    0.08
  -3   5  16    0.08    0.07
  -2  -5  16    3.93    0.23
   2  -5 -16    3.50    0.21
  -2  -5  16    3.61    0.20
   2   5 -16    3.61    0.19
  -2   5  16    3.54    0.20
  -1  -5  16   10.27    0.40
  -1  -5  16   10.32    0.37
  -1   5  16    9.74    0.36
   1   5 -16   10.53    0.36
   0  -5  16    8.63    0.36
   0  -5  16    8.84    0.33
   0   5 -16    8.51    0.32
   0   5  16    8.55    0.32
   1  -5  16   11.07    0.44
   1  -5  16   11.30    0.39
  -1   5 -16   10.86    0.38
   1   5  16   11.07    0.39
   2  -5  16    0.11    0.10
   2  -5  16   -0.03    0.08
   2   5  16    0.08    0.08
  -2   5 -16   -0.03    0.07
   3  -5  16    0.10    0.08
   3  -5  16    0.17    0.12
  -3   5 -16    0.01    0.08
   3   5  16    0.05    0.09
   4  -5  16    7.39    0.30
  -4   5 -16    7.36    0.29
   4   5  16    6.84    0.31
   5  -5  16    0.38    0.10
   5   5  16    0.31    0.10
  -5   5 -16    0.57    0.10
   6  -5  16    1.12    0.13
  -6   5 -16    1.00    0.12
   6   5  16    1.01    0.13
   7  -5  16    2.27    0.18
  -7   5 -16    2.20    0.20
   7   5  16    2.53    0.20
  -7   5 -16    2.49    0.17
   8   5  16    1.21    0.16
  -8   5 -16    1.06    0.14
  -9   5 -16    0.02    0.11
   9   5  16    0.08    0.10
  13  -6 -16    1.83    0.23
  12  -6 -16    0.15    0.12
  12   6 -16    0.14    0.09
  11  -6 -16    0.05    0.12
  11   6 -16    0.06    0.08
  10  -6 -16    0.97    0.17
  10   6 -16    1.15    0.13
   9  -6 -16    0.15    0.12
   9   6 -16   -0.07    0.07
   8  -6 -16   -0.02    0.10
   8   6 -16    0.00    0.07
   7  -6 -16    1.97    0.19
   7   6 -16    1.98    0.16
   6  -6 -16    1.88    0.18
  -6   6  16    1.59    0.14
   6   6 -16    1.57    0.15
   5  -6 -16    1.67    0.17
  -5  -6  16    1.61    0.15
   5   6 -16    1.63    0.14
  -5   6  16    1.88    0.15
  -4  -6  16    3.14    0.20
   4  -6 -16    2.96    0.21
  -4   6  16    3.15    0.19
   4   6 -16    3.26    0.19
  -3  -6  16    1.96    0.17
   3  -6 -16    1.80    0.17
  -3  -6  16    1.97    0.17
  -3   6  16    1.72    0.15
   3   6 -16    2.00    0.16
  -2  -6  16    1.94    0.17
   2  -6 -16    1.94    0.17
  -2  -6  16    1.89    0.18
  -2   6  16    1.98    0.16
   2   6 -16    2.09    0.15
  -1  -6  16    1.95    0.17
  -1  -6  16    1.84    0.17
   1   6 -16    1.87    0.16
  -1   6  16    1.76    0.15
   0  -6  16    1.44    0.15
   0   6  16    1.29    0.14
   0   6 -16    1.13    0.12
   1  -6  16    3.45    0.21
  -1   6 -16    3.37    0.20
   1   6  16    3.43    0.20
   2  -6  16    0.69    0.12
   2   6  16    0.75    0.13
  -2   6 -16    0.63    0.10
   3  -6  16   -0.10    0.09
  -3   6 -16   -0.10    0.07
   3   6  16    0.06    0.09
   4  -6  16    1.12    0.13
   4   6  16    1.14    0.15
  -4   6 -16    1.23    0.13
   5  -6  16    5.29    0.26
   5   6  16    4.78    0.26
  -5   6 -16    5.41    0.24
   6  -6  16    0.10    0.09
  -6   6 -16    0.05    0.08
   6   6  16    0.15    0.10
   7   6  16    1.84    0.18
  -7   6 -16    2.07    0.19
  -8   6 -16    0.55    0.14
   8   6  16    0.54    0.13
   9   6  16    0.72    0.14
  12  -7 -16    0.01    0.13
  12   7 -16   -0.10    0.08
  11  -7 -16   -0.13    0.12
  11   7 -16   -0.15    0.08
  10  -7 -16    0.75    0.17
  10   7 -16    0.76    0.13
   9  -7 -16    0.10    0.12
   9   7 -16   -0.07    0.09
   8  -7 -16    5.19    0.32
   8   7 -16    5.70    0.27
   7  -7 -16    3.11    0.25
   7   7 -16    2.83    0.20
   6  -7 -16    0.72    0.14
   6   7 -16    0.84    0.12
  -6   7  16    0.88    0.12
   5  -7 -16    1.12    0.16
   5   7 -16    1.14    0.13
  -5   7  16    1.03    0.13
   4  -7 -16    0.94    0.15
  -4   7  16    0.69    0.11
   4   7 -16    0.69    0.11
   3  -7 -16    0.01    0.10
  -3  -7  16   -0.02    0.08
   3   7 -16    0.00    0.08
  -3   7  16    0.03    0.09
   2  -7 -16    3.56    0.23
  -2  -7  16    3.32    0.21
   2   7 -16    3.44    0.20
  -2   7  16    3.54    0.21
  -1  -7  16    0.35    0.10
  -1   7  16    0.36    0.10
   1   7 -16    0.32    0.10
   0  -7  16   -0.14    0.08
   0   7  16    0.08    0.09
   0   7 -16    0.02    0.08
   1  -7  16    4.02    0.23
  -1   7 -16    3.93    0.21
   1   7  16    3.43    0.21
   2  -7  16    1.98    0.17
  -2   7 -16    2.19    0.16
   2   7  16    2.12    0.17
   3  -7  16   -0.02    0.09
  -3   7 -16    0.01    0.08
   3   7  16    0.05    0.09
   4  -7  16    0.87    0.13
  -4   7 -16    0.85    0.12
   4   7  16    0.76    0.13
   5  -7  16    0.17    0.10
  -5   7 -16    0.19    0.09
   5   7  16    0.09    0.10
   6  -7  16    0.09    0.10
  -6   7 -16    0.02    0.08
   6   7  16    0.09    0.11
   7   7  16    0.06    0.10
   8   7  16    3.28    0.23
  10  -8 -16    0.90    0.17
  10   8 -16    0.78    0.14
   9  -8 -16    0.22    0.13
   9   8 -16    0.08    0.10
   8  -8 -16    0.17    0.14
   8   8 -16    0.33    0.11
   7  -8 -16   -0.01    0.11
   7   8 -16    0.06    0.09
   6  -8 -16    1.51    0.19
   6   8 -16    1.84    0.17
   5  -8 -16    6.25    0.34
   5   8 -16    5.77    0.28
  -5   8  16    6.37    0.28
   4  -8 -16   -0.01    0.11
  -4   8  16    0.14    0.09
   4   8 -16    0.23    0.10
   3  -8 -16    0.12    0.12
  -3   8  16    0.06    0.09
   3   8 -16    0.18    0.09
   2  -8 -16   -0.09    0.10
  -2   8  16   -0.03    0.08
   2   8 -16   -0.06    0.08
   1   8 -16    0.01    0.09
  -1   8  16    0.01    0.09
   0   8 -16    0.18    0.10
   0   8  16    0.12    0.10
   1   8  16   -0.01    0.10
  -1   8 -16    0.01    0.08
  -2   8 -16    0.03    0.08
   2   8  16    0.02    0.09
   3   8  16   -0.02    0.08
  -3   8 -16    0.08    0.09
  -4   8 -16    0.03    0.09
   4   8  16   -0.03    0.10
   5   8  16    0.19    0.11
  -5   8 -16    0.13    0.09
   6   8  16    0.38    0.13
   8  -9 -16    0.16    0.14
   8   9 -16    0.14    0.11
   7  -9 -16   -0.13    0.13
   7   9 -16    0.07    0.10
   6  -9 -16    0.79    0.18
   6   9 -16    1.22    0.16
   5  -9 -16    3.89    0.29
  -5   9  16    3.15    0.21
   5   9 -16    3.41    0.23
   4  -9 -16    4.98    0.32
  -4   9  16    4.87    0.26
   4   9 -16    4.99    0.27
   3  -9 -16    4.13    0.29
  -3   9  16    4.14    0.23
   3   9 -16    4.18    0.25
   2  -9 -16   -0.06    0.11
  -2   9  16   -0.09    0.10
   2   9 -16    0.01    0.09
   1  -9 -16    0.05    0.12
   1   9 -16    0.02    0.09
  -1   9  16   -0.09    0.10
   0   9  16    0.01    0.10
   0   9 -16    0.09    0.10
   1   9  16    2.44    0.21
  -1   9 -16    2.32    0.19
   2   9  16    0.02    0.10
  -2   9 -16   -0.07    0.09
  -3   9 -16    1.02    0.14
   3   9  16    0.77    0.14
  -4   9 -16    0.24    0.10
   4   9  16    0.39    0.13
   5 -10 -16    0.07    0.14
   5  10 -16    0.05    0.11
   4 -10 -16    0.51    0.17
   4  10 -16    0.67    0.13
  -4  10  16    0.63    0.13
   3 -10 -16    1.25    0.20
   3  10 -16    1.51    0.17
  -3  10  16    1.32    0.16
   2 -10 -16    3.00    0.28
  -2  10  16    3.03    0.22
   2  10 -16    3.42    0.23
   1 -10 -16    0.34    0.15
  -1  10  16    0.18    0.12
   1  10 -16    0.41    0.12
   0  10 -16    0.11    0.11
   0  10  16    0.01    0.10
   1  10  16    0.05    0.11
  -1  10 -16    0.00    0.11
  15   0 -17    0.87    0.16
  14   0 -17    0.07    0.11
  13   0 -17    1.04    0.16
  12   0 -17    0.11    0.09
  11   0 -17    3.05    0.21
  10   0 -17    0.03    0.07
   9   0 -17    8.02    0.33
  -9   0  17    8.00    0.29
   9   0 -17    8.49    0.33
   8   0 -17   -0.04    0.06
  -8   0  17   -0.11    0.06
   8   0 -17   -0.03    0.06
   7   0 -17    2.44    0.16
   7   0 -17    2.41    0.15
  -7   0  17    2.14    0.15
  -6   0  17    0.12    0.07
   6   0 -17    0.01    0.06
   6   0 -17   -0.06    0.06
  -6   0  17    0.09    0.05
  -5   0  17   20.14    0.58
  -5   0  17   20.88    0.60
   5   0 -17   20.00    0.60
   4   0 -17   -0.10    0.05
  -4   0  17   -0.03    0.05
  -4   0  17    0.03    0.06
  -3   0  17    0.53    0.09
  -2   0  17   -0.07    0.06
  -1   0  17    1.72    0.13
   0   0  17    0.08    0.07
   1   0  17    0.31    0.08
   2   0  17   -0.06    0.06
   3   0  17    0.37    0.09
   4   0  17    0.03    0.08
   5   0  17   -0.07    0.08
   6   0  17   -0.04    0.08
   7   0  17    0.57    0.11
   8   0  17    0.01    0.08
   9   0  17    0.20    0.10
  15  -1 -17   -0.09    0.11
  15   1 -17    0.04    0.10
  14  -1 -17    0.04    0.10
  14   1 -17    0.09    0.11
  13  -1 -17    1.53    0.18
  13   1 -17    1.55    0.17
  12  -1 -17    0.84    0.14
  12   1 -17    0.96    0.14
  11  -1 -17    0.58    0.11
  11   1 -17    0.65    0.12
  11   1 -17    0.44    0.11
  10  -1 -17    1.20    0.13
 -10  -1  17    1.42    0.13
  10   1 -17    1.18    0.13
  10   1 -17    1.18    0.14
  10   1 -17    1.29    0.12
  -9  -1  17    1.17    0.12
   9  -1 -17    1.05    0.12
   9   1 -17    1.01    0.13
   9   1 -17    1.08    0.11
   9   1 -17    0.96    0.12
  -9   1  17    1.07    0.11
   8  -1 -17    4.36    0.23
  -8  -1  17    4.35    0.21
   8   1 -17    4.01    0.22
   8   1 -17    4.41    0.23
  -8   1  17    4.10    0.20
  -7  -1  17    3.25    0.18
  -7  -1  17    3.43    0.18
   7  -1 -17    3.45    0.19
  -7   1  17    3.16    0.17
   7   1 -17    3.09    0.19
   7   1 -17    3.47    0.19
   6  -1 -17    1.50    0.14
  -6  -1  17    1.40    0.13
  -6  -1  17    1.34    0.12
  -6   1  17    1.56    0.13
   6   1 -17    1.32    0.13
   6   1 -17    1.52    0.13
  -5  -1  17    7.31    0.28
  -5  -1  17    7.68    0.28
   5   1 -17    7.25    0.29
  -5   1  17    7.53    0.28
  -4  -1  17    1.66    0.13
  -4  -1  17    1.53    0.14
  -4   1  17    1.63    0.13
  -3  -1  17    0.42    0.09
  -3  -1  17    0.06    0.07
  -3   1  17   -0.04    0.07
  -2  -1  17    1.34    0.12
  -2  -1  17    1.24    0.11
  -2   1  17    1.19    0.12
  -1  -1  17   -0.03    0.06
  -1  -1  17    0.08    0.06
  -1   1  17   -0.10    0.06
   0  -1  17    3.62    0.19
   0  -1  17    3.83    0.19
   0   1  17    3.65    0.19
   1  -1  17    0.83    0.11
   1  -1  17    1.03    0.11
   1   1  17    0.77    0.10
   2  -1  17    1.46    0.14
   2  -1  17    1.55    0.14
   2   1  17    1.53    0.13
   3  -1  17    0.35    0.11
   3  -1  17    0.45    0.09
   3   1  17    0.44    0.09
   4  -1  17    5.68    0.25
   4  -1  17    5.76    0.28
  -4   1 -17    5.56    0.23
   4   1  17    5.74    0.26
   5  -1  17    1.24    0.15
   5  -1  17    1.23    0.13
   5   1  17    1.27    0.13
  -5   1 -17    1.16    0.12
   6  -1  17    3.55    0.20
   6   1  17    3.26    0.19
  -6   1 -17    3.58    0.19
   7  -1  17    6.15    0.27
   7   1  17    6.46    0.28
   8  -1  17   -0.05    0.08
   8   1  17    0.02    0.08
   9  -1  17    0.42    0.11
   9   1  17    0.66    0.12
  10   1  17    3.27    0.21
  14  -2 -17    1.43    0.19
  13  -2 -17    3.56    0.26
  12  -2 -17    0.19    0.10
  11  -2 -17    0.36    0.11
 -10  -2  17    1.16    0.12
  10  -2 -17    0.96    0.13
  10   2 -17    0.90    0.13
  10   2 -17    1.05    0.11
  -9  -2  17    1.19    0.13
   9  -2 -17    0.94    0.13
   9   2 -17    0.79    0.10
   9   2 -17    0.76    0.12
  -8  -2  17    6.63    0.27
  -8  -2  17    6.78    0.29
   8  -2 -17    6.44    0.29
   8   2 -17    6.54    0.26
   8   2 -17    6.32    0.29
  -8   2  17    6.41    0.25
   7  -2 -17   18.22    0.58
  -7  -2  17   18.78    0.59
  -7  -2  17   18.44    0.55
   7   2 -17   18.37    0.59
  -7   2  17   18.86    0.53
   7   2 -17   18.36    0.54
   6  -2 -17    7.00    0.29
  -6  -2  17    7.20    0.29
  -6  -2  17    6.96    0.28
  -6   2  17    7.22    0.27
   6   2 -17    6.69    0.29
   5  -2 -17    3.62    0.20
  -5  -2  17    3.79    0.20
  -5  -2  17    3.70    0.20
  -5   2  17    4.04    0.19
  -4  -2  17    1.23    0.12
  -4  -2  17    1.45    0.13
  -4   2  17    1.25    0.12
  -3  -2  17    0.51    0.09
  -3  -2  17    0.36    0.08
  -3   2  17    0.49    0.08
  -2  -2  17   14.76    0.46
  -2  -2  17   15.37    0.48
  -2   2  17   14.40    0.45
  -1  -2  17    1.60    0.14
  -1  -2  17    1.60    0.14
  -1   2  17    1.68    0.14
   0  -2  17    9.26    0.34
   0  -2  17    8.45    0.31
   0   2  17    9.13    0.33
   1  -2  17    4.13    0.22
   1  -2  17    3.85    0.20
   1   2  17    4.43    0.22
   2  -2  17    1.05    0.11
   2  -2  17    1.16    0.13
   2   2  17    1.12    0.12
   3  -2  17    5.73    0.25
   3  -2  17    6.19    0.29
   3   2  17    5.90    0.26
   4  -2  17    7.60    0.30
   4  -2  17    8.10    0.35
   4   2  17    7.57    0.31
   5  -2  17    0.51    0.10
   5  -2  17    0.68    0.14
   5   2  17    0.50    0.11
  -5   2 -17    0.67    0.11
   6  -2  17    0.43    0.10
   6  -2  17    0.46    0.13
  -6   2 -17    0.42    0.10
   6   2  17    0.43    0.10
   7  -2  17    0.01    0.08
  -7   2 -17    0.06    0.08
   7   2  17    0.07    0.09
   8  -2  17   -0.03    0.07
  -8   2 -17    0.06    0.09
   8   2  17   -0.08    0.08
  -9   2 -17    0.79    0.13
   9   2  17    0.87    0.13
  10   2  17    0.09    0.10
 -10   2 -17    0.17    0.10
  14  -3 -17    0.24    0.13
  13  -3 -17    0.04    0.11
  12  -3 -17    1.21    0.17
  11  -3 -17    2.56    0.22
  11   3 -17    2.19    0.16
 -10  -3  17    2.18    0.16
  10  -3 -17    2.13    0.20
  10   3 -17    1.97    0.15
   9  -3 -17    1.24    0.15
  -9  -3  17    1.30    0.13
  -9  -3  17    1.23    0.15
   9   3 -17    1.44    0.13
   9   3 -17    1.21    0.15
  -8  -3  17    4.62    0.25
   8  -3 -17    4.73    0.26
  -8  -3  17    4.99    0.24
  -8   3  17    4.93    0.21
   8   3 -17    4.54    0.25
   8   3 -17    4.14    0.21
   7  -3 -17   13.19    0.46
  -7  -3  17   13.03    0.46
  -7  -3  17   13.38    0.44
   7   3 -17   12.90    0.47
   7   3 -17   12.95    0.42
  -7   3  17   14.04    0.42
  -6  -3  17    4.94    0.23
   6  -3 -17    4.50    0.24
  -6  -3  17    4.76    0.23
  -6   3  17    4.75    0.21
   6   3 -17    4.52    0.24
   6   3 -17    4.98    0.22
  -5  -3  17    1.04    0.12
   5  -3 -17    1.11    0.12
  -5  -3  17    0.98    0.12
  -5   3  17    1.16    0.11
   5   3 -17    1.16    0.11
  -4  -3  17    3.64    0.20
  -4  -3  17    3.53    0.19
  -4   3  17    3.54    0.18
  -3  -3  17    3.44    0.19
  -3  -3  17    3.45    0.19
  -3   3  17    3.22    0.18
  -2  -3  17    1.73    0.15
  -2  -3  17    1.74    0.14
  -2   3  17    1.76    0.14
  -1  -3  17    0.07    0.07
  -1  -3  17   -0.04    0.08
  -1   3  17    0.02    0.07
   0  -3  17    3.88    0.22
   0  -3  17    3.68    0.19
   0   3  17    3.49    0.20
   1  -3  17    0.09    0.09
   1  -3  17    0.16    0.08
   1   3  17    0.19    0.09
   2  -3  17    0.21    0.09
   2  -3  17    0.15    0.10
   2   3  17    0.21    0.09
   3  -3  17    1.01    0.14
   3  -3  17    1.00    0.12
   3   3  17    0.93    0.12
   4  -3  17    1.00    0.12
   4  -3  17    0.80    0.14
   4   3  17    0.69    0.12
   5  -3  17   17.54    0.61
   5  -3  17   16.84    0.52
   5   3  17   16.23    0.53
   6  -3  17   -0.06    0.08
  -6   3 -17    0.11    0.09
   6   3  17   -0.01    0.08
   7  -3  17    1.95    0.16
   7   3  17    1.78    0.17
  -7   3 -17    1.89    0.16
   8  -3  17   -0.08    0.08
  -8   3 -17    0.00    0.08
   8   3  17    0.01    0.09
   9   3  17    0.91    0.14
  -9   3 -17    0.78    0.13
  10   3  17   -0.09    0.10
 -10   3 -17   -0.04    0.09
  14  -4 -17    1.63    0.21
  13  -4 -17    0.55    0.15
  12  -4 -17   -0.08    0.10
  11  -4 -17    0.12    0.10
  11   4 -17    0.22    0.08
  10  -4 -17    0.44    0.12
  10   4 -17    0.54    0.10
   9  -4 -17    0.82    0.14
  -9  -4  17    0.72    0.12
   9   4 -17    0.83    0.11
  -8  -4  17    0.74    0.11
  -8  -4  17    0.93    0.14
   8  -4 -17    0.89    0.13
   8   4 -17    0.85    0.11
   7  -4 -17    9.48    0.38
  -7  -4  17    9.49    0.35
  -7  -4  17    9.85    0.38
   7   4 -17    9.55    0.39
  -7   4  17    9.54    0.32
   7   4 -17    8.83    0.33
   6  -4 -17    1.50    0.15
  -6  -4  17    1.27    0.14
  -6  -4  17    1.64    0.15
   6   4 -17    1.50    0.15
   6   4 -17    1.75    0.15
  -6   4  17    1.63    0.13
  -5  -4  17    0.07    0.08
   5  -4 -17   -0.08    0.07
  -5  -4  17   -0.14    0.07
   5   4 -17    0.15    0.08
  -5   4  17   -0.03    0.07
   4  -4 -17    2.39    0.17
  -4  -4  17    2.61    0.17
  -4  -4  17    2.15    0.17
  -4   4  17    2.43    0.16
   4   4 -17    2.55    0.16
  -3  -4  17    5.28    0.26
  -3  -4  17    5.53    0.25
  -3   4  17    5.23    0.23
   3   4 -17    5.29    0.24
  -2  -4  17    4.98    0.25
  -2  -4  17    5.11    0.24
   2   4 -17    4.91    0.23
  -2   4  17    5.09    0.24
  -1  -4  17    6.93    0.28
  -1  -4  17    7.12    0.31
  -1   4  17    6.82    0.28
   0  -4  17    5.61    0.25
   0  -4  17    5.40    0.27
   0   4  17    5.25    0.25
   1  -4  17    0.60    0.12
   1  -4  17    0.81    0.12
   1   4  17    0.54    0.11
   2  -4  17    0.08    0.08
   2  -4  17    0.13    0.10
   2   4  17    0.12    0.09
   3  -4  17   -0.16    0.09
   3  -4  17    0.10    0.08
   3   4  17   -0.03    0.09
   4  -4  17    2.90    0.19
   4  -4  17    3.05    0.23
   4   4  17    2.47    0.19
   5  -4  17    0.22    0.10
   5   4  17    0.23    0.10
   6  -4  17    0.66    0.11
  -6   4 -17    0.50    0.11
   6   4  17    0.54    0.12
   7  -4  17    0.06    0.08
  -7   4 -17   -0.04    0.09
   7   4  17    0.05    0.10
   8   4  17    0.17    0.10
  -8   4 -17    0.17    0.11
   9   4  17    0.21    0.11
  -9   4 -17    0.35    0.11
  13  -5 -17    2.20    0.23
  12  -5 -17    1.48    0.20
  11  -5 -17    0.39    0.14
  11   5 -17    0.19    0.09
  10  -5 -17    1.75    0.19
  10   5 -17    1.43    0.13
   9  -5 -17    0.22    0.12
   9   5 -17    0.14    0.09
   8  -5 -17    0.93    0.14
   8   5 -17    0.71    0.11
   7  -5 -17    0.05    0.08
  -7  -5  17   -0.04    0.08
  -7   5  17    0.03    0.07
   7   5 -17   -0.05    0.07
  -6  -5  17    2.46    0.18
   6  -5 -17    2.61    0.20
  -6   5  17    2.57    0.17
   6   5 -17    2.53    0.17
   5  -5 -17    0.03    0.08
  -5  -5  17    0.01    0.08
  -5  -5  17    0.14    0.09
   5   5 -17    0.07    0.07
  -5   5  17    0.06    0.08
  -4  -5  17    0.29    0.11
  -4  -5  17    0.16    0.09
   4  -5 -17    0.10    0.09
  -4   5  17    0.25    0.09
   4   5 -17    0.28    0.09
  -3  -5  17    3.47    0.21
  -3  -5  17    3.89    0.21
   3   5 -17    3.45    0.20
  -3   5  17    3.72    0.20
  -2  -5  17   -0.08    0.08
  -2  -5  17   -0.05    0.07
   2   5 -17    0.03    0.07
  -2   5  17   -0.06    0.08
  -1  -5  17    0.26    0.09
  -1  -5  17    0.03    0.09
  -1   5  17    0.03    0.08
   1   5 -17    0.05    0.08
   0  -5  17    1.78    0.18
   0  -5  17    1.67    0.15
   0   5  17    1.83    0.15
   0   5 -17    1.45    0.14
   1  -5  17    1.35    0.14
   1  -5  17    1.42    0.17
  -1   5 -17    1.41    0.14
   1   5  17    1.14    0.14
   2  -5  17    6.04    0.27
   2   5  17    5.27    0.26
  -2   5 -17    5.35    0.25
   3  -5  17   12.42    0.43
   3   5  17   11.75    0.42
  -3   5 -17   12.39    0.42
   4  -5  17    2.86    0.19
   4   5  17    3.28    0.22
  -4   5 -17    3.07    0.19
   5  -5  17    0.66    0.11
   5   5  17    0.74    0.12
  -5   5 -17    0.47    0.10
   6  -5  17    0.27    0.10
  -6   5 -17    0.52    0.11
   6   5  17    0.29    0.11
   7  -5  17    1.01    0.13
  -7   5 -17    0.73    0.13
   7   5  17    0.76    0.14
  -7   5 -17    0.73    0.11
  -8   5 -17    1.45    0.16
   8   5  17    1.45    0.17
   9   5  17   -0.08    0.10
  -9   5 -17   -0.13    0.11
  12  -6 -17    0.39    0.14
  12   6 -17    0.22    0.10
  11  -6 -17    1.24    0.19
  11   6 -17    1.06    0.13
  10  -6 -17    1.62    0.19
  10   6 -17    1.64    0.15
   9  -6 -17    0.04    0.11
   9   6 -17   -0.02    0.08
   8  -6 -17    0.37    0.13
   8   6 -17    0.50    0.11
   7  -6 -17    1.62    0.18
   7   6 -17    1.50    0.15
   6  -6 -17    1.09    0.14
  -6  -6  17    0.88    0.14
   6   6 -17    1.14    0.13
  -6   6  17    1.13    0.12
   5  -6 -17    0.00    0.09
  -5  -6  17    0.05    0.09
  -5   6  17   -0.02    0.08
   5   6 -17    0.00    0.07
   4  -6 -17   -0.02    0.09
  -4  -6  17   -0.08    0.09
  -4   6  17    0.01    0.08
   4   6 -17    0.06    0.08
  -3  -6  17    5.07    0.25
   3   6 -17    4.91    0.24
  -3   6  17    4.68    0.24
  -2  -6  17    3.72    0.22
  -2   6  17    3.78    0.22
   2   6 -17    3.78    0.21
  -1  -6  17    4.30    0.23
   1   6 -17    4.42    0.22
  -1   6  17    4.27    0.22
   0  -6  17    0.05    0.09
   0   6  17    0.13    0.09
   0   6 -17    0.13    0.08
   1  -6  17    0.00    0.09
   1   6  17   -0.04    0.08
  -1   6 -17   -0.08    0.07
   2  -6  17    3.86    0.22
  -2   6 -17    3.93    0.21
   2   6  17    3.95    0.23
   3  -6  17   -0.18    0.08
   3   6  17    0.10    0.09
  -3   6 -17    0.01    0.09
   4  -6  17    3.87    0.22
   4   6  17    4.01    0.24
  -4   6 -17    4.09    0.21
   5  -6  17    0.36    0.11
  -5   6 -17    0.44    0.10
   5   6  17    0.32    0.11
   6  -6  17    0.80    0.12
  -6   6 -17    0.54    0.11
   6   6  17    0.58    0.12
  -7   6 -17    2.64    0.22
   7   6  17    2.93    0.22
   8   6  17    2.84    0.23
  11  -7 -17    0.77    0.18
  11   7 -17    0.63    0.13
  10  -7 -17    1.51    0.20
  10   7 -17    1.17    0.15
   9  -7 -17    0.75    0.17
   9   7 -17    0.68    0.12
   8  -7 -17    2.85    0.25
   8   7 -17    2.82    0.19
   7  -7 -17   -0.03    0.10
   7   7 -17   -0.12    0.08
   6  -7 -17    0.88    0.16
   6   7 -17    0.91    0.13
  -6   7  17    0.79    0.12
   5  -7 -17    2.24    0.21
   5   7 -17    2.54    0.18
  -5   7  17    2.57    0.18
   4  -7 -17    0.34    0.13
   4   7 -17    0.50    0.11
  -4   7  17    0.24    0.09
   3  -7 -17    0.47    0.13
  -3  -7  17    0.38    0.11
   3   7 -17    0.51    0.11
  -3   7  17    0.45    0.11
  -2  -7  17    0.02    0.10
   2   7 -17    0.12    0.09
  -2   7  17    0.06    0.08
  -1  -7  17    8.78    0.36
   1   7 -17    8.88    0.34
  -1   7  17    8.88    0.35
   0  -7  17   -0.05    0.08
   0   7  17    0.24    0.10
   0   7 -17    0.10    0.09
   1  -7  17    1.64    0.16
   1   7  17    1.41    0.15
  -1   7 -17    1.93    0.17
   2  -7  17    1.51    0.16
   2   7  17    1.60    0.16
  -2   7 -17    1.36    0.14
   3  -7  17    0.99    0.14
   3   7  17    0.79    0.13
  -3   7 -17    0.93    0.13
   4  -7  17    2.34    0.19
  -4   7 -17    2.04    0.17
   4   7  17    2.05    0.19
   5  -7  17    1.19    0.15
  -5   7 -17    1.11    0.13
   5   7  17    0.87    0.14
   6  -7  17    0.20    0.11
   6   7  17    0.06    0.11
  -6   7 -17    0.18    0.10
   7   7  17    1.18    0.16
   9  -8 -17    0.23    0.15
   9   8 -17    0.02    0.10
   8  -8 -17    1.54    0.21
   8   8 -17    1.68    0.17
   7  -8 -17    1.28    0.19
   7   8 -17    1.51    0.17
   6  -8 -17    0.36    0.13
   6   8 -17    0.59    0.13
   5  -8 -17    0.39    0.14
  -5   8  17    0.19    0.10
   5   8 -17    0.11    0.10
   4  -8 -17    6.00    0.33
   4   8 -17    5.71    0.28
  -4   8  17    5.72    0.27
   3  -8 -17   -0.05    0.11
  -3   8  17    0.10    0.10
   3   8 -17   -0.02    0.09
  -2   8  17    3.65    0.23
   2   8 -17    3.96    0.23
   1   8 -17    2.43    0.19
  -1   8  17    2.21    0.18
   0   8 -17    0.64    0.12
   0   8  17    0.61    0.13
  -1   8 -17    0.58    0.12
   1   8  17    0.40    0.11
   2  -8  17   -0.16    0.09
   2   8  17    0.04    0.09
  -2   8 -17   -0.11    0.09
   3  -8  17    0.26    0.10
  -3   8 -17    0.49    0.11
   3   8  17    0.49    0.12
   4  -8  17   -0.07    0.10
  -4   8 -17    0.05    0.09
   4   8  17    0.04    0.11
   5  -8  17    0.06    0.11
  -5   8 -17    0.37    0.11
   5   8  17    0.53    0.14
   7  -9 -17    3.16    0.29
   7   9 -17    3.18    0.23
   6  -9 -17    1.09    0.18
   6   9 -17    1.37    0.16
   5  -9 -17    0.13    0.14
  -5   9  17    0.14    0.10
   5   9 -17    0.13    0.10
   4  -9 -17    0.09    0.13
  -4   9  17    0.02    0.10
   4   9 -17    0.06    0.10
   3  -9 -17    0.28    0.14
  -3   9  17    0.40    0.12
   3   9 -17    0.45    0.13
  -2   9  17    0.42    0.12
   2   9 -17    0.39    0.11
   1   9 -17    2.72    0.20
  -1   9  17    2.64    0.21
   0   9  17    0.52    0.13
   0   9 -17    0.35    0.12
  -1   9 -17    3.49    0.23
   1   9  17    3.85    0.25
  -2   9 -17    0.21    0.10
   2   9  17    0.00    0.10
   3   9  17    4.54    0.27
  -3   9 -17    5.03    0.26
  14   0 -18    0.92    0.16
  13   0 -18   -0.19    0.09
  12   0 -18    0.12    0.10
  11   0 -18   -0.01    0.09
  10   0 -18    0.16    0.09
  -9   0  18    0.03    0.07
   9   0 -18    0.02    0.08
   8   0 -18    7.96    0.32
  -8   0  18    8.07    0.30
  -7   0  18   -0.16    0.06
   7   0 -18   -0.04    0.07
  -6   0  18    0.17    0.09
  -5   0  18    0.56    0.10
  -4   0  18    0.12    0.08
  -3   0  18    0.01    0.07
  -2   0  18    1.49    0.13
  -1   0  18    0.03    0.07
   0   0  18    0.51    0.09
   1   0  18   -0.06    0.07
   2   0  18    1.08    0.12
   3   0  18   -0.10    0.07
   4   0  18    9.13    0.35
   5   0  18   -0.10    0.08
   6   0  18    0.49    0.11
   7   0  18    0.03    0.09
   8   0  18    0.34    0.10
   9   0  18   -0.02    0.09
  14  -1 -18    1.51    0.19
  14   1 -18    1.68    0.19
  13  -1 -18   -0.16    0.09
  13   1 -18    0.06    0.09
  12  -1 -18    1.35    0.16
  12   1 -18    1.17    0.15
  11  -1 -18    2.65    0.21
  11   1 -18    2.49    0.20
 -10  -1  18    1.11    0.12
  10  -1 -18    1.10    0.14
  10   1 -18    1.07    0.12
  10   1 -18    1.37    0.14
  10   1 -18    1.19    0.14
  -9  -1  18    1.06    0.12
   9  -1 -18    0.88    0.12
   9   1 -18    0.87    0.12
   9   1 -18    0.90    0.12
  -9   1  18    0.83    0.11
   9   1 -18    0.88    0.11
   8  -1 -18    3.16    0.20
  -8  -1  18    3.18    0.18
  -8   1  18    3.46    0.19
   8   1 -18    3.16    0.19
   8   1 -18    3.39    0.20
  -7  -1  18    3.77    0.20
  -7  -1  18    4.02    0.21
   7  -1 -18    3.66    0.21
  -7   1  18    3.68    0.19
   7   1 -18    3.75    0.21
  -6  -1  18    0.04    0.08
  -6  -1  18   -0.07    0.07
   6   1 -18    0.06    0.07
  -6   1  18    0.17    0.08
  -5  -1  18    0.49    0.09
  -5  -1  18    0.79    0.10
   5   1 -18    0.68    0.10
  -5   1  18    0.70    0.10
  -4  -1  18    0.03    0.07
  -4  -1  18    0.18    0.08
  -4   1  18    0.39    0.09
  -3  -1  18   14.96    0.47
  -3   1  18   15.20    0.46
  -2  -1  18    0.43    0.09
  -2   1  18    0.50    0.09
  -1  -1  18    0.95    0.12
  -1   1  18    1.08    0.11
   0  -1  18    3.97    0.20
   0   1  18    3.70    0.20
   1  -1  18   14.30    0.45
   1   1  18   14.03    0.45
   2  -1  18    0.18    0.08
   2   1  18    0.38    0.09
   3  -1  18    6.78    0.28
   3   1  18    6.94    0.28
   4  -1  18    3.48    0.20
   4   1  18    3.22    0.20
   5  -1  18    4.86    0.24
   5   1  18    4.78    0.24
   6  -1  18    1.46    0.14
   6   1  18    1.51    0.15
   7  -1  18    0.26    0.10
   7   1  18    0.30    0.10
   8  -1  18    0.62    0.11
   8   1  18    0.68    0.12
   9  -1  18    0.02    0.10
   9   1  18    0.13    0.10
  14  -2 -18    0.12    0.12
  14   2 -18    0.04    0.11
  13  -2 -18    5.92    0.33
  12  -2 -18    3.40    0.24
  11  -2 -18    4.41    0.27
  10  -2 -18    0.17    0.10
 -10  -2  18   -0.04    0.08
  10   2 -18    0.16    0.08
   9  -2 -18    0.58    0.12
  -9  -2  18    0.74    0.12
   9   2 -18    0.53    0.10
   9   2 -18    0.35    0.11
  -8  -2  18    0.43    0.10
  -8  -2  18    0.42    0.11
   8  -2 -18    0.21    0.10
  -8   2  18    0.59    0.10
   8   2 -18    0.45    0.11
   8   2 -18    0.40    0.09
  -7  -2  18    2.58    0.18
  -7  -2  18    2.63    0.18
   7  -2 -18    2.54    0.19
  -7   2  18    2.62    0.16
   7   2 -18    2.42    0.18
   7   2 -18    2.46    0.17
  -6  -2  18    0.16    0.08
  -6  -2  18    0.17    0.09
  -6   2  18    0.12    0.08
   6   2 -18    0.10    0.08
  -5  -2  18   23.42    0.70
  -5  -2  18   23.35    0.67
  -5   2  18   23.86    0.66
  -4  -2  18    0.63    0.11
  -4  -2  18    0.44    0.09
  -4   2  18    0.57    0.10
  -3  -2  18    2.57    0.16
  -3  -2  18    2.55    0.16
  -3   2  18    2.43    0.16
  -2  -2  18    3.82    0.20
  -2  -2  18    3.78    0.20
  -2   2  18    3.51    0.20
  -1  -2  18    2.00    0.15
  -1  -2  18    1.94    0.16
  -1   2  18    2.00    0.16
   0  -2  18    2.82    0.18
   0  -2  18    2.56    0.16
   0   2  18    2.41    0.17
   1  -2  18    0.20    0.09
   1  -2  18    0.24    0.09
   1   2  18    0.19    0.08
   2  -2  18    0.17    0.08
   2  -2  18    0.26    0.09
   2   2  18    0.10    0.08
   3  -2  18   -0.05    0.09
   3  -2  18    0.05    0.08
   3   2  18    0.06    0.08
   4  -2  18    6.34    0.28
   4  -2  18    7.06    0.32
   4   2  18    6.14    0.28
   5  -2  18    3.28    0.24
   5  -2  18    3.55    0.21
  -5   2 -18    2.99    0.18
   5   2  18    3.20    0.20
   6  -2  18    1.41    0.14
   6   2  18    1.64    0.16
  -6   2 -18    1.45    0.14
   7  -2  18    0.25    0.10
   7   2  18    0.34    0.10
   8  -2  18    0.20    0.10
   8   2  18    0.28    0.11
   9   2  18    0.08    0.10
  14  -3 -18    0.59    0.16
  13  -3 -18    0.16    0.12
  12  -3 -18    0.22    0.12
  11  -3 -18    3.29    0.24
  11   3 -18    3.19    0.18
 -10  -3  18    0.10    0.09
  10  -3 -18    0.17    0.11
  10   3 -18    0.15    0.08
   9  -3 -18    0.33    0.11
  -9  -3  18    0.43    0.11
   9   3 -18    0.30    0.09
  -8  -3  18    0.54    0.12
  -8  -3  18    0.56    0.12
   8  -3 -18    0.53    0.12
   8   3 -18    0.53    0.12
   8   3 -18    0.55    0.10
  -8   3  18    0.64    0.10
   7  -3 -18   22.41    0.69
  -7  -3  18   23.22    0.66
  -7  -3  18   23.22    0.71
   7   3 -18   21.25    0.71
   7   3 -18   22.72    0.65
  -7   3  18   22.73    0.63
  -6  -3  18    2.94    0.19
  -6  -3  18    2.55    0.18
   6  -3 -18    2.68    0.19
   6   3 -18    2.67    0.19
   6   3 -18    2.56    0.17
  -6   3  18    2.56    0.16
  -5  -3  18    1.22    0.13
  -5  -3  18    1.03    0.13
  -5   3  18    1.11    0.12
   5   3 -18    1.19    0.13
  -4  -3  18    1.47    0.14
  -4  -3  18    1.18    0.13
  -4   3  18    1.24    0.13
  -3  -3  18    0.84    0.11
  -3  -3  18    0.59    0.10
  -3   3  18    0.55    0.10
  -2  -3  18    0.18    0.08
  -2  -3  18    0.09    0.08
  -2   3  18    0.10    0.09
  -1  -3  18    1.88    0.15
  -1  -3  18    1.89    0.15
  -1   3  18    1.92    0.15
   0  -3  18   -0.05    0.08
   0  -3  18   -0.10    0.08
   0   3  18   -0.17    0.08
   1  -3  18    4.91    0.25
   1  -3  18    4.39    0.23
   1   3  18    4.35    0.22
   2  -3  18    1.80    0.15
   2  -3  18    1.97    0.19
   2   3  18    1.79    0.17
   3  -3  18    5.70    0.29
   3  -3  18    4.99    0.24
   3   3  18    5.30    0.25
   4  -3  18   -0.03    0.08
   4  -3  18   -0.02    0.10
   4   3  18    0.04    0.09
   5  -3  18    1.90    0.17
   5   3  18    1.63    0.15
   6  -3  18    0.33    0.10
   6   3  18    0.31    0.10
  -6   3 -18    0.27    0.10
   7  -3  18   -0.01    0.08
   7   3  18    0.04    0.10
  -7   3 -18    0.01    0.09
   8  -3  18    0.03    0.08
   8   3  18    0.02    0.09
  -8   3 -18    0.02    0.10
  -9   3 -18    0.71    0.13
   9   3  18    0.61    0.13
  13  -4 -18   -0.03    0.11
  12  -4 -18    0.08    0.12
  11  -4 -18    0.68    0.14
  11   4 -18    0.61    0.11
  10  -4 -18    1.45    0.17
  10   4 -18    1.36    0.13
   9  -4 -18    5.11    0.29
  -9  -4  18    4.95    0.25
   9   4 -18    4.79    0.24
   8  -4 -18    1.42    0.16
  -8  -4  18    1.84    0.17
   8   4 -18    1.39    0.13
  -7  -4  18    2.17    0.18
   7  -4 -18    2.12    0.19
  -7  -4  18    2.38    0.19
  -7   4  18    2.28    0.16
   7   4 -18    2.02    0.16
  -6  -4  18    2.81    0.19
   6  -4 -18    3.02    0.21
  -6  -4  18    2.66    0.20
  -6   4  18    3.04    0.18
   6   4 -18    2.85    0.18
   6   4 -18    2.75    0.20
  -5  -4  18    0.25    0.10
  -5  -4  18    0.08    0.08
  -5   4  18    0.13    0.08
   5   4 -18    0.22    0.08
  -4  -4  18    0.19    0.09
  -4  -4  18    0.07    0.09
  -4   4  18    0.16    0.08
   4   4 -18    0.23    0.08
  -3  -4  18   21.15    0.64
  -3  -4  18   22.99    0.70
  -3   4  18   22.07    0.63
   3   4 -18   21.41    0.64
  -2  -4  18    5.84    0.27
  -2  -4  18    5.62    0.26
  -2   4  18    5.42    0.25
   2   4 -18    5.41    0.25
  -1  -4  18    1.41    0.14
  -1  -4  18    1.43    0.15
  -1   4  18    1.71    0.15
   0  -4  18    0.73    0.13
   0  -4  18    0.67    0.12
   0   4  18    0.75    0.11
   1  -4  18    0.77    0.13
   1  -4  18    0.53    0.11
   1   4  18    0.62    0.12
   2  -4  18    5.45    0.28
   2  -4  18    5.12    0.25
   2   4  18    4.52    0.25
   3  -4  18    1.48    0.14
   3   4  18    1.30    0.14
   4  -4  18    0.14    0.09
   4   4  18   -0.01    0.09
   5  -4  18    0.86    0.13
   5   4  18    0.77    0.13
   6  -4  18    1.67    0.16
  -6   4 -18    1.75    0.17
   6   4  18    1.58    0.17
   7  -4  18    0.29    0.10
  -7   4 -18    0.39    0.12
   7   4  18    0.26    0.11
   8   4  18    0.15    0.11
  -8   4 -18    0.08    0.11
  12  -5 -18    0.28    0.14
  11  -5 -18   -0.05    0.10
  11   5 -18   -0.06    0.07
  10  -5 -18   -0.04    0.10
  10   5 -18   -0.09    0.08
   9  -5 -18    0.20    0.12
   9   5 -18    0.02    0.08
  -8  -5  18    0.05    0.10
   8  -5 -18    0.29    0.11
   8   5 -18    0.21    0.10
   7  -5 -18   -0.06    0.09
  -7  -5  18   -0.11    0.08
   7   5 -18    0.02    0.08
  -7   5  18   -0.01    0.08
  -6  -5  18    0.11    0.09
   6  -5 -18    0.07    0.09
  -6   5  18    0.00    0.08
   6   5 -18   -0.05    0.07
  -5  -5  18    0.25    0.10
   5   5 -18    0.29    0.10
  -5   5  18    0.64    0.11
  -4  -5  18    3.33    0.21
  -4   5  18    3.27    0.19
   4   5 -18    3.21    0.20
  -3  -5  18    0.37    0.11
  -3  -5  18    0.19    0.09
   3   5 -18    0.36    0.09
  -3   5  18    0.34    0.09
  -2  -5  18    0.09    0.09
  -2  -5  18    0.01    0.09
   2   5 -18    0.08    0.08
  -2   5  18    0.21    0.09
  -1  -5  18    7.52    0.32
  -1  -5  18    8.34    0.35
  -1   5  18    8.39    0.33
   1   5 -18    7.32    0.31
   0  -5  18    1.98    0.17
   0   5 -18    1.79    0.15
   0   5  18    1.73    0.16
   1  -5  18    0.13    0.09
   1   5  18    0.45    0.10
  -1   5 -18    0.18    0.09
   2  -5  18    4.09    0.23
   2   5  18    4.34    0.24
  -2   5 -18    4.26    0.22
   3  -5  18    0.29    0.10
  -3   5 -18    0.18    0.09
   3   5  18    0.41    0.11
   4  -5  18    2.20    0.19
  -4   5 -18    2.13    0.18
   4   5  18    2.41    0.19
   5  -5  18    0.84    0.13
  -5   5 -18    1.09    0.13
   5   5  18    0.87    0.14
   6  -5  18    0.22    0.10
  -6   5 -18    0.17    0.09
   6   5  18    0.22    0.11
   7  -5  18    0.18    0.10
  -7   5 -18    0.06    0.11
  -7   5 -18    0.03    0.09
   7   5  18   -0.03    0.10
   8   5  18    0.19    0.12
  -8   5 -18    0.14    0.12
  11  -6 -18   -0.09    0.12
  11   6 -18    0.01    0.09
  10  -6 -18    0.53    0.15
  10   6 -18    0.61    0.12
   9  -6 -18    0.65    0.16
   9   6 -18    0.68    0.12
   8  -6 -18    0.04    0.11
   8   6 -18   -0.11    0.08
   7  -6 -18    0.34    0.12
   7   6 -18    0.34    0.11
  -6  -6  18    0.60    0.12
   6  -6 -18    0.54    0.13
   6   6 -18    0.58    0.12
  -6   6  18    0.58    0.11
  -5  -6  18    0.98    0.14
   5  -6 -18    0.90    0.14
  -5   6  18    0.90    0.12
   5   6 -18    1.07    0.14
  -4  -6  18   -0.05    0.08
   4   6 -18    0.03    0.08
  -4   6  18    0.02    0.08
  -3  -6  18    0.56    0.12
  -3   6  18    0.47    0.11
   3   6 -18    0.45    0.11
  -2  -6  18    1.34    0.15
  -2   6  18    1.35    0.14
   2   6 -18    1.51    0.15
  -1  -6  18    1.28    0.14
   1   6 -18    1.11    0.13
  -1   6  18    1.08    0.13
   0  -6  18    1.57    0.16
   0   6 -18    1.72    0.15
   0   6  18    1.69    0.15
   1  -6  18    0.51    0.12
   1   6  18    0.49    0.11
  -1   6 -18    0.49    0.11
   2  -6  18    0.32    0.11
  -2   6 -18    0.30    0.11
   2   6  18    0.46    0.12
   3  -6  18    1.57    0.16
  -3   6 -18    1.50    0.15
   3   6  18    1.38    0.15
   4  -6  18    2.16    0.19
   4   6  18    1.89    0.18
  -4   6 -18    2.14    0.18
   5  -6  18    0.04    0.10
  -5   6 -18   -0.06    0.09
   5   6  18    0.03    0.10
   6  -6  18    0.23    0.11
  -6   6 -18    0.30    0.10
   6   6  18    0.18    0.11
  10  -7 -18    6.09    0.37
  10   7 -18    5.88    0.29
   9  -7 -18    0.11    0.13
   9   7 -18   -0.03    0.09
   8  -7 -18    0.37    0.14
   8   7 -18    0.66    0.13
   7  -7 -18    0.29    0.13
   7   7 -18    0.45    0.11
   6  -7 -18   -0.02    0.11
   6   7 -18    0.02    0.09
  -6   7  18   -0.01    0.09
   5  -7 -18    0.70    0.14
  -5   7  18    0.83    0.13
   5   7 -18    0.64    0.12
  -4  -7  18    0.77    0.13
   4   7 -18    0.84    0.13
  -4   7  18    0.75    0.12
  -3  -7  18    5.58    0.29
   3   7 -18    5.40    0.27
  -3   7  18    5.38    0.26
  -2  -7  18    0.17    0.10
  -2   7  18    0.40    0.11
   2   7 -18    0.19    0.10
  -1  -7  18    0.56    0.12
   1   7 -18    0.46    0.12
  -1   7  18    0.52    0.12
   0  -7  18    1.08    0.14
   0   7  18    1.16    0.14
   0   7 -18    0.99    0.13
   1  -7  18    0.07    0.10
  -1   7 -18    0.13    0.09
   1   7  18    0.09    0.10
   2  -7  18    1.91    0.18
  -2   7 -18    1.91    0.17
   2   7  18    1.85    0.17
   3  -7  18    0.01    0.10
  -3   7 -18   -0.08    0.09
   3   7  18    0.08    0.10
   4  -7  18    2.57    0.21
  -4   7 -18    2.74    0.19
   4   7  18    2.55    0.21
   5  -7  18    0.48    0.12
  -5   7 -18    0.42    0.11
   5   7  18    0.52    0.13
   6   7  18    1.55    0.17
  -6   7 -18    1.63    0.15
   8  -8 -18    1.79    0.22
   8   8 -18    1.61    0.17
   7  -8 -18    8.76    0.43
   7   8 -18    8.49    0.37
   6  -8 -18    0.37    0.15
   6   8 -18    0.42    0.12
   5  -8 -18    1.07    0.17
  -5   8  18    0.69    0.12
   5   8 -18    0.80    0.13
   4   8 -18    0.28    0.11
  -4   8  18    0.33    0.10
   3   8 -18   -0.06    0.08
  -3   8  18   -0.09    0.09
  -2   8  18    0.04    0.10
   2   8 -18   -0.03    0.09
   1   8 -18    0.76    0.13
  -1   8  18    0.88    0.13
   0   8  18    0.14    0.11
   0   8 -18    0.02    0.09
   1  -8  18    6.90    0.32
   1   8  18    6.64    0.32
  -1   8 -18    6.68    0.30
   2  -8  18    0.51    0.13
  -2   8 -18    0.47    0.11
   2   8  18    0.61    0.13
   3  -8  18    0.91    0.14
  -3   8 -18    0.70    0.13
   3   8  18    0.62    0.14
   4  -8  18    0.02    0.10
   4   8  18   -0.01    0.11
  -4   8 -18   -0.04    0.09
   6  -9 -18    0.23    0.16
   6   9 -18    0.57    0.13
   5  -9 -18    3.21    0.28
   5   9 -18    3.04    0.22
  -5   9  18    2.98    0.21
   4   9 -18    1.34    0.16
  -4   9  18    1.20    0.15
   3   9 -18    0.95    0.15
  -3   9  18    0.83    0.13
  -2   9  18    1.47    0.17
   2   9 -18    1.23    0.16
   1   9 -18    1.92    0.18
  -1   9  18    1.67    0.18
   0   9 -18    0.02    0.10
   0   9  18   -0.02    0.11
   1   9  18    0.14    0.11
  -1   9 -18   -0.14    0.09
  14   0 -19   -0.01    0.11
  13   0 -19    0.10    0.11
  12   0 -19   -0.07    0.09
  11   0 -19    4.71    0.26
  10   0 -19    0.00    0.08
   9   0 -19    1.26    0.14
  -9   0  19    1.26    0.13
  -8   0  19    0.00    0.08
  -7   0  19   19.74    0.58
  -6   0  19   -0.07    0.07
  -5   0  19    0.26    0.09
  -4   0  19    0.06    0.07
  -3   0  19    8.84    0.33
  -2   0  19    0.01    0.07
  -1   0  19    0.11    0.08
   0   0  19   -0.02    0.08
   1   0  19   -0.07    0.07
   2   0  19   -0.05    0.08
   3   0  19    1.75    0.16
   4   0  19   -0.10    0.07
   5   0  19    1.18    0.14
   6   0  19    0.06    0.08
   7   0  19    4.25    0.23
   8   0  19   -0.13    0.09
   9   0  19    0.06    0.10
  14  -1 -19    0.70    0.15
  14   1 -19    0.70    0.14
  13  -1 -19    5.35    0.31
  13   1 -19    5.20    0.30
  12  -1 -19    0.06    0.10
  12   1 -19    0.12    0.10
  11  -1 -19    3.57    0.24
  11   1 -19    3.56    0.23
 -10  -1  19    2.06    0.16
  10  -1 -19    1.77    0.17
  10   1 -19    2.02    0.18
  10   1 -19    2.07    0.15
  -9  -1  19    0.60    0.11
   9  -1 -19    0.56    0.12
   9   1 -19    0.66    0.10
   9   1 -19    0.60    0.11
  -9   1  19    0.68    0.11
   8  -1 -19    1.15    0.14
  -8  -1  19    1.25    0.13
  -8   1  19    1.26    0.13
  -7  -1  19    0.28    0.10
  -7   1  19    0.44    0.10
  -6  -1  19    1.00    0.12
  -6   1  19    0.99    0.12
  -5  -1  19    2.07    0.16
  -5   1  19    1.74    0.14
  -4  -1  19    5.17    0.23
  -4   1  19    5.05    0.23
  -3  -1  19    2.89    0.18
  -3   1  19    2.57    0.17
  -2  -1  19   11.40    0.39
  -2   1  19   12.29    0.40
  -1  -1  19    0.30    0.09
  -1   1  19    0.04    0.08
   0  -1  19    1.91    0.16
   0   1  19    2.04    0.16
   1  -1  19    1.14    0.13
   1   1  19    0.86    0.12
   2  -1  19    6.11    0.26
   2   1  19    5.72    0.26
   3  -1  19    0.19    0.09
   3   1  19    0.06    0.08
   4  -1  19    4.24    0.22
   4   1  19    3.73    0.22
   5  -1  19    0.73    0.12
   5   1  19    0.78    0.12
   6  -1  19    3.65    0.22
   6   1  19    3.70    0.22
   7  -1  19    0.82    0.13
   7   1  19    0.85    0.13
   8  -1  19   -0.04    0.09
   8   1  19   -0.20    0.09
   9  -1  19   -0.01    0.10
   9   1  19    0.15    0.11
  13  -2 -19    1.09    0.16
  13   2 -19    1.08    0.16
  12  -2 -19    1.26    0.16
  12   2 -19    1.23    0.16
  11  -2 -19   -0.03    0.10
  11   2 -19    0.00    0.09
 -10  -2  19    3.11    0.20
  10  -2 -19    3.00    0.22
  10   2 -19    2.94    0.18
   9  -2 -19    0.47    0.11
  -9  -2  19    0.46    0.11
   9   2 -19    0.46    0.11
   9   2 -19    0.41    0.10
   8  -2 -19   13.95    0.48
  -8  -2  19   13.28    0.47
  -8  -2  19   13.02    0.44
   8   2 -19   12.29    0.42
   8   2 -19   12.80    0.47
  -8   2  19   13.25    0.42
  -7  -2  19    6.21    0.27
  -7  -2  19    6.80    0.29
   7   2 -19    6.19    0.27
  -7   2  19    6.42    0.26
   7   2 -19    6.44    0.29
  -6  -2  19    3.61    0.21
  -6  -2  19    3.71    0.21
  -6   2  19    3.87    0.20
   6   2 -19    3.44    0.21
  -5  -2  19    3.52    0.20
  -5  -2  19    3.43    0.21
  -5   2  19    3.37    0.19
   5   2 -19    3.18    0.20
  -4  -2  19   -0.08    0.07
  -4  -2  19   -0.02    0.08
  -4   2  19    0.00    0.07
  -3  -2  19    3.56    0.20
  -3  -2  19    3.27    0.19
  -3   2  19    3.42    0.19
  -2  -2  19    6.44    0.27
  -2  -2  19    5.99    0.26
  -2   2  19    5.94    0.26
  -1  -2  19    0.04    0.08
  -1  -2  19    0.11    0.08
  -1   2  19    0.08    0.08
   0  -2  19   -0.03    0.07
   0  -2  19    0.04    0.08
   0   2  19   -0.10    0.08
   1  -2  19    0.39    0.09
   1   2  19    0.37    0.10
   2  -2  19    3.92    0.22
   2   2  19    4.76    0.24
   3  -2  19    0.01    0.09
   3   2  19   -0.04    0.08
   4  -2  19    0.14    0.09
   4   2  19    0.05    0.10
   5  -2  19    2.70    0.19
   5   2  19    2.88    0.20
   6  -2  19    1.12    0.14
   6   2  19    1.20    0.15
   7  -2  19   -0.11    0.08
   7   2  19   -0.12    0.09
   8  -2  19    1.78    0.16
   8   2  19    1.55    0.17
  13  -3 -19    1.96    0.21
  12  -3 -19    0.25    0.13
  11  -3 -19    0.23    0.12
 -10  -3  19    1.85    0.16
  10  -3 -19    1.53    0.17
  10   3 -19    2.09    0.16
   9  -3 -19    4.03    0.25
  -9  -3  19    3.52    0.22
   9   3 -19    3.91    0.21
  -8  -3  19    3.10    0.21
   8  -3 -19    2.72    0.21
  -8  -3  19    2.65    0.20
  -8   3  19    2.80    0.18
   8   3 -19    2.63    0.17
  -7  -3  19    0.78    0.13
  -7  -3  19    0.66    0.12
   7   3 -19    0.61    0.12
  -7   3  19    0.80    0.11
   7   3 -19    0.65    0.11
  -6  -3  19   -0.04    0.08
  -6  -3  19    0.12    0.09
   6   3 -19    0.06    0.08
  -6   3  19   -0.05    0.08
   6   3 -19   -0.11    0.08
  -5  -3  19    0.09    0.09
  -5  -3  19   -0.03    0.08
  -5   3  19    0.05    0.08
   5   3 -19    0.07    0.08
  -4  -3  19    0.53    0.11
  -4  -3  19    0.53    0.11
  -4   3  19    0.59    0.11
  -3  -3  19    0.17    0.09
  -3  -3  19    0.30    0.10
  -3   3  19    0.20    0.09
  -2  -3  19    0.75    0.12
  -2  -3  19    0.93    0.12
  -2   3  19    0.82    0.11
  -1  -3  19    0.91    0.13
  -1  -3  19    0.93    0.12
  -1   3  19    0.91    0.12
   0  -3  19    3.92    0.23
   0  -3  19    4.15    0.22
   0   3  19    4.15    0.23
   1  -3  19   15.49    0.52
   1  -3  19   14.54    0.48
   1   3  19   14.00    0.48
   2  -3  19   -0.02    0.08
   2  -3  19    0.09    0.10
   2   3  19    0.07    0.10
   3  -3  19    1.48    0.17
   3  -3  19    1.61    0.15
   3   3  19    1.66    0.16
   4  -3  19    2.25    0.18
   4   3  19    2.23    0.18
   5  -3  19   -0.04    0.08
   5   3  19    0.11    0.10
  -5   3 -19    0.06    0.09
   6  -3  19    1.76    0.17
   6   3  19    1.99    0.18
  -6   3 -19    1.96    0.17
   7  -3  19    0.08    0.09
  -7   3 -19   -0.03    0.09
   7   3  19    0.08    0.10
   8  -3  19    0.07    0.10
   8   3  19    0.10    0.10
  12  -4 -19    0.13    0.12
  11  -4 -19    0.01    0.11
  11   4 -19   -0.05    0.07
  10  -4 -19    0.20    0.12
  10   4 -19    0.16    0.09
   9  -4 -19    0.12    0.11
  -9  -4  19   -0.06    0.09
   9   4 -19    0.08    0.09
   8  -4 -19    2.35    0.20
  -8  -4  19    1.92    0.17
   8   4 -19    1.83    0.16
  -7  -4  19    0.11    0.09
  -7   4  19    0.19    0.09
   7   4 -19   -0.01    0.08
  -6  -4  19   12.55    0.44
   6   4 -19   12.39    0.42
  -6   4  19   12.36    0.41
  -5  -4  19    0.02    0.09
  -5  -4  19    0.00    0.09
  -5   4  19   -0.10    0.07
   5   4 -19   -0.07    0.08
  -4  -4  19    0.02    0.09
  -4  -4  19    0.08    0.10
   4   4 -19    0.09    0.08
  -4   4  19    0.04    0.08
  -3  -4  19    3.48    0.22
  -3  -4  19    3.71    0.22
   3   4 -19    3.88    0.22
  -3   4  19    3.62    0.20
  -2  -4  19   -0.04    0.09
  -2  -4  19    0.07    0.09
  -2   4  19    0.03    0.08
   2   4 -19    0.00    0.08
  -1  -4  19    3.20    0.21
  -1  -4  19    2.79    0.19
  -1   4  19    2.99    0.19
   0  -4  19    1.01    0.15
   0  -4  19    0.89    0.13
   0   4  19    0.97    0.13
   1  -4  19    5.44    0.28
   1  -4  19    4.85    0.25
   1   4  19    4.28    0.24
   2  -4  19    0.04    0.10
   2   4  19    0.23    0.10
   3  -4  19    0.02    0.09
   3   4  19    0.17    0.11
   4  -4  19    0.33    0.11
   4   4  19    0.24    0.11
   5  -4  19    1.03    0.14
   5   4  19    0.78    0.14
   6  -4  19    2.45    0.18
   6   4  19    2.56    0.21
  -6   4 -19    2.68    0.20
   7  -4  19    0.58    0.12
  -7   4 -19    0.38    0.12
   7   4  19    0.57    0.13
  12  -5 -19   -0.09    0.11
  11  -5 -19   -0.02    0.12
  11   5 -19    0.01    0.08
  10  -5 -19    0.07    0.11
  10   5 -19    0.02    0.09
   9  -5 -19    1.59    0.18
   9   5 -19    1.42    0.14
  -8  -5  19    3.59    0.23
   8  -5 -19    3.42    0.25
   8   5 -19    3.25    0.21
  -7  -5  19    2.02    0.19
   7  -5 -19    1.70    0.18
  -7   5  19    2.15    0.16
   7   5 -19    1.89    0.17
  -6  -5  19    1.48    0.15
  -6   5  19    1.49    0.14
   6   5 -19    1.38    0.14
  -5  -5  19    0.19    0.11
  -5   5  19    0.21    0.09
   5   5 -19    0.16    0.10
  -4  -5  19    2.14    0.19
  -4   5  19    2.34    0.17
   4   5 -19    2.10    0.17
  -3  -5  19    2.25    0.18
   3   5 -19    2.08    0.16
  -3   5  19    2.04    0.17
  -2  -5  19    5.19    0.26
  -2   5  19    4.52    0.24
   2   5 -19    4.78    0.24
  -1  -5  19   -0.07    0.08
  -1   5  19   -0.06    0.08
   1   5 -19    0.00    0.08
   0  -5  19    6.70    0.30
   0   5 -19    6.28    0.28
   0   5  19    6.00    0.28
   1  -5  19    2.17    0.18
   1   5  19    1.97    0.17
  -1   5 -19    2.50    0.18
   2  -5  19    1.93    0.18
  -2   5 -19    1.60    0.15
   2   5  19    1.51    0.16
   3  -5  19    0.60    0.12
  -3   5 -19    0.44    0.11
   3   5  19    0.56    0.13
   4  -5  19    0.89    0.14
  -4   5 -19    0.48    0.12
   4   5  19    0.87    0.14
   5  -5  19    0.53    0.12
  -5   5 -19    0.38    0.11
   5   5  19    0.45    0.12
   6  -5  19    3.48    0.22
  -6   5 -19    3.38    0.22
   6   5  19    2.86    0.22
  -6   5 -19    3.16    0.20
   7  -5  19    1.25    0.15
  -7   5 -19    0.88    0.13
   7   5  19    1.13    0.17
  -7   5 -19    0.95    0.15
  11  -6 -19    0.51    0.16
  11   6 -19    0.53    0.12
  10  -6 -19   -0.06    0.12
  10   6 -19    0.36    0.11
   9  -6 -19    2.80    0.24
   9   6 -19    3.06    0.21
   8  -6 -19    0.53    0.14
   8   6 -19    0.55    0.12
   7  -6 -19    0.16    0.12
   7   6 -19    0.19    0.10
  -6  -6  19    0.18    0.11
   6   6 -19    0.28    0.10
  -6   6  19    0.22    0.10
  -5  -6  19    2.51    0.21
   5   6 -19    2.14    0.17
  -5   6  19    2.40    0.18
  -4  -6  19    0.20    0.11
  -4   6  19    0.19    0.10
   4   6 -19    0.28    0.10
  -3  -6  19    0.38    0.12
  -3   6  19    0.16    0.10
   3   6 -19    0.25    0.10
  -2  -6  19    1.27    0.15
   2   6 -19    1.07    0.14
  -2   6  19    0.95    0.13
  -1  -6  19    0.45    0.12
  -1   6  19    0.55    0.12
   1   6 -19    0.49    0.11
   0  -6  19    1.75    0.17
   0   6  19    1.64    0.16
   0   6 -19    1.69    0.16
   1  -6  19   -0.11    0.09
  -1   6 -19   -0.01    0.09
   1   6  19    0.00    0.09
   2  -6  19    0.12    0.10
   2   6  19    0.15    0.10
  -2   6 -19    0.10    0.10
   3  -6  19    4.32    0.25
   3   6  19    3.99    0.24
  -3   6 -19    3.76    0.22
   4  -6  19    0.52    0.12
  -4   6 -19    0.29    0.10
   4   6  19    0.26    0.11
   5  -6  19    0.17    0.11
   5   6  19    0.34    0.13
  -5   6 -19    0.27    0.11
   6  -6  19    0.17    0.11
   6   6  19    0.24    0.13
  -6   6 -19    0.37    0.11
   9  -7 -19    2.87    0.27
   9   7 -19    2.99    0.22
   8  -7 -19   -0.19    0.12
   8   7 -19   -0.03    0.09
   7  -7 -19    0.05    0.12
   7   7 -19   -0.04    0.10
  -6   7  19    0.02    0.09
   6   7 -19   -0.08    0.10
   5   7 -19    0.26    0.11
  -5   7  19    0.25    0.11
  -4  -7  19    0.15    0.12
   4   7 -19    0.31    0.10
  -4   7  19    0.39    0.11
  -3  -7  19   -0.09    0.10
  -3   7  19   -0.06    0.08
   3   7 -19    0.04    0.10
  -2  -7  19    0.77    0.14
   2   7 -19    0.73    0.12
  -2   7  19    0.53    0.13
  -1  -7  19   -0.08    0.10
  -1   7  19    0.04    0.10
   1   7 -19   -0.01    0.09
   0  -7  19   -0.01    0.10
   0   7  19    0.27    0.11
   0   7 -19    0.13    0.10
   1  -7  19   -0.04    0.11
   1   7  19    0.09    0.10
  -1   7 -19    0.20    0.10
   2  -7  19   -0.06    0.10
   2   7  19    0.07    0.10
  -2   7 -19   -0.09    0.09
   3  -7  19    0.24    0.12
  -3   7 -19    0.26    0.10
   3   7  19    0.14    0.10
   4  -7  19    0.33    0.12
  -4   7 -19    0.12    0.10
   4   7  19    0.13    0.11
   7  -8 -19    0.62    0.17
   7   8 -19    0.44    0.12
   6   8 -19    3.96    0.24
   5   8 -19    0.08    0.11
  -5   8  19    0.18    0.11
   4   8 -19    3.71    0.24
  -4   8  19    3.81    0.23
   3   8 -19    0.49    0.12
  -3   8  19    0.48    0.12
  -2   8  19    0.01    0.10
   2   8 -19   -0.05    0.10
   1   8 -19    0.34    0.12
  -1   8  19    0.37    0.11
   0  -8  19    1.00    0.15
   0   8  19    1.04    0.16
   0   8 -19    1.21    0.15
   1  -8  19   -0.05    0.10
   1   8  19   -0.10    0.10
  -1   8 -19    0.04    0.10
   2  -8  19    4.06    0.26
  -2   8 -19    3.55    0.23
   2   8  19    3.95    0.25
  13   0 -20   -0.18    0.09
  12   0 -20   -0.05    0.09
  11   0 -20   -0.06    0.09
  -9   0  20    0.08    0.09
  -8   0  20   17.78    0.54
  -7   0  20    0.31    0.10
  -6   0  20    2.49    0.17
  -5   0  20    0.04    0.08
  -4   0  20    0.92    0.13
  -3   0  20    0.09    0.09
  -2   0  20    1.91    0.15
  -1   0  20    0.03    0.08
   0   0  20    1.30    0.13
   1   0  20   -0.07    0.07
   2   0  20    0.10    0.09
   3   0  20    0.06    0.09
   4   0  20    1.69    0.16
   5   0  20   -0.01    0.09
   6   0  20    1.07    0.15
   7   0  20   -0.10    0.09
   8   0  20    2.02    0.19
  13  -1 -20    2.48    0.23
  13   1 -20    2.03    0.20
  12  -1 -20    1.28    0.17
  12   1 -20    1.48    0.17
  11  -1 -20    7.53    0.35
  11   1 -20    7.26    0.34
 -10  -1  20    0.07    0.09
  10  -1 -20   -0.17    0.08
  10   1 -20    0.01    0.08
  -9  -1  20    1.07    0.13
  -9   1  20    1.24    0.13
   9   1 -20    1.00    0.12
  -8  -1  20    1.54    0.14
  -8   1  20    1.94    0.16
  -7  -1  20    7.59    0.32
  -7   1  20    8.17    0.31
  -6  -1  20    3.55    0.21
  -6   1  20    3.49    0.20
  -5  -1  20    4.32    0.22
  -5   1  20    4.23    0.21
  -4  -1  20    8.07    0.32
  -4   1  20    8.28    0.32
  -3  -1  20    0.03    0.08
  -3   1  20    0.05    0.09
  -2  -1  20    7.50    0.30
  -2   1  20    6.74    0.29
  -1  -1  20    0.02    0.07
  -1   1  20   -0.01    0.08
   0  -1  20   -0.07    0.08
   0   1  20   -0.02    0.08
   1  -1  20    0.07    0.09
   1   1  20    0.00    0.09
   2  -1  20    0.88    0.13
   2   1  20    0.89    0.12
   3  -1  20    0.01    0.09
   3   1  20    0.01    0.09
   4  -1  20    0.01    0.08
   4   1  20    0.05    0.09
   5  -1  20   -0.04    0.09
   5   1  20   -0.08    0.09
   6  -1  20    0.10    0.09
   6   1  20    0.22    0.10
   7  -1  20    0.81    0.13
   7   1  20    0.92    0.14
   8  -1  20   -0.07    0.10
   8   1  20    0.04    0.10
  13  -2 -20    1.56    0.19
  13   2 -20    1.53    0.18
  12  -2 -20    0.77    0.15
  12   2 -20    1.17    0.15
  11  -2 -20    0.92    0.15
 -10  -2  20    0.35    0.11
  10  -2 -20    0.33    0.12
  10   2 -20    0.30    0.09
  -9  -2  20    0.09    0.10
   9   2 -20    0.07    0.09
  -8  -2  20    0.04    0.10
  -8   2  20    0.17    0.09
   8   2 -20   -0.01    0.09
  -7  -2  20    2.61    0.19
   7   2 -20    2.59    0.18
  -7   2  20    2.51    0.18
  -6  -2  20    1.84    0.17
  -6   2  20    1.74    0.16
  -5  -2  20    2.58    0.19
  -5   2  20    2.68    0.18
  -4  -2  20    0.16    0.09
  -4   2  20    0.10    0.09
  -3  -2  20    0.59    0.12
  -3   2  20    0.51    0.10
  -2  -2  20    0.88    0.12
  -2   2  20    1.04    0.13
  -1  -2  20   -0.04    0.08
  -1   2  20    0.08    0.08
   0  -2  20    0.07    0.08
   0   2  20   -0.06    0.09
   1  -2  20    3.03    0.20
   1   2  20    3.08    0.20
   2  -2  20    0.09    0.09
   2   2  20    0.10    0.09
   3  -2  20    2.61    0.18
   3   2  20    2.08    0.17
   4  -2  20    1.14    0.13
   4   2  20    1.12    0.14
   5  -2  20    0.70    0.12
   5   2  20    0.79    0.14
   6  -2  20    0.59    0.12
   6   2  20    0.47    0.12
   7  -2  20    1.30    0.15
   7   2  20    1.29    0.16
  12  -3 -20    2.65    0.24
  11  -3 -20    0.00    0.11
 -10  -3  20   -0.12    0.07
  10  -3 -20   -0.04    0.10
  10   3 -20    0.15    0.09
  -9  -3  20    0.02    0.09
   9   3 -20   -0.09    0.08
  -8  -3  20    1.88    0.17
  -8   3  20    2.14    0.16
   8   3 -20    2.20    0.16
  -7  -3  20    9.32    0.37
  -7  -3  20    8.48    0.35
  -7   3  20    8.53    0.33
   7   3 -20    8.56    0.34
  -6  -3  20    1.08    0.14
  -6  -3  20    1.03    0.13
   6   3 -20    0.76    0.12
  -6   3  20    0.96    0.12
   6   3 -20    0.94    0.13
  -5  -3  20    2.11    0.17
  -5  -3  20    2.01    0.17
  -5   3  20    1.85    0.15
   5   3 -20    1.74    0.16
  -4  -3  20    5.82    0.27
  -4  -3  20    5.45    0.27
  -4   3  20    5.68    0.26
  -3  -3  20   -0.06    0.08
  -3  -3  20   -0.20    0.08
  -3   3  20   -0.07    0.08
  -2  -3  20    7.47    0.32
  -2  -3  20    8.25    0.33
  -2   3  20    7.64    0.32
  -1  -3  20    5.63    0.26
  -1  -3  20    5.88    0.28
  -1   3  20    5.42    0.26
   0  -3  20   -0.12    0.09
   0  -3  20   -0.05    0.08
   0   3  20    0.00    0.09
   1  -3  20    6.52    0.29
   1   3  20    6.98    0.31
   2  -3  20    0.00    0.08
   2   3  20   -0.07    0.09
   3  -3  20    1.40    0.14
   3   3  20    1.42    0.15
   4  -3  20    0.72    0.12
   4   3  20    0.74    0.13
   5  -3  20    0.03    0.09
   5   3  20    0.15    0.11
   6  -3  20    0.28    0.11
   6   3  20    0.39    0.11
   7  -3  20    0.10    0.10
   7   3  20    0.09    0.11
  12  -4 -20    1.68    0.20
  11  -4 -20    0.36    0.14
  11   4 -20    0.42    0.10
 -10  -4  20    2.46    0.20
  10  -4 -20    2.51    0.23
  10   4 -20    2.62    0.18
   9  -4 -20   -0.05    0.10
  -9  -4  20    0.08    0.10
   9   4 -20    0.03    0.08
  -8  -4  20    1.11    0.15
   8   4 -20    1.15    0.14
  -7  -4  20    0.07    0.09
   7   4 -20    0.03    0.08
  -7   4  20    0.04    0.09
  -6  -4  20    3.73    0.23
   6   4 -20    4.27    0.22
  -6   4  20    4.04    0.22
  -5  -4  20    4.50    0.24
  -5   4  20    4.23    0.22
   5   4 -20    3.93    0.22
  -4  -4  20    7.31    0.32
   4   4 -20    7.55    0.31
  -4   4  20    7.60    0.31
  -3  -4  20    0.00    0.09
  -3  -4  20   -0.02    0.10
  -3   4  20    0.21    0.10
   3   4 -20    0.10    0.09
  -2  -4  20    0.01    0.09
  -2  -4  20   -0.07    0.09
  -2   4  20   -0.05    0.09
   2   4 -20    0.03    0.09
  -1  -4  20    0.27    0.10
  -1   4  20    0.48    0.11
   0  -4  20    1.96    0.17
   0   4  20    1.55    0.15
   1  -4  20    0.37    0.11
   1   4  20    0.38    0.11
   2  -4  20    1.26    0.14
   2   4  20    1.44    0.15
   3  -4  20    7.32    0.32
   3   4  20    7.79    0.34
   4  -4  20    1.71    0.16
   4   4  20    1.73    0.18
   5  -4  20   -0.01    0.09
   5   4  20    0.22    0.11
   6  -4  20    1.13    0.15
  -6   4 -20    1.14    0.15
   6   4  20    0.63    0.14
  11  -5 -20    0.79    0.17
  11   5 -20    0.55    0.12
  10  -5 -20    0.47    0.15
  10   5 -20    0.83    0.13
   9  -5 -20    0.25    0.13
   9   5 -20    0.32    0.11
  -8  -5  20    0.51    0.13
   8   5 -20    0.22    0.11
  -7  -5  20   -0.14    0.10
   7   5 -20    0.00    0.09
  -7   5  20   -0.10    0.08
  -6  -5  20    2.10    0.19
  -6   5  20    2.61    0.18
   6   5 -20    2.34    0.18
  -5  -5  20    1.50    0.16
  -5   5  20    1.61    0.15
   5   5 -20    1.74    0.16
  -4  -5  20    0.60    0.13
   4   5 -20    0.66    0.11
  -4   5  20    0.76    0.12
  -3  -5  20    0.29    0.11
   3   5 -20    0.44    0.11
  -3   5  20    0.21    0.11
  -2  -5  20    0.18    0.10
   2   5 -20    0.40    0.10
  -2   5  20    0.46    0.12
  -1  -5  20    1.01    0.15
  -1   5  20    0.90    0.13
   1   5 -20    1.16    0.14
   0  -5  20    1.54    0.17
   0   5  20    1.76    0.17
   0   5 -20    1.50    0.16
   1  -5  20    0.45    0.12
  -1   5 -20    0.43    0.11
   1   5  20    0.91    0.13
   2  -5  20    0.26    0.11
  -2   5 -20    0.12    0.09
   2   5  20    0.15    0.11
   3  -5  20    3.53    0.23
   3   5  20    3.29    0.22
  -3   5 -20    3.08    0.20
   4  -5  20    0.11    0.10
  -4   5 -20    0.11    0.09
   4   5  20    0.03    0.10
   5  -5  20    0.28    0.12
   5   5  20    0.35    0.13
  -5   5 -20    0.38    0.11
  -6   5 -20   -0.05    0.10
  -6   5 -20    0.17    0.10
   6   5  20    0.18    0.12
  10  -6 -20   -0.09    0.12
  10   6 -20    0.01    0.10
   9  -6 -20    4.98    0.32
   9   6 -20    4.89    0.26
   8   6 -20    1.24    0.15
  -7  -6  20    0.01    0.11
   7   6 -20    0.02    0.09
  -6  -6  20    4.55    0.26
   6   6 -20    4.52    0.25
  -6   6  20    4.80    0.24
  -5  -6  20    2.13    0.19
  -5   6  20    1.72    0.16
   5   6 -20    1.76    0.17
  -4  -6  20    0.03    0.10
  -4   6  20    0.05    0.10
   4   6 -20   -0.01    0.09
  -3  -6  20    0.49    0.12
   3   6 -20    0.34    0.11
  -3   6  20    0.39    0.11
  -2  -6  20   -0.09    0.09
   2   6 -20    0.00    0.09
  -2   6  20    0.08    0.10
  -1  -6  20    0.98    0.14
   1   6 -20    0.80    0.13
  -1   6  20    0.94    0.13
   0  -6  20    0.72    0.13
   0   6  20    0.67    0.13
   0   6 -20    0.52    0.11
   1  -6  20    1.04    0.15
   1   6  20    0.98    0.15
  -1   6 -20    0.83    0.13
   2  -6  20    0.06    0.12
  -2   6 -20    0.13    0.10
   2   6  20    0.00    0.11
   3  -6  20    0.64    0.13
   3   6  20    0.79    0.15
  -3   6 -20    0.67    0.12
   4  -6  20    1.04    0.15
  -4   6 -20    1.05    0.14
   4   6  20    1.22    0.17
   8   7 -20    0.98    0.14
   7   7 -20    0.25    0.11
  -6   7  20    4.16    0.24
   6   7 -20    4.40    0.25
  -5   7  20   -0.01    0.10
   5   7 -20   -0.11    0.10
  -4  -7  20    1.05    0.16
  -4   7  20    1.27    0.15
   4   7 -20    1.51    0.16
  -3  -7  20    0.25    0.12
   3   7 -20    0.00    0.10
  -3   7  20   -0.02    0.10
  -2  -7  20    0.51    0.13
   2   7 -20    0.47    0.12
  -2   7  20    0.44    0.12
  -1  -7  20    1.31    0.16
  -1   7  20    1.30    0.15
   1   7 -20    1.39    0.15
   0  -7  20    1.69    0.18
   0   7  20    1.79    0.18
   0   7 -20    1.69    0.16
   1  -7  20    0.57    0.14
  -1   7 -20    0.56    0.12
   1   7  20    0.87    0.15
   2  -7  20    2.89    0.23
  -2   7 -20    2.98    0.21
   2   7  20    3.05    0.23
   3   7  20    0.87    0.15
  -3   7 -20    1.29    0.15
  -5   8  20    0.49    0.12
   5   8 -20    0.78    0.15
   4   8 -20    0.27    0.12
  -4   8  20    0.29    0.12
  -3   8  20   -0.05    0.09
   3   8 -20    0.00    0.11
   2   8 -20    0.34    0.12
  -2   8  20    0.13    0.11
  -1  -8  20    0.06    0.11
  -1   8  20   -0.12    0.10
   1   8 -20   -0.03    0.10
   0   8 -20   -0.06    0.09
   0   8  20    0.07    0.11
  -9   0  21    0.89    0.13
  -8   0  21   -0.05    0.09
  -7   0  21   22.15    0.65
  -6   0  21   -0.08    0.08
  -5   0  21    0.51    0.11
  -4   0  21    0.05    0.09
  -3   0  21   12.30    0.43
  -2   0  21    0.04    0.09
  -1   0  21   20.01    0.61
   0   0  21   -0.01    0.09
   1   0  21    3.27    0.21
   2   0  21   -0.14    0.09
   3   0  21    5.77    0.28
   4   0  21   -0.06    0.09
   5   0  21    6.55    0.31
   6   0  21   -0.14    0.09
   7   0  21    0.23    0.12
  12  -1 -21    0.41    0.13
  10   1 -21    0.05    0.08
  -9  -1  21    0.76    0.13
  -9   1  21    0.92    0.12
   9   1 -21    0.56    0.11
  -8  -1  21    1.97    0.17
  -8   1  21    2.15    0.17
  -7  -1  21    0.05    0.09
  -7   1  21    0.14    0.10
  -6  -1  21    1.70    0.16
  -6   1  21    1.86    0.17
  -5  -1  21    0.27    0.10
  -5   1  21    0.22    0.10
  -4  -1  21    0.86    0.12
  -4   1  21    0.82    0.12
  -3  -1  21    1.87    0.16
  -3   1  21    1.79    0.16
  -2  -1  21    1.03    0.13
  -2   1  21    1.19    0.14
  -1  -1  21    1.06    0.14
  -1   1  21    1.11    0.13
   0  -1  21    0.35    0.10
   0   1  21    0.37    0.10
   1  -1  21    4.03    0.23
   1   1  21    4.07    0.23
   2  -1  21    0.51    0.12
   2   1  21    0.76    0.12
   3  -1  21    0.88    0.14
   3   1  21    0.86    0.14
   4  -1  21   -0.03    0.10
   4   1  21    0.30    0.11
   5  -1  21    0.14    0.11
   5   1  21    0.28    0.12
   6  -1  21    1.93    0.18
   6   1  21    1.88    0.18
   7  -1  21    0.18    0.11
   7   1  21    0.44    0.13
  12  -2 -21    0.23    0.13
 -10  -2  21    1.88    0.18
  10   2 -21    1.36    0.14
  -9  -2  21    1.97    0.18
   9   2 -21    1.83    0.17
  -8  -2  21    0.18    0.11
  -8   2  21    0.38    0.10
   8   2 -21    0.28    0.10
  -7  -2  21   -0.11    0.09
  -7   2  21    0.15    0.09
   7   2 -21    0.04    0.09
  -6  -2  21    9.26    0.36
  -6   2  21    9.68    0.36
  -5  -2  21    0.26    0.10
  -5   2  21    0.09    0.09
  -4  -2  21    0.39    0.10
  -4   2  21    0.36    0.11
  -3  -2  21   -0.01    0.09
  -3   2  21    0.06    0.10
  -2  -2  21    0.44    0.11
  -2   2  21    0.83    0.13
  -1  -2  21    8.00    0.33
  -1   2  21    8.18    0.33
   0  -2  21    1.58    0.16
   0   2  21    1.49    0.15
   1  -2  21    0.03    0.09
   1   2  21    0.05    0.10
   2  -2  21    7.76    0.33
   2   2  21    7.90    0.33
   3  -2  21    0.06    0.09
   3   2  21    0.02    0.09
   4  -2  21    0.61    0.13
   4   2  21    0.54    0.13
   5  -2  21   -0.08    0.09
   5   2  21    0.14    0.10
   6  -2  21    0.37    0.12
   6   2  21    0.39    0.12
 -10  -3  21    1.08    0.14
  10   3 -21    0.93    0.13
  -9  -3  21    3.99    0.24
   9   3 -21    3.64    0.22
  -8  -3  21    1.37    0.16
  -8   3  21    1.07    0.13
   8   3 -21    1.18    0.14
  -7  -3  21    0.82    0.13
   7   3 -21    0.53    0.11
  -7   3  21    0.74    0.12
  -6  -3  21    2.05    0.18
  -6   3  21    2.03    0.17
   6   3 -21    2.18    0.17
  -5  -3  21    0.59    0.12
  -5   3  21    0.65    0.12
   5   3 -21    0.85    0.13
  -4  -3  21    4.41    0.24
  -4   3  21    4.86    0.25
  -3  -3  21    2.08    0.18
  -3   3  21    2.34    0.17
  -2  -3  21    1.00    0.14
  -2   3  21    1.16    0.13
  -1  -3  21    3.48    0.21
  -1   3  21    3.57    0.22
   0  -3  21    4.45    0.24
   0   3  21    4.50    0.25
   1  -3  21    0.68    0.12
   1   3  21    0.74    0.13
   2  -3  21    0.61    0.12
   2   3  21    0.57    0.13
   3  -3  21    1.04    0.14
   3   3  21    1.01    0.15
   4  -3  21    1.32    0.15
   4   3  21    1.55    0.17
   5  -3  21    0.40    0.12
   5   3  21    0.38    0.12
   6  -3  21    0.54    0.12
   6   3  21    0.27    0.12
  11  -4 -21   -0.18    0.11
  11   4 -21   -0.05    0.09
 -10  -4  21    1.14    0.15
  10   4 -21    0.85    0.13
  -9  -4  21    0.52    0.12
   9   4 -21    0.76    0.12
  -8  -4  21    1.73    0.17
   8   4 -21    1.59    0.16
  -7  -4  21   -0.02    0.10
  -7   4  21   -0.01    0.09
   7   4 -21    0.22    0.10
  -6  -4  21    1.07    0.15
   6   4 -21    0.84    0.13
  -6   4  21    0.73    0.13
  -5  -4  21    0.45    0.12
  -5   4  21    0.25    0.10
   5   4 -21    0.50    0.12
  -4  -4  21    0.02    0.09
  -4   4  21    0.25    0.10
   4   4 -21    0.03    0.09
  -3  -4  21    0.32    0.12
  -3   4  21    0.35    0.11
   3   4 -21    0.32    0.11
  -2  -4  21    0.33    0.12
   2   4 -21    0.63    0.12
  -2   4  21    0.51    0.12
  -1  -4  21    0.14    0.10
  -1   4  21    0.07    0.10
   0  -4  21    0.56    0.13
   0   4  21    0.45    0.11
   1  -4  21    0.05    0.10
   1   4  21    0.08    0.10
   2  -4  21    1.00    0.15
   2   4  21    0.78    0.14
   3  -4  21    6.79    0.31
   3   4  21    6.93    0.33
   4  -4  21    0.43    0.12
   4   4  21    0.43    0.13
   5  -4  21    1.14    0.15
   5   4  21    1.17    0.16
  10   5 -21    0.01    0.08
  -9  -5  21    0.23    0.12
   9   5 -21    0.02    0.09
  -8  -5  21    0.17    0.12
   8   5 -21    0.01    0.08
  -7  -5  21    0.61    0.14
  -7   5  21    0.79    0.12
   7   5 -21    0.80    0.13
  -6  -5  21    0.16    0.11
  -6   5  21    0.18    0.10
   6   5 -21   -0.03    0.09
  -5  -5  21    1.73    0.17
   5   5 -21    1.94    0.17
  -5   5  21    1.82    0.17
  -4  -5  21    0.34    0.13
   4   5 -21   -0.02    0.10
  -4   5  21    0.25    0.11
  -3  -5  21    2.42    0.21
  -3   5  21    2.21    0.19
   3   5 -21    2.07    0.18
  -2  -5  21    0.07    0.10
  -2   5  21   -0.11    0.09
   2   5 -21   -0.09    0.09
  -1  -5  21    0.89    0.15
  -1   5  21    1.18    0.15
   1   5 -21    1.07    0.14
   0  -5  21    1.98    0.19
   0   5  21    2.05    0.19
   0   5 -21    2.06    0.18
   1  -5  21    0.11    0.10
   1   5  21    0.27    0.12
  -1   5 -21    0.16    0.10
   2  -5  21    1.16    0.15
  -2   5 -21    1.32    0.15
   2   5  21    1.21    0.16
   3  -5  21    1.00    0.16
   3   5  21    0.94    0.15
  -3   5 -21    1.01    0.14
   4  -5  21    1.13    0.16
   4   5  21    1.10    0.16
  -4   5 -21    0.94    0.14
   8   6 -21   -0.11    0.09
  -7  -6  21    0.01    0.10
   7   6 -21   -0.04    0.09
  -6  -6  21    1.05    0.16
   6   6 -21    0.89    0.14
  -6   6  21    1.14    0.14
  -5  -6  21   -0.06    0.11
  -5   6  21    0.00    0.10
   5   6 -21    0.21    0.11
  -4  -6  21    0.03    0.11
   4   6 -21    0.11    0.10
  -4   6  21    0.22    0.11
  -3  -6  21    0.14    0.11
   3   6 -21    0.14    0.10
  -3   6  21    0.06    0.10
  -2  -6  21    0.09    0.11
  -2   6  21    0.05    0.10
   2   6 -21    0.14    0.10
  -1  -6  21    1.07    0.16
  -1   6  21    0.97    0.15
   1   6 -21    1.18    0.15
   0  -6  21    0.04    0.11
   0   6 -21    0.04    0.10
   0   6  21    0.23    0.11
   1  -6  21    0.99    0.16
   1   6  21    1.05    0.15
  -1   6 -21    1.02    0.15
   2  -6  21   -0.19    0.10
  -2   6 -21   -0.03    0.10
   2   6  21    0.14    0.11
   3  -6  21    0.20    0.12
  -3   6 -21    0.17    0.10
   3   6  21    0.23    0.12
  -6   7  21   -0.03    0.10
   6   7 -21   -0.03    0.10
  -5  -7  21    2.29    0.22
  -5   7  21    2.24    0.19
   5   7 -21    2.13    0.20
  -4  -7  21    0.19    0.13
   4   7 -21    0.08    0.11
  -4   7  21    0.30    0.11
  -3  -7  21    4.75    0.29
   3   7 -21    4.53    0.27
  -3   7  21    4.52    0.25
  -2  -7  21   -0.05    0.11
   2   7 -21    0.10    0.10
  -2   7  21    0.14    0.11
  -1  -7  21    1.20    0.17
   1   7 -21    0.77    0.14
  -1   7  21    1.40    0.17
   0  -7  21    0.46    0.13
   0   7 -21    0.31    0.12
   0   7  21    0.24    0.12
  -1   7 -21    0.42    0.13
   1   7  21    0.67    0.14
  -9   0  22   -0.02    0.09
  -8   0  22    0.67    0.12
  -7   0  22    0.06    0.10
  -6   0  22    3.00    0.21
  -5   0  22    0.14    0.09
  -4   0  22    0.29    0.11
  -3   0  22   -0.06    0.08
  -2   0  22    0.04    0.09
  -1   0  22    0.26    0.10
   0   0  22    1.06    0.13
   1   0  22   -0.03    0.09
   2   0  22    5.53    0.27
   3   0  22    0.06    0.10
   4   0  22    0.46    0.12
   5   0  22    0.07    0.11
  -9  -1  22    0.92    0.14
   9   1 -22    0.63    0.12
  -8  -1  22    2.59    0.20
  -8   1  22    2.76    0.20
  -7  -1  22    2.68    0.20
  -7   1  22    2.58    0.19
  -6  -1  22    3.25    0.22
  -6   1  22    3.48    0.22
  -5  -1  22    4.49    0.24
  -5   1  22    4.27    0.24
  -4  -1  22    1.84    0.16
  -4   1  22    1.79    0.17
  -3  -1  22    3.47    0.22
  -3   1  22    2.77    0.19
  -2  -1  22    0.37    0.11
  -2   1  22    0.21    0.10
  -1  -1  22    6.41    0.29
  -1   1  22    6.59    0.30
   0  -1  22    0.03    0.09
   0   1  22   -0.07    0.10
   1  -1  22    0.66    0.13
   1   1  22    0.50    0.12
   2  -1  22    0.05    0.10
   2   1  22   -0.23    0.08
   3  -1  22   -0.09    0.09
   3   1  22   -0.10    0.10
   4  -1  22    0.05    0.11
   4   1  22    0.09    0.11
   5  -1  22    0.04    0.10
   5   1  22   -0.05    0.10
 -10  -2  22    0.15    0.11
  10   2 -22   -0.04    0.09
  -9  -2  22    1.70    0.17
   9   2 -22    1.59    0.15
  -8  -2  22   -0.10    0.10
   8   2 -22    0.04    0.09
  -8   2  22    0.23    0.10
  -7  -2  22    0.42    0.12
  -7   2  22    0.51    0.11
   7   2 -22    0.53    0.12
  -6  -2  22    0.03    0.09
  -6   2  22    0.07    0.10
  -5  -2  22    1.30    0.15
  -5   2  22    1.06    0.13
  -4  -2  22    1.06    0.14
  -4   2  22    1.31    0.14
  -3  -2  22    0.11    0.10
  -3   2  22    0.06    0.10
  -2  -2  22   -0.06    0.09
  -2   2  22    0.02    0.10
  -1  -2  22    0.11    0.10
  -1   2  22   -0.01    0.09
   0  -2  22    1.43    0.15
   0   2  22    1.36    0.15
   1  -2  22    0.80    0.14
   1   2  22    0.82    0.13
   2  -2  22    1.31    0.16
   2   2  22    1.35    0.16
   3  -2  22    2.76    0.21
   3   2  22    2.65    0.20
   4  -2  22    0.16    0.11
   4   2  22    0.11    0.11
   5  -2  22    1.84    0.18
   5   2  22    1.99    0.19
 -10  -3  22    0.42    0.12
  10   3 -22    0.57    0.12
  -9  -3  22    0.08    0.10
   9   3 -22    0.24    0.11
  -8  -3  22    0.07    0.10
   8   3 -22    0.09    0.09
  -8   3  22    0.02    0.09
  -7  -3  22    0.10    0.10
  -7   3  22    0.08    0.10
   7   3 -22    0.13    0.09
  -6  -3  22    0.84    0.14
  -6   3  22    1.15    0.14
   6   3 -22    0.97    0.13
  -5  -3  22    0.53    0.12
  -5   3  22    0.90    0.13
   5   3 -22    0.57    0.12
  -4  -3  22    0.09    0.10
  -4   3  22    0.28    0.11
  -3  -3  22    7.96    0.34
  -3   3  22    8.08    0.34
  -2  -3  22    0.01    0.09
  -2   3  22    0.06    0.10
  -1  -3  22    2.39    0.19
  -1   3  22    2.18    0.18
   0  -3  22    1.87    0.17
   0   3  22    1.72    0.17
   1  -3  22    0.83    0.14
   1   3  22    0.68    0.13
   2  -3  22    0.12    0.11
   2   3  22    0.09    0.11
   3  -3  22    0.99    0.15
   3   3  22    1.09    0.16
   4  -3  22    0.06    0.11
   4   3  22    0.05    0.12
   5   3  22    0.04    0.10
  10   4 -22    0.01    0.09
  -9  -4  22    0.05    0.10
   9   4 -22   -0.08    0.08
  -8  -4  22    0.25    0.12
   8   4 -22    0.17    0.10
  -7  -4  22    1.30    0.15
  -7   4  22    1.49    0.15
   7   4 -22    1.46    0.15
  -6  -4  22    3.68    0.25
  -6   4  22    3.57    0.22
   6   4 -22    3.60    0.23
  -5  -4  22   -0.05    0.10
  -5   4  22    0.01    0.10
   5   4 -22   -0.03    0.09
  -4  -4  22   -0.08    0.10
   4   4 -22   -0.03    0.09
  -4   4  22   -0.01    0.09
  -3  -4  22    1.72    0.17
   3   4 -22    2.10    0.18
  -3   4  22    1.89    0.17
  -2  -4  22    2.44    0.20
  -2   4  22    2.39    0.19
   2   4 -22    2.52    0.19
  -1  -4  22   -0.03    0.09
  -1   4  22    0.07    0.10
   0  -4  22    0.58    0.13
   0   4  22    0.54    0.12
   1  -4  22    1.48    0.17
   1   4  22    1.15    0.15
   2  -4  22    4.28    0.26
   2   4  22    4.49    0.26
   3  -4  22    2.13    0.19
   3   4  22    2.39    0.21
   4  -4  22    2.42    0.21
   4   4  22    2.97    0.23
  -8  -5  22    0.25    0.12
   8   5 -22    0.17    0.11
  -7  -5  22    3.23    0.24
   7   5 -22    3.08    0.22
  -7   5  22    3.50    0.22
  -6  -5  22    0.33    0.13
  -6   5  22    0.33    0.11
   6   5 -22    0.32    0.12
  -5  -5  22    0.85    0.15
   5   5 -22    1.15    0.16
  -5   5  22    1.02    0.14
  -4  -5  22    2.35    0.22
   4   5 -22    2.34    0.20
  -4   5  22    2.07    0.19
  -3  -5  22   -0.02    0.11
  -3   5  22    0.13    0.10
   3   5 -22    0.15    0.11
  -2  -5  22    0.74    0.14
   2   5 -22    0.69    0.12
  -2   5  22    0.66    0.14
  -1  -5  22   -0.06    0.10
   1   5 -22   -0.02    0.10
  -1   5  22   -0.05    0.10
   0  -5  22    0.64    0.13
   0   5 -22    0.60    0.12
   0   5  22    0.50    0.14
   1  -5  22   -0.09    0.11
   1   5  22    0.08    0.11
  -1   5 -22    0.06    0.11
   2  -5  22    0.08    0.12
  -2   5 -22    0.17    0.11
   2   5  22    0.22    0.12
   3   5  22    0.58    0.14
  -3   5 -22    0.05    0.10
  -6  -6  22    0.90    0.16
   6   6 -22    0.89    0.15
  -6   6  22    0.79    0.14
  -5  -6  22    2.15    0.20
  -5   6  22    1.77    0.17
   5   6 -22    2.10    0.20
  -4  -6  22    0.74    0.15
  -4   6  22    0.50    0.13
   4   6 -22    0.55    0.14
  -3  -6  22    0.53    0.13
  -3   6  22    0.23    0.12
   3   6 -22    0.32    0.11
  -2  -6  22   -0.01    0.11
   2   6 -22    0.12    0.11
  -2   6  22    0.19    0.12
  -1  -6  22    0.08    0.12
  -1   6  22    0.05    0.11
   1   6 -22    0.19    0.11
   0  -6  22    1.11    0.16
   0   6 -22    0.97    0.15
   0   6  22    1.12    0.16
  -1   6 -22    1.34    0.17
   1   6  22    1.74    0.18
  -9   0  23    2.25    0.19
  -8   0  23    0.09    0.10
  -7   0  23    3.87    0.24
  -6   0  23    0.06    0.10
  -5   0  23    0.32    0.12
  -4   0  23    0.24    0.11
  -3   0  23    0.12    0.10
  -2   0  23    0.02    0.10
  -1   0  23    0.20    0.11
   0   0  23    0.08    0.10
   1   0  23    1.05    0.15
   2   0  23   -0.07    0.10
   3   0  23    0.02    0.10
   4   0  23   -0.16    0.09
  -9  -1  23    0.16    0.11
   9   1 -23    0.32    0.11
  -8  -1  23    0.07    0.10
  -8   1  23    0.12    0.10
  -7  -1  23    0.25    0.11
  -7   1  23    0.20    0.11
  -6  -1  23    1.05    0.15
  -6   1  23    0.73    0.12
  -5  -1  23    0.14    0.11
  -5   1  23   -0.15    0.09
  -4  -1  23    0.20    0.11
  -4   1  23    0.27    0.10
  -3  -1  23    0.13    0.10
  -3   1  23    0.12    0.11
  -2  -1  23    0.73    0.14
  -2   1  23    0.45    0.12
  -1  -1  23    0.20    0.10
  -1   1  23    0.26    0.11
   0  -1  23    0.02    0.09
   0   1  23    0.02    0.11
   1  -1  23    1.39    0.15
   1   1  23    1.18    0.15
   2  -1  23    0.41    0.13
   2   1  23    0.20    0.11
   3  -1  23    0.15    0.11
   3   1  23    0.30    0.13
   4  -1  23   -0.02    0.10
   4   1  23    0.09    0.12
  10   2 -23   -0.03    0.09
  -9  -2  23   -0.07    0.09
   9   2 -23    0.07    0.10
  -8  -2  23    0.74    0.14
   8   2 -23    0.95    0.14
  -8   2  23    0.96    0.14
  -7  -2  23    1.97    0.18
   7   2 -23    2.25    0.18
  -7   2  23    2.51    0.19
  -6  -2  23    0.10    0.11
  -6   2  23   -0.04    0.10
  -5  -2  23    1.47    0.16
  -5   2  23    1.54    0.16
  -4  -2  23    1.76    0.18
  -4   2  23    1.69    0.17
  -3  -2  23    0.53    0.13
  -3   2  23    0.39    0.11
  -2  -2  23    3.87    0.23
  -2   2  23    3.81    0.24
  -1  -2  23    0.74    0.14
  -1   2  23    0.38    0.12
   0  -2  23    2.43    0.21
   0   2  23    2.56    0.21
   1  -2  23    0.05    0.10
   1   2  23   -0.08    0.10
   2  -2  23    0.77    0.13
   2   2  23    0.76    0.14
   3  -2  23    0.96    0.15
   3   2  23    1.02    0.16
  -9  -3  23    1.80    0.18
   9   3 -23    1.68    0.17
  -8  -3  23    0.17    0.11
   8   3 -23    0.18    0.11
  -7  -3  23    1.18    0.15
   7   3 -23    1.07    0.14
  -7   3  23    0.79    0.13
  -6  -3  23    0.10    0.11
  -6   3  23    0.06    0.09
   6   3 -23    0.11    0.10
  -5  -3  23    2.18    0.20
   5   3 -23    2.07    0.19
  -5   3  23    2.23    0.20
  -4  -3  23    1.90    0.18
  -4   3  23    2.09    0.19
  -3  -3  23    0.24    0.11
  -3   3  23    0.09    0.11
  -2  -3  23    5.23    0.27
  -2   3  23    4.72    0.26
  -1  -3  23    1.00    0.14
  -1   3  23    1.00    0.15
   0  -3  23    0.72    0.13
   0   3  23    0.69    0.14
   1  -3  23    0.79    0.15
   1   3  23    1.01    0.15
   2  -3  23    1.61    0.18
   2   3  23    1.13    0.16
   3  -3  23    1.61    0.18
   3   3  23    1.88    0.19
  -8  -4  23    0.71    0.15
   8   4 -23    0.68    0.13
  -7  -4  23    5.64    0.30
   7   4 -23    5.13    0.28
  -7   4  23    5.78    0.28
  -6  -4  23    0.51    0.14
  -6   4  23    0.38    0.12
   6   4 -23    0.43    0.13
  -5  -4  23    2.39    0.21
  -5   4  23    2.60    0.20
   5   4 -23    2.32    0.20
  -4  -4  23    0.05    0.10
  -4   4  23    0.04    0.11
   4   4 -23   -0.01    0.09
  -3  -4  23    0.43    0.12
  -3   4  23    0.46    0.12
   3   4 -23    0.24    0.11
  -2  -4  23    0.09    0.11
  -2   4  23    0.05    0.11
   2   4 -23    0.05    0.10
  -1  -4  23    0.52    0.14
  -1   4  23    0.60    0.14
   0  -4  23    0.13    0.11
   0   4  23   -0.05    0.10
   1  -4  23    3.01    0.23
   1   4  23    2.72    0.22
   2  -4  23    2.99    0.23
   2   4  23    2.69    0.22
  -6  -5  23    3.47    0.25
  -6   5  23    3.51    0.22
   6   5 -23    3.46    0.22
  -5  -5  23    0.96    0.16
  -5   5  23    0.85    0.14
   5   5 -23    0.98    0.15
  -4  -5  23    6.66    0.34
  -4   5  23    6.39    0.30
   4   5 -23    6.40    0.31
  -3  -5  23    0.82    0.16
   3   5 -23    0.35    0.13
  -3   5  23    0.82    0.13
  -2  -5  23    0.52    0.13
  -2   5  23    0.62    0.14
   2   5 -23    0.41    0.12
  -1  -5  23    0.33    0.12
   1   5 -23    0.44    0.12
  -1   5  23    0.48    0.13
   0  -5  23    0.26    0.13
   0   5 -23    0.28    0.12
   0   5  23    0.42    0.14
  -8   0  24    1.51    0.16
  -7   0  24   -0.02    0.09
  -6   0  24    1.47    0.16
  -5   0  24    0.15    0.10
  -4   0  24    3.07    0.22
  -3   0  24    0.31    0.12
  -2   0  24   10.90    0.42
  -1   0  24    0.03    0.11
   0   0  24    2.16    0.20
   1   0  24   -0.10    0.10
   2   0  24   -0.14    0.11
  -8  -1  24    0.20    0.12
  -8   1  24    0.33    0.11
  -7  -1  24   -0.14    0.10
  -7   1  24    0.07    0.11
  -6  -1  24   -0.02    0.10
  -6   1  24   -0.02    0.10
  -5  -1  24    0.01    0.10
  -5   1  24    0.12    0.11
  -4  -1  24    1.34    0.16
  -4   1  24    1.50    0.16
  -3  -1  24    1.69    0.17
  -3   1  24    1.27    0.15
  -2  -1  24    0.06    0.10
  -2   1  24    0.03    0.10
  -1  -1  24    0.19    0.11
  -1   1  24    0.14    0.11
   0  -1  24   -0.06    0.09
   0   1  24    0.06    0.10
   1  -1  24    2.59    0.20
   1   1  24    2.26    0.20
   2  -1  24    1.22    0.16
   2   1  24    1.03    0.16
  -8  -2  24    0.85    0.15
  -8   2  24    0.91    0.14
   8   2 -24    1.07    0.15
  -7  -2  24    1.68    0.18
  -7   2  24    1.47    0.16
   7   2 -24    1.45    0.17
  -6  -2  24    0.30    0.12
  -6   2  24    0.34    0.11
  -5  -2  24    5.49    0.29
  -5   2  24    5.25    0.27
  -4  -2  24    0.04    0.10
  -4   2  24   -0.01    0.10
  -3  -2  24    1.17    0.15
  -3   2  24    1.33    0.15
  -2  -2  24    0.76    0.14
  -2   2  24    0.62    0.14
  -1  -2  24    1.34    0.16
  -1   2  24    1.11    0.15
   0  -2  24    0.54    0.13
   0   2  24    0.55    0.14
   1  -2  24    4.11    0.25
   1   2  24    4.11    0.25
   2  -2  24    0.06    0.11
   2   2  24    0.10    0.12
  -7  -3  24    0.66    0.14
  -7   3  24    0.77    0.14
   7   3 -24    0.54    0.12
  -6  -3  24    0.57    0.13
  -6   3  24    0.45    0.13
   6   3 -24    0.76    0.13
  -5  -3  24    0.86    0.14
   5   3 -24    0.50    0.12
  -5   3  24    0.61    0.14
  -4  -3  24    1.05    0.16
  -4   3  24    0.98    0.15
  -3  -3  24    1.47    0.17
  -3   3  24    1.61    0.17
  -2  -3  24    0.31    0.12
  -2   3  24    0.21    0.11
  -1  -3  24    0.56    0.13
  -1   3  24    0.55    0.13
   0  -3  24    0.56    0.14
   0   3  24    0.76    0.14
   1  -3  24    0.32    0.12
   1   3  24    0.22    0.12
   6   4 -24    0.72    0.14
  -5  -4  24    0.41    0.13
   5   4 -24    0.16    0.11
  -5   4  24    0.13    0.12
  -4  -4  24    0.09    0.12
  -4   4  24    0.15    0.11
   4   4 -24    0.21    0.12
  -3  -4  24    0.74    0.14
  -3   4  24    0.55    0.13
   3   4 -24    0.52    0.13
  -2  -4  24    0.33    0.13
   2   4 -24    0.38    0.13
  -2   4  24    0.23    0.11
  -1  -4  24    0.67    0.15
   1   4 -24    0.49    0.14
  -1   4  24    0.34    0.12
  -6   0  25   -0.03    0.11
  -5   0  25    0.36    0.12
  -4   0  25    0.06    0.11
  -3   0  25    1.00    0.16
  -2   0  25    0.06    0.10
  -1   0  25    0.01    0.11
   0   0  25   -0.14    0.10
  -6  -1  25    0.78    0.14
  -6   1  25    0.81    0.14
  -5  -1  25    1.56    0.17
  -5   1  25    1.52    0.16
  -4  -1  25    0.28    0.12
  -4   1  25    0.05    0.11
  -3  -1  25    1.54    0.18
  -3   1  25    1.85    0.19
  -2  -1  25    0.18    0.11
  -2   1  25    0.08    0.11
  -1  -1  25    0.13    0.11
  -1   1  25    0.24    0.13
  -5  -2  25    0.23    0.13
  -5   2  25    0.30    0.13
  -4  -2  25    0.12    0.11
  -4   2  25    0.17    0.12
  -3  -2  25    0.11    0.11
  -3   2  25   -0.08    0.10
  -2  -2  25    0.00    0.11
  -2   2  25   -0.05    0.11
   0   0   0    0.00    0.00
;
_shelx_hkl_checksum              51521
_shelx_res_file
;
    shelx.res created by SHELXL-2014/7
TITL NPS_11_U_0m in P2(1)/n
CELL  0.71073  13.2381   9.9265  19.0348   90.000  100.693   90.000
ZERR     4.00   0.0003   0.0002   0.0004    0.000    0.001    0.000
LATT   1
SYMM  1/2 - X, 1/2 + Y, 1/2 - Z
SFAC  C    H    N    O    S
UNIT  104  92   20   20   4
ACTA
BOND $H
CONF
WPDB
MERG   2
FMAP   2
PLAN   20
BOND
L.S.  20
WGHT    0.078700    1.180100
FVAR       0.15010
MOLE    1
C25   1    0.336215    0.304532    0.200616    11.00000    0.10889    0.05465 =
         0.07107   -0.00523    0.02387    0.01674
AFIX 137
H25A  2    0.369680    0.312028    0.160154    11.00000   -1.50000
H25B  2    0.320349    0.211735    0.207740    11.00000   -1.50000
H25C  2    0.380966    0.338102    0.242471    11.00000   -1.50000
AFIX   0
C26   1    0.186470    0.380631    0.269960    11.00000    0.09711    0.07541 =
         0.08009    0.01164    0.04862   -0.01895
AFIX 137
H26A  2    0.241590    0.412132    0.306310    11.00000   -1.50000
H26B  2    0.173705    0.287182    0.277933    11.00000   -1.50000
H26C  2    0.125520    0.431937    0.271726    11.00000   -1.50000
AFIX   0
O5    4    0.251617    0.544741    0.180555    11.00000    0.07832    0.04629 =
         0.05596    0.01162    0.02767    0.00166
S1    5    0.220809    0.400284    0.184849    11.00000    0.06972    0.04982 =
         0.04275   -0.00087    0.00316   -0.01022
MOLE    2
C1    1    0.196347    1.249822   -0.192652    11.00000    0.04249    0.03956 =
         0.04296    0.01013    0.00858    0.00613
AFIX  43
H1    2    0.174239    1.161923   -0.203097    11.00000   -1.20000
AFIX   0
C2    1    0.131019    1.357038   -0.214887    11.00000    0.04583    0.05995 =
         0.05525    0.01927    0.00570    0.01560
AFIX  43
H2    2    0.065175    1.341021   -0.240488    11.00000   -1.20000
AFIX   0
C3    1    0.163518    1.487074   -0.199111    11.00000    0.06975    0.04740 =
         0.06459    0.02073    0.01308    0.02808
AFIX  43
H3    2    0.119319    1.558680   -0.213775    11.00000   -1.20000
AFIX   0
C4    1    0.260234    1.511441   -0.162073    11.00000    0.07827    0.03256 =
         0.07234    0.01024    0.00771    0.01548
AFIX  43
H4    2    0.281535    1.599591   -0.151450    11.00000   -1.20000
AFIX   0
C5    1    0.327024    1.405547   -0.140150    11.00000    0.05669    0.03228 =
         0.05349    0.00614    0.00307    0.00646
AFIX  43
H5    2    0.393343    1.422635   -0.115668    11.00000   -1.20000
AFIX   0
C6    1    0.294400    1.273886   -0.154928    11.00000    0.04084    0.02972 =
         0.03257    0.00865    0.01064    0.00795
C7    1    0.367871    1.161411   -0.134919    11.00000    0.03305    0.02753 =
         0.02877    0.00336    0.00765    0.00314
C8    1    0.447590    0.976329   -0.098865    11.00000    0.02565    0.02835 =
         0.02670    0.00246    0.00984    0.00129
C9    1    0.413761    0.796238   -0.030974    11.00000    0.02439    0.02461 =
         0.02633    0.00226    0.00799    0.00566
C10   1    0.392711    0.602332    0.040439    11.00000    0.03343    0.02870 =
         0.03446    0.00574    0.01303    0.00907
C11   1    0.270343    0.789098    0.029918    11.00000    0.02907    0.03005 =
         0.03500    0.00657    0.01378    0.00987
C12   1    0.325154    0.854633   -0.019532    11.00000    0.02381    0.02498 =
         0.02816    0.00343    0.00931    0.00717
C13   1    0.279034    0.982220   -0.057541    11.00000    0.02270    0.02320 =
         0.02711    0.00124    0.00795    0.00658
C14   1    0.357920    1.039747   -0.096943    11.00000    0.02462    0.02500 =
         0.02732    0.00169    0.00725    0.00437
C15   1    0.175131    0.955153   -0.104481    11.00000    0.02450    0.02370 =
         0.02811    0.00189    0.00697    0.00458
C16   1    0.148662    0.872173   -0.162637    11.00000    0.03599    0.03025 =
         0.03644   -0.00504    0.00971    0.00670
AFIX  43
H16   2    0.198227    0.820540   -0.178929    11.00000   -1.20000
AFIX   0
C17   1    0.046315    0.866747   -0.196753    11.00000    0.04298    0.04139 =
         0.04160   -0.01340    0.00114    0.00122
AFIX  43
H17   2    0.026960    0.811152   -0.236285    11.00000   -1.20000
AFIX   0
C18   1   -0.026815    0.943961   -0.171972    11.00000    0.02822    0.04879 =
         0.04989   -0.00897   -0.00251    0.00398
AFIX  43
H18   2   -0.095188    0.937648   -0.194687    11.00000   -1.20000
AFIX   0
C19   1   -0.000874    1.030736   -0.114035    11.00000    0.02551    0.04226 =
         0.04422   -0.00568    0.00503    0.00947
AFIX  43
H19   2   -0.050027    1.083747   -0.098141    11.00000   -1.20000
AFIX   0
C20   1    0.101126    1.034447   -0.081291    11.00000    0.02571    0.02685 =
         0.03003   -0.00138    0.00615    0.00552
C21   1    0.249796    1.089777   -0.005198    11.00000    0.02521    0.02704 =
         0.02825    0.00073    0.00775    0.00561
C22   1    0.095412    1.220874    0.009064    11.00000    0.03438    0.04002 =
         0.04113   -0.01218    0.00971    0.01298
AFIX  23
H22A  2    0.131084    1.237141    0.057606    11.00000   -1.20000
H22B  2    0.025882    1.192413    0.010991    11.00000   -1.20000
AFIX   0
C23   1    0.092152    1.347312   -0.033059    11.00000    0.08577    0.03986 =
         0.09245   -0.00060    0.04027    0.02327
AFIX  43
H23   2    0.154362    1.389297   -0.035046    11.00000   -1.20000
AFIX   0
C24   1    0.009356    1.403148   -0.067088    11.00000    0.16153    0.08938 =
         0.10351    0.02949    0.05377    0.07352
AFIX  93
H24A  2   -0.054259    1.364023   -0.066307    11.00000   -1.20000
H24B  2    0.013290    1.482521   -0.092398    11.00000   -1.20000
AFIX   0
N1    3    0.456594    1.169236   -0.156195    11.00000    0.03770    0.03324 =
         0.04025    0.01062    0.01302    0.00450
N2    3    0.478478    0.852373   -0.071977    11.00000    0.02368    0.03047 =
         0.03633    0.00621    0.01485    0.00975
AFIX  43
H2A   2    0.533159    0.813019   -0.079878    11.00000   -1.20000
AFIX   0
N3    3    0.445391    0.672915   -0.002655    11.00000    0.02751    0.02779 =
         0.03731    0.00729    0.01497    0.01178
AFIX  43
H3A   2    0.500786    0.638595   -0.012472    11.00000   -1.20000
AFIX   0
N4    3    0.310516    0.666407    0.057905    11.00000    0.03476    0.03135 =
         0.04056    0.01173    0.02102    0.01103
AFIX  43
H4A   2    0.280464    0.628104    0.088963    11.00000   -1.20000
AFIX   0
N5    3    0.148013    1.114182   -0.023091    11.00000    0.02433    0.03000 =
         0.03207   -0.00564    0.00614    0.00910
O1    4    0.509322    1.047040   -0.133022    11.00000    0.02957    0.03526 =
         0.03934    0.01068    0.01482    0.00445
O2    4    0.419066    0.488220    0.061472    11.00000    0.05050    0.03161 =
         0.05434    0.01568    0.02752    0.01821
O3    4    0.194138    0.835803    0.048418    11.00000    0.04247    0.04661 =
         0.05837    0.01862    0.03295    0.02152
O4    4    0.309143    1.147451    0.042119    11.00000    0.02729    0.04415 =
         0.03756   -0.01181    0.00396    0.00440
HKLF 4
REM  NPS_11_U_0m in P2(1)/n
REM R1 =  0.0484 for    4931 Fo > 4sig(Fo)  and  0.0602 for all    6183 data
REM    336 parameters refined using      0 restraints
END
WGHT      0.0779      1.0323
REM Highest difference peak  0.463,  deepest hole -0.515,  1-sigma level  0.073
Q1    1   0.1428  1.4384 -0.0151  11.00000  0.05    0.46
Q2    1   0.5486  0.8450 -0.0503  11.00000  0.05    0.41
Q3    1   0.1568  1.3735 -0.0040  11.00000  0.05    0.37
Q4    1   0.2260  0.9582 -0.0851  11.00000  0.05    0.29
Q5    1   0.3804  0.8365 -0.0136  11.00000  0.05    0.27
Q6    1   0.1411  1.0117 -0.1025  11.00000  0.05    0.27
Q7    1   0.1610  0.9008 -0.1273  11.00000  0.05    0.24
Q8    1   0.4451  0.8267 -0.0479  11.00000  0.05    0.23
Q9    1   0.2956  0.8244  0.0015  11.00000  0.05    0.22
Q10   1   0.3460  1.0938 -0.1228  11.00000  0.05    0.22
Q11   1   0.4996  0.3797  0.1736  11.00000  0.05    0.21
Q12   1  -0.0160  0.9249 -0.3098  11.00000  0.05    0.20
Q13   1   0.1934  0.3902  0.2312  11.00000  0.05    0.20
Q14   1   0.0565  1.0441 -0.1016  11.00000  0.05    0.20
Q15   1   0.4945  0.4703  0.1738  11.00000  0.05    0.20
Q16   1   0.4959  0.4813  0.2002  11.00000  0.05    0.20
Q17   1  -0.0393  0.9005 -0.3200  11.00000  0.05    0.19
Q18   1   0.3344  1.2119 -0.1389  11.00000  0.05    0.19
Q19   1   0.4013  1.0067 -0.0926  11.00000  0.05    0.19
Q20   1   0.4765  1.3800 -0.1685  11.00000  0.05    0.19
;
_shelx_res_checksum              89364
loop_
_space_group_symop_operation_xyz
'x, y, z'
'-x+1/2, y+1/2, -z+1/2'
'-x, -y, -z'
'x-1/2, -y-1/2, z-1/2'
loop_
_atom_site_type_symbol
_atom_site_label
_atom_site_fract_x
_atom_site_fract_y
_atom_site_fract_z
_atom_site_U_iso_or_equiv
_atom_site_adp_type
_atom_site_calc_flag
_atom_site_occupancy
C C25 0.3362(2) 0.3045(3) 0.20062(16) 0.0773(8) Uani d 1
H H25A 0.3697 0.3120 0.1602 0.116 Uiso calc 1
H H25B 0.3203 0.2117 0.2077 0.116 Uiso calc 1
H H25C 0.3810 0.3381 0.2425 0.116 Uiso calc 1
C C26 0.1865(2) 0.3806(3) 0.26996(16) 0.0801(8) Uani d 1
H H26A 0.2416 0.4121 0.3063 0.120 Uiso calc 1
H H26B 0.1737 0.2872 0.2779 0.120 Uiso calc 1
H H26C 0.1255 0.4319 0.2717 0.120 Uiso calc 1
O O5 0.25162(13) 0.54474(15) 0.18055(8) 0.0582(4) Uani d 1
S S1 0.22081(5) 0.40028(6) 0.18485(3) 0.05503(16) Uani d 1
C C1 0.19635(14) 1.24982(19) -0.19265(10) 0.0416(4) Uani d 1
H H1 0.1742 1.1619 -0.2031 0.050 Uiso calc 1
C C2 0.13102(16) 1.3570(2) -0.21489(12) 0.0541(5) Uani d 1
H H2 0.0652 1.3410 -0.2405 0.065 Uiso calc 1
C C3 0.16352(19) 1.4871(2) -0.19911(13) 0.0605(6) Uani d 1
H H3 0.1193 1.5587 -0.2138 0.073 Uiso calc 1
C C4 0.2602(2) 1.5114(2) -0.16207(14) 0.0619(6) Uani d 1
H H4 0.2815 1.5996 -0.1515 0.074 Uiso calc 1
C C5 0.32702(17) 1.40555(18) -0.14015(11) 0.0484(5) Uani d 1
H H5 0.3933 1.4226 -0.1157 0.058 Uiso calc 1
C C6 0.29440(13) 1.27389(16) -0.15493(8) 0.0339(3) Uani d 1
C C7 0.36787(12) 1.16141(15) -0.13492(8) 0.0295(3) Uani d 1
C C8 0.44759(11) 0.97633(15) -0.09886(8) 0.0263(3) Uani d 1
C C9 0.41376(10) 0.79624(14) -0.03097(7) 0.0247(3) Uani d 1
C C10 0.39271(12) 0.60233(15) 0.04044(8) 0.0313(3) Uani d 1
C C11 0.27034(11) 0.78910(16) 0.02992(8) 0.0304(3) Uani d 1
C C12 0.32515(10) 0.85463(14) -0.01953(8) 0.0251(3) Uani d 1
C C13 0.27903(10) 0.98222(14) -0.05754(7) 0.0239(3) Uani d 1
C C14 0.35792(11) 1.03975(14) -0.09694(8) 0.0253(3) Uani d 1
C C15 0.17513(11) 0.95515(14) -0.10448(8) 0.0252(3) Uani d 1
C C16 0.14866(13) 0.87217(16) -0.16264(9) 0.0338(3) Uani d 1
H H16 0.1982 0.8205 -0.1789 0.041 Uiso calc 1
C C17 0.04632(14) 0.86675(19) -0.19675(10) 0.0428(4) Uani d 1
H H17 0.0270 0.8112 -0.2363 0.051 Uiso calc 1
C C18 -0.02682(13) 0.9440(2) -0.17197(10) 0.0435(4) Uani d 1
H H18 -0.0952 0.9376 -0.1947 0.052 Uiso calc 1
C C19 -0.00087(12) 1.03074(18) -0.11404(10) 0.0375(4) Uani d 1
H H19 -0.0500 1.0837 -0.0981 0.045 Uiso calc 1
C C20 0.10113(11) 1.03445(15) -0.08129(8) 0.0274(3) Uani d 1
C C21 0.24980(11) 1.08978(15) -0.00520(8) 0.0265(3) Uani d 1
C C22 0.09541(13) 1.22087(18) 0.00906(9) 0.0382(4) Uani d 1
H H22A 0.1311 1.2371 0.0576 0.046 Uiso calc 1
H H22B 0.0259 1.1924 0.0110 0.046 Uiso calc 1
C C23 0.0922(2) 1.3473(2) -0.03306(16) 0.0697(7) Uani d 1
H H23 0.1544 1.3893 -0.0350 0.084 Uiso calc 1
C C24 0.0094(4) 1.4031(4) -0.0671(2) 0.1144(15) Uani d 1
H H24A -0.0543 1.3640 -0.0663 0.137 Uiso calc 1
H H24B 0.0133 1.4825 -0.0924 0.137 Uiso calc 1
N N1 0.45659(11) 1.16924(14) -0.15619(8) 0.0363(3) Uani d 1
N N2 0.47848(9) 0.85237(13) -0.07198(7) 0.0290(3) Uani d 1
H H2A 0.5332 0.8130 -0.0799 0.035 Uiso calc 1
N N3 0.44539(10) 0.67292(13) -0.00266(7) 0.0297(3) Uani d 1
H H3A 0.5008 0.6386 -0.0125 0.036 Uiso calc 1
N N4 0.31052(10) 0.66641(14) 0.05790(7) 0.0338(3) Uani d 1
H H4A 0.2805 0.6281 0.0890 0.041 Uiso calc 1
N N5 0.14801(9) 1.11418(13) -0.02309(7) 0.0287(3) Uani d 1
O O1 0.50932(8) 1.04704(11) -0.13302(6) 0.0336(3) Uani d 1
O O2 0.41907(10) 0.48822(12) 0.06147(7) 0.0432(3) Uani d 1
O O3 0.19414(10) 0.83580(14) 0.04842(7) 0.0461(3) Uani d 1
O O4 0.30914(8) 1.14745(12) 0.04212(6) 0.0366(3) Uani d 1
loop_
_atom_site_aniso_label
_atom_site_aniso_U_11
_atom_site_aniso_U_22
_atom_site_aniso_U_33
_atom_site_aniso_U_12
_atom_site_aniso_U_13
_atom_site_aniso_U_23
C25 0.109(2) 0.0547(14) 0.0711(16) 0.0167(14) 0.0239(15) -0.0052(12)
C26 0.097(2) 0.0754(17) 0.0801(18) -0.0189(15) 0.0486(16) 0.0116(14)
O5 0.0783(10) 0.0463(8) 0.0560(9) 0.0017(7) 0.0277(8) 0.0116(7)
S1 0.0697(4) 0.0498(3) 0.0427(3) -0.0102(2) 0.0032(2) -0.0009(2)
C1 0.0425(9) 0.0396(9) 0.0430(9) 0.0061(7) 0.0086(7) 0.0101(7)
C2 0.0458(11) 0.0600(13) 0.0553(12) 0.0156(9) 0.0057(9) 0.0193(10)
C3 0.0697(14) 0.0474(12) 0.0646(14) 0.0281(11) 0.0131(11) 0.0207(10)
C4 0.0783(16) 0.0326(10) 0.0723(15) 0.0155(10) 0.0077(12) 0.0102(9)
C5 0.0567(11) 0.0323(9) 0.0535(11) 0.0065(8) 0.0031(9) 0.0061(8)
C6 0.0408(8) 0.0297(7) 0.0326(7) 0.0080(6) 0.0106(6) 0.0086(6)
C7 0.0330(7) 0.0275(7) 0.0288(7) 0.0031(6) 0.0077(6) 0.0034(6)
C8 0.0256(6) 0.0284(7) 0.0267(7) 0.0013(5) 0.0098(5) 0.0025(5)
C9 0.0244(6) 0.0246(6) 0.0263(6) 0.0057(5) 0.0080(5) 0.0023(5)
C10 0.0334(7) 0.0287(7) 0.0345(7) 0.0091(6) 0.0130(6) 0.0057(6)
C11 0.0291(7) 0.0301(7) 0.0350(7) 0.0099(6) 0.0138(6) 0.0066(6)
C12 0.0238(6) 0.0250(7) 0.0282(7) 0.0072(5) 0.0093(5) 0.0034(5)
C13 0.0227(6) 0.0232(6) 0.0271(6) 0.0066(5) 0.0079(5) 0.0012(5)
C14 0.0246(6) 0.0250(6) 0.0273(6) 0.0044(5) 0.0072(5) 0.0017(5)
C15 0.0245(6) 0.0237(6) 0.0281(7) 0.0046(5) 0.0070(5) 0.0019(5)
C16 0.0360(8) 0.0302(7) 0.0364(8) 0.0067(6) 0.0097(6) -0.0050(6)
C17 0.0430(9) 0.0414(9) 0.0416(9) 0.0012(7) 0.0011(7) -0.0134(7)
C18 0.0282(8) 0.0488(10) 0.0499(10) 0.0040(7) -0.0025(7) -0.0090(8)
C19 0.0255(7) 0.0423(9) 0.0442(9) 0.0095(6) 0.0050(6) -0.0057(7)
C20 0.0257(7) 0.0269(7) 0.0300(7) 0.0055(5) 0.0062(5) -0.0014(5)
C21 0.0252(7) 0.0270(7) 0.0283(7) 0.0056(5) 0.0078(5) 0.0007(5)
C22 0.0344(8) 0.0400(9) 0.0411(9) 0.0130(7) 0.0097(7) -0.0122(7)
C23 0.0858(17) 0.0399(11) 0.0924(18) 0.0233(11) 0.0403(15) -0.0006(11)
C24 0.162(4) 0.089(2) 0.104(3) 0.074(2) 0.054(2) 0.0295(19)
N1 0.0377(7) 0.0332(7) 0.0402(7) 0.0045(6) 0.0130(6) 0.0106(6)
N2 0.0237(6) 0.0305(6) 0.0363(7) 0.0098(5) 0.0149(5) 0.0062(5)
N3 0.0275(6) 0.0278(6) 0.0373(7) 0.0118(5) 0.0150(5) 0.0073(5)
N4 0.0348(7) 0.0313(7) 0.0406(7) 0.0110(5) 0.0210(6) 0.0117(6)
N5 0.0243(6) 0.0300(6) 0.0321(6) 0.0091(5) 0.0061(5) -0.0056(5)
O1 0.0296(5) 0.0353(6) 0.0393(6) 0.0044(4) 0.0148(5) 0.0107(5)
O2 0.0505(7) 0.0316(6) 0.0543(8) 0.0182(5) 0.0275(6) 0.0157(5)
O3 0.0425(7) 0.0466(7) 0.0584(8) 0.0215(6) 0.0330(6) 0.0186(6)
O4 0.0273(5) 0.0441(7) 0.0376(6) 0.0044(5) 0.0040(4) -0.0118(5)
loop_
_atom_type_symbol
_atom_type_description
_atom_type_scat_dispersion_real
_atom_type_scat_dispersion_imag
_atom_type_scat_source
C C 0.0033 0.0016 'International Tables Vol C Tables 4.2.6.8 and 6.1.1.4'
H H 0.0000 0.0000 'International Tables Vol C Tables 4.2.6.8 and 6.1.1.4'
N N 0.0061 0.0033 'International Tables Vol C Tables 4.2.6.8 and 6.1.1.4'
O O 0.0106 0.0060 'International Tables Vol C Tables 4.2.6.8 and 6.1.1.4'
S S 0.1246 0.1234 'International Tables Vol C Tables 4.2.6.8 and 6.1.1.4'
loop_
_geom_angle_atom_site_label_1
_geom_angle_atom_site_label_2
_geom_angle_atom_site_label_3
_geom_angle
S1 C25 H25A 109.5
S1 C25 H25B 109.5
H25A C25 H25B 109.5
S1 C25 H25C 109.5
H25A C25 H25C 109.5
H25B C25 H25C 109.5
S1 C26 H26A 109.5
S1 C26 H26B 109.5
H26A C26 H26B 109.5
S1 C26 H26C 109.5
H26A C26 H26C 109.5
H26B C26 H26C 109.5
O5 S1 C26 105.90(12)
O5 S1 C25 106.69(12)
C26 S1 C25 98.34(15)
C6 C1 C2 119.87(19)
C6 C1 H1 120.1
C2 C1 H1 120.1
C3 C2 C1 120.1(2)
C3 C2 H2 120.0
C1 C2 H2 120.0
C4 C3 C2 120.31(19)
C4 C3 H3 119.8
C2 C3 H3 119.8
C3 C4 C5 120.4(2)
C3 C4 H4 119.8
C5 C4 H4 119.8
C4 C5 C6 119.7(2)
C4 C5 H5 120.2
C6 C5 H5 120.2
C1 C6 C5 119.64(16)
C1 C6 C7 120.73(15)
C5 C6 C7 119.47(16)
N1 C7 C14 112.23(13)
N1 C7 C6 117.22(14)
C14 C7 C6 130.52(14)
O1 C8 C14 112.89(13)
O1 C8 N2 119.25(12)
C14 C8 N2 127.84(13)
C12 C9 N3 121.76(13)
C12 C9 N2 124.23(13)
N3 C9 N2 114.00(12)
O2 C10 N4 123.02(14)
O2 C10 N3 121.51(14)
N4 C10 N3 115.47(13)
O3 C11 N4 119.92(14)
O3 C11 C12 123.97(14)
N4 C11 C12 116.10(12)
C9 C12 C11 117.65(13)
C9 C12 C13 123.87(12)
C11 C12 C13 118.46(11)
C14 C13 C15 114.20(12)
C14 C13 C12 107.27(11)
C15 C13 C12 111.75(12)
C14 C13 C21 109.64(12)
C15 C13 C21 101.08(10)
C12 C13 C21 112.96(11)
C8 C14 C7 102.52(12)
C8 C14 C13 122.07(13)
C7 C14 C13 135.32(13)
C16 C15 C20 120.42(14)
C16 C15 C13 130.44(13)
C20 C15 C13 109.12(12)
C15 C16 C17 118.74(14)
C15 C16 H16 120.6
C17 C16 H16 120.6
C18 C17 C16 120.12(16)
C18 C17 H17 119.9
C16 C17 H17 119.9
C17 C18 C19 121.84(16)
C17 C18 H18 119.1
C19 C18 H18 119.1
C20 C19 C18 116.87(14)
C20 C19 H19 121.6
C18 C19 H19 121.6
C19 C20 C15 121.99(14)
C19 C20 N5 128.48(13)
C15 C20 N5 109.52(12)
O4 C21 N5 125.26(13)
O4 C21 C13 126.19(12)
N5 C21 C13 108.47(12)
N5 C22 C23 110.75(15)
N5 C22 H22A 109.5
C23 C22 H22A 109.5
N5 C22 H22B 109.5
C23 C22 H22B 109.5
H22A C22 H22B 108.1
C24 C23 C22 124.8(3)
C24 C23 H23 117.6
C22 C23 H23 117.6
C23 C24 H24A 120.0
C23 C24 H24B 120.0
H24A C24 H24B 120.0
C7 N1 O1 105.56(12)
C8 N2 C9 113.69(11)
C8 N2 H2A 123.2
C9 N2 H2A 123.2
C10 N3 C9 122.80(12)
C10 N3 H3A 118.6
C9 N3 H3A 118.6
C10 N4 C11 125.69(13)
C10 N4 H4A 117.2
C11 N4 H4A 117.2
C21 N5 C20 111.80(12)
C21 N5 C22 123.72(13)
C20 N5 C22 124.16(12)
C8 O1 N1 106.79(11)
loop_
_geom_bond_atom_site_label_1
_geom_bond_atom_site_label_2
_geom_bond_distance
C25 S1 1.777(3)
C25 H25A 0.9600
C25 H25B 0.9600
C25 H25C 0.9600
C26 S1 1.773(3)
C26 H26A 0.9600
C26 H26B 0.9600
C26 H26C 0.9600
O5 S1 1.4972(16)
C1 C6 1.383(3)
C1 C2 1.387(3)
C1 H1 0.9300
C2 C3 1.376(3)
C2 H2 0.9300
C3 C4 1.364(4)
C3 H3 0.9300
C4 C5 1.387(3)
C4 H4 0.9300
C5 C6 1.389(3)
C5 H5 0.9300
C6 C7 1.483(2)
C7 N1 1.314(2)
C7 C14 1.426(2)
C8 O1 1.3343(17)
C8 C14 1.3501(19)
C8 N2 1.3658(19)
C9 C12 1.3617(18)
C9 N3 1.3714(18)
C9 N2 1.3791(18)
C10 O2 1.2301(19)
C10 N4 1.3540(19)
C10 N3 1.3647(19)
C11 O3 1.2200(18)
C11 N4 1.3945(19)
C11 C12 1.4454(19)
C12 C13 1.5285(18)
C13 C14 1.5066(19)
C13 C15 1.5187(19)
C13 C21 1.5574(19)
C15 C16 1.372(2)
C15 C20 1.3909(19)
C16 C17 1.391(2)
C16 H16 0.9300
C17 C18 1.384(3)
C17 H17 0.9300
C18 C19 1.391(2)
C18 H18 0.9300
C19 C20 1.379(2)
C19 H19 0.9300
C20 N5 1.4085(19)
C21 O4 1.2221(19)
C21 N5 1.3490(18)
C22 N5 1.4626(18)
C22 C23 1.486(3)
C22 H22A 0.9700
C22 H22B 0.9700
C23 C24 1.290(5)
C23 H23 0.9300
C24 H24A 0.9300
C24 H24B 0.9300
N1 O1 1.4279(17)
N2 H2A 0.8600
N3 H3A 0.8600
N4 H4A 0.8600
loop_
_geom_hbond_atom_site_label_D
_geom_hbond_atom_site_label_H
_geom_hbond_atom_site_label_A
_geom_hbond_site_symmetry_A
_geom_hbond_distance_DH
_geom_hbond_distance_HA
_geom_hbond_distance_DA
_geom_hbond_angle_DHA
N4 H4A O5 . 0.86 2.03 2.862(2) 163
C1 H1 Cg . 0.93 2.88 3.624(2) 138
N2 H2A O4 3_675 0.86 2.11 2.7631(16) 132
N3 H3A O2 3_665 0.86 1.99 2.7887(18) 155
C17 H17 N1 2_544 0.93 2.53 3.412(2) 159
C19 H19 O3 3_575 0.93 2.42 3.324(2) 165
C26 H26C O1 4_576 0.96 2.59 3.322(3) 133
loop_
_geom_torsion_atom_site_label_1
_geom_torsion_atom_site_label_2
_geom_torsion_atom_site_label_3
_geom_torsion_atom_site_label_4
_geom_torsion
C6 C1 C2 C3 -0.3(3)
C1 C2 C3 C4 0.5(4)
C2 C3 C4 C5 0.3(4)
C3 C4 C5 C6 -1.2(4)
C2 C1 C6 C5 -0.6(3)
C2 C1 C6 C7 -175.83(17)
C4 C5 C6 C1 1.3(3)
C4 C5 C6 C7 176.65(19)
C1 C6 C7 N1 123.62(18)
C5 C6 C7 N1 -51.6(2)
C1 C6 C7 C14 -54.3(2)
C5 C6 C7 C14 130.43(19)
N3 C9 C12 C11 6.4(2)
N2 C9 C12 C11 -174.55(14)
N3 C9 C12 C13 -171.57(13)
N2 C9 C12 C13 7.4(2)
O3 C11 C12 C9 174.82(17)
N4 C11 C12 C9 -4.0(2)
O3 C11 C12 C13 -7.1(2)
N4 C11 C12 C13 174.10(13)
C9 C12 C13 C14 -9.96(19)
C11 C12 C13 C14 172.03(13)
C9 C12 C13 C15 115.92(15)
C11 C12 C13 C15 -62.08(17)
C9 C12 C13 C21 -130.89(15)
C11 C12 C13 C21 51.10(18)
O1 C8 C14 C7 0.51(17)
N2 C8 C14 C7 -178.07(15)
O1 C8 C14 C13 -176.47(13)
N2 C8 C14 C13 5.0(2)
N1 C7 C14 C8 -0.95(18)
C6 C7 C14 C8 177.06(16)
N1 C7 C14 C13 175.41(16)
C6 C7 C14 C13 -6.6(3)
C15 C13 C14 C8 -120.20(15)
C12 C13 C14 C8 4.21(19)
C21 C13 C14 C8 127.21(15)
C15 C13 C14 C7 64.0(2)
C12 C13 C14 C7 -171.59(16)
C21 C13 C14 C7 -48.6(2)
C14 C13 C15 C16 60.4(2)
C12 C13 C15 C16 -61.6(2)
C21 C13 C15 C16 177.99(15)
C14 C13 C15 C20 -117.90(13)
C12 C13 C15 C20 120.11(13)
C21 C13 C15 C20 -0.29(15)
C20 C15 C16 C17 -1.4(2)
C13 C15 C16 C17 -179.56(16)
C15 C16 C17 C18 -0.1(3)
C16 C17 C18 C19 1.5(3)
C17 C18 C19 C20 -1.3(3)
C18 C19 C20 C15 -0.3(3)
C18 C19 C20 N5 178.72(17)
C16 C15 C20 C19 1.6(2)
C13 C15 C20 C19 -179.87(15)
C16 C15 C20 N5 -177.52(14)
C13 C15 C20 N5 0.96(16)
C14 C13 C21 O4 -56.51(19)
C15 C13 C21 O4 -177.41(15)
C12 C13 C21 O4 63.1(2)
C14 C13 C21 N5 120.39(13)
C15 C13 C21 N5 -0.51(15)
C12 C13 C21 N5 -120.04(13)
N5 C22 C23 C24 115.0(3)
C14 C7 N1 O1 0.99(18)
C6 C7 N1 O1 -177.31(13)
O1 C8 N2 C9 172.97(13)
C14 C8 N2 C9 -8.5(2)
C12 C9 N2 C8 2.1(2)
N3 C9 N2 C8 -178.79(13)
O2 C10 N3 C9 175.32(15)
N4 C10 N3 C9 -4.6(2)
C12 C9 N3 C10 -2.1(2)
N2 C9 N3 C10 178.80(14)
O2 C10 N4 C11 -172.78(17)
N3 C10 N4 C11 7.1(2)
O3 C11 N4 C10 178.19(17)
C12 C11 N4 C10 -2.9(2)
O4 C21 N5 C20 178.07(15)
C13 C21 N5 C20 1.14(17)
O4 C21 N5 C22 4.3(3)
C13 C21 N5 C22 -172.62(14)
C19 C20 N5 C21 179.55(16)
C15 C20 N5 C21 -1.35(18)
C19 C20 N5 C22 -6.7(3)
C15 C20 N5 C22 172.37(14)
C23 C22 N5 C21 91.4(2)
C23 C22 N5 C20 -81.6(2)
C14 C8 O1 N1 0.05(17)
N2 C8 O1 N1 178.76(13)
C7 N1 O1 C8 -0.64(17)

_cod_database_fobs_code 1545036
