#------------------------------------------------------------------------------
#$Date: 2017-03-04 14:55:23 +0200 (Sat, 04 Mar 2017) $
#$Revision: 193367 $
#$URL: file:///home/coder/svn-repositories/cod/cif/1/54/54/1545445.cif $
#------------------------------------------------------------------------------
#
# This file is available in the Crystallography Open Database (COD),
# http://www.crystallography.net/
#
# All data on this site have been placed in the public domain by the
# contributors.
#
data_1545445
loop_
_publ_author_name
'Zhang, Shuyao'
'Cheng, Beiming'
'Wang, Shen-An'
'Zhou, Ling'
'Tung, Chen-Ho'
'Wang, Jianwu'
'Xu, Zhenghu'
_publ_section_title
;
 Gold-Catalyzed Cycloisomerization/1,5-H Migration/Diels-Alder Reaction
 Cascade: Synthesis of Complex Nitrogen-Containing Heterocycles.
;
_journal_issue                   5
_journal_name_full               'Organic letters'
_journal_page_first              1072
_journal_page_last               1075
_journal_paper_doi               10.1021/acs.orglett.7b00090
_journal_volume                  19
_journal_year                    2017
_chemical_formula_sum            'C28 H26 N2 O5 S'
_chemical_formula_weight         502.57
_space_group_crystal_system      triclinic
_space_group_IT_number           2
_space_group_name_Hall           '-P 1'
_space_group_name_H-M_alt        'P -1'
_symmetry_space_group_name_Hall  '-P 1'
_symmetry_space_group_name_H-M   'P -1'
_atom_sites_solution_hydrogens   geom
_audit_creation_method           SHELXL-2014/7
_cell_angle_alpha                68.18(3)
_cell_angle_beta                 67.74(3)
_cell_angle_gamma                70.59(3)
_cell_formula_units_Z            2
_cell_length_a                   10.430(5)
_cell_length_b                   11.137(5)
_cell_length_c                   12.934(5)
_cell_measurement_reflns_used    1426
_cell_measurement_temperature    571(2)
_cell_measurement_theta_max      19.736
_cell_measurement_theta_min      2.611
_cell_volume                     1258.3(10)
_computing_structure_refinement  'SHELXL-2014/7 (Sheldrick, 2014)'
_diffrn_ambient_temperature      571(2)
_diffrn_measured_fraction_theta_full 0.989
_diffrn_measured_fraction_theta_max 0.989
_diffrn_measurement_device_type  'Bruker Apex II'
_diffrn_radiation_type           MoK\a
_diffrn_radiation_wavelength     0.71073
_diffrn_reflns_av_R_equivalents  0.0589
_diffrn_reflns_av_unetI/netI     0.0830
_diffrn_reflns_Laue_measured_fraction_full 0.989
_diffrn_reflns_Laue_measured_fraction_max 0.989
_diffrn_reflns_limit_h_max       12
_diffrn_reflns_limit_h_min       -12
_diffrn_reflns_limit_k_max       13
_diffrn_reflns_limit_k_min       -13
_diffrn_reflns_limit_l_max       15
_diffrn_reflns_limit_l_min       -15
_diffrn_reflns_number            11533
_diffrn_reflns_point_group_measured_fraction_full 0.989
_diffrn_reflns_point_group_measured_fraction_max 0.989
_diffrn_reflns_theta_full        24.997
_diffrn_reflns_theta_max         24.997
_diffrn_reflns_theta_min         2.611
_exptl_absorpt_coefficient_mu    0.170
_exptl_crystal_colour            colorless
_exptl_crystal_density_diffrn    1.326
_exptl_crystal_description       block
_exptl_crystal_F_000             528
_exptl_crystal_size_max          0.200
_exptl_crystal_size_mid          0.100
_exptl_crystal_size_min          0.100
_refine_diff_density_max         0.530
_refine_diff_density_min         -0.267
_refine_diff_density_rms         0.054
_refine_ls_extinction_coef       0.010(3)
_refine_ls_extinction_expression Fc^*^=kFc[1+0.001xFc^2^\l^3^/sin(2\q)]^-1/4^
_refine_ls_extinction_method     'SHELXL-2014/7 (Sheldrick 2014'
_refine_ls_goodness_of_fit_ref   1.016
_refine_ls_hydrogen_treatment    constr
_refine_ls_matrix_type           full
_refine_ls_number_parameters     328
_refine_ls_number_reflns         4395
_refine_ls_number_restraints     36
_refine_ls_restrained_S_all      1.060
_refine_ls_R_factor_all          0.1289
_refine_ls_R_factor_gt           0.0640
_refine_ls_shift/su_max          0.001
_refine_ls_shift/su_mean         0.000
_refine_ls_structure_factor_coef Fsqd
_refine_ls_weighting_details
'w=1/[\s^2^(Fo^2^)+(0.0798P)^2^+0.7152P] where P=(Fo^2^+2Fc^2^)/3'
_refine_ls_weighting_scheme      calc
_refine_ls_wR_factor_gt          0.1543
_refine_ls_wR_factor_ref         0.1907
_reflns_Friedel_coverage         0.000
_reflns_number_gt                2465
_reflns_number_total             4395
_reflns_threshold_expression     'I > 2\s(I)'
_cod_data_source_file            ol7b00090_si_002.cif
_cod_data_source_block           p
_cod_original_cell_volume        1258.4(10)
_cod_database_code               1545445
_shelx_shelxl_version_number     2014/7
_shelx_space_group_comment
;
The symmetry employed for this shelxl refinement is uniquely defined
by the following loop, which should always be used as a source of
symmetry information in preference to the above space-group names.
They are only intended as comments.
;
_shelx_estimated_absorpt_t_min   0.967
_shelx_estimated_absorpt_t_max   0.983
_shelx_res_file
;

    p.res created by SHELXL-2014/7

TITL P in P-1
CELL 0.71073 10.4305 11.1369 12.9339 68.179 67.742 70.587
ZERR 2 0.0046 0.0046 0.0052 0.03 0.032 0.034
LATT 1
SFAC C H N O S
UNIT 56 52 4 10 2
SIMU 0.004 0.008 1.7 C3 C5
SIMU 0.004 0.008 1.7 C3 C6
SIMU 0.004 0.008 1.7 C3 C1
SIMU 0.004 0.008 1.7 C3 C2
SIMU 0.004 0.008 1.7 C8 C4 C5 C6 C1 C2 C3

L.S. 4
PLAN  20
SIZE 0.1 0.2 0.1
TEMP 298
BOND
fmap 2
acta
OMIT -3 50
OMIT 3 -1 0
OMIT 2 -1 1
OMIT 2 0 0
OMIT 2 -3 3
OMIT 3 2 1
OMIT -2 0 1
OMIT 1 4 0
OMIT -1 3 3
OMIT 3 5 6
OMIT 3 -2 4
OMIT 4 3 3
OMIT 1 -1 0
OMIT 5 5 6
OMIT 2 4 2
OMIT 3 -1 5
OMIT 0 2 1
OMIT -2 2 2
OMIT -1 0 2
OMIT -3 -3 1
OMIT 2 -4 3
OMIT 0 -1 2
OMIT -1 -3 3
OMIT 0 0 4
OMIT 1 -3 1
OMIT 4 3 4
OMIT -3 1 2
OMIT 3 4 1
OMIT 2 1 0
OMIT 1 0 2
OMIT 3 2 5
OMIT -4 -3 1
REM <olex2.extras>
REM <HklSrc "%.\\p.hkl">
REM </olex2.extras>

WGHT    0.079800    0.715200
EXTI    0.010298
FVAR       0.23597
S1    5    0.159439    0.192131    0.501118    11.00000    0.06672    0.04313 =
         0.04044   -0.00414   -0.02023   -0.01327
N1    3    0.055988    0.683554    0.151109    11.00000    0.06273    0.04114 =
         0.04520   -0.00412   -0.02707   -0.01291
O4    4    0.032154    0.145462    0.565405    11.00000    0.06955    0.06021 =
         0.04339   -0.00228    0.00061   -0.02870
N2    3    0.109245    0.343628    0.421499    11.00000    0.05045    0.04450 =
         0.03315   -0.00778   -0.01600   -0.01151
O3    4    0.242304    0.205365    0.561195    11.00000    0.09706    0.05584 =
         0.05949   -0.00656   -0.04820   -0.01388
O1    4    0.256303    0.709598    0.170538    11.00000    0.07664    0.05991 =
         0.06731   -0.00196   -0.03300   -0.03154
O2    4   -0.150264    0.623841    0.184923    11.00000    0.06686    0.07155 =
         0.07567   -0.00608   -0.04346   -0.01694
C14   1    0.138214    0.362907    0.227191    11.00000    0.04859    0.03446 =
         0.03611   -0.01127   -0.01645   -0.00906
C12   1    0.022472    0.379648    0.338988    11.00000    0.04306    0.04310 =
         0.03886   -0.00982   -0.01537   -0.01290
C13   1    0.217410    0.424503    0.341863    11.00000    0.04885    0.04146 =
         0.03924   -0.00593   -0.02176   -0.01323
AFIX  13
H13   2    0.295624    0.415034    0.370732    11.00000   -1.20000
AFIX   0
C19   1    0.258585    0.387841    0.230024    11.00000    0.04500    0.03743 =
         0.03794   -0.00950   -0.01498   -0.00822
C7    1    0.154412    0.659738    0.209796    11.00000    0.05999    0.03762 =
         0.05120   -0.01091   -0.02463   -0.01032
C15   1    0.138773    0.336244    0.131570    11.00000    0.06543    0.05338 =
         0.04661   -0.01814   -0.02210   -0.01370
AFIX  43
H15   2    0.057477    0.322781    0.127826    11.00000   -1.20000
AFIX   0
C8    1   -0.051646    0.615723    0.216426    11.00000    0.04682    0.04434 =
         0.05245   -0.01438   -0.01699   -0.00832
C18   1    0.382021    0.382818    0.139976    11.00000    0.04471    0.05320 =
         0.04986   -0.00957   -0.01161   -0.01305
AFIX  43
H18   2    0.462140    0.399715    0.142527    11.00000   -1.20000
AFIX   0
C10   1    0.112061    0.562502    0.326039    11.00000    0.05907    0.03854 =
         0.03974   -0.01457   -0.01922   -0.00709
AFIX  13
H10   2    0.092935    0.600132    0.389293    11.00000   -1.20000
AFIX   0
C9    1   -0.021704    0.531797    0.328792    11.00000    0.04660    0.04429 =
         0.03931   -0.01628   -0.01281   -0.00362
AFIX  13
H9    2   -0.101807    0.551250    0.395403    11.00000   -1.20000
AFIX   0
C3    1    0.070404    0.759668    0.032159    11.00000    0.11475    0.04978 =
         0.06978    0.00757   -0.05991   -0.03819
C20   1    0.270159    0.090416    0.410502    11.00000    0.04771    0.03755 =
         0.05223   -0.00548   -0.01721   -0.00937
C16   1    0.263141    0.329910    0.041024    11.00000    0.08930    0.06297 =
         0.04522   -0.02157   -0.02118   -0.01568
AFIX  43
H16   2    0.265678    0.310550   -0.023841    11.00000   -1.20000
AFIX   0
C23   1    0.440739   -0.050399    0.249356    11.00000    0.06402    0.05041 =
         0.07329   -0.01570   -0.01989   -0.00116
C17   1    0.383711    0.351778    0.045025    11.00000    0.06455    0.06812 =
         0.04340   -0.01957    0.00057   -0.00813
AFIX  43
H17   2    0.466671    0.345649   -0.016402    11.00000   -1.20000
AFIX   0
C11   1   -0.100774    0.315463    0.376980    11.00000    0.06366    0.06950 =
         0.06837   -0.01648   -0.01713   -0.02302
AFIX 137
H11A  2   -0.065583    0.222663    0.382319    11.00000   -1.50000
H11B  2   -0.153476    0.356729    0.321113    11.00000   -1.50000
H11C  2   -0.161688    0.326156    0.451683    11.00000   -1.50000
AFIX   0
C21   1    0.212760    0.023657    0.374913    11.00000    0.05563    0.05823 =
         0.07723   -0.02342   -0.01987   -0.01581
AFIX  43
H21   2    0.116084    0.025142    0.404776    11.00000   -1.20000
AFIX   0
C22   1    0.298325   -0.045531    0.294979    11.00000    0.07329    0.06068 =
         0.07973   -0.03110   -0.03270   -0.00237
AFIX  43
H22   2    0.258031   -0.090157    0.271424    11.00000   -1.20000
AFIX   0
C26   1    0.416087    0.081948    0.369652    11.00000    0.06041    0.05793 =
         0.10496   -0.02321   -0.03533   -0.01140
AFIX  43
H26   2    0.457222    0.123748    0.395222    11.00000   -1.20000
AFIX   0
C2    1   -0.037091    0.864913    0.003127    11.00000    0.13223    0.05118 =
         0.09309    0.00328   -0.07595   -0.03014
AFIX  43
H2    2   -0.119391    0.889544    0.059739    11.00000   -1.20000
AFIX   0
C25   1    0.498835    0.010341    0.290421    11.00000    0.04767    0.06137 =
         0.10687   -0.02352   -0.01202   -0.00307
AFIX  43
H25   2    0.596602    0.003045    0.264144    11.00000   -1.20000
AFIX   0
C4    1    0.191901    0.723093   -0.051603    11.00000    0.12222    0.08172 =
         0.06570    0.01767   -0.04804   -0.04837
AFIX  43
H4    2    0.263060    0.651357   -0.029899    11.00000   -1.20000
AFIX   0
C24   1    0.532420   -0.120527    0.157743    11.00000    0.09948    0.08414 =
         0.09065   -0.03710   -0.00804    0.01037
AFIX 137
H24A  2    0.601152   -0.194014    0.188029    11.00000   -1.50000
H24B  2    0.580584   -0.059905    0.090585    11.00000   -1.50000
H24C  2    0.474048   -0.152428    0.136131    11.00000   -1.50000
AFIX   0
C1    1   -0.017418    0.935009   -0.117484    11.00000    0.14654    0.06358 =
         0.10461    0.01253   -0.08434   -0.04136
AFIX  43
H1    2   -0.087525    1.006069   -0.141862    11.00000   -1.20000
AFIX   0
C6    1    0.105353    0.895548   -0.195086    11.00000    0.15087    0.08217 =
         0.08973    0.02643   -0.06696   -0.06682
AFIX  43
H6    2    0.118529    0.943843   -0.272996    11.00000   -1.20000
AFIX   0
C5    1    0.209147    0.792216   -0.168009    11.00000    0.14088    0.09942 =
         0.07889    0.02106   -0.05140   -0.06008
AFIX  43
H5    2    0.290358    0.767427   -0.225371    11.00000   -1.20000
AFIX   0

O5    4    0.397622    0.475699    0.470187    11.00000    0.11548    0.11222 =
         0.12623    0.00003   -0.07150   -0.04771
C28   1    0.485510    0.565479    0.389979    11.00000    0.11865    0.11234 =
         0.10104    0.01385   -0.05933   -0.05735
AFIX  23
H28A  2    0.434383    0.634828    0.338249    11.00000   -1.20000
H28B  2    0.569905    0.518545    0.343122    11.00000   -1.20000
AFIX   0
C27   1    0.473342    0.375315    0.546315    11.00000    0.12340    0.10876 =
         0.13183    0.01725   -0.08901   -0.05029
AFIX  23
H27A  2    0.557730    0.326005    0.501520    11.00000   -1.20000
H27B  2    0.414104    0.313924    0.601202    11.00000   -1.20000
AFIX   0
HKLF 4

REM  P in P-1
REM R1 =  0.0640 for    2465 Fo > 4sig(Fo)  and  0.1289 for all    4395 data
REM    328 parameters refined using     36 restraints

END

WGHT      0.0799      0.7107

REM Highest difference peak  0.530,  deepest hole -0.267,  1-sigma level  0.054
Q1    1  -0.1024  0.9522 -0.0634  11.00000  0.05    0.53
Q2    1   0.0374  0.9417 -0.1737  11.00000  0.05    0.45
Q3    1   0.3527  0.4221  0.3757  11.00000  0.05    0.41
Q4    1   0.1757  0.8620 -0.2214  11.00000  0.05    0.34
Q5    1   0.5631  0.2969  0.4657  11.00000  0.05    0.27
Q6    1   0.5571  0.3661  0.3665  11.00000  0.05    0.27
Q7    1   0.5000  0.5000  0.5000  10.50000  0.05    0.23
Q8    1   0.0140  0.8994 -0.0471  11.00000  0.05    0.21
Q9    1   0.2402  0.7183 -0.1636  11.00000  0.05    0.20
Q10   1   0.6240  0.4754  0.4287  11.00000  0.05    0.19
Q11   1   0.2581  0.9343 -0.2438  11.00000  0.05    0.19
Q12   1   0.4194  0.0961  0.4294  11.00000  0.05    0.18
Q13   1   0.5796  0.5211  0.3055  11.00000  0.05    0.18
Q14   1  -0.0340  0.1467  0.6286  11.00000  0.05    0.18
Q15   1  -0.3013  0.4016  0.3816  11.00000  0.05    0.17
Q16   1   0.6209 -0.0871  0.1723  11.00000  0.05    0.17
Q17   1   0.2566  0.4169  0.2748  11.00000  0.05    0.17
Q18   1   0.1822  0.7814 -0.0591  11.00000  0.05    0.17
Q19   1   0.2209  0.6659 -0.0393  11.00000  0.05    0.16
Q20   1  -0.0324  0.5845  0.2796  11.00000  0.05    0.16
;
_shelx_res_checksum              93820
_shelx_hkl_file
;
  -2   0   0   22.71    0.96
  -2   0   0   21.61    0.87
  -2   0   0   21.61    0.82
  -3   0   0  127.23    3.54
  -3   0   0  129.15    3.61
  -3   0   0  123.54    4.00
   3   0   0  126.02    3.43
  -4   0   0    5.68    0.65
  -4   0   0    4.54    0.59
  -4   0   0    5.61    0.75
   4   0   0    4.98    0.41
  -5   0   0    0.84    0.46
  -5   0   0    0.76    0.42
  -5   0   0    1.07    0.46
   5   0   0    0.94    0.30
  -6   0   0    0.27    0.64
  -6   0   0    1.54    0.53
  -6   0   0    0.54    0.38
   6   0   0    0.97    0.33
  -7   0   0    7.16    1.13
  -7   0   0    7.60    0.98
  -7   0   0    8.28    1.02
  -8   0   0    9.96    1.24
  -8   0   0    5.91    1.22
  -8   0   0    8.63    1.15
  -9   0   0    4.55    0.88
  -9   0   0    2.69    1.17
  -9   0   0    3.54    0.83
 -10   0   0    0.71    0.87
 -10   0   0    0.88    0.84
 -11   0   0    1.35    1.04
 -12   0   0    0.58    0.94
 -11   1   0   -0.38    1.00
 -11   1   0   -0.16    0.87
 -10   1   0    0.48    0.85
 -10   1   0    0.27    0.67
  -9   1   0    4.95    1.09
  -9   1   0    2.68    0.99
  -8   1   0   -0.10    0.83
  -8   1   0    0.88    0.52
  -8   1   0   -0.43    0.61
  -7   1   0    0.67    0.49
  -7   1   0    0.40    0.78
  -7   1   0   -0.28    0.48
   6  -1   0    0.85    0.37
  -6   1   0    0.32    0.46
  -6   1   0    0.33    0.61
  -6   1   0    0.46    0.51
   5  -1   0    3.93    0.53
  -5   1   0    2.54    0.59
  -5   1   0    3.13    0.57
  -5   1   0    3.12    0.69
   4  -1   0    5.63    0.57
  -4   1   0    5.34    0.63
  -4   1   0    6.79    0.70
  -4   1   0    6.03    0.74
   3  -1   0   14.12    0.70
  -3   1   0   13.75    0.77
  -3   1   0   12.93    0.84
  -3   1   0   14.53    0.80
   2  -1   0    2.16    0.35
  -2   1   0   -0.49    0.34
  -2   1   0    1.08    0.35
  -2   1   0    0.34    0.26
   1  -1   0   39.52    1.24
  -1   1   0   40.30    1.17
  -1   1   0   38.39    1.24
  -1  -1   0  285.71    7.15
  -1  -1   0  288.06    8.26
  -2  -1   0    0.96    0.38
  -2  -1   0   -0.23    0.16
  -3  -1   0    6.21    0.44
  -3  -1   0    7.48    0.76
  -3  -1   0    6.62    0.60
  -4  -1   0  104.59    3.60
  -4  -1   0  104.64    3.08
  -4  -1   0  103.41    3.15
  -5  -1   0    1.38    0.35
  -5  -1   0    2.77    0.58
  -5  -1   0    3.35    0.76
  -6  -1   0    1.44    0.45
  -6  -1   0    0.00    0.22
  -6  -1   0    0.64    0.67
  -7  -1   0   -0.19    0.30
  -7  -1   0   -0.24    0.48
  -7  -1   0   -0.54    0.71
  -8  -1   0   30.83    2.06
  -8  -1   0   25.03    1.55
  -8  -1   0   29.09    1.79
  -9  -1   0    6.96    1.18
  -9  -1   0    6.49    1.03
  -9  -1   0    6.19    1.36
 -10  -1   0    0.60    0.86
 -10  -1   0   -2.35    0.94
 -11  -1   0   -0.27    0.85
 -12  -1   0    1.00    1.13
 -11   2   0    1.17    1.20
 -10   2   0    1.21    0.93
 -10   2   0   -0.01    0.70
  -9   2   0   -0.01    0.82
  -9   2   0    0.23    0.74
  -8   2   0   -0.38    0.62
  -8   2   0   -0.58    0.60
  -7   2   0    0.28    0.61
  -7   2   0    1.51    0.61
  -7   2   0   -0.48    0.62
   6  -2   0   -0.01    0.43
  -6   2   0   -0.23    0.46
  -6   2   0   -0.19    0.33
  -6   2   0   -0.06    0.31
   5  -2   0    2.67    0.56
  -5   2   0    2.44    0.57
  -5   2   0    2.96    0.69
  -5   2   0    4.19    0.71
   4  -2   0    4.55    0.60
  -4   2   0    2.89    0.57
  -4   2   0    4.46    0.63
  -4   2   0    4.07    0.68
   3  -2   0    6.80    0.64
   3  -2   0    6.50    0.65
  -3   2   0    6.62    0.72
  -3   2   0    6.33    0.61
   2  -2   0  134.37    4.15
   2  -2   0  135.68    3.93
  -2   2   0  135.30    3.94
  -2   2   0  138.71    3.72
   1  -2   0  290.36    8.37
   1  -2   0  298.55    7.77
  -1   2   0  283.79    7.61
  -1   2   0  286.41    7.33
   0  -2   0    7.42    0.41
   0  -2   0    7.38    0.45
   0   2   0    6.62    0.40
  -1  -2   0   85.64    2.77
  -1  -2   0   86.22    2.42
  -1  -2   0   88.12    2.47
  -2  -2   0   87.60    2.54
  -2  -2   0   86.50    2.91
  -2  -2   0   88.35    2.44
  -3  -2   0   43.18    1.78
  -3  -2   0   43.04    1.57
  -3  -2   0   46.29    1.39
  -4  -2   0    7.15    0.50
  -4  -2   0    9.02    0.98
  -4  -2   0    7.04    0.73
  -5  -2   0    2.79    0.51
  -5  -2   0    2.25    0.74
  -5  -2   0    3.59    0.48
  -6  -2   0   -0.42    0.25
  -6  -2   0   -0.52    0.32
  -6  -2   0    0.24    0.52
  -7  -2   0    6.49    0.87
  -7  -2   0    5.20    0.72
  -7  -2   0    6.27    1.19
  -8  -2   0   -0.02    0.47
  -8  -2   0   -0.47    0.91
  -8  -2   0   -0.15    0.46
  -9  -2   0    6.26    1.14
  -9  -2   0    4.43    1.36
 -10  -2   0    4.38    1.14
 -10  -2   0    3.12    1.38
 -11  -2   0   -0.02    1.03
 -11  -2   0   -0.02    0.90
 -12  -2   0    1.25    1.16
 -11   3   0    0.96    1.29
 -10   3   0   -0.75    0.69
  -9   3   0    1.46    0.98
  -9   3   0    1.60    0.92
  -8   3   0    2.43    0.97
  -8   3   0    2.56    0.86
  -7   3   0    1.34    0.56
  -7   3   0    1.21    0.82
   6  -3   0    1.07    0.62
   6  -3   0    0.52    0.56
  -6   3   0    0.89    0.55
  -6   3   0    1.30    0.64
   5  -3   0    1.23    0.51
   5  -3   0   -0.27    0.42
  -5   3   0   -0.11    0.36
  -5   3   0    0.71    0.53
   4  -3   0    0.08    0.39
   4  -3   0    0.00    0.29
  -4   3   0   -0.07    0.31
  -4   3   0    0.23    0.38
   3  -3   0    0.02    0.39
   3  -3   0   -0.14    0.23
  -3   3   0   -0.40    0.28
  -3   3   0    0.18    0.30
   2  -3   0    0.94    0.34
   2  -3   0    1.46    0.32
  -2   3   0    1.10    0.41
  -2   3   0    1.39    0.30
   1  -3   0  106.99    3.43
   1  -3   0  108.98    3.33
   1  -3   0  110.67    3.08
  -1   3   0  109.32    3.23
   0  -3   0  194.08    5.53
   0  -3   0  202.12    5.23
   0   3   0  197.79    5.30
  -1  -3   0  143.46    3.92
  -1  -3   0  142.37    4.08
  -1  -3   0  144.49    4.49
  -2  -3   0    8.19    0.70
  -2  -3   0    9.51    0.59
  -2  -3   0    8.50    0.52
  -3  -3   0   41.43    1.59
  -3  -3   0   44.06    1.86
  -3  -3   0   41.83    1.38
  -4  -3   0   12.36    0.52
  -4  -3   0   11.57    0.94
  -4  -3   0   10.90    0.82
  -4  -3   0   10.60    0.52
  -5  -3   0  129.37    4.64
  -5  -3   0  130.97    3.63
  -5  -3   0  130.56    4.02
  -6  -3   0   47.20    2.06
  -6  -3   0   48.02    2.35
  -6  -3   0   47.56    1.69
  -7  -3   0   -0.04    0.37
  -7  -3   0   -0.20    0.78
  -8  -3   0    0.70    0.52
  -8  -3   0   -0.39    0.93
  -9  -3   0   -0.15    0.67
  -9  -3   0    0.51    1.14
 -10  -3   0   -0.27    1.29
 -10  -3   0    0.47    0.82
 -11  -3   0    0.35    0.91
 -11  -3   0    0.54    1.53
 -12  -3   0   -2.29    1.52
 -12  -3   0   -0.18    0.79
 -10   4   0    1.03    1.17
  -9   4   0    1.01    0.80
  -8   4   0    4.90    1.07
  -8   4   0    4.16    1.01
  -7   4   0   18.95    1.63
  -7   4   0   17.57    1.74
   6  -4   0    2.56    0.79
  -6   4   0    0.21    0.69
  -6   4   0    1.49    0.63
   5  -4   0   -0.11    0.52
   5  -4   0    0.27    0.39
  -5   4   0   -0.07    0.51
  -5   4   0   -0.26    0.38
   4  -4   0   10.74    1.08
   4  -4   0    9.69    0.83
  -4   4   0    9.78    1.07
  -4   4   0   10.71    0.95
   3  -4   0    0.51    0.50
   3  -4   0    1.41    0.43
  -3   4   0    1.42    0.45
  -3   4   0    0.87    0.41
   2  -4   0   51.02    1.93
   2  -4   0   50.40    2.01
  -2   4   0   48.23    1.98
  -2   4   0   50.44    1.80
   1  -4   0  150.33    4.49
   1  -4   0  151.33    4.63
   1  -4   0  142.77    4.13
  -1   4   0  143.75    4.30
   0  -4   0  175.23    4.76
   0   4   0  170.96    4.80
  -1  -4   0    5.34    0.66
  -1  -4   0    4.83    0.56
  -1  -4   0    5.94    0.61
   1   4   0    4.54    0.42
  -2  -4   0    2.98    0.49
  -2  -4   0    2.00    0.40
  -2  -4   0    2.31    0.53
  -3  -4   0    0.91    0.43
  -3  -4   0    0.35    0.30
  -3  -4   0    0.32    0.35
  -4  -4   0    3.98    0.60
  -4  -4   0    4.65    0.48
  -4  -4   0    5.79    0.93
  -5  -4   0    7.00    0.49
  -5  -4   0    7.72    1.14
  -5  -4   0    6.92    0.88
  -6  -4   0    1.78    0.88
  -6  -4   0    0.85    0.44
  -7  -4   0   -0.16    0.61
  -7  -4   0    0.10    0.53
  -8  -4   0    0.59    0.50
  -8  -4   0    0.10    1.03
  -9  -4   0    1.61    0.67
  -9  -4   0    3.11    1.37
 -10  -4   0   -1.16    1.21
 -10  -4   0    1.10    0.68
 -11  -4   0   -0.41    1.53
 -11  -4   0   -0.15    0.82
 -12  -4   0   -2.79    1.52
 -12  -4   0    0.88    0.86
 -10   5   0    0.41    0.95
  -9   5   0    2.54    1.23
  -8   5   0   -0.75    0.80
   7  -5   0   -1.06    0.73
  -7   5   0    0.30    0.79
  -7   5   0   -1.19    0.69
   6  -5   0   19.26    1.72
  -6   5   0   19.23    1.50
  -6   5   0   20.49    1.91
   5  -5   0    1.37    0.76
  -5   5   0    0.64    0.68
  -5   5   0    1.35    0.62
   4  -5   0    2.84    0.79
   4  -5   0    2.94    0.65
  -4   5   0    3.20    0.69
  -4   5   0    2.42    0.64
   3  -5   0   69.15    2.81
   3  -5   0   74.09    2.71
  -3   5   0   73.11    2.83
  -3   5   0   70.54    2.52
   2  -5   0   31.44    1.44
   2  -5   0   31.02    1.64
  -2   5   0   30.57    1.51
  -2   5   0   29.19    1.34
   1  -5   0   26.70    1.30
   1  -5   0   28.66    1.27
   1  -5   0   23.77    1.35
  -1   5   0   25.42    1.26
   0  -5   0   15.25    0.93
   0  -5   0   14.79    1.05
   0   5   0   15.04    0.88
  -1  -5   0   50.83    2.12
  -1  -5   0   52.12    2.02
  -1  -5   0   51.07    1.90
   1   5   0   52.74    1.74
  -2  -5   0    1.15    0.43
  -2  -5   0    1.23    0.52
  -2  -5   0    0.88    0.35
   2   5   0    0.53    0.22
  -3  -5   0    3.13    0.51
  -3  -5   0    2.49    0.56
  -3  -5   0    3.81    0.76
  -4  -5   0    3.38    0.59
  -4  -5   0    4.28    0.56
  -4  -5   0    4.58    0.82
  -5  -5   0    4.66    0.88
  -5  -5   0    4.54    0.78
  -5  -5   0    3.44    0.50
  -6  -5   0    3.39    0.77
  -6  -5   0    5.93    1.19
  -7  -5   0    0.25    0.59
  -7  -5   0   -0.47    0.63
  -8  -5   0    2.60    0.84
  -8  -5   0    2.59    1.20
  -9  -5   0    1.10    0.80
  -9  -5   0   -0.40    1.16
 -10  -5   0    0.99    0.88
 -10  -5   0   -0.39    1.32
 -11  -5   0    1.02    0.97
 -11  -5   0   -1.46    1.50
 -12  -5   0    0.09    0.76
 -12  -5   0   -3.46    1.66
  -9   6   0   -0.94    0.98
  -8   6   0    1.48    1.05
   7  -6   0   -1.13    0.79
  -7   6   0   -0.69    0.69
   6  -6   0    3.93    1.09
  -6   6   0    4.56    1.04
  -6   6   0    6.46    1.24
   5  -6   0    3.62    0.98
  -5   6   0    3.83    0.83
  -5   6   0    2.76    0.95
   4  -6   0   10.75    1.37
  -4   6   0   14.77    1.30
  -4   6   0   11.61    1.32
   3  -6   0    7.14    0.87
   3  -6   0    5.18    0.91
  -3   6   0    7.05    1.02
  -3   6   0    6.24    0.86
   2  -6   0   37.14    1.89
   2  -6   0   36.74    1.73
  -2   6   0   34.25    1.79
  -2   6   0   37.01    1.67
   1  -6   0  102.31    3.57
   1  -6   0  100.87    3.61
   1  -6   0   96.17    3.22
  -1   6   0  100.48    3.38
   0  -6   0   13.86    1.14
   0  -6   0   15.58    1.01
   0   6   0   15.43    0.97
  -1  -6   0   21.88    1.17
  -1  -6   0   23.21    1.34
  -1  -6   0   21.48    1.32
   1   6   0   20.72    1.04
  -2  -6   0   39.61    1.77
  -2  -6   0   35.59    1.63
  -2  -6   0   38.37    1.89
   2   6   0   39.11    1.35
  -3  -6   0    7.20    0.82
  -3  -6   0    6.86    0.87
  -3  -6   0    7.23    0.97
  -4  -6   0    1.92    0.66
  -4  -6   0    1.82    0.50
  -4  -6   0    1.63    0.49
  -5  -6   0    7.03    1.22
  -5  -6   0    8.50    1.07
  -5  -6   0    7.83    0.78
  -6  -6   0   13.54    1.67
  -6  -6   0   13.63    1.37
  -7  -6   0    4.93    1.01
  -7  -6   0    7.24    1.47
  -8  -6   0   -0.32    0.62
  -8  -6   0   -0.26    0.72
  -9  -6   0    6.39    1.44
  -9  -6   0    6.80    1.14
 -10  -6   0    0.13    0.84
 -10  -6   0   -2.16    1.17
 -11  -6   0    2.60    1.16
 -11  -6   0   -0.33    1.51
 -12  -6   0   -3.41    1.58
 -12  -6   0   -0.85    1.00
  -8   7   0    0.70    0.84
   7  -7   0    1.46    1.12
  -7   7   0    3.22    1.01
   6  -7   0   -0.44    0.91
  -6   7   0    0.14    0.77
   5  -7   0    6.93    1.32
  -5   7   0    6.57    1.26
  -5   7   0    8.76    1.18
   4  -7   0    0.45    0.65
  -4   7   0    1.63    0.67
  -4   7   0    2.13    0.75
   3  -7   0   -0.42    0.66
  -3   7   0   -0.85    0.56
  -3   7   0    0.28    0.41
   2  -7   0    8.25    1.13
   2  -7   0   12.35    1.07
  -2   7   0   10.61    1.21
  -2   7   0   11.90    1.14
   1  -7   0    0.11    0.64
   1  -7   0    0.79    0.52
   1  -7   0    1.07    0.42
  -1   7   0    1.11    0.55
   0  -7   0   24.86    1.31
   0  -7   0   20.89    1.50
   0   7   0   21.08    1.25
  -1  -7   0    0.38    0.57
  -1  -7   0    2.18    0.63
  -1  -7   0    0.80    0.40
   1   7   0    1.15    0.41
  -2  -7   0    2.70    0.67
  -2  -7   0    2.17    0.57
  -2  -7   0    2.36    0.69
  -3  -7   0    4.45    0.78
  -3  -7   0    3.45    0.72
  -3  -7   0    4.70    0.90
  -4  -7   0   38.37    1.87
  -4  -7   0   38.05    1.78
  -4  -7   0   38.34    2.19
  -5  -7   0    2.36    0.73
  -5  -7   0    2.96    0.87
  -5  -7   0    4.63    0.75
  -6  -7   0    0.23    0.63
  -6  -7   0    1.12    1.02
  -7  -7   0    9.25    1.24
  -7  -7   0    8.41    1.56
  -8  -7   0    0.04    0.53
  -8  -7   0   -0.42    0.73
  -9  -7   0    3.18    1.28
  -9  -7   0    2.21    0.81
 -10  -7   0   -0.07    0.62
 -10  -7   0   -0.22    0.99
 -11  -7   0   -1.06    1.05
 -11  -7   0   -0.59    0.96
  -8   8   0   -0.45    0.83
   7  -8   0   -1.69    0.97
  -7   8   0   -0.60    0.65
   6  -8   0    1.07    0.89
  -6   8   0    1.85    1.05
   5  -8   0    0.03    0.66
  -5   8   0    1.48    0.95
   4  -8   0    1.44    1.02
  -4   8   0    1.49    0.65
  -4   8   0    1.06    0.79
   3  -8   0    2.19    0.82
  -3   8   0    1.02    0.61
  -3   8   0    2.47    0.80
   2  -8   0    8.53    1.30
  -2   8   0   12.43    1.28
  -2   8   0   11.46    1.29
   1  -8   0    8.54    1.09
   1  -8   0   10.18    1.20
   1  -8   0    7.72    1.31
  -1   8   0    8.33    1.07
   0  -8   0    3.24    0.78
   0  -8   0    3.09    0.95
   0  -8   0    2.00    0.55
   0   8   0    2.12    0.63
  -1  -8   0    2.94    0.81
  -1  -8   0    3.36    0.79
  -1  -8   0    1.63    0.65
  -2  -8   0    2.58    0.70
  -2  -8   0    3.72    0.88
  -2  -8   0    3.70    0.82
  -3  -8   0    3.21    0.70
  -3  -8   0    4.32    0.99
  -3  -8   0    1.81    0.63
  -4  -8   0    0.49    0.64
  -4  -8   0   -0.50    0.34
  -4  -8   0   -0.69    0.50
  -5  -8   0   -0.80    0.84
  -5  -8   0   -0.47    0.55
  -5  -8   0   -1.51    0.45
  -6  -8   0    5.11    0.95
  -6  -8   0    3.58    1.26
  -7  -8   0    7.38    1.44
  -7  -8   0    5.64    1.13
  -8  -8   0    1.65    1.05
  -8  -8   0    2.77    1.03
  -9  -8   0    0.27    0.83
  -9  -8   0    1.71    1.16
 -10  -8   0    0.52    1.17
 -10  -8   0    0.57    0.74
 -11  -8   0   -1.56    1.05
 -11  -8   0    1.68    1.24
   7  -9   0   -1.79    1.14
  -7   9   0    0.06    0.88
   6  -9   0   -1.31    1.07
  -6   9   0   -0.71    0.97
   5  -9   0    0.93    1.13
  -5   9   0   -0.80    0.55
   4  -9   0    0.52    0.75
  -4   9   0    1.09    0.91
   3  -9   0    0.08    0.68
  -3   9   0    0.90    0.76
  -3   9   0    0.13    0.75
   2  -9   0   -0.26    0.84
  -2   9   0   -0.09    0.68
  -2   9   0   -0.70    0.61
   1  -9   0    0.18    0.86
  -1   9   0   -0.79    0.54
   0  -9   0    1.54    0.77
   0  -9   0    0.21    0.56
   0  -9   0    0.87    0.85
  -1  -9   0    2.86    0.83
  -1  -9   0    3.05    0.82
  -1  -9   0    1.64    0.79
  -2  -9   0    0.18    0.62
  -2  -9   0    0.63    0.71
  -2  -9   0   -0.11    0.74
  -3  -9   0   23.67    1.68
  -3  -9   0   23.59    1.72
  -3  -9   0   21.82    1.64
  -4  -9   0   16.46    1.85
  -4  -9   0   14.53    1.54
  -4  -9   0   13.57    1.47
  -5  -9   0   12.84    1.44
  -5  -9   0   12.02    1.77
  -5  -9   0   12.71    1.39
  -6  -9   0    2.58    1.28
  -6  -9   0    2.99    0.99
  -7  -9   0    0.88    0.67
  -7  -9   0    0.61    1.20
  -8  -9   0    0.20    1.28
  -8  -9   0    1.82    0.84
  -9  -9   0   -1.84    1.32
  -9  -9   0   -0.52    0.57
 -10  -9   0   -1.25    1.43
 -10  -9   0   -0.47    0.75
 -11  -9   0    1.01    1.84
   6 -10   0    0.39    1.00
  -6  10   0   -0.53    1.16
   5 -10   0   -0.13    1.25
  -5  10   0   -0.07    1.01
   4 -10   0   -0.37    0.78
  -4  10   0    0.20    0.97
   3 -10   0    6.27    1.50
  -3  10   0    4.91    1.20
   2 -10   0    7.05    1.54
  -2  10   0    7.70    1.29
  -2  10   0    6.40    1.16
   1 -10   0    1.35    1.01
  -1  10   0    1.30    0.84
   0 -10   0   -0.33    0.69
   0 -10   0   -0.80    0.82
  -1 -10   0    0.56    0.54
  -1 -10   0    1.08    0.67
  -1 -10   0   -0.51    0.63
  -2 -10   0    2.72    0.99
  -2 -10   0    0.94    0.79
  -2 -10   0   -0.44    0.82
  -3 -10   0    2.44    0.93
  -3 -10   0    1.48    0.95
  -3 -10   0    4.56    1.14
  -4 -10   0    0.53    0.80
  -4 -10   0    2.54    1.15
  -4 -10   0    0.58    0.91
  -5 -10   0   -1.49    1.01
  -5 -10   0    0.01    0.59
  -6 -10   0    0.21    0.61
  -6 -10   0    0.84    1.24
  -7 -10   0   -2.16    1.15
  -7 -10   0    0.75    0.86
  -8 -10   0   -0.09    1.34
  -8 -10   0    2.56    0.98
  -9 -10   0    0.15    0.77
  -9 -10   0    0.09    1.17
 -10 -10   0    0.41    1.28
 -10 -10   0    1.89    1.33
   4 -11   0   -0.44    0.91
  -4  11   0    1.42    1.25
   3 -11   0   -0.74    1.15
  -3  11   0   -0.16    0.96
   2 -11   0   -1.33    1.05
   1 -11   0   -0.83    1.02
  -1  11   0    0.17    0.88
   0 -11   0    0.60    0.80
   0 -11   0    0.30    0.62
  -1 -11   0    1.67    0.91
  -1 -11   0    1.57    0.91
  -2 -11   0    3.86    1.19
  -2 -11   0    2.92    1.06
  -2 -11   0    3.31    1.05
  -3 -11   0    3.85    1.23
  -3 -11   0    3.45    1.12
  -3 -11   0    7.08    1.44
  -4 -11   0    0.45    0.85
  -4 -11   0    0.06    0.86
  -4 -11   0   -0.52    0.95
  -5 -11   0    0.92    0.96
  -5 -11   0   -0.68    1.16
  -6 -11   0   -0.93    1.32
  -6 -11   0    0.69    1.03
  -7 -11   0   -1.89    1.35
  -7 -11   0   -1.58    0.88
  -8 -11   0   -0.35    1.11
  -8 -11   0   -0.83    0.98
  -9 -11   0    1.97    1.06
  -9 -11   0   -0.27    1.23
   3 -12   0   -0.70    1.34
   2 -12   0   -0.71    1.22
   1 -12   0   -0.63    1.21
   0 -12   0    1.07    0.91
  -1 -12   0    1.21    0.78
  -1 -12   0    1.09    1.22
  -2 -12   0    1.11    0.83
  -2 -12   0    0.36    0.89
  -3 -12   0    0.42    0.97
  -3 -12   0   -1.52    0.66
  -4 -12   0    0.07    1.21
  -4 -12   0   -0.70    0.75
  -4 -12   0    0.33    0.99
  -5 -12   0   -1.01    0.91
  -5 -12   0   -0.38    1.38
  -6 -12   0    0.57    1.18
  -6 -12   0   -1.13    1.34
  -7 -12   0   -1.00    1.05
  -7 -12   0   -1.17    1.56
  -8 -12   0    0.91    1.33
  -8 -12   0   -1.15    1.67
   0 -13   0   -1.29    0.85
  -1 -13   0   -1.18    1.10
  -1 -13   0   -2.93    1.06
  -2 -13   0    1.01    1.05
  -2 -13   0    4.76    1.39
  -3 -13   0    7.37    1.55
  -4 -13   0    2.43    1.33
  -4 -13   0    0.48    1.24
  -5 -13   0   -1.12    1.46
  -5 -13   0   -0.06    1.21
  -4 -13   1    0.48    0.96
  -4 -13   1    0.69    1.59
  -3 -13   1    0.76    1.25
  -3 -13   1   -0.64    1.33
  -2 -13   1    0.67    1.42
  -1 -13   1   -0.34    1.02
  -7 -12   1   -0.92    1.61
  -7 -12   1    0.06    0.92
  -6 -12   1    0.47    1.52
  -6 -12   1   -0.35    1.14
  -5 -12   1    2.20    1.57
  -5 -12   1   -1.08    1.05
  -4 -12   1    0.61    1.25
  -4 -12   1    0.17    1.29
  -4 -12   1    0.83    1.09
  -3 -12   1    1.21    1.10
  -3 -12   1    0.88    1.11
  -3 -12   1   -2.27    0.96
  -2 -12   1    2.98    1.37
  -2 -12   1    4.22    1.10
  -1 -12   1    3.94    1.20
  -1 -12   1    4.48    1.53
   0 -12   1   -0.55    1.18
   1 -12   1    0.06    0.92
   2 -12   1    0.76    1.06
  -8 -11   1    0.56    1.59
  -8 -11   1    0.87    1.30
  -7 -11   1   -0.45    1.47
  -7 -11   1    1.82    1.00
  -6 -11   1   -0.59    1.38
  -6 -11   1    0.02    1.08
  -5 -11   1    0.29    1.22
  -5 -11   1    0.29    0.96
  -4 -11   1    1.97    1.04
  -4 -11   1    1.69    1.10
  -4 -11   1    2.19    1.22
  -3 -11   1    0.60    1.02
  -3 -11   1    0.67    0.90
  -3 -11   1    0.84    0.79
  -2 -11   1   -0.77    0.64
  -2 -11   1   -0.55    0.78
  -2 -11   1    1.38    0.96
  -1 -11   1    0.47    0.84
  -1 -11   1   -0.50    0.99
   0 -11   1    1.74    0.95
   0 -11   1    3.26    1.03
   1 -11   1    3.83    1.18
   2 -11   1    0.87    1.24
   3 -11   1   -0.17    0.81
  -4  11  -1    1.38    1.23
   4 -11   1   -1.70    0.80
  -9 -10   1    1.24    1.36
  -9 -10   1    1.63    1.27
  -8 -10   1    0.12    1.02
  -8 -10   1    0.60    1.52
  -7 -10   1    2.70    1.19
  -7 -10   1    1.50    1.42
  -6 -10   1    1.36    0.96
  -6 -10   1    1.51    1.30
  -5 -10   1    1.30    1.17
  -5 -10   1    0.37    0.62
  -4 -10   1    3.63    1.05
  -4 -10   1    5.50    1.40
  -4 -10   1    2.10    1.02
  -3 -10   1    0.58    0.90
  -3 -10   1    0.65    0.77
  -3 -10   1    0.31    0.91
  -2 -10   1   -0.72    0.82
  -2 -10   1    1.54    0.93
  -2 -10   1    2.31    0.88
  -1 -10   1    4.25    1.07
  -1 -10   1    2.67    0.92
  -1 -10   1    4.65    1.14
   0 -10   1    3.90    1.21
   0 -10   1    6.75    1.13
   1 -10   1   -0.51    0.93
  -2  10  -1    1.32    0.89
   2 -10   1    2.19    1.18
  -3  10  -1    1.41    0.98
   3 -10   1    2.60    1.27
  -4  10  -1    0.45    1.01
   4 -10   1   -0.05    0.80
  -5  10  -1    0.15    1.06
   5 -10   1   -1.16    1.18
 -10  -9   1   -3.86    1.33
 -10  -9   1    0.77    1.23
  -9  -9   1    0.23    1.03
  -9  -9   1    0.19    1.45
  -8  -9   1    1.84    1.42
  -8  -9   1    1.59    0.83
  -7  -9   1    0.81    0.91
  -7  -9   1   -0.45    1.14
  -6  -9   1    2.28    1.25
  -6  -9   1    1.28    0.69
  -5  -9   1    1.15    0.82
  -5  -9   1    0.28    0.71
  -4  -9   1    0.68    0.71
  -4  -9   1    1.68    0.67
  -4  -9   1    1.84    0.96
  -3  -9   1    3.59    0.82
  -3  -9   1    3.82    0.87
  -3  -9   1    5.39    1.17
  -2  -9   1    3.60    0.87
  -2  -9   1    3.34    0.85
  -2  -9   1    4.52    1.11
  -1  -9   1    6.92    1.24
  -1  -9   1    7.25    1.27
  -1  -9   1    5.34    0.90
   0  -9   1    0.69    0.77
   0  -9   1   -0.30    0.80
   0  -9   1   -0.25    0.39
  -1   9  -1    4.39    0.94
   1  -9   1    5.57    1.11
   1  -9   1    5.74    0.98
  -2   9  -1    0.70    0.74
  -2   9  -1    1.18    0.80
   2  -9   1    0.71    0.90
  -3   9  -1    2.57    0.96
   3  -9   1    1.71    1.09
  -4   9  -1    3.96    1.02
   4  -9   1    2.01    0.96
  -5   9  -1    1.05    1.03
   5  -9   1    0.71    1.13
  -6   9  -1    0.84    1.10
   6  -9   1   -2.66    1.01
  -7   9  -1    0.28    0.89
   7  -9   1   -0.63    0.91
 -11  -8   1   -1.23    1.18
 -11  -8   1    0.93    1.29
 -10  -8   1   -1.91    0.88
 -10  -8   1   -0.39    1.11
  -9  -8   1   -0.02    0.66
  -9  -8   1    0.40    1.10
  -8  -8   1   -0.25    0.83
  -8  -8   1   -0.28    0.88
  -7  -8   1    0.12    1.17
  -7  -8   1   -0.73    0.45
  -6  -8   1   13.26    1.48
  -6  -8   1    8.64    1.59
  -5  -8   1   -0.58    0.62
  -5  -8   1   -0.44    0.42
  -4  -8   1    5.27    0.99
  -4  -8   1    4.86    0.89
  -4  -8   1    5.35    1.20
  -3  -8   1   28.29    1.85
  -3  -8   1   28.57    1.74
  -3  -8   1   26.37    1.71
  -2  -8   1   10.30    1.39
  -2  -8   1    6.73    1.09
  -2  -8   1    9.32    1.09
  -1  -8   1    0.79    0.48
  -1  -8   1   -0.24    0.47
  -1  -8   1    0.59    0.70
   0   8  -1    5.45    0.89
   0  -8   1    5.70    1.03
   0  -8   1    5.51    0.88
   0  -8   1    7.92    1.17
  -1   8  -1    8.29    1.07
   1  -8   1    8.38    1.05
   1  -8   1    7.28    1.15
  -2   8  -1    0.70    0.47
  -2   8  -1   -0.28    0.60
   2  -8   1    0.22    0.61
  -3   8  -1    1.10    0.61
  -3   8  -1    1.15    0.71
   3  -8   1   -0.49    0.76
  -4   8  -1   -0.01    0.55
   4  -8   1   -0.78    0.53
  -5   8  -1    2.81    0.88
   5  -8   1    1.52    1.08
  -6   8  -1    0.05    0.89
   6  -8   1   -0.42    1.01
  -7   8  -1    1.13    0.86
   7  -8   1   -2.64    1.00
  -8   8  -1    0.21    1.22
 -11  -7   1   -1.53    1.07
 -11  -7   1    0.62    0.89
 -10  -7   1    0.65    1.21
 -10  -7   1   -0.98    0.83
  -9  -7   1   -1.78    1.16
  -9  -7   1    0.13    0.81
  -8  -7   1    0.80    0.63
  -8  -7   1   -1.31    1.05
  -7  -7   1    0.18    1.03
  -7  -7   1    0.08    0.49
  -6  -7   1    5.63    1.20
  -6  -7   1    5.35    1.03
  -5  -7   1    1.00    0.64
  -5  -7   1    1.86    0.97
  -5  -7   1    1.62    0.61
  -4  -7   1   14.62    1.38
  -4  -7   1   13.34    1.55
  -4  -7   1   10.36    1.07
  -3  -7   1   24.47    1.72
  -3  -7   1   27.51    1.55
  -3  -7   1   26.02    1.54
  -2  -7   1    0.78    0.65
  -2  -7   1   -0.60    0.37
  -2  -7   1    0.09    0.34
   1   7  -1    2.88    0.57
  -1  -7   1    4.45    0.86
  -1  -7   1    3.41    0.62
  -1  -7   1    4.30    0.88
   0   7  -1    0.57    0.49
   0  -7   1    1.56    0.54
   0  -7   1    0.75    0.58
   0  -7   1    1.07    0.64
  -1   7  -1    2.60    0.65
   1  -7   1    3.13    0.63
   1  -7   1    1.89    0.79
   1  -7   1    1.16    0.36
  -2   7  -1   10.65    1.22
  -2   7  -1   11.54    1.12
   2  -7   1    7.38    1.10
   2  -7   1   13.28    1.33
  -3   7  -1    2.14    0.69
  -3   7  -1    2.98    0.74
   3  -7   1    2.20    0.91
  -4   7  -1   -0.43    0.44
  -4   7  -1    0.26    0.59
   4  -7   1    0.02    0.54
  -5   7  -1    0.62    0.64
   5  -7   1   -0.52    0.58
  -6   7  -1    0.54    0.87
   6  -7   1    0.60    0.74
  -7   7  -1    0.63    0.77
   7  -7   1    0.25    0.81
  -8   7  -1   -0.43    0.68
 -11  -6   1    0.29    0.74
 -11  -6   1    1.56    1.41
 -10  -6   1    1.10    0.81
 -10  -6   1    0.26    1.06
  -9  -6   1    0.40    0.61
  -9  -6   1    0.35    1.36
  -8  -6   1    3.71    1.35
  -8  -6   1    2.12    0.92
  -7  -6   1    2.66    1.01
  -7  -6   1    2.42    0.82
  -6  -6   1    9.47    1.51
  -6  -6   1    9.57    1.21
  -5  -6   1    8.10    1.02
  -5  -6   1    6.39    1.08
  -5  -6   1    9.27    0.90
  -4  -6   1    6.44    0.92
  -4  -6   1    6.96    0.80
  -4  -6   1    6.68    1.05
  -3  -6   1   10.01    0.98
  -3  -6   1   10.17    1.04
  -3  -6   1    9.29    1.19
   2   6  -1   32.84    1.21
  -2  -6   1   33.30    1.60
  -2  -6   1   33.33    1.82
  -2  -6   1   32.17    1.57
   1   6  -1    0.45    0.34
  -1  -6   1    0.46    0.41
  -1  -6   1    0.56    0.38
  -1  -6   1    0.12    0.47
   0   6  -1    2.69    0.52
   0  -6   1    2.63    0.64
   0  -6   1    2.46    0.59
   0  -6   1    2.25    0.52
  -1   6  -1    6.90    0.84
   1  -6   1    6.25    0.87
   1  -6   1    7.02    0.77
   1  -6   1    6.07    0.85
  -2   6  -1   33.20    1.73
  -2   6  -1   33.56    1.54
   2  -6   1   33.49    1.72
   2  -6   1   30.92    1.75
  -3   6  -1    3.10    0.63
  -3   6  -1    4.05    0.76
   3  -6   1    3.24    0.75
   3  -6   1    2.96    0.85
  -4   6  -1   14.22    1.45
  -4   6  -1   17.18    1.21
   4  -6   1   15.12    1.57
  -5   6  -1    5.60    0.90
  -5   6  -1    3.95    0.96
   5  -6   1    6.21    1.17
  -6   6  -1    0.90    0.81
   6  -6   1   -0.65    0.76
  -7   6  -1    1.24    0.92
   7  -6   1    0.93    0.96
  -8   6  -1    1.60    0.84
  -9   6  -1    0.10    0.84
 -12  -5   1   -3.55    1.70
 -12  -5   1    0.00    1.13
 -11  -5   1    0.98    0.78
 -11  -5   1   -3.34    1.39
 -10  -5   1    0.44    1.45
 -10  -5   1    0.70    0.85
  -9  -5   1   -1.02    0.81
  -9  -5   1    1.73    0.87
  -8  -5   1    2.87    1.32
  -8  -5   1    4.56    0.95
  -7  -5   1   14.24    1.80
  -7  -5   1   12.62    1.41
  -6  -5   1   -1.35    0.73
  -6  -5   1   -0.57    0.50
  -5  -5   1    2.42    0.61
  -5  -5   1    1.53    0.68
  -5  -5   1    2.65    0.49
  -4  -5   1    7.27    0.86
  -4  -5   1    8.30    1.13
  -4  -5   1    5.85    0.67
  -3  -5   1   21.29    1.17
  -3  -5   1   18.35    1.28
  -3  -5   1   21.56    1.09
   2   5  -1    0.43    0.22
  -2  -5   1    0.33    0.37
  -2  -5   1    0.47    0.50
  -2  -5   1    0.58    0.38
   1   5  -1    0.63    0.28
  -1  -5   1    0.37    0.37
  -1  -5   1    0.26    0.34
  -1  -5   1    0.63    0.33
   0   5  -1   67.79    2.33
   0  -5   1   71.94    2.62
   0  -5   1   69.25    2.73
   0  -5   1   72.81    2.38
  -1   5  -1   32.12    1.46
   1  -5   1   28.33    1.50
   1  -5   1   29.65    1.32
   1  -5   1   31.05    1.53
  -2   5  -1   21.93    1.10
  -2   5  -1   19.66    1.24
   2  -5   1   20.01    1.31
   2  -5   1   18.06    1.16
  -3   5  -1    9.32    0.88
  -3   5  -1   11.48    1.11
   3  -5   1   12.31    0.97
   3  -5   1   10.82    1.19
  -4   5  -1    0.97    0.52
  -4   5  -1    0.21    0.42
   4  -5   1    0.96    0.57
   4  -5   1    0.29    0.59
  -5   5  -1    0.34    0.52
  -5   5  -1    1.34    0.74
   5  -5   1   -0.07    0.54
   5  -5   1    0.60    0.54
  -6   5  -1    5.99    1.06
  -6   5  -1    7.08    1.04
   6  -5   1    5.82    1.11
  -7   5  -1    0.88    0.85
   7  -5   1   -1.30    0.68
  -8   5  -1   -0.28    0.87
  -9   5  -1    1.06    1.14
 -10   5  -1   -1.90    0.98
 -12  -4   1   -4.09    1.58
 -12  -4   1    0.42    1.11
 -11  -4   1   -0.16    1.52
 -11  -4   1    0.50    0.74
 -10  -4   1    0.01    0.80
 -10  -4   1   -0.14    1.01
  -9  -4   1   -0.65    0.41
  -9  -4   1    0.91    1.23
  -8  -4   1    2.95    0.77
  -8  -4   1    5.79    1.45
  -7  -4   1   -0.72    0.61
  -7  -4   1    0.09    0.58
  -6  -4   1    1.49    0.87
  -6  -4   1    0.30    0.42
  -5  -4   1    0.59    0.31
  -5  -4   1   -0.04    0.29
  -5  -4   1    0.73    0.70
  -4  -4   1   10.97    0.69
  -4  -4   1   12.79    0.91
  -4  -4   1   12.25    1.23
  -3  -4   1   -0.16    0.33
  -3  -4   1    0.33    0.28
  -3  -4   1    0.26    0.30
  -2  -4   1   24.63    1.39
  -2  -4   1   25.16    1.15
  -2  -4   1   26.36    1.22
   1   4  -1    0.81    0.28
  -1  -4   1    0.55    0.38
  -1  -4   1    0.17    0.39
  -1  -4   1    0.78    0.36
   0   4  -1    0.02    0.25
   0  -4   1    0.23    0.30
   0  -4   1    0.15    0.28
   0  -4   1    0.13    0.37
  -1   4  -1  177.79    5.11
   1  -4   1  174.77    5.31
   1  -4   1  179.99    5.66
   1  -4   1  183.48    4.90
  -2   4  -1   43.82    1.76
  -2   4  -1   38.67    1.50
   2  -4   1   40.95    1.81
  -3   4  -1    2.00    0.58
  -3   4  -1    2.09    0.46
   3  -4   1    1.72    0.48
   3  -4   1    2.23    0.59
  -4   4  -1    6.19    0.73
  -4   4  -1    5.84    0.89
   4  -4   1    5.45    0.80
   4  -4   1    5.41    0.78
  -5   4  -1   22.12    1.47
  -5   4  -1   20.97    1.25
   5  -4   1   20.16    1.31
   5  -4   1   21.40    1.42
  -6   4  -1   -0.29    0.58
  -6   4  -1    0.80    0.67
   6  -4   1   -0.08    0.49
   6  -4   1   -0.32    0.60
  -7   4  -1   -0.51    0.64
  -7   4  -1    0.25    0.53
   7  -4   1   -1.45    0.70
  -8   4  -1    5.84    1.13
  -9   4  -1    6.17    1.26
 -10   4  -1    0.66    0.86
 -12  -3   1    1.18    1.18
 -12  -3   1   -2.25    1.59
 -11  -3   1    0.59    0.72
 -11  -3   1   -1.76    1.39
 -10  -3   1   -1.37    1.15
 -10  -3   1   -1.36    0.66
  -9  -3   1    2.07    0.89
  -9  -3   1    1.83    1.32
  -8  -3   1    7.96    1.18
  -8  -3   1    9.36    1.60
  -7  -3   1    0.35    0.70
  -7  -3   1    1.17    0.66
  -6  -3   1   -0.72    0.72
  -6  -3   1    0.84    0.56
  -5  -3   1   93.61    2.78
  -5  -3   1   98.21    3.28
  -5  -3   1   97.77    2.80
  -5  -3   1   96.73    3.74
  -4  -3   1    6.32    0.77
  -4  -3   1    6.90    0.50
  -4  -3   1    8.12    1.03
  -4  -3   1    7.36    0.44
  -3  -3   1    8.92    0.67
  -3  -3   1   10.01    1.02
  -3  -3   1    8.60    0.58
  -2  -3   1  131.29    4.40
  -2  -3   1  135.13    3.81
  -2  -3   1  134.90    3.86
   1   3  -1   67.88    1.92
  -1  -3   1   65.49    2.08
  -1  -3   1   68.98    2.46
  -1  -3   1   67.07    2.19
   0   3  -1  247.51    6.59
   0  -3   1  251.73    6.46
   0  -3   1  249.02    7.51
   0  -3   1  247.95    6.88
  -1   3  -1    4.74    0.51
   1  -3   1    4.31    0.55
   1  -3   1    4.57    0.56
   1  -3   1    4.75    0.46
  -2   3  -1   45.65    1.50
  -2   3  -1   44.03    1.73
   2  -3   1   42.19    1.70
  -3   3  -1    5.21    0.57
  -3   3  -1    4.62    0.65
   3  -3   1    6.06    0.74
   3  -3   1    6.74    0.72
  -4   3  -1    0.12    0.33
  -4   3  -1   -0.10    0.32
   4  -3   1    0.50    0.43
   4  -3   1   -0.14    0.31
  -5   3  -1    1.67    0.65
  -5   3  -1    2.53    0.61
   5  -3   1    3.84    0.71
   5  -3   1    4.32    0.75
  -6   3  -1    0.88    0.54
  -6   3  -1    1.08    0.57
   6  -3   1    1.13    0.59
   6  -3   1    0.46    0.53
  -7   3  -1    2.14    0.72
  -7   3  -1    2.53    0.69
   7  -3   1    2.08    0.76
   7  -3   1    0.47    0.66
  -8   3  -1    1.04    0.82
  -8   3  -1    0.45    0.67
  -9   3  -1    8.62    1.47
 -10   3  -1    4.35    1.14
 -11   3  -1    0.69    0.95
 -12  -2   1    0.97    0.95
 -11  -2   1    0.70    0.79
 -11  -2   1   -2.92    1.30
 -10  -2   1    1.77    1.42
 -10  -2   1    2.04    0.81
  -9  -2   1    0.65    0.72
  -9  -2   1    1.48    1.20
  -8  -2   1   -0.23    0.65
  -8  -2   1   -0.66    0.90
  -7  -2   1    0.03    0.40
  -7  -2   1    0.41    0.85
  -7  -2   1    0.08    0.38
  -6  -2   1    4.87    0.92
  -6  -2   1    4.51    0.71
  -6  -2   1    4.89    0.62
  -5  -2   1   10.98    1.15
  -5  -2   1    9.50    0.68
  -5  -2   1    9.48    0.94
  -5  -2   1    9.25    0.50
  -4  -2   1   82.63    2.67
  -4  -2   1   77.12    3.00
  -4  -2   1   79.79    2.37
  -4  -2   1   79.83    2.31
  -3  -2   1   32.39    1.05
  -3  -2   1   32.85    1.11
  -3  -2   1   32.17    1.33
  -3  -2   1   31.51    1.51
  -2  -2   1    2.98    0.34
  -2  -2   1    2.57    0.52
  -2  -2   1    2.88    0.43
  -1  -2   1  584.03   14.76
  -1  -2   1  605.47   17.09
  -1  -2   1  594.18   15.42
   0   2  -1   95.82    2.69
   0  -2   1   98.39    2.63
   0  -2   1   94.96    2.85
   0  -2   1   97.55    3.10
  -1   2  -1   29.44    1.12
   1  -2   1   30.38    1.00
   1  -2   1   30.12    1.23
   1  -2   1   29.73    1.19
  -2   2  -1    8.72    0.67
  -2   2  -1    9.17    0.51
   2  -2   1    8.82    0.62
  -3   2  -1    3.78    0.54
  -3   2  -1    5.16    0.50
   3  -2   1    4.94    0.54
  -4   2  -1    4.20    0.62
  -4   2  -1    4.96    0.60
   4  -2   1    5.47    0.64
  -5   2  -1    1.02    0.44
  -5   2  -1    0.42    0.39
   5  -2   1    1.52    0.47
   5  -2   1    0.44    0.39
  -6   2  -1   12.83    1.24
  -6   2  -1   14.73    1.04
   6  -2   1   12.27    0.94
  -7   2  -1    5.99    0.90
  -7   2  -1    6.08    1.03
  -8   2  -1    4.64    0.92
  -8   2  -1    4.85    1.05
  -9   2  -1    0.38    0.69
  -9   2  -1    1.86    0.93
 -10   2  -1   -0.55    0.89
 -11   2  -1    0.58    0.88
 -12  -1   1   -0.54    1.07
 -11  -1   1    0.43    0.73
 -10  -1   1    1.45    1.27
 -10  -1   1    3.41    0.92
  -9  -1   1    2.04    0.76
  -9  -1   1    0.81    1.10
  -8  -1   1    7.99    1.40
  -8  -1   1    7.69    1.10
  -7  -1   1   11.01    1.32
  -7  -1   1    4.97    0.80
  -7  -1   1    9.10    1.07
  -6  -1   1    0.57    0.40
  -6  -1   1    0.10    0.36
  -6  -1   1    0.21    0.70
  -5  -1   1    6.69    0.94
  -5  -1   1    6.52    0.69
  -5  -1   1    7.17    0.86
  -4  -1   1   24.55    1.38
  -4  -1   1   25.90    1.11
  -4  -1   1   26.87    1.27
  -3  -1   1   13.32    0.76
  -3  -1   1   13.15    0.89
  -3  -1   1   13.95    0.68
  -2  -1   1  133.06    4.29
  -2  -1   1  138.41    3.66
  -2  -1   1  140.65    3.76
  -1  -1   1   62.95    1.77
  -1  -1   1   59.85    2.03
  -1  -1   1   61.21    1.78
   0  -1   1    0.71    0.21
   0  -1   1    0.83    0.24
  -1   1  -1   25.83    0.94
   1  -1   1   26.64    0.93
   1  -1   1   25.63    1.01
  -2   1  -1    7.91    0.58
  -2   1  -1    6.90    0.40
   2  -1   1    7.19    0.45
   2  -1   1    7.46    0.54
  -3   1  -1   16.39    0.94
  -3   1  -1   15.81    0.90
  -3   1  -1   17.16    0.76
   3  -1   1   16.67    0.77
  -4   1  -1    1.12    0.49
  -4   1  -1    1.19    0.37
  -4   1  -1    1.55    0.33
   4  -1   1    1.48    0.34
  -5   1  -1    8.02    0.95
  -5   1  -1    9.32    0.83
  -5   1  -1    8.86    0.91
   5  -1   1    9.05    0.65
  -6   1  -1    1.03    0.49
  -6   1  -1    1.09    0.62
  -6   1  -1    1.68    0.52
   6  -1   1    1.62    0.47
  -7   1  -1   16.82    1.34
  -7   1  -1   18.94    1.26
  -8   1  -1   -0.66    0.76
  -8   1  -1   -0.20    0.62
  -8   1  -1    0.43    0.61
  -9   1  -1    9.49    1.36
  -9   1  -1   11.02    1.29
 -10   1  -1    1.76    0.90
 -10   1  -1    2.31    0.88
 -11   1  -1    1.92    1.11
 -12   1  -1    0.40    1.21
 -11   0   1    0.80    1.04
 -10   0   1    0.71    0.66
  -9   0   1   -0.54    0.66
  -9   0   1    0.46    0.77
  -9   0   1    0.03    1.08
  -8   0   1   -0.14    0.58
  -8   0   1   -0.61    0.62
  -8   0   1   -0.76    0.85
  -7   0   1   18.22    1.31
  -7   0   1   16.84    1.25
  -7   0   1   16.19    1.65
  -6   0   1   10.81    1.06
  -6   0   1   11.23    1.23
  -6   0   1   11.02    1.12
   5   0  -1    1.55    0.35
  -5   0   1    1.89    0.62
  -5   0   1    1.80    0.50
  -5   0   1    1.98    0.58
   4   0  -1    0.82    0.26
  -4   0   1    0.78    0.46
  -4   0   1    0.47    0.31
  -4   0   1    0.59    0.40
   3   0  -1   14.96    0.64
  -3   0   1   13.98    0.79
  -3   0   1   14.00    0.78
  -3   0   1   13.14    0.83
   2   0  -1   12.43    0.58
  -2   0   1   13.50    0.70
  -2   0   1   13.97    0.78
  -2   0   1    9.82    0.71
  -1   0   1  277.76    6.98
  -2   0  -1    8.22    0.41
  -2   0  -1    8.28    0.60
  -2   0  -1   10.10    0.54
  -3   0  -1   68.86    2.14
  -3   0  -1   67.89    1.99
  -3   0  -1   65.43    2.36
   3   0   1   65.65    1.93
  -4   0  -1   -0.01    0.24
  -4   0  -1    0.20    0.46
  -4   0  -1   -0.11    0.26
   4   0   1   -0.02    0.20
  -5   0  -1    6.61    0.93
  -5   0  -1    7.11    0.74
  -5   0  -1    6.83    0.74
   5   0   1    6.97    0.53
  -6   0  -1    0.62    0.52
  -6   0  -1    0.82    0.49
  -6   0  -1   -0.26    0.38
   6   0   1    0.65    0.33
  -7   0  -1    0.72    0.40
  -7   0  -1    1.14    0.56
  -7   0  -1    0.24    0.77
  -8   0  -1    0.46    0.95
  -8   0  -1    1.01    0.66
  -8   0  -1    1.16    0.65
  -9   0  -1    0.59    0.71
  -9   0  -1    0.79    0.73
  -9   0  -1   -0.04    1.00
 -10   0  -1    0.97    1.09
 -10   0  -1   -0.44    0.76
 -10   0  -1    0.08    0.79
 -11   0  -1   -0.02    0.88
 -11   1   1    1.61    1.12
 -10   1   1    0.59    0.72
 -10   1   1   -1.17    0.80
  -9   1   1    1.17    0.85
  -9   1   1   -0.15    0.76
  -8   1   1    3.38    0.82
  -8   1   1    2.02    0.96
  -8   1   1    2.50    0.86
  -7   1   1    1.45    0.58
  -7   1   1    1.05    0.65
  -7   1   1    0.66    0.82
   6  -1  -1    0.35    0.38
  -6   1   1    0.58    0.61
  -6   1   1    1.09    0.57
  -6   1   1    0.86    0.53
   5  -1  -1    4.31    0.56
  -5   1   1    2.90    0.63
  -5   1   1    3.09    0.68
  -5   1   1    3.11    0.65
   4  -1  -1   16.21    0.85
  -4   1   1   15.11    1.01
  -4   1   1   14.15    0.95
  -4   1   1   14.95    0.91
   3  -1  -1    4.85    0.49
  -3   1   1    5.82    0.61
  -3   1   1    5.46    0.59
  -3   1   1    5.34    0.58
   1  -1  -1  215.18    5.72
  -1   1   1  210.73    5.65
  -1   1   1  218.71    5.50
  -2  -1  -1 1000.00   22.26
  -2  -1  -1  771.31   22.79
  -2  -1  -1  954.61   25.75
  -3  -1  -1    0.83    0.44
  -3  -1  -1   -0.12    0.12
  -3  -1  -1   -0.36    0.26
  -4  -1  -1    1.09    0.42
  -4  -1  -1    1.46    0.36
  -5  -1  -1    4.40    0.57
  -5  -1  -1    3.90    0.70
  -5  -1  -1    4.16    0.56
  -6  -1  -1    3.95    0.63
  -6  -1  -1    2.01    0.47
  -6  -1  -1    4.88    0.93
  -7  -1  -1    2.28    0.91
  -7  -1  -1    2.40    0.63
  -7  -1  -1    2.82    0.67
  -8  -1  -1   -0.08    0.48
  -8  -1  -1   -0.06    0.64
  -8  -1  -1    0.56    0.47
  -9  -1  -1    4.77    0.94
  -9  -1  -1    4.96    0.91
  -9  -1  -1    5.40    1.35
 -10  -1  -1   -0.06    0.53
 -10  -1  -1    0.69    0.75
 -10  -1  -1    0.45    1.24
 -11  -1  -1    0.29    0.64
 -11  -1  -1    0.28    1.39
 -11   2   1    1.83    1.22
 -11   2   1    0.88    0.84
 -10   2   1    0.40    0.98
 -10   2   1    0.68    0.94
  -9   2   1    0.21    0.87
  -9   2   1    1.32    0.87
  -8   2   1    2.46    0.78
  -8   2   1    3.13    0.90
  -7   2   1    2.20    0.78
  -7   2   1    0.78    0.81
  -7   2   1    2.16    0.80
   6  -2  -1    0.48    0.45
  -6   2   1    1.25    0.69
  -6   2   1    1.24    0.53
  -6   2   1    1.45    0.54
   5  -2  -1    6.73    0.80
  -5   2   1    3.33    0.70
  -5   2   1    4.73    0.78
  -5   2   1    6.24    0.84
   4  -2  -1    2.60    0.51
  -4   2   1    3.28    0.67
  -4   2   1    2.89    0.58
  -4   2   1    0.88    0.48
   3  -2  -1    6.69    0.68
  -3   2   1    7.09    0.78
  -3   2   1    6.14    0.67
   2  -2  -1   30.60    1.26
  -2   2   1   35.00    1.33
  -2   2   1   31.01    1.23
   1  -2  -1   39.87    1.42
  -1   2   1   41.83    1.42
  -1   2   1   39.61    1.34
   0  -2  -1   70.73    2.11
   0  -2  -1   71.30    2.01
   0   2   1   68.69    2.02
  -1  -2  -1   11.54    0.57
  -1  -2  -1   11.59    0.53
  -1  -2  -1   12.97    0.56
  -2  -2  -1    2.51    0.35
  -2  -2  -1    2.93    0.48
  -3  -2  -1    8.22    0.58
  -3  -2  -1    8.20    0.45
  -3  -2  -1    7.75    0.66
  -4  -2  -1    2.57    0.46
  -4  -2  -1    2.53    0.37
  -4  -2  -1    2.11    0.60
  -5  -2  -1   14.31    0.88
  -5  -2  -1   14.27    0.82
  -5  -2  -1   12.90    1.26
  -6  -2  -1    5.60    0.65
  -6  -2  -1    3.81    0.62
  -6  -2  -1    5.61    0.99
  -7  -2  -1    2.51    0.60
  -7  -2  -1    2.70    0.81
  -7  -2  -1    2.63    0.62
  -8  -2  -1   31.65    2.14
  -8  -2  -1   28.01    1.62
  -8  -2  -1   30.29    1.60
  -9  -2  -1    9.53    1.26
  -9  -2  -1    7.89    1.47
 -10  -2  -1    0.89    0.97
 -10  -2  -1    1.11    0.85
 -11  -2  -1    0.47    1.43
 -11  -2  -1    0.14    0.63
 -12  -2  -1   -0.03    1.60
 -12  -2  -1    0.20    1.01
 -11   3   1   -0.18    0.89
 -10   3   1    1.87    1.17
 -10   3   1    2.63    1.13
  -9   3   1   -0.07    0.86
  -9   3   1   -0.53    0.59
  -8   3   1    0.15    0.81
  -8   3   1   -0.71    0.65
  -7   3   1    5.02    0.95
  -7   3   1    5.63    0.92
   6  -3  -1    4.26    0.80
  -6   3   1    5.27    0.94
  -6   3   1    3.64    0.87
   5  -3  -1    1.67    0.55
  -5   3   1    1.05    0.49
  -5   3   1    1.75    0.65
   4  -3  -1   11.18    1.00
   4  -3  -1   10.32    0.76
  -4   3   1   10.78    1.11
  -4   3   1   10.52    0.94
   3  -3  -1    1.01    0.46
   3  -3  -1    0.61    0.31
  -3   3   1    0.43    0.39
  -3   3   1    0.32    0.36
   2  -3  -1   44.76    1.53
   2  -3  -1   44.99    1.72
  -2   3   1   42.96    1.57
  -2   3   1   40.58    1.67
   1  -3  -1  281.46    7.64
   1  -3  -1  281.43    8.04
  -1   3   1  272.48    7.47
  -1   3   1  279.50    7.25
   0  -3  -1  114.15    3.17
   0  -3  -1  111.45    3.43
   0  -3  -1  114.87    3.37
   0   3   1  111.32    3.20
  -1  -3  -1  195.40    5.56
  -1  -3  -1  221.69    5.84
   1   3   1  220.66    5.55
  -2  -3  -1   78.37    2.40
  -2  -3  -1   79.71    2.37
  -2  -3  -1   81.30    2.74
  -3  -3  -1   15.49    1.01
  -3  -3  -1   15.66    0.81
  -3  -3  -1   14.94    0.66
  -4  -3  -1   10.20    0.52
  -4  -3  -1   12.24    1.15
  -4  -3  -1   10.94    0.73
  -5  -3  -1    1.68    0.34
  -5  -3  -1    1.49    0.70
  -5  -3  -1    1.37    0.47
  -6  -3  -1   12.01    0.76
  -6  -3  -1   13.02    1.14
  -6  -3  -1   11.68    0.89
  -7  -3  -1    4.72    0.65
  -7  -3  -1    4.70    0.96
  -7  -3  -1    4.27    0.78
  -8  -3  -1    5.63    0.88
  -8  -3  -1    7.52    1.41
  -9  -3  -1   21.07    1.50
  -9  -3  -1   22.45    2.26
 -10  -3  -1    1.67    0.89
 -10  -3  -1   -1.55    1.14
 -11  -3  -1   -0.37    1.30
 -11  -3  -1    0.61    0.69
 -12  -3  -1    0.84    1.05
 -12  -3  -1   -0.42    1.55
 -10   4   1    0.00    0.85
  -9   4   1    0.50    0.68
  -9   4   1    0.32    1.00
  -8   4   1    1.04    0.76
  -8   4   1    2.59    0.98
  -7   4   1    3.17    0.83
  -7   4   1    3.13    1.00
   6  -4  -1    0.01    0.63
  -6   4   1    0.34    0.64
  -6   4   1   -0.04    0.70
   5  -4  -1    1.30    0.67
  -5   4   1    3.40    0.76
  -5   4   1    2.27    0.62
   4  -4  -1    3.02    0.63
   4  -4  -1    2.25    0.48
  -4   4   1    2.31    0.53
  -4   4   1    1.64    0.63
   3  -4  -1    2.66    0.56
   3  -4  -1    2.69    0.45
  -3   4   1    2.12    0.53
  -3   4   1    1.83    0.52
   2  -4  -1    0.35    0.25
   2  -4  -1    0.46    0.49
  -2   4   1    0.40    0.35
  -2   4   1    0.18    0.26
   1  -4  -1    4.26    0.60
   1  -4  -1    2.90    0.39
  -1   4   1    3.22    0.56
  -1   4   1    2.23    0.47
   0  -4  -1   29.71    1.18
   0  -4  -1   25.25    1.15
   0  -4  -1   27.61    1.30
   0   4   1   28.94    1.18
  -1  -4  -1   31.10    1.27
  -1  -4  -1   31.32    1.34
   1   4   1   30.90    1.12
  -2  -4  -1   78.65    2.77
  -2  -4  -1   77.17    2.48
  -2  -4  -1   79.98    2.50
  -3  -4  -1    1.75    0.49
  -3  -4  -1    2.29    0.38
  -3  -4  -1    1.24    0.42
  -4  -4  -1   73.78    2.94
  -4  -4  -1   78.49    2.31
  -4  -4  -1   76.36    2.59
  -5  -4  -1    1.49    0.26
  -5  -4  -1    1.28    0.28
  -5  -4  -1    1.50    0.52
  -5  -4  -1    2.60    0.68
  -6  -4  -1    1.58    0.55
  -6  -4  -1    1.77    0.68
  -7  -4  -1   14.68    1.67
  -7  -4  -1   14.26    1.33
  -8  -4  -1   13.89    1.38
  -8  -4  -1   16.95    1.88
  -9  -4  -1    0.01    1.06
  -9  -4  -1   -0.60    0.62
 -10  -4  -1   -1.26    1.08
 -10  -4  -1    0.44    0.77
 -11  -4  -1    1.20    1.15
 -11  -4  -1    3.38    0.95
 -12  -4  -1   -1.42    1.59
 -12  -4  -1    1.22    1.13
 -10   5   1    2.57    1.46
  -9   5   1    0.35    0.79
  -8   5   1   -0.68    0.81
  -8   5   1    1.14    0.87
  -7   5   1    2.81    1.04
  -7   5   1    1.86    1.00
   6  -5  -1    8.44    1.25
  -6   5   1    9.37    1.26
  -6   5   1    9.42    1.27
   5  -5  -1    6.37    1.06
  -5   5   1    6.83    1.04
  -5   5   1    6.19    0.89
   4  -5  -1    5.42    0.95
  -4   5   1    3.32    0.82
  -4   5   1    3.99    0.69
   3  -5  -1   29.48    1.67
   3  -5  -1   31.58    1.39
  -3   5   1   32.09    1.55
  -3   5   1   30.66    1.70
   2  -5  -1   16.48    0.91
   2  -5  -1   16.17    1.12
  -2   5   1   15.48    1.02
  -2   5   1   17.72    1.21
   1  -5  -1   62.76    2.24
   1  -5  -1   63.85    2.45
  -1   5   1   62.80    2.21
  -1   5   1   61.30    2.30
   0  -5  -1   22.92    1.12
   0  -5  -1   23.83    1.26
   0  -5  -1   22.79    1.11
   0   5   1   24.23    1.16
  -1  -5  -1    1.12    0.42
  -1  -5  -1    0.32    0.35
  -1  -5  -1    0.60    0.20
   1   5   1    1.40    0.36
  -2  -5  -1    0.89    0.44
  -2  -5  -1    0.34    0.28
  -2  -5  -1    0.79    0.46
   2   5   1    0.72    0.27
  -3  -5  -1   14.16    1.03
  -3  -5  -1   15.36    0.94
  -3  -5  -1   16.54    0.94
  -4  -5  -1   56.20    2.40
  -4  -5  -1   53.41    2.08
  -4  -5  -1   51.99    1.87
  -5  -5  -1    2.63    0.85
  -5  -5  -1    1.30    0.39
  -5  -5  -1    2.02    0.51
  -6  -5  -1    4.29    0.97
  -6  -5  -1    5.67    0.83
  -7  -5  -1    1.13    0.93
  -7  -5  -1    0.79    0.59
  -8  -5  -1   11.97    1.37
  -8  -5  -1   12.06    1.72
  -9  -5  -1    1.56    1.23
  -9  -5  -1    1.02    0.75
 -10  -5  -1    0.91    0.65
 -10  -5  -1    0.42    1.24
 -11  -5  -1    0.42    0.64
 -11  -5  -1   -0.90    0.96
 -12  -5  -1   -1.14    1.16
 -12  -5  -1    1.42    1.09
  -9   6   1    0.38    1.15
  -8   6   1    0.06    0.99
   7  -6  -1   -0.21    0.84
  -7   6   1    0.68    0.89
  -7   6   1   -0.50    0.65
   6  -6  -1   -0.28    0.78
  -6   6   1   -0.66    0.71
  -6   6   1   -0.05    0.51
   5  -6  -1    2.54    0.95
  -5   6   1    3.44    0.87
  -5   6   1    0.62    0.58
   4  -6  -1    0.64    0.61
  -4   6   1    1.43    0.68
  -4   6   1    1.94    0.67
   3  -6  -1    3.18    0.88
  -3   6   1    3.49    0.72
  -3   6   1    2.82    0.68
   2  -6  -1   12.12    0.86
   2  -6  -1   14.00    1.12
  -2   6   1   11.50    1.18
  -2   6   1   13.39    1.03
   1  -6  -1   36.49    1.60
   1  -6  -1   35.69    1.86
  -1   6   1   37.04    1.62
  -1   6   1   39.71    1.77
   0  -6  -1   27.14    1.38
   0  -6  -1   31.10    1.42
   0  -6  -1   28.74    1.59
   0   6   1   28.16    1.37
  -1  -6  -1   10.29    0.82
  -1  -6  -1   13.00    1.16
   1   6   1   13.23    0.80
  -2  -6  -1    7.42    0.88
  -2  -6  -1    5.89    0.75
  -2  -6  -1    5.91    0.77
   2   6   1    5.18    0.51
  -3  -6  -1    7.30    0.98
  -3  -6  -1    7.32    0.83
  -3  -6  -1    6.51    0.74
   3   6   1    6.67    0.42
  -4  -6  -1    9.88    1.23
  -4  -6  -1   10.51    0.85
  -4  -6  -1   12.21    1.11
  -5  -6  -1    0.12    0.46
  -5  -6  -1    0.66    0.46
  -5  -6  -1    0.04    0.52
  -6  -6  -1    6.94    0.95
  -6  -6  -1    7.61    1.34
  -7  -6  -1    2.52    0.80
  -7  -6  -1    2.05    1.09
  -8  -6  -1    9.45    1.66
  -8  -6  -1    7.24    1.17
  -9  -6  -1   -0.52    0.62
  -9  -6  -1   -0.43    1.11
 -10  -6  -1    0.52    0.82
 -10  -6  -1    0.18    1.28
 -11  -6  -1    3.02    1.75
 -11  -6  -1   -0.16    0.85
 -12  -6  -1   -0.06    1.74
 -12  -6  -1    0.51    1.03
  -8   7   1    0.81    1.05
   7  -7  -1    0.56    1.05
  -7   7   1    0.97    0.81
   6  -7  -1   -0.30    0.90
  -6   7   1   -1.06    0.74
  -6   7   1    0.06    0.57
   5  -7  -1    2.20    1.04
  -5   7   1    5.15    1.04
  -5   7   1    5.49    1.04
   4  -7  -1    7.28    1.14
  -4   7   1    7.81    1.12
  -4   7   1    8.54    1.28
   3  -7  -1    2.49    0.88
  -3   7   1    2.22    0.73
  -3   7   1    3.10    0.84
   2  -7  -1    5.97    0.98
  -2   7   1    9.76    1.29
  -2   7   1    8.08    1.02
   1  -7  -1    2.66    0.71
   1  -7  -1    2.77    0.60
  -1   7   1    2.76    0.56
  -1   7   1    2.23    0.65
   0  -7  -1   17.16    1.26
   0  -7  -1   17.46    1.13
   0  -7  -1   17.09    1.11
   0   7   1   19.12    1.18
  -1  -7  -1    2.27    0.61
  -1  -7  -1    3.28    0.67
  -1  -7  -1    2.75    0.64
   1   7   1    3.39    0.59
  -2  -7  -1    2.46    0.68
  -2  -7  -1    2.31    0.63
  -2  -7  -1    2.61    0.68
   2   7   1    2.89    0.46
  -3  -7  -1   23.19    1.49
  -3  -7  -1   26.14    1.48
  -3  -7  -1   25.73    1.47
  -4  -7  -1    1.29    0.47
  -4  -7  -1    0.87    0.79
  -4  -7  -1   -0.07    0.48
  -5  -7  -1   10.52    1.16
  -5  -7  -1    9.83    1.33
  -5  -7  -1   10.98    1.01
  -6  -7  -1    0.02    0.89
  -6  -7  -1    0.82    0.52
  -7  -7  -1   14.97    1.49
  -7  -7  -1   20.69    2.17
  -8  -7  -1   12.23    1.92
  -8  -7  -1    9.82    1.27
  -9  -7  -1   -0.60    0.44
  -9  -7  -1    0.03    1.21
 -10  -7  -1    0.13    0.84
 -10  -7  -1    1.09    1.43
 -11  -7  -1   -0.85    1.39
 -11  -7  -1    0.67    1.00
 -12  -7  -1   -0.53    0.98
 -12  -7  -1   -0.76    1.29
  -8   8   1    0.25    1.18
   7  -8  -1   -0.69    1.11
  -7   8   1    0.87    1.03
   6  -8  -1   -1.01    0.98
  -6   8   1    0.00    0.89
   5  -8  -1    1.48    1.07
  -5   8   1    2.61    0.92
  -5   8   1    2.08    0.97
   4  -8  -1    3.13    0.92
  -4   8   1    4.59    0.90
  -4   8   1    4.55    1.12
   3  -8  -1    3.73    1.10
  -3   8   1    3.57    0.78
  -3   8   1    2.91    0.80
   2  -8  -1    1.15    0.86
  -2   8   1    1.59    0.78
  -2   8   1    1.20    0.58
   1  -8  -1   -0.09    0.52
  -1   8   1   -0.41    0.52
  -1   8   1    1.25    0.65
   0  -8  -1   21.22    1.61
   0  -8  -1   21.93    1.35
   0  -8  -1   19.18    1.27
   0   8   1   20.19    1.33
  -1  -8  -1    2.82    0.72
  -1  -8  -1    3.29    0.76
  -1  -8  -1    2.78    0.87
   1   8   1    2.70    0.59
  -2  -8  -1   -0.05    0.49
  -2  -8  -1    0.80    0.61
  -2  -8  -1    0.82    0.67
  -3  -8  -1    9.86    1.26
  -3  -8  -1    6.87    0.94
  -3  -8  -1    9.20    1.05
  -4  -8  -1   20.48    1.48
  -4  -8  -1   20.62    1.43
  -4  -8  -1   23.66    1.63
  -5  -8  -1   -0.07    0.40
  -5  -8  -1   -0.44    0.87
  -5  -8  -1   -0.10    0.54
  -6  -8  -1    0.17    0.63
  -6  -8  -1   -0.52    0.96
  -7  -8  -1   13.24    1.88
  -7  -8  -1   11.18    1.45
  -8  -8  -1   -0.33    0.69
  -8  -8  -1   -1.32    1.04
  -9  -8  -1    1.70    0.91
  -9  -8  -1    1.14    1.33
 -10  -8  -1   -0.32    1.35
 -10  -8  -1   -0.07    0.87
 -11  -8  -1   -1.21    1.48
 -11  -8  -1   -0.08    0.96
   7  -9  -1   -1.51    1.26
  -7   9   1   -1.22    1.07
   6  -9  -1   -0.65    1.13
  -6   9   1    0.21    1.02
   5  -9  -1    0.81    0.90
  -5   9   1    0.59    0.98
   4  -9  -1    0.14    0.98
  -4   9   1    0.07    0.60
  -4   9   1    0.78    0.87
   3  -9  -1    0.39    0.68
  -3   9   1    0.48    0.79
  -3   9   1    1.12    0.65
   2  -9  -1   10.85    1.46
  -2   9   1    9.69    1.17
  -2   9   1   12.27    1.47
   1  -9  -1    4.07    0.96
  -1   9   1    7.29    1.10
  -1   9   1    4.31    0.83
   0  -9  -1    0.13    0.46
   0  -9  -1    0.82    0.66
   0   9   1    0.09    0.54
  -1  -9  -1    3.36    0.75
  -1  -9  -1    6.92    1.08
  -1  -9  -1    5.78    1.13
  -2  -9  -1    5.71    0.97
  -2  -9  -1    4.62    0.98
  -2  -9  -1    3.52    0.85
  -3  -9  -1    2.33    0.90
  -3  -9  -1    0.36    0.58
  -3  -9  -1    1.42    0.57
  -4  -9  -1    5.94    1.05
  -4  -9  -1    5.02    1.07
  -4  -9  -1    5.94    1.04
  -5  -9  -1   13.05    1.35
  -5  -9  -1   15.96    1.78
  -5  -9  -1   13.15    1.43
  -6  -9  -1    0.80    0.87
  -6  -9  -1    2.47    0.76
  -7  -9  -1   -0.63    0.79
  -7  -9  -1    0.02    0.52
  -8  -9  -1    7.68    1.58
  -8  -9  -1    6.80    1.34
  -9  -9  -1    1.01    1.46
  -9  -9  -1    0.00    0.85
 -10  -9  -1   -0.71    1.41
 -10  -9  -1    0.26    0.71
 -11  -9  -1    1.92    1.84
 -11  -9  -1    0.85    1.19
   6 -10  -1    0.12    1.01
  -6  10   1    0.08    1.24
   5 -10  -1   -1.44    1.16
  -5  10   1   -0.09    0.74
   4 -10  -1   -0.29    0.78
  -4  10   1    0.13    0.96
   3 -10  -1    1.00    0.85
  -3  10   1    0.66    0.85
  -3  10   1    0.19    0.65
   2 -10  -1   -0.56    0.89
  -2  10   1    1.26    0.88
  -2  10   1    0.76    0.86
   1 -10  -1   -0.08    0.91
  -1  10   1   -0.13    0.69
  -1  10   1   -0.07    0.72
   0 -10  -1    2.66    0.89
   0 -10  -1    3.02    0.78
  -1 -10  -1    0.95    0.72
  -1 -10  -1   -0.11    0.83
  -2 -10  -1    9.68    1.23
  -2 -10  -1    7.54    1.22
  -2 -10  -1    9.91    1.31
  -3 -10  -1   10.25    1.45
  -3 -10  -1   12.31    1.50
  -3 -10  -1   12.17    1.59
  -4 -10  -1    1.23    0.65
  -4 -10  -1   -0.90    0.48
  -4 -10  -1   -0.34    0.93
  -5 -10  -1    2.56    0.95
  -5 -10  -1    1.84    1.01
  -5 -10  -1    2.02    0.95
  -6 -10  -1    0.03    1.14
  -6 -10  -1    0.24    0.57
  -7 -10  -1   -0.63    1.20
  -7 -10  -1    0.54    0.84
  -8 -10  -1    2.09    0.89
  -8 -10  -1    2.44    1.53
  -9 -10  -1    0.74    0.99
  -9 -10  -1   -0.55    1.37
 -10 -10  -1    0.65    0.81
 -10 -10  -1   -0.26    1.18
   4 -11  -1   -0.74    1.20
  -4  11   1    1.63    1.17
   3 -11  -1    1.10    1.24
  -3  11   1    1.35    1.11
   2 -11  -1   -1.57    0.93
  -2  11   1    0.31    0.65
  -2  11   1    0.09    0.92
   1 -11  -1   -0.52    1.03
  -1  11   1    1.14    0.90
   0 -11  -1    3.04    0.84
   0 -11  -1    2.63    1.02
  -1 -11  -1    0.30    0.76
  -1 -11  -1   -0.19    0.67
  -2 -11  -1   -0.08    0.75
  -2 -11  -1   -0.97    0.58
  -3 -11  -1    0.00    0.91
  -3 -11  -1    0.95    0.89
  -3 -11  -1    0.95    0.99
  -4 -11  -1   -0.32    0.75
  -4 -11  -1   -0.92    0.83
  -4 -11  -1   -0.22    1.05
  -5 -11  -1   -0.23    0.80
  -5 -11  -1   -1.74    1.07
  -6 -11  -1   -0.01    1.26
  -6 -11  -1   -0.27    0.86
  -7 -11  -1   -1.34    0.84
  -7 -11  -1   -0.96    1.36
  -8 -11  -1   -0.26    0.74
  -8 -11  -1   -0.21    1.49
  -9 -11  -1   -0.29    1.18
  -9 -11  -1    2.50    1.01
   3 -12  -1   -3.31    1.05
   2 -12  -1   -1.28    0.68
   1 -12  -1   -0.93    1.14
  -1  12   1   -0.09    0.95
   0 -12  -1   -0.17    1.14
   0  12   1    0.32    0.95
  -1 -12  -1    0.17    0.82
  -1 -12  -1    1.76    0.87
  -2 -12  -1   -0.09    0.74
  -2 -12  -1    0.56    0.71
  -3 -12  -1    0.50    0.95
  -3 -12  -1    0.10    1.07
  -4 -12  -1    0.25    1.08
  -4 -12  -1    0.38    0.98
  -4 -12  -1    0.46    1.14
  -5 -12  -1    0.62    1.38
  -5 -12  -1    1.23    1.06
  -6 -12  -1   -0.51    0.98
  -6 -12  -1   -0.12    1.09
  -7 -12  -1    0.52    1.16
  -7 -12  -1   -1.08    1.46
  -8 -12  -1    1.51    1.05
  -8 -12  -1   -1.48    1.58
   1 -13  -1   -2.68    1.18
   0 -13  -1   -0.71    1.24
   0  13   1   -0.04    1.06
  -1 -13  -1    2.40    1.26
  -1 -13  -1    2.33    1.12
  -2 -13  -1   -0.91    0.98
  -2 -13  -1    0.53    1.00
  -3 -13  -1    0.50    0.82
  -3 -13  -1   -0.33    1.20
  -4 -13  -1    0.34    1.13
  -4 -13  -1    0.22    1.24
  -5 -13  -1    0.90    1.17
  -6 -13  -1    0.15    1.19
  -6 -13  -1   -0.47    1.75
  -7 -13  -1   -0.87    1.26
  -7 -13  -1   -1.48    1.17
  -6 -12   2   -1.25    1.13
  -6 -12   2    1.09    1.31
  -5 -12   2    1.37    1.03
  -5 -12   2    1.59    1.61
  -4 -12   2   -1.11    1.01
  -4 -12   2    1.60    1.36
  -3 -12   2    1.73    1.02
  -3 -12   2    1.65    1.21
  -3 -12   2   -0.14    1.26
  -2 -12   2   -1.11    0.79
  -2 -12   2    0.93    1.20
  -1 -12   2    0.07    1.25
   0 -12   2   -2.19    0.65
   1 -12   2   -0.48    1.38
  -7 -11   2    0.18    1.61
  -7 -11   2   -0.12    1.15
  -6 -11   2   -1.72    1.28
  -6 -11   2    0.57    0.80
  -5 -11   2   -1.50    0.87
  -5 -11   2    1.82    1.37
  -4 -11   2   -1.04    0.94
  -4 -11   2    0.85    0.91
  -4 -11   2    0.42    0.76
  -3 -11   2    4.40    1.23
  -3 -11   2    1.25    0.89
  -3 -11   2    2.92    1.13
  -2 -11   2    6.01    1.25
  -2 -11   2    5.14    1.44
  -2 -11   2    8.74    1.64
  -1 -11   2    5.20    1.36
  -1 -11   2    2.93    1.29
   0 -11   2   -0.68    1.05
   1 -11   2   -1.54    0.66
   2 -11   2   -0.86    0.79
   3 -11   2    0.51    1.01
   4 -11   2   -0.27    1.35
  -9 -10   2   -0.28    1.64
  -8 -10   2    0.30    0.83
  -8 -10   2   -1.51    1.36
  -7 -10   2    1.34    1.49
  -7 -10   2    3.12    1.05
  -6 -10   2    1.66    1.05
  -6 -10   2    0.29    1.27
  -5 -10   2   -0.94    0.96
  -5 -10   2    0.95    0.92
  -4 -10   2    5.66    1.25
  -4 -10   2    4.71    1.32
  -4 -10   2    2.65    1.02
  -3 -10   2    4.44    1.17
  -3 -10   2    7.19    1.28
  -3 -10   2    6.78    1.41
  -2 -10   2    5.28    1.11
  -2 -10   2    9.46    1.57
  -2 -10   2    7.48    1.39
  -1 -10   2    0.09    0.63
  -1 -10   2   -0.78    0.67
  -1 -10   2    0.19    0.87
   0 -10   2    0.19    0.70
   0 -10   2    1.38    0.99
   0 -10   2    0.30    0.70
   1 -10   2   -1.86    0.81
   2 -10   2    1.18    1.06
  -3  10  -2    2.27    1.04
   3 -10   2   -0.73    0.74
  -4  10  -2    1.01    1.03
   4 -10   2   -1.04    0.73
  -5  10  -2   -0.39    1.07
   5 -10   2   -1.23    1.20
  -9  -9   2   -1.47    1.37
  -9  -9   2   -0.59    0.76
  -8  -9   2    5.44    1.39
  -8  -9   2    3.92    1.60
  -7  -9   2    4.93    1.61
  -7  -9   2    4.97    1.28
  -6  -9   2    4.97    1.54
  -6  -9   2    6.64    1.20
  -5  -9   2    1.72    0.75
  -5  -9   2    2.99    1.01
  -4  -9   2    1.81    0.97
  -4  -9   2    0.82    0.70
  -4  -9   2    1.44    0.69
  -3  -9   2    5.73    1.11
  -3  -9   2    7.22    1.36
  -3  -9   2    6.53    1.20
  -2  -9   2    6.04    1.05
  -2  -9   2    9.64    1.49
  -2  -9   2    8.17    1.10
  -1  -9   2    2.66    0.97
  -1  -9   2    2.72    0.81
  -1  -9   2    4.52    1.14
   0  -9   2    5.85    1.25
   0  -9   2    3.18    0.81
   0  -9   2    3.51    1.05
   1  -9   2    4.05    0.97
   1  -9   2    3.17    1.02
   1  -9   2    4.04    0.86
  -2   9  -2    9.73    1.32
   2  -9   2    8.00    1.48
  -3   9  -2    3.55    1.02
   3  -9   2    3.11    1.23
  -4   9  -2    0.10    0.84
   4  -9   2    0.75    0.86
  -5   9  -2    0.88    1.01
   5  -9   2   -0.63    1.09
  -6   9  -2   -0.30    1.03
   6  -9   2   -1.20    1.16
 -10  -8   2    0.99    1.71
 -10  -8   2    1.20    0.98
  -9  -8   2   -0.20    1.08
  -9  -8   2    0.31    0.99
  -8  -8   2    1.36    0.80
  -8  -8   2    1.37    1.34
  -7  -8   2    3.74    0.97
  -7  -8   2    1.52    1.26
  -6  -8   2    3.17    1.24
  -6  -8   2    2.73    0.97
  -5  -8   2    3.69    0.88
  -5  -8   2    4.10    1.07
  -4  -8   2    5.75    0.99
  -4  -8   2    5.27    1.04
  -4  -8   2    5.49    1.22
  -3  -8   2    3.62    0.81
  -3  -8   2    5.57    0.91
  -3  -8   2    6.19    1.11
  -2  -8   2    5.05    1.16
  -2  -8   2    4.10    0.88
  -2  -8   2    4.52    0.98
  -1  -8   2    0.25    0.76
  -1  -8   2    0.24    0.47
  -1  -8   2    0.38    0.58
   0  -8   2    6.00    0.93
   0  -8   2    6.66    1.11
   0  -8   2    6.42    1.13
  -1   8  -2    7.12    1.04
   1  -8   2    8.53    1.02
   1  -8   2    8.42    1.32
   1  -8   2    9.44    1.38
  -2   8  -2   11.91    1.30
   2  -8   2   12.20    1.46
   2  -8   2   11.06    1.41
  -3   8  -2   10.49    1.35
   3  -8   2   11.19    1.60
  -4   8  -2    1.89    0.89
   4  -8   2   -0.42    0.61
  -5   8  -2   -0.92    0.75
   5  -8   2   -0.13    0.96
  -6   8  -2    1.98    1.07
   6  -8   2    0.37    1.13
  -7   8  -2    1.94    0.99
   7  -8   2    0.12    1.17
  -8   8  -2    0.41    1.25
 -10  -7   2    0.04    0.74
 -10  -7   2    0.32    1.22
  -9  -7   2    0.14    0.63
  -9  -7   2    0.12    1.52
  -8  -7   2   -0.17    1.18
  -8  -7   2    0.74    0.88
  -7  -7   2    2.43    1.05
  -7  -7   2    2.23    0.96
  -6  -7   2    1.39    1.05
  -6  -7   2    0.77    0.76
  -5  -7   2    6.16    1.16
  -5  -7   2    7.32    1.15
  -4  -7   2   19.39    1.34
  -4  -7   2   20.14    1.71
  -4  -7   2   20.74    1.51
  -3  -7   2    1.51    0.64
  -3  -7   2    3.18    0.94
  -3  -7   2    2.55    0.70
  -2  -7   2    2.23    0.66
  -2  -7   2    1.81    0.55
  -2  -7   2    1.35    0.79
  -1  -7   2   15.32    1.56
  -1  -7   2   12.12    1.15
  -1  -7   2   10.84    1.22
   0   7  -2    0.06    0.40
   0  -7   2    0.05    0.42
   0  -7   2    0.10    0.42
   0  -7   2    0.34    0.63
  -1   7  -2   48.70    2.18
   1  -7   2   51.29    2.08
   1  -7   2   50.45    2.44
   1  -7   2   49.86    2.50
  -2   7  -2   20.04    1.46
   2  -7   2   20.05    1.53
   2  -7   2   18.57    1.76
  -3   7  -2    5.96    1.05
   3  -7   2    3.92    0.87
   3  -7   2    4.62    0.95
  -4   7  -2   -0.07    0.48
   4  -7   2    0.39    0.81
  -5   7  -2   -0.50    0.70
   5  -7   2    0.76    0.92
  -6   7  -2    0.45    0.65
   6  -7   2   -1.16    0.85
  -7   7  -2    3.25    1.19
   7  -7   2    2.25    1.22
  -8   7  -2   -0.30    0.72
 -11  -6   2    0.08    0.80
 -11  -6   2   -0.34    1.76
 -10  -6   2    0.70    0.99
 -10  -6   2   -1.31    1.03
  -9  -6   2    1.00    0.88
  -9  -6   2    0.89    1.47
  -8  -6   2    3.01    0.87
  -8  -6   2    3.09    1.42
  -7  -6   2   -0.14    0.67
  -7  -6   2    2.16    1.19
  -6  -6   2    3.10    0.99
  -6  -6   2    3.60    0.90
  -5  -6   2    9.65    1.14
  -5  -6   2   13.14    1.04
  -5  -6   2   15.66    1.70
  -4  -6   2   15.23    1.08
  -4  -6   2   15.94    1.40
  -4  -6   2   15.81    1.67
  -3  -6   2    9.94    1.03
  -3  -6   2   13.35    1.48
  -3  -6   2    9.68    1.03
  -2  -6   2    3.84    0.65
  -2  -6   2    2.87    0.71
  -2  -6   2    3.52    0.66
   1   6  -2   -0.26    0.29
  -1  -6   2   -0.16    0.36
  -1  -6   2    0.35    0.38
  -1  -6   2   -0.18    0.51
   0   6  -2   19.18    1.15
   0  -6   2   18.66    1.26
   0  -6   2   17.68    1.28
   0  -6   2   19.27    1.12
  -1   6  -2   24.68    1.37
   1  -6   2   22.75    1.52
   1  -6   2   23.44    1.53
   1  -6   2   24.42    1.24
  -2   6  -2   25.14    1.51
   2  -6   2   25.48    1.58
   2  -6   2   25.04    1.58
  -3   6  -2    2.09    0.57
  -3   6  -2    1.36    0.68
   3  -6   2    1.94    0.72
   3  -6   2    0.55    0.33
  -4   6  -2    8.76    1.17
   4  -6   2    9.76    1.32
   4  -6   2   11.19    1.30
  -5   6  -2    2.21    0.74
   5  -6   2    2.31    0.94
  -6   6  -2    5.65    1.17
   6  -6   2    3.44    1.11
  -7   6  -2   -0.95    0.74
   7  -6   2   -0.47    0.63
  -8   6  -2   -0.05    0.64
  -9   6  -2    1.52    0.95
 -11  -5   2   -1.31    1.67
 -11  -5   2    0.82    1.12
 -10  -5   2    0.68    0.92
 -10  -5   2    0.44    1.53
  -9  -5   2   -0.85    0.68
  -9  -5   2   -0.45    1.29
  -8  -5   2   -0.81    0.64
  -8  -5   2    0.14    1.13
  -7  -5   2    2.18    1.14
  -7  -5   2    1.17    0.59
  -6  -5   2    8.85    1.19
  -6  -5   2   11.49    1.49
  -5  -5   2    5.61    1.03
  -5  -5   2    8.03    0.81
  -5  -5   2    6.12    0.88
  -4  -5   2    7.97    1.10
  -4  -5   2    7.97    0.84
  -4  -5   2    6.33    0.89
  -3  -5   2    6.59    0.76
  -3  -5   2    5.54    0.77
  -3  -5   2    4.78    0.91
   2   5  -2    0.45    0.25
  -2  -5   2   -0.06    0.26
  -2  -5   2    0.03    0.27
  -2  -5   2   -0.41    0.44
   1   5  -2   14.48    0.78
  -1  -5   2   13.30    0.85
  -1  -5   2   13.26    1.11
  -1  -5   2   12.19    0.92
   0   5  -2    1.28    0.40
   0  -5   2    0.95    0.48
   0  -5   2    0.41    0.49
   0  -5   2    1.16    0.39
  -1   5  -2   33.56    1.50
   1  -5   2   33.59    1.40
   1  -5   2   35.48    1.74
   1  -5   2   31.78    1.71
  -2   5  -2   11.12    1.02
   2  -5   2   10.55    1.11
   2  -5   2    8.99    0.98
  -3   5  -2   11.64    0.84
  -3   5  -2   12.70    1.20
   3  -5   2   12.03    1.21
   3  -5   2   11.99    1.01
  -4   5  -2    0.80    0.62
  -4   5  -2    0.66    0.45
   4  -5   2    0.06    0.39
   4  -5   2    0.42    0.60
  -5   5  -2    0.29    0.65
   5  -5   2    0.60    0.60
   5  -5   2   -0.36    0.65
  -6   5  -2    2.39    0.92
   6  -5   2    2.53    0.77
  -7   5  -2    1.93    0.74
   7  -5   2    3.03    1.00
  -8   5  -2    0.12    0.85
  -9   5  -2   -0.30    0.94
 -10   5  -2    0.49    1.14
 -11  -4   2    0.79    1.05
 -11  -4   2   -1.41    1.45
 -10  -4   2   -2.01    1.36
 -10  -4   2    0.70    0.66
  -9  -4   2   -0.41    0.45
  -9  -4   2    0.10    1.29
  -8  -4   2    0.78    0.90
  -8  -4   2    0.33    0.71
  -7  -4   2    4.80    1.28
  -7  -4   2    3.28    0.76
  -6  -4   2   -0.58    0.76
  -6  -4   2    0.38    0.58
  -5  -4   2   -0.11    0.48
  -5  -4   2    0.04    0.33
  -5  -4   2    0.59    0.40
  -4  -4   2   42.58    1.85
  -4  -4   2   44.76    2.20
  -4  -4   2   40.91    1.66
  -3  -4   2    0.46    0.40
  -3  -4   2    0.13    0.28
  -3  -4   2   -0.15    0.31
   2   4  -2    5.61    0.41
  -2  -4   2    5.13    0.84
  -2  -4   2    4.75    0.64
  -2  -4   2    6.57    0.70
   1   4  -2   11.14    0.64
  -1  -4   2   10.89    0.79
  -1  -4   2   11.74    0.73
  -1  -4   2   11.56    0.97
   0   4  -2   21.65    1.02
   0  -4   2   21.74    1.29
   0  -4   2   21.79    1.02
   0  -4   2   22.19    1.18
  -1   4  -2    1.14    0.40
   1  -4   2    1.32    0.40
   1  -4   2    0.81    0.45
   1  -4   2    1.28    0.34
  -2   4  -2   93.71    3.12
   2  -4   2   91.03    3.37
   2  -4   2   94.20    3.23
  -3   4  -2    5.07    0.79
  -3   4  -2    6.10    0.64
   3  -4   2    7.49    0.92
   3  -4   2    5.87    0.82
  -4   4  -2    3.16    0.65
  -4   4  -2    3.53    0.57
   4  -4   2    4.80    0.75
  -5   4  -2   12.46    1.29
  -5   4  -2   13.29    1.01
   5  -4   2   15.87    1.23
   5  -4   2    9.99    1.15
  -6   4  -2    4.19    0.87
   6  -4   2    4.05    0.92
   6  -4   2    3.91    0.85
  -7   4  -2    0.14    0.75
   7  -4   2   -0.40    0.67
  -8   4  -2    1.35    0.93
  -9   4  -2    1.13    0.79
 -10   4  -2    2.75    1.05
 -11  -3   2   -2.20    1.42
 -11  -3   2    0.11    1.00
 -10  -3   2   -0.49    0.54
 -10  -3   2   -0.94    1.34
  -9  -3   2    8.14    1.34
  -9  -3   2    6.33    1.66
  -8  -3   2    2.28    1.26
  -8  -3   2    3.58    0.86
  -7  -3   2   12.55    1.34
  -7  -3   2   14.23    1.64
  -6  -3   2   12.11    1.49
  -6  -3   2   11.91    1.23
  -5  -3   2   24.67    1.08
  -5  -3   2   25.41    1.48
  -5  -3   2   23.70    1.56
  -5  -3   2   25.78    1.09
  -4  -3   2   10.10    1.12
  -4  -3   2    9.73    0.67
  -4  -3   2   10.64    1.02
  -4  -3   2    9.73    0.59
  -3  -3   2    8.38    0.64
  -3  -3   2    9.57    0.51
  -3  -3   2   10.12    0.87
  -3  -3   2   10.04    0.89
   2   3  -2   43.82    1.36
  -2  -3   2   44.64    1.65
  -2  -3   2   45.44    1.66
  -2  -3   2   42.05    1.90
   1   3  -2    6.84    0.45
  -1  -3   2    7.36    0.58
  -1  -3   2    7.26    0.62
  -1  -3   2    7.32    0.82
   0   3  -2  157.94    4.40
   0  -3   2  160.32    5.12
   0  -3   2  158.81    4.69
   0  -3   2  158.89    4.29
  -1   3  -2   63.85    2.14
   1  -3   2   62.44    2.40
   1  -3   2   62.31    1.92
   1  -3   2   65.44    2.27
  -2   3  -2   18.81    0.82
  -2   3  -2   17.06    1.04
   2  -3   2   18.69    1.07
   2  -3   2   18.83    1.04
  -3   3  -2   65.51    2.46
  -3   3  -2   65.77    2.07
   3  -3   2   65.31    2.41
   3  -3   2   68.39    2.59
  -4   3  -2    2.25    0.54
  -4   3  -2    2.87    0.49
   4  -3   2    3.21    0.64
   4  -3   2    3.36    0.58
  -5   3  -2    4.27    0.77
  -5   3  -2    2.99    0.55
   5  -3   2    3.72    0.63
   5  -3   2    3.21    0.65
  -6   3  -2    2.55    0.69
  -6   3  -2    2.47    0.60
   6  -3   2    2.42    0.68
  -7   3  -2    1.05    0.76
   7  -3   2    0.36    0.51
   7  -3   2    1.35    0.70
  -8   3  -2   -0.40    0.51
  -9   3  -2   -0.01    0.79
 -10   3  -2    2.65    1.13
 -11   3  -2    4.15    1.48
 -11  -2   2    1.49    1.10
 -10  -2   2    0.43    0.65
 -10  -2   2   -2.57    1.36
  -9  -2   2    0.16    0.55
  -9  -2   2   -0.93    1.09
  -8  -2   2    5.75    1.10
  -8  -2   2    7.84    1.51
  -7  -2   2    0.97    1.01
  -7  -2   2    2.76    0.74
  -6  -2   2    1.67    0.89
  -6  -2   2    0.91    0.59
  -6  -2   2    2.34    0.53
  -5  -2   2    5.67    0.53
  -5  -2   2    6.10    0.87
  -5  -2   2    5.67    0.97
  -5  -2   2    4.58    0.62
  -4  -2   2   -0.90    0.45
  -4  -2   2    0.08    0.29
  -4  -2   2    0.18    0.24
  -4  -2   2    0.13    0.31
  -3  -2   2   36.38    1.73
  -3  -2   2   38.90    1.28
  -3  -2   2   37.97    1.52
  -3  -2   2   37.41    1.37
  -2  -2   2  106.61    3.70
  -2  -2   2  112.62    3.24
  -2  -2   2  110.34    3.22
   1   2  -2   36.39    1.16
  -1  -2   2   33.57    1.24
  -1  -2   2   35.12    1.51
  -1  -2   2   36.55    1.34
   0   2  -2  118.53    3.33
   0  -2   2  119.35    3.53
   0  -2   2  121.26    3.22
   0  -2   2  119.92    3.88
  -1   2  -2  951.77   24.42
   1  -2   2  967.96   23.55
   1  -2   2  965.42   27.45
   1  -2   2  963.40   24.92
  -2   2  -2   75.43    2.50
  -2   2  -2   78.05    2.15
   2  -2   2   77.92    2.52
   2  -2   2   77.03    2.73
  -3   2  -2   33.28    1.16
  -3   2  -2   32.85    1.49
   3  -2   2   32.51    1.52
   3  -2   2   35.64    1.44
  -4   2  -2    1.36    0.41
  -4   2  -2    0.97    0.48
   4  -2   2    1.42    0.49
   4  -2   2    1.01    0.39
  -5   2  -2   19.82    1.02
  -5   2  -2   19.38    1.24
   5  -2   2   20.58    1.29
   5  -2   2   18.52    1.09
  -6   2  -2    0.15    0.39
  -6   2  -2   -0.08    0.38
   6  -2   2    0.18    0.48
   6  -2   2   -0.01    0.48
  -7   2  -2    0.10    0.46
  -7   2  -2   -0.16    0.56
   7  -2   2   -0.40    0.47
   7  -2   2   -0.23    0.60
  -8   2  -2    2.52    0.74
  -8   2  -2    2.19    0.74
   8  -2   2    2.02    0.89
  -9   2  -2    3.35    1.06
 -10   2  -2    1.78    1.08
 -11   2  -2    1.25    1.11
 -11  -1   2    0.22    0.78
 -10  -1   2    1.20    0.96
  -9  -1   2    1.26    0.87
  -9  -1   2   -1.45    1.07
  -8  -1   2    0.92    1.00
  -8  -1   2    1.16    0.64
  -8  -1   2   -0.04    0.61
  -7  -1   2    2.36    0.65
  -7  -1   2    3.15    1.08
  -7  -1   2    1.06    0.70
  -6  -1   2   15.69    1.14
  -6  -1   2   13.33    1.43
  -6  -1   2   12.32    0.99
  -5  -1   2   13.15    1.19
  -5  -1   2   11.91    0.99
  -5  -1   2   12.59    1.28
  -4  -1   2   10.79    0.83
  -4  -1   2   12.41    0.82
  -4  -1   2   11.40    0.99
  -3  -1   2    3.80    0.63
  -3  -1   2    4.47    0.56
  -3  -1   2    3.90    0.46
  -2  -1   2    5.54    0.63
  -2  -1   2    5.67    0.47
  -2  -1   2    4.22    0.53
   1   1  -2    2.87    0.30
  -1  -1   2    2.15    0.32
  -1  -1   2    1.29    0.45
  -1  -1   2    2.17    0.31
   0   1  -2    0.22    0.20
   0  -1   2    0.07    0.16
   0  -1   2    0.00    0.19
   0  -1   2   -0.26    0.19
  -1   1  -2  979.75   24.45
   1  -1   2  955.96   27.46
   1  -1   2  965.75   24.88
  -2   1  -2   78.40    2.42
   2  -1   2   77.25    2.63
   2  -1   2   75.79    2.37
  -3   1  -2   -0.22    0.19
  -3   1  -2   -0.32    0.29
   3  -1   2    0.19    0.26
   3  -1   2   -0.27    0.20
  -4   1  -2    4.57    0.62
  -4   1  -2    4.92    0.50
   4  -1   2    5.29    0.53
  -5   1  -2   27.57    1.20
  -5   1  -2   30.49    1.62
  -5   1  -2   27.25    1.47
   5  -1   2   29.01    1.23
  -6   1  -2    0.80    0.60
  -6   1  -2    1.59    0.61
  -6   1  -2    2.25    0.52
   6  -1   2    1.89    0.46
  -7   1  -2    0.65    0.62
  -7   1  -2    1.11    0.52
  -7   1  -2    1.26    0.72
  -8   1  -2   10.60    1.14
  -8   1  -2   13.32    1.42
  -9   1  -2    0.24    0.57
  -9   1  -2    0.47    0.66
  -9   1  -2   -0.59    0.84
 -10   1  -2    3.23    1.16
 -10   1  -2    6.04    1.25
 -11   1  -2    0.56    0.97
 -12   1  -2    1.05    0.95
 -11   0   2    0.56    0.81
 -10   0   2   -0.10    0.82
  -9   0   2    0.20    0.78
  -9   0   2    0.59    0.75
  -8   0   2    0.67    1.00
  -8   0   2    0.35    0.53
  -8   0   2    0.21    0.63
  -7   0   2    1.57    0.60
  -7   0   2    0.07    0.80
  -7   0   2   -0.14    0.53
  -6   0   2    2.69    0.85
  -6   0   2    3.47    0.79
  -6   0   2    3.79    0.75
   5   0  -2   11.02    0.68
  -5   0   2   11.10    1.09
  -5   0   2   10.91    1.02
  -5   0   2   11.21    1.15
   4   0  -2    6.95    0.56
  -4   0   2    7.18    0.78
  -4   0   2    6.49    0.72
  -4   0   2    6.60    0.83
   3   0  -2    7.45    0.52
  -3   0   2    8.35    0.64
  -3   0   2    8.99    0.72
  -3   0   2    8.23    0.74
   2   0  -2    0.94    0.27
  -2   0   2    1.39    0.38
  -2   0   2    0.53    0.27
  -2   0   2    0.81    0.32
  -1   0   2    7.00    0.45
  -1   0   2    4.95    0.48
  -1   0   2    6.99    0.57
   0   0  -2    0.14    0.13
   0   0   2    0.12    0.15
   0   0   2    0.31    0.15
  -1   0  -2   14.62    0.63
   1   0   2   14.02    0.67
   1   0   2   14.10    0.60
  -2   0  -2    0.52    0.29
   2   0   2    0.25    0.23
   2   0   2   -0.91    0.19
  -3   0  -2    2.24    0.52
  -3   0  -2    1.75    0.35
  -3   0  -2    1.40    0.24
   3   0   2    1.54    0.27
  -4   0  -2   75.50    2.23
  -4   0  -2   74.32    2.49
   4   0   2   73.10    2.23
  -5   0  -2    2.87    0.48
  -5   0  -2    3.73    0.63
  -5   0  -2    3.49    0.78
   5   0   2    3.48    0.42
  -6   0  -2    4.88    0.92
  -6   0  -2    3.87    0.70
  -6   0  -2    4.54    0.63
   6   0   2    4.72    0.51
  -7   0  -2   -0.41    0.37
  -7   0  -2    0.21    0.73
  -7   0  -2    0.27    0.50
  -8   0  -2    1.39    0.93
  -8   0  -2    2.32    0.77
  -8   0  -2    3.62    0.76
  -9   0  -2    3.88    1.12
  -9   0  -2    6.80    1.13
  -9   0  -2    6.10    1.01
 -10   0  -2    1.94    0.92
 -10   0  -2    0.69    0.83
 -11   0  -2    1.27    1.21
 -11   0  -2    1.48    1.00
 -11   1   2    1.11    1.16
 -10   1   2    1.52    1.07
 -10   1   2    1.01    0.74
  -9   1   2   -0.84    0.69
  -9   1   2   -0.40    0.78
  -8   1   2    0.53    0.75
  -8   1   2    0.71    0.70
  -7   1   2    1.50    0.92
  -7   1   2    2.71    0.74
  -7   1   2    2.79    0.82
   6  -1  -2    0.48    0.42
  -6   1   2    0.83    0.67
  -6   1   2   -0.08    0.54
  -6   1   2    0.52    0.56
   5  -1  -2    6.13    0.66
  -5   1   2    6.98    0.89
  -5   1   2    5.46    0.82
  -5   1   2    6.78    0.90
   4  -1  -2   -0.35    0.26
  -4   1   2    0.58    0.47
  -4   1   2    0.35    0.43
  -4   1   2   -0.10    0.45
   3  -1  -2    1.36    0.36
  -3   1   2    0.98    0.37
  -3   1   2    1.51    0.45
  -3   1   2    0.79    0.35
   2  -1  -2   37.40    1.36
  -2   1   2   39.55    1.45
  -2   1   2   39.62    1.42
  -2   1   2   36.87    1.37
   1  -1  -2  603.51   15.68
  -1   1   2  609.58   15.46
  -1   1   2  601.77   15.03
   0  -1  -2   26.05    0.93
   0  -1  -2   26.43    0.95
   0   1   2   27.89    0.90
  -1  -1  -2  357.81    9.31
  -1  -1  -2  362.02    9.47
  -1  -1  -2  371.62   10.45
  -2  -1  -2   80.03    2.62
  -2  -1  -2   76.59    2.10
  -2  -1  -2   78.41    2.26
  -3  -1  -2    3.20    0.51
  -3  -1  -2    3.49    0.45
  -3  -1  -2    3.73    0.37
   3   1   2    1.86    0.25
  -4  -1  -2    0.34    0.48
  -4  -1  -2    0.14    0.24
  -4  -1  -2    0.08    0.27
   4   1   2    0.24    0.14
  -5  -1  -2    0.05    0.55
  -5  -1  -2    0.09    0.29
  -5  -1  -2   -0.40    0.29
   5   1   2    0.06    0.16
  -6  -1  -2   -0.27    0.43
  -6  -1  -2    0.05    0.34
  -6  -1  -2    0.22    0.37
   6   1   2   -0.08    0.20
  -7  -1  -2    0.72    0.47
  -7  -1  -2    0.37    0.79
  -7  -1  -2    1.46    0.54
  -8  -1  -2    1.01    0.93
  -8  -1  -2    1.45    0.67
  -8  -1  -2    1.45    0.63
  -9  -1  -2    3.07    0.73
  -9  -1  -2    0.13    1.06
  -9  -1  -2    2.52    0.80
 -10  -1  -2    3.56    0.99
 -10  -1  -2    3.86    0.95
 -10  -1  -2    0.35    1.16
 -11  -1  -2   -0.43    1.10
 -12  -1  -2    1.68    1.49
 -11   2   2   -0.07    0.78
 -11   2   2    0.61    1.26
 -10   2   2    0.43    1.04
 -10   2   2    0.20    0.95
  -9   2   2    2.06    0.97
  -9   2   2    0.75    0.72
  -8   2   2    9.02    1.36
  -8   2   2    9.02    1.33
  -7   2   2    7.51    1.16
  -7   2   2    6.49    1.11
   6  -2  -2    2.29    0.58
  -6   2   2    2.31    0.74
  -6   2   2    1.25    0.71
  -6   2   2    0.77    0.72
   5  -2  -2    1.94    0.52
  -5   2   2    1.95    0.56
  -5   2   2    2.21    0.61
  -5   2   2    1.20    0.57
   4  -2  -2    9.35    0.84
  -4   2   2    9.36    0.97
  -4   2   2    8.00    0.93
  -4   2   2    7.77    0.79
   3  -2  -2    0.87    0.38
  -3   2   2    1.54    0.43
  -3   2   2    0.31    0.32
  -3   2   2    0.84    0.38
   2  -2  -2   33.70    1.33
  -2   2   2   31.31    1.38
  -2   2   2   33.41    1.20
  -2   2   2   35.07    1.33
   1  -2  -2  442.28   11.77
  -1   2   2  447.12   11.26
  -1   2   2  448.20   11.59
   0  -2  -2  296.86    7.86
   0   2   2  299.76    7.70
   0   2   2  286.64    7.48
  -1  -2  -2  498.12   12.55
  -1  -2  -2  438.56   11.97
  -1  -2  -2  486.45   13.73
  -1  -2  -2  507.81   12.30
  -2  -2  -2   63.69    1.87
  -2  -2  -2   62.88    1.85
  -2  -2  -2   62.90    2.16
  -2  -2  -2   61.88    1.83
  -3  -2  -2    0.92    0.24
  -3  -2  -2    1.06    0.37
  -3  -2  -2    0.85    0.29
  -4  -2  -2   11.20    0.64
  -4  -2  -2    9.71    0.80
  -4  -2  -2   10.97    0.68
  -5  -2  -2   14.84    0.84
  -5  -2  -2   12.23    1.09
  -5  -2  -2   13.60    0.85
  -6  -2  -2   19.88    1.06
  -6  -2  -2   17.87    1.29
  -6  -2  -2   17.41    1.02
  -7  -2  -2   25.93    1.68
  -7  -2  -2   24.18    1.38
  -7  -2  -2   26.15    1.36
  -8  -2  -2    1.97    0.59
  -8  -2  -2    2.72    1.03
  -8  -2  -2    3.91    0.81
  -9  -2  -2    3.71    0.89
  -9  -2  -2    2.30    1.22
  -9  -2  -2    0.93    0.51
 -10  -2  -2    0.78    0.76
 -10  -2  -2   -0.96    0.77
 -11  -2  -2   -1.37    1.24
 -11  -2  -2    0.30    0.82
 -12  -2  -2   -0.99    1.57
 -13  -2  -2   -0.19    1.74
 -10   3   2    0.89    0.94
 -10   3   2   -0.36    1.01
  -9   3   2   -0.10    0.84
  -9   3   2   -0.16    0.89
  -8   3   2    1.63    0.90
  -8   3   2    1.19    0.90
  -7   3   2    7.88    1.20
  -7   3   2    7.32    1.14
   6  -3  -2   14.24    1.17
  -6   3   2   17.30    1.36
  -6   3   2   16.05    1.47
   5  -3  -2    1.22    0.55
  -5   3   2    0.83    0.50
  -5   3   2    0.52    0.49
  -5   3   2    0.65    0.46
   4  -3  -2    7.26    0.85
  -4   3   2    7.58    0.93
  -4   3   2    5.95    0.78
   3  -3  -2   36.22    1.59
  -3   3   2   31.31    1.56
  -3   3   2   35.69    1.55
   2  -3  -2   78.41    2.62
  -2   3   2   73.76    2.57
  -2   3   2   77.23    2.51
   1  -3  -2   56.88    2.05
  -1   3   2   57.39    1.93
  -1   3   2   58.86    1.99
   0  -3  -2  180.61    5.06
   0   3   2  176.47    4.90
   0   3   2  179.02    4.80
  -1  -3  -2  138.21    4.23
  -1  -3  -2  140.09    4.01
  -1  -3  -2  143.41    3.85
   1   3   2  139.28    3.83
  -2  -3  -2   14.06    0.62
  -2  -3  -2   14.21    0.86
  -2  -3  -2   15.13    0.73
  -2  -3  -2   15.28    0.77
  -3  -3  -2  143.34    3.98
  -3  -3  -2  141.79    3.92
  -3  -3  -2  139.78    4.60
  -3  -3  -2  147.54    3.83
  -4  -3  -2    1.89    0.52
  -4  -3  -2    0.92    0.38
  -4  -3  -2    1.81    0.30
  -5  -3  -2    7.05    0.72
  -5  -3  -2    6.72    0.97
  -5  -3  -2    7.39    0.54
  -6  -3  -2    0.08    0.64
  -6  -3  -2    0.14    0.32
  -6  -3  -2    0.21    0.31
  -7  -3  -2    0.59    0.80
  -7  -3  -2    0.35    0.37
  -7  -3  -2   -0.32    0.32
  -8  -3  -2   -0.64    0.47
  -8  -3  -2   -0.67    0.45
  -8  -3  -2   -0.21    0.86
  -9  -3  -2   21.37    2.21
  -9  -3  -2   23.32    1.60
 -10  -3  -2   11.26    1.82
 -10  -3  -2    9.91    1.31
 -11  -3  -2    1.18    1.49
 -11  -3  -2   -1.33    0.70
 -12  -3  -2   -0.29    0.94
 -12  -3  -2   -1.50    1.49
 -13  -3  -2   -1.59    1.78
 -10   4   2    0.68    1.12
 -10   4   2    1.24    1.31
  -9   4   2    0.62    0.90
  -9   4   2   -0.40    0.91
  -8   4   2   -0.45    0.79
  -8   4   2    0.03    0.57
  -7   4   2   -1.17    0.69
  -7   4   2    0.12    0.77
   6  -4  -2    7.30    1.07
  -6   4   2    5.36    0.96
  -6   4   2    4.84    1.06
   5  -4  -2   16.97    1.33
  -5   4   2   20.67    1.55
  -5   4   2   18.75    1.41
   4  -4  -2    2.03    0.66
  -4   4   2    2.97    0.79
  -4   4   2    1.98    0.63
   3  -4  -2   11.53    1.05
   3  -4  -2   10.75    0.64
  -3   4   2   11.00    1.13
  -3   4   2   11.60    1.05
   2  -4  -2   15.21    0.67
   2  -4  -2   14.49    0.99
  -2   4   2   14.52    1.09
  -2   4   2   15.50    0.98
   1  -4  -2   51.06    2.01
  -1   4   2   50.04    1.90
  -1   4   2   52.07    1.84
   0  -4  -2  149.78    4.50
   0  -4  -2  149.98    4.25
   0  -4  -2  154.76    4.51
   0   4   2  149.00    4.30
  -1  -4  -2   40.11    1.51
  -1  -4  -2   38.63    1.57
  -1  -4  -2   40.79    1.51
   1   4   2   40.26    1.40
  -2  -4  -2    2.54    0.40
  -2  -4  -2    2.72    0.51
  -2  -4  -2    2.23    0.39
   2   4   2    2.82    0.34
  -3  -4  -2   60.79    2.34
  -3  -4  -2   61.05    2.08
  -3  -4  -2   60.16    1.98
  -4  -4  -2  146.53    4.36
  -4  -4  -2  147.15    5.05
  -4  -4  -2  154.27    4.02
  -4  -4  -2  153.41    4.20
  -5  -4  -2   90.47    3.55
  -5  -4  -2   91.87    3.03
  -5  -4  -2   95.35    2.61
  -5  -4  -2   92.84    2.65
  -6  -4  -2    0.28    0.44
  -6  -4  -2    0.87    0.73
  -6  -4  -2    0.48    0.30
  -7  -4  -2    5.35    1.01
  -7  -4  -2    5.28    0.78
  -8  -4  -2    1.76    1.04
  -8  -4  -2    1.47    0.67
  -9  -4  -2    2.56    1.23
  -9  -4  -2    1.16    0.59
 -10  -4  -2    3.78    1.01
 -10  -4  -2    2.96    1.15
 -11  -4  -2   -0.63    1.29
 -11  -4  -2    0.33    0.61
 -12  -4  -2   -1.85    1.44
 -12  -4  -2    0.52    1.01
 -13  -4  -2   -1.03    1.88
 -13  -4  -2    0.31    0.86
  -9   5   2    1.53    1.08
  -9   5   2    1.61    1.20
  -8   5   2   -0.01    0.86
  -8   5   2    0.08    0.66
  -7   5   2   -0.53    0.78
  -7   5   2   -1.20    0.88
   6  -5  -2    2.66    0.78
  -6   5   2    1.32    0.68
  -6   5   2    1.36    0.68
   5  -5  -2    5.08    0.90
  -5   5   2    6.99    0.98
  -5   5   2    5.37    1.06
   4  -5  -2   10.26    1.21
  -4   5   2    9.91    1.09
  -4   5   2    9.35    1.11
   3  -5  -2    8.63    1.05
  -3   5   2    7.09    1.02
  -3   5   2    6.98    0.91
   2  -5  -2  123.33    4.03
   2  -5  -2  115.13    3.66
  -2   5   2  119.48    3.74
  -2   5   2  120.16    3.95
   1  -5  -2   14.65    1.03
   1  -5  -2   14.31    0.73
  -1   5   2   14.54    0.97
  -1   5   2   15.05    0.99
   0  -5  -2    6.66    0.60
   0  -5  -2    5.83    0.70
   0  -5  -2    5.84    0.75
   0   5   2    6.77    0.70
  -1  -5  -2    0.83    0.32
  -1  -5  -2    0.26    0.34
  -1  -5  -2    0.48    0.34
   1   5   2    0.42    0.34
  -2  -5  -2   23.12    1.12
  -2  -5  -2   20.54    1.14
   2   5   2   21.88    0.92
  -3  -5  -2    2.09    0.47
  -3  -5  -2    2.53    0.53
  -3  -5  -2    2.75    0.66
   3   5   2    2.41    0.30
  -4  -5  -2    2.89    0.51
  -4  -5  -2    4.31    0.84
  -4  -5  -2    2.87    0.52
  -5  -5  -2   21.86    0.78
  -5  -5  -2   20.64    1.43
  -5  -5  -2   22.43    0.98
  -5  -5  -2   20.97    1.26
  -6  -5  -2   15.54    1.55
  -6  -5  -2   14.26    1.05
  -7  -5  -2   13.48    1.59
  -7  -5  -2   11.63    1.22
  -8  -5  -2    0.46    0.47
  -8  -5  -2   -0.05    0.98
  -9  -5  -2   -0.36    0.66
  -9  -5  -2    0.54    1.12
 -10  -5  -2   -0.07    0.97
 -10  -5  -2    1.15    0.66
 -11  -5  -2   -0.37    1.40
 -11  -5  -2    0.05    0.60
 -12  -5  -2    0.55    0.96
 -12  -5  -2   -0.93    1.58
 -13  -5  -2   -0.79    1.35
  -9   6   2    0.11    0.89
  -8   6   2   -1.31    0.89
  -8   6   2    0.83    1.06
  -7   6   2   -0.05    1.01
  -7   6   2    1.81    1.03
   6  -6  -2    0.66    0.65
  -6   6   2   -0.97    0.77
  -6   6   2   -0.15    0.52
   5  -6  -2    1.67    0.73
  -5   6   2    1.26    0.77
  -5   6   2    0.39    0.77
   4  -6  -2   12.10    1.39
  -4   6   2    9.26    1.27
  -4   6   2    6.30    1.00
   3  -6  -2   -0.57    0.40
  -3   6   2    0.17    0.51
  -3   6   2   -0.09    0.43
   2  -6  -2    2.08    0.74
  -2   6   2    2.42    0.72
  -2   6   2    1.21    0.55
   1  -6  -2   85.58    2.80
   1  -6  -2   84.50    3.16
  -1   6   2   79.42    2.86
  -1   6   2   83.28    3.00
   0  -6  -2    7.57    0.81
   0  -6  -2    9.03    0.68
   0  -6  -2    7.44    0.96
   0   6   2    7.97    0.81
  -1  -6  -2   -0.30    0.35
  -1  -6  -2   -0.06    0.26
  -1  -6  -2   -0.11    0.36
   1   6   2    0.58    0.40
  -2  -6  -2    2.28    0.61
  -2  -6  -2    2.07    0.54
   2   6   2    1.57    0.38
  -3  -6  -2    0.05    0.31
  -3  -6  -2   -0.02    0.27
  -3  -6  -2   -0.65    0.49
   3   6   2    0.07    0.27
  -4  -6  -2    7.70    0.81
  -4  -6  -2    6.87    0.83
  -4  -6  -2    6.53    1.04
  -5  -6  -2    7.21    1.06
  -5  -6  -2    6.60    0.89
  -5  -6  -2    6.90    0.74
  -6  -6  -2   15.60    1.62
  -6  -6  -2   13.84    1.30
  -7  -6  -2    0.35    0.44
  -7  -6  -2    1.12    0.79
  -8  -6  -2    0.94    1.04
  -8  -6  -2    1.10    0.74
  -9  -6  -2    1.32    0.64
  -9  -6  -2    0.62    1.12
 -10  -6  -2    0.97    0.82
 -10  -6  -2   -0.39    1.17
 -11  -6  -2   -0.09    0.62
 -11  -6  -2   -1.43    0.86
 -12  -6  -2   -0.40    0.71
 -12  -6  -2   -2.00    1.56
  -8   7   2    1.80    1.25
  -7   7   2   -1.26    1.07
  -7   7   2    0.05    0.95
   6  -7  -2   -0.19    0.90
  -6   7   2    1.91    0.82
  -6   7   2   -0.36    0.93
   5  -7  -2    1.27    0.92
  -5   7   2    0.41    0.56
  -5   7   2    0.71    0.74
   4  -7  -2   -0.18    0.56
  -4   7   2    0.28    0.67
  -4   7   2    1.20    0.73
   3  -7  -2    3.71    1.01
  -3   7   2    4.23    0.94
  -3   7   2    3.22    0.72
   2  -7  -2    9.82    1.20
  -2   7   2    9.48    1.06
  -2   7   2    7.57    1.07
   1  -7  -2   33.54    1.86
  -1   7   2   38.86    1.88
  -1   7   2   33.41    1.71
   0  -7  -2    8.25    0.84
   0  -7  -2    5.41    0.82
   0  -7  -2    6.22    0.98
   0   7   2    7.07    0.90
  -1  -7  -2   17.01    1.09
  -1  -7  -2   19.33    1.35
  -1  -7  -2   17.55    1.19
   1   7   2   19.31    1.17
  -2  -7  -2    0.27    0.39
  -2  -7  -2    0.18    0.33
  -2  -7  -2    0.55    0.55
   2   7   2    0.61    0.41
  -3  -7  -2    1.87    0.53
  -3  -7  -2    2.54    0.66
  -3  -7  -2    2.03    0.62
   3   7   2    1.96    0.41
  -4  -7  -2   14.19    1.46
  -4  -7  -2   11.91    1.07
  -4  -7  -2    9.60    1.03
  -5  -7  -2   -0.07    0.43
  -5  -7  -2   -0.75    0.72
  -5  -7  -2   -0.02    0.35
  -6  -7  -2   -0.56    0.50
  -6  -7  -2    0.19    0.89
  -7  -7  -2    1.69    1.11
  -7  -7  -2    1.58    0.76
  -8  -7  -2   22.16    2.35
  -8  -7  -2   24.73    1.68
  -9  -7  -2    0.36    0.88
  -9  -7  -2   -0.45    0.44
 -10  -7  -2    0.69    1.05
 -10  -7  -2   -0.19    0.76
 -11  -7  -2    2.58    1.62
 -11  -7  -2    2.53    0.95
 -12  -7  -2   -1.22    1.52
 -12  -7  -2    0.42    0.82
   7  -8  -2    0.39    1.17
  -7   8   2    0.76    1.13
   6  -8  -2    0.64    0.83
  -6   8   2    0.18    0.96
  -6   8   2   -0.68    0.87
   5  -8  -2   -0.37    0.93
  -5   8   2    1.29    0.89
  -5   8   2    0.48    0.86
   4  -8  -2    1.75    0.83
  -4   8   2    1.00    0.63
  -4   8   2    0.80    0.80
   3  -8  -2    5.15    1.20
  -3   8   2    5.64    1.10
  -3   8   2    5.76    1.04
   2  -8  -2    0.58    0.62
  -2   8   2    1.71    0.73
  -2   8   2    1.79    0.78
   1  -8  -2    8.31    1.15
  -1   8   2    6.87    1.02
  -1   8   2    7.21    1.03
   0  -8  -2    3.59    0.93
   0  -8  -2    3.89    0.71
   0   8   2    3.86    0.74
  -1  -8  -2    5.98    0.83
  -1  -8  -2    6.06    0.91
  -1  -8  -2    5.24    0.91
   1   8   2    5.37    0.79
  -2  -8  -2   12.65    1.34
  -2  -8  -2   16.85    1.27
  -2  -8  -2   15.80    1.26
   2   8   2   13.91    0.96
  -3  -8  -2    5.60    1.03
  -3  -8  -2    5.67    0.95
  -3  -8  -2    5.74    0.86
  -4  -8  -2    8.51    1.28
  -4  -8  -2    8.03    1.06
  -4  -8  -2    6.27    0.86
  -5  -8  -2    0.07    0.54
  -5  -8  -2   -0.35    0.60
  -5  -8  -2    1.35    0.98
  -6  -8  -2    3.07    1.22
  -6  -8  -2    2.30    0.69
  -7  -8  -2   11.66    1.34
  -7  -8  -2   11.57    1.81
  -8  -8  -2    0.95    0.77
  -8  -8  -2    0.54    1.19
  -9  -8  -2    4.56    1.12
  -9  -8  -2    6.63    1.49
 -10  -8  -2    0.54    0.88
 -10  -8  -2   -1.16    1.16
 -11  -8  -2   -1.45    1.37
 -11  -8  -2    1.21    0.84
 -12  -8  -2    0.11    1.72
 -12  -8  -2    0.79    0.94
   7  -9  -2   -1.00    1.25
  -7   9   2    0.18    1.25
   6  -9  -2   -1.46    0.67
  -6   9   2   -0.82    0.96
   5  -9  -2   -1.61    0.93
  -5   9   2    1.17    0.78
  -5   9   2    0.05    0.99
   4  -9  -2    1.83    0.94
  -4   9   2    2.51    1.00
  -4   9   2    0.58    0.94
   3  -9  -2   -1.24    0.82
  -3   9   2    0.42    0.58
  -3   9   2   -0.21    0.50
   2  -9  -2    5.72    1.27
  -2   9   2    4.24    0.98
  -2   9   2    5.97    1.11
   1  -9  -2    3.62    1.11
  -1   9   2    4.82    0.96
  -1   9   2    4.14    0.94
   0  -9  -2   -0.25    0.57
   0  -9  -2    0.51    0.62
   0   9   2    0.44    0.59
  -1  -9  -2    5.08    0.93
  -1  -9  -2    6.35    1.07
   1   9   2    5.31    0.85
  -2  -9  -2    2.07    0.64
  -2  -9  -2    2.63    0.77
  -2  -9  -2    2.12    0.82
  -3  -9  -2    1.02    0.62
  -3  -9  -2   -0.28    0.75
  -3  -9  -2    1.13    0.67
  -4  -9  -2   -0.41    0.84
  -4  -9  -2    0.20    0.62
  -4  -9  -2    0.23    0.69
  -5  -9  -2    2.03    0.92
  -5  -9  -2    1.69    0.75
  -5  -9  -2    1.88    0.79
  -6  -9  -2    5.78    1.27
  -6  -9  -2    6.83    1.14
  -7  -9  -2    1.24    1.21
  -7  -9  -2    0.65    0.76
  -8  -9  -2   -0.35    0.51
  -8  -9  -2    0.18    1.26
  -9  -9  -2    1.98    1.18
  -9  -9  -2    1.38    0.94
 -10  -9  -2    1.00    1.20
 -10  -9  -2    1.44    1.04
 -11  -9  -2   -1.08    1.49
 -11  -9  -2    0.97    0.87
   6 -10  -2   -2.16    1.13
  -6  10   2    0.37    0.91
   5 -10  -2   -1.73    1.09
  -5  10   2    0.43    0.82
   4 -10  -2    0.23    1.10
  -4  10   2    0.90    1.03
  -4  10   2    0.68    0.98
   3 -10  -2    2.59    1.01
  -3  10   2    2.82    1.23
  -3  10   2    2.39    1.09
   2 -10  -2    0.33    0.74
  -2  10   2    0.18    0.80
  -2  10   2    0.51    0.63
   1 -10  -2    0.66    0.72
  -1  10   2    0.57    0.60
  -1  10   2    2.11    0.86
   0 -10  -2    2.12    0.89
   0  10   2    2.06    0.80
  -1 -10  -2   -0.03    0.81
  -1 -10  -2    0.07    0.48
  -2 -10  -2    4.67    1.04
  -2 -10  -2    2.63    0.99
  -3 -10  -2    5.93    1.18
  -3 -10  -2    7.41    1.11
  -3 -10  -2    5.17    1.19
  -4 -10  -2    8.04    1.15
  -4 -10  -2    8.09    1.28
  -4 -10  -2    7.69    1.42
  -5 -10  -2   -0.56    1.01
  -5 -10  -2    0.65    0.79
  -5 -10  -2   -0.41    0.75
  -6 -10  -2    5.83    1.51
  -6 -10  -2    5.37    1.13
  -7 -10  -2    1.98    1.36
  -7 -10  -2    2.72    0.98
  -8 -10  -2   -0.40    0.97
  -8 -10  -2    0.91    0.70
  -9 -10  -2   -0.21    0.91
  -9 -10  -2   -0.28    1.40
 -10 -10  -2    0.53    1.03
 -10 -10  -2    0.22    1.57
 -11 -10  -2   -2.40    1.46
 -11 -10  -2    0.55    0.90
   4 -11  -2   -1.26    1.15
  -4  11   2    1.21    1.19
   3 -11  -2    1.04    1.27
  -3  11   2    2.28    1.15
  -3  11   2    3.05    1.19
   2 -11  -2   -1.00    0.99
  -2  11   2   -0.18    0.85
  -2  11   2    0.27    0.65
   1 -11  -2   -1.52    0.91
  -1  11   2    0.13    0.81
   0 -11  -2   -0.06    0.75
   0  11   2    2.43    0.97
  -1 -11  -2   -1.31    0.83
  -1 -11  -2   -0.51    0.46
  -2 -11  -2   -1.01    0.54
  -2 -11  -2   -0.26    0.73
  -3 -11  -2   -0.17    0.73
  -3 -11  -2   -0.01    0.66
  -4 -11  -2    3.43    0.90
  -4 -11  -2    3.82    1.32
  -4 -11  -2    1.99    0.86
  -5 -11  -2    0.46    1.16
  -5 -11  -2    1.22    0.87
  -5 -11  -2    1.72    0.98
  -6 -11  -2   -0.64    0.78
  -6 -11  -2    1.82    1.38
  -7 -11  -2    1.12    1.02
  -7 -11  -2   -0.32    1.03
  -8 -11  -2   -0.39    0.63
  -8 -11  -2    1.48    1.59
  -9 -11  -2    0.20    1.08
  -9 -11  -2    0.31    1.60
 -10 -11  -2    0.26    1.66
 -10 -11  -2    0.14    1.16
   3 -12  -2   -0.37    0.95
  -3  12   2    0.52    1.19
   2 -12  -2   -0.55    0.81
  -2  12   2    0.73    1.05
   1 -12  -2    0.08    0.85
  -1  12   2    0.40    0.97
   0 -12  -2   -0.02    1.12
   0  12   2    0.18    0.90
  -1 -12  -2    0.92    0.88
  -1 -12  -2    1.18    0.76
  -2 -12  -2    4.50    1.34
  -2 -12  -2    3.43    0.95
  -3 -12  -2    1.03    1.09
  -3 -12  -2   -0.73    0.84
  -4 -12  -2    1.05    1.07
  -4 -12  -2    2.42    1.11
  -5 -12  -2    2.94    1.53
  -5 -12  -2    1.38    1.04
  -6 -12  -2   -0.24    0.98
  -6 -12  -2   -1.04    1.32
  -7 -12  -2   -0.19    1.06
  -7 -12  -2   -0.10    1.15
  -8 -12  -2    0.83    1.69
  -8 -12  -2    1.13    0.92
  -9 -12  -2   -1.45    1.18
  -9 -12  -2    0.62    1.21
   1 -13  -2   -0.66    0.94
  -1  13   2    0.54    1.14
   0 -13  -2   -1.39    1.15
   0  13   2    0.84    1.10
  -1 -13  -2    0.37    0.92
  -2 -13  -2    0.44    1.08
  -2 -13  -2   -0.69    1.18
  -3 -13  -2    0.26    0.75
  -3 -13  -2   -1.49    1.07
  -4 -13  -2   -1.38    1.02
  -4 -13  -2   -0.85    1.21
  -5 -13  -2    0.47    0.85
  -6 -13  -2   -0.40    0.80
  -6 -13  -2   -1.41    1.40
  -7 -13  -2   -0.21    1.14
  -7 -13  -2   -0.85    1.64
  -3 -14  -2    3.30    1.45
  -4 -14  -2    0.02    0.92
  -4 -12   3    1.76    1.20
  -4 -12   3   -0.61    1.20
  -3 -12   3    2.09    1.42
  -3 -12   3   -2.57    1.16
  -2 -12   3   -1.72    1.18
  -2 -12   3    2.23    1.34
  -1 -12   3   -1.04    0.87
   0 -12   3   -0.84    1.30
  -6 -11   3    0.42    1.16
  -6 -11   3    1.00    1.28
  -5 -11   3    1.21    1.08
  -5 -11   3    0.19    1.06
  -4 -11   3    0.87    1.16
  -4 -11   3   -1.08    0.98
  -3 -11   3    1.18    1.11
  -3 -11   3    5.71    1.56
  -3 -11   3    2.89    1.14
  -2 -11   3    2.67    1.28
  -2 -11   3    1.59    0.92
  -1 -11   3   -0.36    1.03
  -1 -11   3    1.49    1.17
   0 -11   3    2.10    1.05
   1 -11   3   -0.13    1.16
   2 -11   3    3.44    1.49
   3 -11   3   -0.20    1.26
  -8 -10   3    1.16    1.36
  -8 -10   3   -1.06    1.48
  -7 -10   3    1.16    1.26
  -7 -10   3    0.57    1.49
  -6 -10   3   -0.08    0.75
  -6 -10   3   -0.02    1.26
  -5 -10   3    1.39    1.21
  -5 -10   3   -0.40    0.87
  -4 -10   3    3.03    1.23
  -4 -10   3    0.68    0.70
  -4 -10   3    0.79    0.70
  -3 -10   3    0.17    0.61
  -3 -10   3    0.60    1.00
  -3 -10   3    0.41    0.85
  -2 -10   3    0.99    0.83
  -2 -10   3    1.99    0.83
  -2 -10   3    1.83    1.08
  -1 -10   3    2.71    1.09
  -1 -10   3    6.46    1.48
   0 -10   3    8.39    1.61
   0 -10   3    5.14    1.29
   1 -10   3   -0.41    0.65
   1 -10   3    1.61    1.08
   2 -10   3    1.58    0.94
   3 -10   3    1.00    0.92
  -4  10  -3   -0.82    0.97
   4 -10   3   -1.14    1.14
  -5  10  -3    1.14    0.96
   5 -10   3    0.67    1.26
  -9  -9   3    0.54    1.29
  -9  -9   3   -1.63    1.02
  -8  -9   3    0.31    0.86
  -8  -9   3   -0.94    1.38
  -7  -9   3    4.65    1.15
  -7  -9   3    1.79    1.40
  -6  -9   3   -0.12    1.12
  -6  -9   3    0.87    0.97
  -5  -9   3    7.06    1.21
  -5  -9   3    8.15    1.65
  -4  -9   3    0.42    0.81
  -4  -9   3    0.63    0.60
  -4  -9   3    1.48    0.80
  -3  -9   3    1.43    0.94
  -3  -9   3    0.52    0.57
  -3  -9   3   -0.77    0.62
  -2  -9   3    5.34    1.11
  -2  -9   3    5.98    1.33
  -2  -9   3    5.68    1.05
  -1  -9   3    0.41    0.65
  -1  -9   3    0.09    0.82
  -1  -9   3    0.22    0.53
   0  -9   3    0.74    0.74
   0  -9   3   -0.08    0.76
   1  -9   3    1.11    0.91
   1  -9   3   -0.56    0.77
   2  -9   3    0.71    0.92
   2  -9   3    1.68    1.00
  -3   9  -3   -0.47    0.74
   3  -9   3   -0.02    0.66
  -4   9  -3    1.20    0.98
   4  -9   3    0.18    0.84
  -5   9  -3    0.68    0.78
   5  -9   3    0.94    1.23
  -6   9  -3    0.48    0.83
   6  -9   3    0.71    1.36
  -9  -8   3    0.69    1.62
  -9  -8   3    0.25    0.81
  -8  -8   3    0.68    1.06
  -8  -8   3    1.91    1.23
  -7  -8   3   -0.94    0.86
  -7  -8   3   -1.07    1.06
  -6  -8   3    3.84    0.97
  -6  -8   3    3.95    1.36
  -5  -8   3    3.12    1.00
  -5  -8   3    1.60    0.89
  -4  -8   3    1.43    0.99
  -4  -8   3    1.16    0.68
  -4  -8   3    0.98    0.77
  -3  -8   3    0.50    0.48
  -3  -8   3   -0.35    0.39
  -3  -8   3   -0.09    0.54
  -2  -8   3    0.63    0.68
  -2  -8   3    0.63    0.84
  -2  -8   3   -0.16    0.55
  -1  -8   3    3.48    0.85
  -1  -8   3    3.54    0.93
  -1  -8   3    3.38    0.80
   0  -8   3    0.63    0.82
   0  -8   3    0.78    0.74
   0  -8   3   -0.11    0.50
  -1   8  -3    6.17    0.97
   1  -8   3    5.82    1.07
   1  -8   3    4.37    1.00
  -2   8  -3    0.20    0.67
   2  -8   3   -0.08    0.45
   2  -8   3    1.34    0.85
  -3   8  -3    2.57    0.88
   3  -8   3    3.26    1.09
   3  -8   3    2.83    1.01
  -4   8  -3   -0.89    0.69
   4  -8   3    0.17    0.70
  -5   8  -3    1.39    0.94
   5  -8   3    0.26    0.99
  -6   8  -3    1.57    0.89
   6  -8   3   -0.76    1.03
  -7   8  -3   -0.87    0.98
   7  -8   3   -2.09    1.11
 -10  -7   3    0.35    1.20
 -10  -7   3   -0.17    1.30
  -9  -7   3   -0.09    1.48
  -9  -7   3   -0.16    0.73
  -8  -7   3    0.99    0.99
  -8  -7   3   -0.25    1.26
  -7  -7   3    0.28    0.86
  -7  -7   3    0.81    0.66
  -6  -7   3    1.55    1.04
  -6  -7   3    1.22    0.66
  -5  -7   3   10.63    1.50
  -5  -7   3   10.63    1.37
  -4  -7   3   27.09    1.65
  -4  -7   3   26.66    2.02
  -4  -7   3   25.46    1.72
  -3  -7   3   32.47    2.17
  -3  -7   3   31.27    1.83
  -3  -7   3   32.40    1.74
  -2  -7   3    0.99    0.59
  -2  -7   3    1.19    0.83
  -2  -7   3    0.83    0.51
  -1  -7   3   10.08    1.39
  -1  -7   3    8.62    1.17
  -1  -7   3    7.25    0.96
   0   7  -3   28.16    1.55
   0  -7   3   27.77    1.83
   0  -7   3   29.35    1.90
   0  -7   3   26.71    1.50
  -1   7  -3    2.83    0.81
   1  -7   3    4.37    0.88
   1  -7   3    3.15    0.94
   1  -7   3    3.79    0.74
  -2   7  -3    3.48    0.83
   2  -7   3    4.54    1.08
   2  -7   3    3.81    0.86
  -3   7  -3    3.80    0.94
   3  -7   3    6.18    1.14
   3  -7   3    2.93    0.83
  -4   7  -3    1.26    0.76
   4  -7   3    1.35    0.82
   4  -7   3    0.51    0.82
  -5   7  -3    2.10    0.92
   5  -7   3    2.72    1.10
  -6   7  -3    5.17    1.26
   6  -7   3    2.12    1.15
  -7   7  -3    1.81    1.10
   7  -7   3   -0.85    1.02
  -8   7  -3    0.60    0.85
 -10  -6   3   -0.55    1.02
 -10  -6   3    0.31    1.28
  -9  -6   3    1.10    1.00
  -9  -6   3   -0.67    1.42
  -8  -6   3    1.43    0.90
  -8  -6   3    2.36    1.39
  -7  -6   3    1.66    0.73
  -7  -6   3    2.83    1.27
  -6  -6   3    1.08    0.79
  -6  -6   3    1.48    0.65
  -5  -6   3    2.23    0.77
  -5  -6   3    1.44    0.73
  -4  -6   3    0.11    0.53
  -4  -6   3    0.26    0.51
  -4  -6   3    0.01    0.68
  -3  -6   3    8.85    1.05
  -3  -6   3   11.77    1.17
  -3  -6   3   12.60    1.45
  -2  -6   3   35.84    1.84
  -2  -6   3   34.38    2.00
  -2  -6   3   33.49    1.63
   1   6  -3    8.26    0.77
  -1  -6   3    8.00    1.18
  -1  -6   3    8.03    0.89
  -1  -6   3    5.79    0.93
   0   6  -3    6.87    0.79
   0  -6   3    9.31    1.23
   0  -6   3    7.49    0.85
   0  -6   3    8.21    1.06
  -1   6  -3   29.30    1.54
   1  -6   3   29.04    1.83
   1  -6   3   29.20    1.70
   1  -6   3   29.06    1.39
  -2   6  -3    2.66    0.69
   2  -6   3    0.98    0.69
   2  -6   3    0.92    0.63
   2  -6   3    1.82    0.51
  -3   6  -3   12.07    1.26
   3  -6   3   13.69    1.50
   3  -6   3   14.18    1.42
  -4   6  -3    3.02    0.85
   4  -6   3    2.22    0.88
   4  -6   3    3.06    0.80
  -5   6  -3    1.75    0.69
   5  -6   3    0.56    0.63
   5  -6   3    1.06    0.59
  -6   6  -3   -0.39    0.69
   6  -6   3   -0.49    0.53
  -7   6  -3    0.53    0.66
   7  -6   3   -0.38    0.89
  -8   6  -3    2.23    1.13
  -9   6  -3    0.20    1.10
 -11  -5   3    0.15    1.20
 -11  -5   3   -4.52    1.60
 -10  -5   3   -0.06    0.72
 -10  -5   3   -0.53    1.59
  -9  -5   3   -0.71    0.54
  -9  -5   3   -1.42    1.32
  -8  -5   3    0.30    1.20
  -8  -5   3    1.16    0.68
  -7  -5   3    0.71    1.10
  -7  -5   3    0.23    0.69
  -6  -5   3    0.54    0.51
  -6  -5   3   -0.25    0.85
  -5  -5   3    0.60    0.73
  -5  -5   3    0.26    0.44
  -4  -5   3   43.71    1.89
  -4  -5   3   43.76    2.04
  -4  -5   3   39.23    2.28
  -3  -5   3   48.89    2.06
  -3  -5   3   46.16    2.35
  -3  -5   3   46.96    2.00
   2   5  -3    7.54    0.60
  -2  -5   3    9.95    1.01
  -2  -5   3    8.40    1.15
  -2  -5   3    8.12    0.90
   1   5  -3   15.46    0.87
  -1  -5   3   16.19    1.14
  -1  -5   3   13.59    0.94
  -1  -5   3   14.73    1.25
   0   5  -3    0.84    0.38
   0  -5   3    0.02    0.37
   0  -5   3    0.46    0.33
   0  -5   3    0.39    0.37
  -1   5  -3    1.80    0.51
   1  -5   3    2.60    0.64
   1  -5   3    2.83    0.67
   1  -5   3    2.04    0.44
  -2   5  -3    7.01    0.90
   2  -5   3    6.90    1.00
   2  -5   3    6.27    0.65
   2  -5   3    7.64    0.96
  -3   5  -3   -0.03    0.35
  -3   5  -3    0.69    0.38
   3  -5   3    0.12    0.37
   3  -5   3   -0.20    0.52
  -4   5  -3    5.49    0.88
   4  -5   3    6.67    1.07
   4  -5   3    6.05    0.99
  -5   5  -3    0.13    0.63
   5  -5   3   -0.14    0.60
   5  -5   3    0.82    0.67
  -6   5  -3    6.87    1.23
   6  -5   3    6.42    1.06
  -7   5  -3    1.41    0.90
   7  -5   3    1.61    0.92
  -8   5  -3   -0.22    0.80
  -9   5  -3    3.77    1.25
 -10   5  -3   -0.32    0.84
 -11  -4   3    0.30    1.73
 -11  -4   3    0.58    1.13
 -10  -4   3    4.34    1.83
 -10  -4   3    0.20    0.69
  -9  -4   3   -0.96    0.77
  -9  -4   3    0.30    1.35
  -8  -4   3    1.62    1.30
  -8  -4   3    1.36    0.85
  -7  -4   3    1.46    1.14
  -7  -4   3    0.75    0.70
  -6  -4   3    0.07    0.84
  -6  -4   3    0.34    0.46
  -5  -4   3    0.72    0.46
  -5  -4   3    0.69    0.58
  -5  -4   3    1.86    0.84
  -4  -4   3    1.48    0.49
  -4  -4   3    1.20    0.46
  -4  -4   3    2.57    0.70
  -3  -4   3   40.01    1.70
  -3  -4   3   36.90    1.67
  -3  -4   3   38.92    2.04
   2   4  -3    0.79    0.28
  -2  -4   3    0.59    0.30
  -2  -4   3    0.85    0.43
  -2  -4   3    0.91    0.56
   1   4  -3   13.41    0.75
  -1  -4   3   12.20    1.01
  -1  -4   3   13.64    0.94
  -1  -4   3   13.79    0.87
   0   4  -3  175.85    4.99
   0  -4   3  174.74    5.88
   0  -4   3  177.57    4.85
   0  -4   3  173.31    5.34
  -1   4  -3   92.73    3.02
   1  -4   3   88.58    3.24
   1  -4   3   94.03    3.50
   1  -4   3   96.63    2.80
  -2   4  -3    4.40    0.69
   2  -4   3    3.67    0.74
   2  -4   3    5.29    0.75
   2  -4   3    3.80    0.48
  -3   4  -3    4.07    0.68
  -3   4  -3    3.79    0.51
   3  -4   3    4.43    0.80
   3  -4   3    3.72    0.65
  -4   4  -3    1.36    0.60
  -4   4  -3    1.63    0.45
   4  -4   3    2.32    0.66
   4  -4   3    1.16    0.59
  -5   4  -3    7.89    1.06
   5  -4   3    9.89    1.23
   5  -4   3    8.63    1.10
  -6   4  -3    0.36    0.49
   6  -4   3   -0.29    0.43
   6  -4   3    0.10    0.60
  -7   4  -3    0.39    0.56
   7  -4   3    0.17    0.72
   7  -4   3   -0.55    0.52
  -8   4  -3    3.06    1.02
  -9   4  -3   -0.01    0.63
 -10   4  -3    0.75    1.12
 -11  -3   3    1.95    1.24
 -10  -3   3    0.13    0.69
 -10  -3   3   -0.24    1.48
  -9  -3   3    0.57    0.82
  -9  -3   3   -0.11    0.96
  -8  -3   3    0.68    0.60
  -8  -3   3    1.18    1.24
  -7  -3   3    0.32    1.03
  -7  -3   3    1.07    0.73
  -6  -3   3   -0.43    0.54
  -6  -3   3    0.92    0.89
  -5  -3   3   11.58    1.19
  -5  -3   3   15.47    1.52
  -5  -3   3   13.19    0.83
  -4  -3   3    7.74    0.61
  -4  -3   3    8.65    1.13
  -4  -3   3    7.98    0.75
  -4  -3   3    7.28    0.92
  -3  -3   3    0.69    0.44
  -3  -3   3    0.95    0.39
  -3  -3   3    0.86    0.38
  -3  -3   3    0.90    0.32
   2   3  -3   18.63    0.84
  -2  -3   3   18.68    1.04
  -2  -3   3   19.31    1.04
  -2  -3   3   17.45    1.23
   1   3  -3    5.93    0.54
  -1  -3   3    7.52    0.89
  -1  -3   3    6.83    0.63
  -1  -3   3    6.17    0.72
   0   3  -3   37.61    1.40
   0  -3   3   35.34    1.56
   0  -3   3   37.66    1.34
   0  -3   3   36.39    1.76
  -1   3  -3   47.95    1.80
   1  -3   3   49.81    1.94
   1  -3   3   48.01    1.56
   1  -3   3   46.98    2.08
  -2   3  -3   18.38    1.10
   2  -3   3   19.22    0.80
   2  -3   3   18.40    1.20
   2  -3   3   20.51    1.13
  -3   3  -3   -0.01    0.42
  -3   3  -3    0.72    0.29
   3  -3   3    0.22    0.44
   3  -3   3    0.24    0.31
  -4   3  -3    8.54    0.62
  -4   3  -3    9.66    1.01
   4  -3   3   11.44    1.16
   4  -3   3   10.58    1.03
  -5   3  -3    0.91    0.41
  -5   3  -3    1.50    0.52
   5  -3   3    1.83    0.57
   5  -3   3    2.47    0.69
  -6   3  -3    1.24    0.57
   6  -3   3    0.00    0.42
   6  -3   3   -0.35    0.31
  -7   3  -3    4.88    0.93
   7  -3   3    6.59    1.01
   7  -3   3    5.08    1.03
  -8   3  -3    0.47    0.76
   8  -3   3    0.18    0.75
  -9   3  -3    0.54    0.71
 -10   3  -3    0.35    1.00
 -11   3  -3    0.13    1.13
 -11  -2   3   -0.95    0.97
 -10  -2   3    0.09    0.92
  -9  -2   3   -1.73    1.07
  -9  -2   3    0.82    0.67
  -8  -2   3   -0.36    1.14
  -8  -2   3    1.20    0.67
  -7  -2   3   17.38    1.95
  -7  -2   3   12.47    1.45
  -6  -2   3   14.34    1.37
  -6  -2   3   15.35    1.15
  -6  -2   3   17.30    1.75
  -5  -2   3    2.60    0.61
  -5  -2   3    2.48    0.54
  -5  -2   3    2.76    0.47
  -5  -2   3    2.13    0.67
  -4  -2   3   14.35    1.00
  -4  -2   3   13.72    1.07
  -4  -2   3   13.99    0.82
  -4  -2   3   12.92    0.81
  -3  -2   3  117.63    3.41
  -3  -2   3  108.82    3.21
  -3  -2   3  109.27    3.94
  -3  -2   3  106.36    3.43
   2   2  -3   26.81    1.04
  -2  -2   3   28.51    1.24
  -2  -2   3   26.28    1.20
  -2  -2   3   25.09    1.36
   1   2  -3    0.34    0.24
  -1  -2   3    0.01    0.36
  -1  -2   3    0.19    0.20
  -1  -2   3   -0.11    0.26
   0   2  -3   36.11    1.33
   0  -2   3   37.17    1.25
   0  -2   3   36.79    1.62
   0  -2   3   38.10    1.50
  -1   2  -3   77.60    2.46
   1  -2   3   76.65    2.57
   1  -2   3   77.02    2.82
   1  -2   3   77.61    2.15
  -2   2  -3   28.16    1.27
   2  -2   3   26.67    1.38
   2  -2   3   27.00    1.25
  -3   2  -3    4.32    0.65
  -3   2  -3    3.62    0.37
   3  -2   3    5.47    0.71
   3  -2   3    5.22    0.66
  -4   2  -3   64.89    2.04
  -4   2  -3   73.67    2.64
   4  -2   3   68.67    2.74
   4  -2   3   69.43    2.47
  -5   2  -3    9.81    1.07
  -5   2  -3    9.27    0.68
   5  -2   3   10.98    1.17
   5  -2   3    9.90    0.93
  -6   2  -3    3.24    0.69
  -6   2  -3    2.75    0.54
   6  -2   3    3.33    0.61
   6  -2   3    4.31    0.86
  -7   2  -3    0.22    0.49
   7  -2   3    0.88    0.68
   7  -2   3   -0.06    0.50
  -8   2  -3    0.04    0.70
   8  -2   3    0.35    0.77
  -9   2  -3    0.43    0.65
   9  -2   3    1.11    0.93
 -10   2  -3    0.51    0.86
 -11   2  -3    0.27    1.06
 -11  -1   3   -0.14    0.82
 -10  -1   3    0.18    0.89
  -9  -1   3    0.06    0.83
  -8  -1   3   -1.45    0.94
  -8  -1   3   -0.53    0.69
  -7  -1   3    0.36    0.95
  -7  -1   3   -0.78    0.57
  -7  -1   3    0.06    0.59
  -6  -1   3   18.58    1.56
  -6  -1   3   22.19    1.44
  -6  -1   3   20.18    1.38
  -5  -1   3   31.72    1.63
  -5  -1   3   33.91    1.83
  -5  -1   3   29.88    1.46
  -4  -1   3   86.08    3.24
  -4  -1   3   82.74    2.93
  -4  -1   3   88.49    2.78
  -3  -1   3    0.99    0.34
  -3  -1   3    0.81    0.47
  -3  -1   3    0.67    0.43
  -2  -1   3   20.64    1.16
  -2  -1   3   24.73    1.01
  -2  -1   3   23.16    1.06
   1   1  -3    5.68    0.49
  -1  -1   3    6.24    0.57
  -1  -1   3    5.37    0.66
  -1  -1   3    7.00    0.53
   0   1  -3   12.06    0.66
   0  -1   3   13.89    0.60
   0  -1   3   12.93    0.78
   0  -1   3   12.74    0.71
  -1   1  -3   82.96    2.51
   1  -1   3   83.24    2.84
   1  -1   3   80.42    2.58
  -2   1  -3  192.52    5.40
   2  -1   3  196.78    6.05
   2  -1   3  193.61    5.46
  -3   1  -3    5.70    0.64
   3  -1   3    8.09    0.71
   3  -1   3    7.52    0.79
  -4   1  -3    5.87    0.43
  -4   1  -3    7.25    0.81
   4  -1   3    6.00    0.63
   4  -1   3    6.03    0.81
  -5   1  -3   43.46    1.53
  -5   1  -3   47.01    2.00
   5  -1   3   43.95    2.10
   5  -1   3   46.18    1.74
  -6   1  -3    9.47    1.04
  -6   1  -3    7.96    0.75
   6  -1   3    8.37    0.82
   6  -1   3   10.06    1.19
  -7   1  -3   -0.02    0.55
  -7   1  -3    0.63    0.48
  -8   1  -3    1.20    0.60
  -9   1  -3    3.45    1.02
 -10   1  -3    3.58    0.93
  10  -1   3    1.06    1.06
 -11   1  -3    0.12    0.93
 -12   1  -3   -0.54    1.10
 -11   0   3   -0.48    0.73
 -10   0   3    3.17    1.16
  -9   0   3    2.78    1.03
  -8   0   3   -0.19    0.47
  -8   0   3    0.04    0.65
  -7   0   3    9.91    1.48
  -7   0   3    8.65    1.14
  -7   0   3    9.38    1.19
  -6   0   3    0.43    0.61
  -6   0   3    0.70    0.83
  -6   0   3    0.73    0.62
  -5   0   3    2.39    0.64
  -5   0   3    1.43    0.62
  -5   0   3    0.80    0.64
  -4   0   3   35.63    1.65
  -4   0   3   37.64    1.59
  -4   0   3   35.76    1.71
  -3   0   3  115.70    3.63
  -3   0   3  121.52    3.97
  -3   0   3  120.61    3.59
  -2   0   3    5.15    0.58
  -2   0   3    6.35    0.61
  -2   0   3    6.29    0.56
   1   0  -3    1.69    0.30
  -1   0   3    2.11    0.34
  -1   0   3    1.95    0.39
   0   0  -3   71.34    2.18
   0   0   3   73.26    2.06
   0   0   3   72.82    2.43
  -1   0  -3   11.00    0.59
   1   0   3   10.68    0.66
  -2   0  -3   34.63    1.31
   2   0   3   34.59    1.25
   2   0   3   32.65    1.43
  -3   0  -3    6.88    0.65
   3   0   3    5.77    0.48
   3   0   3    6.74    0.75
  -4   0  -3   15.72    1.14
  -4   0  -3   16.36    0.70
  -4   0  -3   17.58    1.03
   4   0   3   17.96    0.86
  -5   0  -3    0.19    0.29
  -5   0  -3   -0.79    0.49
  -5   0  -3    0.14    0.24
   5   0   3   -0.04    0.21
  -6   0  -3   19.87    1.23
  -6   0  -3   20.76    1.41
  -6   0  -3   19.66    1.00
   6   0   3   21.18    0.99
  -7   0  -3    1.62    0.79
  -7   0  -3    2.02    0.56
  -7   0  -3    1.50    0.64
  -8   0  -3    0.69    0.66
  -8   0  -3    0.21    0.84
  -8   0  -3    1.02    0.55
  -9   0  -3   14.36    1.47
 -10   0  -3   12.73    1.57
 -11   0  -3    0.77    0.91
 -11   0  -3    1.34    1.29
 -12   0  -3    0.28    1.02
 -11   1   3   -0.94    1.03
 -10   1   3   -0.18    0.66
  -9   1   3    1.16    0.92
  -9   1   3    1.75    0.95
  -8   1   3    0.32    0.58
  -8   1   3    0.88    0.61
  -7   1   3    4.27    0.99
  -7   1   3    4.11    1.00
  -6   1   3    0.44    0.69
  -6   1   3    0.70    0.62
  -6   1   3   -0.49    0.60
   5  -1  -3    8.35    0.80
  -5   1   3    7.86    0.96
  -5   1   3    7.51    0.98
  -5   1   3    8.20    0.98
   4  -1  -3   11.03    0.78
  -4   1   3   11.33    0.92
  -4   1   3    9.77    0.94
  -4   1   3   11.56    0.89
   3  -1  -3   53.43    1.88
  -3   1   3   50.54    1.94
  -3   1   3   51.79    1.94
  -3   1   3   50.93    1.95
   2  -1  -3   16.21    0.82
  -2   1   3   14.73    0.83
  -2   1   3   15.13    0.78
  -2   1   3   15.10    0.90
   1  -1  -3   82.83    2.57
  -1   1   3   83.26    2.61
  -1   1   3   80.71    2.46
  -1   1   3   81.74    2.52
   0  -1  -3   23.83    0.94
   0  -1  -3   22.86    0.98
   0   1   3   21.59    0.92
   0   1   3   22.94    0.88
  -1  -1  -3   17.15    0.75
   1   1   3   16.18    0.62
   1   1   3   16.10    0.80
  -2  -1  -3   13.37    0.84
  -2  -1  -3   17.04    0.76
  -3  -1  -3  157.21    4.94
  -3  -1  -3  155.98    4.34
  -3  -1  -3  147.74    3.96
   3   1   3  154.93    4.23
  -4  -1  -3    0.15    0.36
  -4  -1  -3    0.10    0.21
  -4  -1  -3    0.39    0.26
   4   1   3    0.06    0.18
  -5  -1  -3   62.39    2.19
  -5  -1  -3   57.08    2.48
  -5  -1  -3   58.77    1.92
   5   1   3   59.19    1.84
  -6  -1  -3   13.99    1.04
  -6  -1  -3   15.33    1.32
  -6  -1  -3   14.50    0.88
   6   1   3   16.23    0.72
  -7  -1  -3    2.49    0.57
  -7  -1  -3    2.13    0.52
  -7  -1  -3    2.37    0.90
  -8  -1  -3    0.86    0.52
  -8  -1  -3    0.17    0.54
  -8  -1  -3   -0.15    0.87
  -9  -1  -3    1.39    0.86
  -9  -1  -3    2.29    0.73
  -9  -1  -3    2.48    0.81
 -10  -1  -3    2.93    0.94
 -10  -1  -3    1.68    1.23
 -11  -1  -3    0.28    1.22
 -11  -1  -3    0.32    0.63
 -12  -1  -3   -1.01    1.26
 -10   2   3   -0.59    1.01
 -10   2   3    1.05    1.02
  -9   2   3    1.35    0.95
  -9   2   3    1.67    1.03
  -8   2   3   -0.46    0.47
  -8   2   3    0.63    0.79
  -7   2   3    3.72    1.83
  -7   2   3    3.28    0.82
   6  -2  -3    4.82    0.75
  -6   2   3    5.35    0.91
  -6   2   3    5.39    0.91
   5  -2  -3   -0.23    0.39
  -5   2   3   -0.41    0.54
  -5   2   3    0.04    0.60
  -5   2   3   -0.32    0.33
   4  -2  -3    7.02    0.78
  -4   2   3    6.68    0.90
  -4   2   3    6.98    0.75
  -4   2   3    6.07    0.88
   3  -2  -3    1.58    0.47
  -3   2   3    3.06    0.64
  -3   2   3    2.55    0.61
  -3   2   3    2.34    0.46
   2  -2  -3    1.36    0.43
  -2   2   3    1.16    0.30
  -2   2   3    0.71    0.33
  -2   2   3    1.90    0.42
   1  -2  -3  196.49    5.51
  -1   2   3  194.70    5.29
  -1   2   3  196.37    5.45
   0  -2  -3  442.14   11.58
   0   2   3  432.95   11.02
   0   2   3  438.22   11.38
  -1  -2  -3   73.48    2.27
  -1  -2  -3   73.47    2.22
  -2  -2  -3   98.44    2.69
  -2  -2  -3   94.08    2.84
  -2  -2  -3  100.37    3.20
  -2  -2  -3   96.90    2.82
  -3  -2  -3  147.57    3.90
  -3  -2  -3  147.13    4.69
  -3  -2  -3  143.13    4.05
  -4  -2  -3    6.73    0.52
  -4  -2  -3    7.87    0.90
  -4  -2  -3    6.82    0.61
  -5  -2  -3   13.68    1.06
  -5  -2  -3   15.60    0.83
  -5  -2  -3   12.71    0.83
   5   2   3   14.96    0.59
  -6  -2  -3    8.83    0.81
  -6  -2  -3    9.22    1.19
  -6  -2  -3    8.42    0.83
  -7  -2  -3   12.02    0.93
  -7  -2  -3   10.58    1.31
  -7  -2  -3   12.19    0.97
  -8  -2  -3    4.91    0.78
  -8  -2  -3    4.65    1.06
  -8  -2  -3    7.43    0.96
  -9  -2  -3    0.25    0.55
  -9  -2  -3   -0.22    0.56
  -9  -2  -3   -0.22    0.75
 -10  -2  -3    1.75    0.79
 -10  -2  -3    1.45    1.00
 -10  -2  -3    0.92    0.75
 -11  -2  -3    0.53    1.00
 -12  -2  -3   -1.04    1.27
 -13  -2  -3   -1.53    1.57
 -10   3   3   -1.57    1.07
 -10   3   3    1.10    1.27
  -9   3   3    0.82    1.03
  -9   3   3    1.58    0.81
  -8   3   3    1.09    0.70
  -8   3   3    0.89    0.69
  -7   3   3   -0.26    0.46
  -7   3   3    0.22    0.56
   6  -3  -3   27.43    1.60
  -6   3   3   27.14    1.80
  -6   3   3   29.98    1.83
   5  -3  -3    0.07    0.51
  -5   3   3    1.29    0.74
  -5   3   3    0.04    0.46
   4  -3  -3    2.33    0.59
  -4   3   3    1.15    0.45
  -4   3   3    1.45    0.53
  -4   3   3    1.67    0.60
   3  -3  -3   13.04    0.99
  -3   3   3   14.89    0.98
  -3   3   3   14.59    1.12
   2  -3  -3    7.96    0.82
  -2   3   3    8.10    0.77
  -2   3   3    7.80    0.79
   1  -3  -3   11.89    0.79
  -1   3   3   12.41    0.75
  -1   3   3   12.11    0.78
   0  -3  -3   13.24    0.78
   0   3   3   11.80    0.73
   0   3   3   12.80    0.73
  -1  -3  -3   71.98    2.20
  -1  -3  -3   69.81    2.31
   1   3   3   72.86    2.24
  -2  -3  -3  139.66    3.75
  -2  -3  -3  131.58    3.87
  -3  -3  -3  118.96    3.97
  -3  -3  -3  116.17    3.39
  -3  -3  -3  122.98    3.44
  -3  -3  -3  124.29    3.40
  -4  -3  -3   11.09    0.69
  -4  -3  -3   12.37    0.59
  -4  -3  -3   12.99    0.71
  -4  -3  -3   11.41    0.97
  -5  -3  -3    3.44    0.53
  -5  -3  -3    3.96    0.51
  -5  -3  -3    3.71    0.71
  -6  -3  -3    6.44    0.75
  -6  -3  -3    7.32    0.71
  -6  -3  -3    7.99    1.05
  -7  -3  -3    4.78    0.66
  -7  -3  -3    5.05    0.97
  -7  -3  -3    4.29    0.70
  -8  -3  -3    0.15    0.66
  -8  -3  -3    0.13    0.52
  -8  -3  -3   -0.12    0.47
  -9  -3  -3    0.28    0.79
  -9  -3  -3    0.40    0.59
  -9  -3  -3    0.19    0.55
 -10  -3  -3   -0.93    1.05
 -10  -3  -3   -0.29    0.67
 -11  -3  -3    0.05    1.38
 -11  -3  -3    0.19    0.59
 -12  -3  -3   -0.52    1.47
 -13  -3  -3   -0.78    1.67
 -10   4   3    0.19    1.13
 -10   4   3   -0.63    0.83
  -9   4   3   -0.41    0.98
  -9   4   3   -0.11    1.34
  -8   4   3    1.38    1.00
  -8   4   3    1.19    0.87
  -7   4   3    0.10    0.81
  -7   4   3    0.41    0.59
   6  -4  -3    3.27    0.87
  -6   4   3    1.52    0.91
  -6   4   3    2.86    0.82
   5  -4  -3    1.70    0.71
  -5   4   3    2.38    0.74
  -5   4   3    0.23    0.72
   4  -4  -3   12.04    1.20
  -4   4   3   10.85    1.28
  -4   4   3    9.33    1.08
   3  -4  -3    1.00    0.46
  -3   4   3    1.63    0.50
  -3   4   3    2.15    0.72
   2  -4  -3   55.05    2.17
  -2   4   3   51.84    2.11
  -2   4   3   54.49    2.06
   1  -4  -3   18.80    1.10
  -1   4   3   21.61    1.07
  -1   4   3   18.10    1.05
   0  -4  -3   48.52    1.89
   0   4   3   47.41    1.77
   0   4   3   50.61    1.78
  -1  -4  -3   26.53    1.07
  -1  -4  -3   25.86    1.21
  -1  -4  -3   27.87    1.16
   1   4   3   26.44    1.13
  -2  -4  -3    8.02    0.60
  -2  -4  -3    8.81    0.69
  -2  -4  -3    8.64    0.65
   2   4   3    8.42    0.56
  -3  -4  -3   53.93    1.87
  -3  -4  -3   53.87    2.13
  -3  -4  -3   53.08    1.84
  -3  -4  -3   55.29    1.73
  -4  -4  -3   12.13    1.03
  -4  -4  -3   14.19    0.87
  -4  -4  -3   11.75    0.65
  -4  -4  -3   13.87    0.72
  -5  -4  -3   10.14    0.64
  -5  -4  -3   14.20    1.33
  -5  -4  -3   12.09    0.87
  -5  -4  -3   10.93    0.57
  -6  -4  -3   26.44    1.74
  -6  -4  -3   32.27    1.48
  -6  -4  -3   26.62    1.18
  -7  -4  -3    3.87    0.74
  -7  -4  -3    4.13    0.61
  -7  -4  -3    4.61    0.96
  -8  -4  -3   15.48    1.17
  -8  -4  -3   18.58    1.88
  -9  -4  -3    9.60    1.22
  -9  -4  -3    9.33    1.64
 -10  -4  -3   -0.97    0.73
 -10  -4  -3    0.37    0.55
 -11  -4  -3   -0.57    1.31
 -11  -4  -3    2.03    0.89
 -12  -4  -3   -0.22    0.87
 -12  -4  -3   -3.53    1.34
 -13  -4  -3   -1.77    1.68
  -9   5   3    2.09    1.13
  -9   5   3    0.49    0.84
  -8   5   3   -1.03    0.82
  -8   5   3    0.39    0.95
  -7   5   3   -1.44    0.79
  -7   5   3    0.27    0.86
   6  -5  -3    0.34    0.76
  -6   5   3   -1.08    0.76
  -6   5   3    0.42    0.61
   5  -5  -3    7.01    1.12
  -5   5   3    8.23    1.10
  -5   5   3    6.99    1.13
   4  -5  -3    1.52    0.75
  -4   5   3    0.43    0.73
  -4   5   3    1.46    0.68
   3  -5  -3    4.17    0.76
  -3   5   3    4.50    0.73
  -3   5   3    3.29    0.85
   2  -5  -3   17.50    1.20
  -2   5   3   18.22    1.21
  -2   5   3   18.78    1.14
   1  -5  -3    3.82    0.68
  -1   5   3    2.17    0.48
  -1   5   3    2.64    0.56
   0  -5  -3    8.99    0.55
   0  -5  -3    8.29    0.93
   0   5   3    8.62    0.84
   0   5   3    8.23    0.79
  -1  -5  -3    0.14    0.27
  -1  -5  -3    0.97    0.38
  -1  -5  -3    0.40    0.35
   1   5   3    1.02    0.38
  -2  -5  -3    0.88    0.33
  -2  -5  -3    0.70    0.44
  -2  -5  -3    1.24    0.49
   2   5   3    0.64    0.30
  -3  -5  -3    0.12    0.47
  -3  -5  -3    0.08    0.26
  -3  -5  -3   -0.02    0.36
   3   5   3   -0.04    0.23
  -4  -5  -3   25.43    1.17
  -4  -5  -3   22.76    0.93
  -4  -5  -3   23.26    1.20
  -4  -5  -3   25.34    1.42
  -5  -5  -3    2.80    0.44
  -5  -5  -3    2.69    0.60
  -5  -5  -3    2.74    0.38
  -5  -5  -3    3.47    0.85
  -6  -5  -3   23.26    1.01
  -6  -5  -3   23.54    1.57
  -6  -5  -3   22.30    1.35
  -7  -5  -3   39.72    2.38
  -7  -5  -3   48.10    2.09
  -8  -5  -3   10.56    1.49
  -8  -5  -3    7.07    1.08
  -9  -5  -3   -0.40    1.03
  -9  -5  -3    1.04    0.58
 -10  -5  -3   -0.26    1.13
 -10  -5  -3   -1.00    0.59
 -11  -5  -3    1.56    1.47
 -11  -5  -3    0.28    0.78
 -12  -5  -3   -0.38    1.54
 -12  -5  -3    0.38    0.95
 -13  -5  -3    1.92    1.27
 -13  -5  -3   -0.87    1.82
  -9   6   3   -0.63    1.17
  -9   6   3    2.07    1.02
  -8   6   3    0.15    1.00
  -8   6   3   -1.40    0.97
  -7   6   3    1.15    0.98
  -7   6   3    1.73    0.93
   6  -6  -3    0.27    0.84
  -6   6   3    1.16    0.70
  -6   6   3    1.05    0.95
   5  -6  -3    0.49    0.82
  -5   6   3    0.53    0.76
  -5   6   3   -0.07    0.71
   4  -6  -3    4.06    0.89
  -4   6   3    6.58    0.97
  -4   6   3    6.15    1.05
   3  -6  -3    1.17    0.71
  -3   6   3    1.00    0.64
  -3   6   3    1.06    0.61
   2  -6  -3   20.76    1.51
  -2   6   3   24.20    1.43
  -2   6   3   24.67    1.60
   1  -6  -3   65.35    2.74
  -1   6   3   69.37    2.66
  -1   6   3   68.80    2.52
   0  -6  -3   31.63    1.63
   0   6   3   33.15    1.56
   0   6   3   29.91    1.46
  -1  -6  -3    1.50    0.44
  -1  -6  -3    1.12    0.58
  -1  -6  -3    1.18    0.39
   1   6   3    1.62    0.48
  -2  -6  -3    1.92    0.62
  -2  -6  -3    1.42    0.51
  -2  -6  -3    0.43    0.31
   2   6   3    0.95    0.36
  -3  -6  -3    5.24    0.75
  -3  -6  -3    3.86    0.74
  -3  -6  -3    5.39    0.71
   3   6   3    4.63    0.51
  -4  -6  -3   55.51    2.11
  -4  -6  -3   53.29    2.47
  -4  -6  -3   59.00    2.26
   4   6   3   57.89    1.78
  -5  -6  -3    0.86    0.74
  -5  -6  -3    0.39    0.38
  -5  -6  -3    0.19    0.41
  -6  -6  -3   10.82    1.09
  -6  -6  -3   10.78    1.33
  -7  -6  -3    1.64    1.02
  -7  -6  -3    1.29    0.52
  -8  -6  -3   39.62    2.09
  -8  -6  -3   35.26    2.31
  -9  -6  -3   10.55    1.77
  -9  -6  -3    9.03    1.24
 -10  -6  -3    0.25    0.95
 -10  -6  -3    0.95    0.82
 -11  -6  -3   -0.18    0.82
 -11  -6  -3   -0.29    1.33
 -12  -6  -3   -0.43    0.62
 -12  -6  -3   -1.72    0.99
 -13  -6  -3   -0.97    1.81
 -13  -6  -3    1.33    1.22
  -8   7   3   -2.64    1.07
  -8   7   3   -1.11    0.67
  -7   7   3   -0.52    0.79
  -7   7   3    1.49    1.05
   6  -7  -3    1.50    1.05
  -6   7   3    2.42    1.08
  -6   7   3    1.87    1.02
   5  -7  -3    0.37    0.90
  -5   7   3    4.09    0.93
  -5   7   3    4.00    0.97
   4  -7  -3    0.69    0.65
  -4   7   3    1.48    0.87
  -4   7   3    1.64    0.65
   3  -7  -3   10.42    1.32
  -3   7   3   13.27    1.36
  -3   7   3   10.36    1.29
   2  -7  -3    2.43    0.85
  -2   7   3    2.19    0.85
  -2   7   3    1.06    0.64
   1  -7  -3    1.52    0.74
  -1   7   3    2.29    0.65
  -1   7   3    1.81    0.63
   0  -7  -3    1.68    0.61
   0   7   3    1.37    0.48
   0   7   3    2.76    0.70
  -1  -7  -3    8.99    0.88
  -1  -7  -3    9.90    0.98
  -1  -7  -3    8.40    1.07
   1   7   3    9.35    0.92
  -2  -7  -3    2.42    0.70
  -2  -7  -3    0.67    0.60
  -2  -7  -3    0.05    0.35
   2   7   3    1.45    0.46
  -3  -7  -3    0.56    0.51
  -3  -7  -3    0.97    0.56
  -3  -7  -3    0.08    0.43
   3   7   3    0.83    0.37
  -4  -7  -3   -0.01    0.64
  -4  -7  -3   -0.28    0.40
  -4  -7  -3   -0.22    0.44
  -5  -7  -3    0.18    0.81
  -5  -7  -3    0.53    0.56
  -5  -7  -3    1.68    0.56
  -6  -7  -3   14.69    1.38
  -6  -7  -3   12.40    1.52
  -7  -7  -3    5.07    1.31
  -7  -7  -3    5.26    1.01
  -8  -7  -3    1.95    1.23
  -8  -7  -3    4.00    0.96
  -9  -7  -3    4.04    1.03
  -9  -7  -3    4.74    1.26
 -10  -7  -3    0.71    0.80
 -10  -7  -3    0.06    1.20
 -11  -7  -3    0.20    0.66
 -11  -7  -3   -0.15    1.05
 -12  -7  -3    0.26    0.77
 -12  -7  -3   -0.39    1.59
  -7   8   3   -0.41    1.24
  -7   8   3    0.08    0.76
   6  -8  -3    0.26    1.08
  -6   8   3    1.34    1.01
  -6   8   3    0.23    1.11
   5  -8  -3   -0.86    0.63
  -5   8   3    0.66    0.84
  -5   8   3   -1.48    0.68
   4  -8  -3    0.19    0.92
  -4   8   3    0.60    0.60
  -4   8   3    0.18    0.57
   3  -8  -3    0.84    0.90
  -3   8   3   -0.52    0.70
  -3   8   3    0.18    0.68
   2  -8  -3    2.55    0.82
  -2   8   3    3.05    0.73
  -2   8   3    2.49    0.88
   1  -8  -3   13.99    1.60
  -1   8   3   13.22    1.39
  -1   8   3   15.04    1.38
   0  -8  -3    8.53    1.23
   0   8   3    7.45    0.96
   0   8   3    7.59    1.04
  -1  -8  -3    3.86    0.81
  -1  -8  -3    3.47    0.70
   1   8   3    4.01    0.79
  -2  -8  -3   -0.06    0.65
  -2  -8  -3   -0.07    0.44
  -2  -8  -3    0.41    0.42
   2   8   3   -0.34    0.44
  -3  -8  -3   -0.69    0.35
  -3  -8  -3    0.72    0.44
  -3  -8  -3    0.19    0.45
  -4  -8  -3    1.79    0.68
  -4  -8  -3    1.02    0.80
  -4  -8  -3    2.19    0.72
  -5  -8  -3    2.52    0.75
  -5  -8  -3    5.20    1.21
  -5  -8  -3    3.11    0.81
  -6  -8  -3    1.72    0.87
  -6  -8  -3    1.22    0.55
  -7  -8  -3   11.22    1.74
  -7  -8  -3   11.84    1.39
  -8  -8  -3    0.44    0.56
  -8  -8  -3    0.85    0.90
  -9  -8  -3    4.62    1.09
  -9  -8  -3    1.90    1.30
 -10  -8  -3    0.65    1.39
 -10  -8  -3    1.85    0.96
 -11  -8  -3   -0.01    0.64
 -11  -8  -3    0.12    1.01
 -12  -8  -3    1.98    1.21
 -12  -8  -3    1.95    1.87
   6  -9  -3   -0.79    1.15
  -6   9   3    1.00    1.10
  -6   9   3    0.64    1.16
   5  -9  -3    0.79    0.82
  -5   9   3    1.07    0.97
  -5   9   3    0.30    0.90
   4  -9  -3   -1.29    0.89
  -4   9   3    0.37    0.87
  -4   9   3    0.75    0.87
   3  -9  -3   -0.60    0.65
  -3   9   3    0.60    0.76
  -3   9   3   -0.09    0.70
   2  -9  -3    2.38    0.90
  -2   9   3    2.40    0.83
  -2   9   3    4.27    1.02
   1  -9  -3    4.02    0.93
  -1   9   3    3.44    0.81
  -1   9   3    4.20    0.96
   0  -9  -3    3.79    1.04
   0   9   3    1.64    0.75
   0   9   3    3.58    0.85
  -1  -9  -3    0.07    0.56
  -1  -9  -3    1.03    0.68
   1   9   3    1.32    0.65
  -2  -9  -3    2.00    0.72
  -2  -9  -3    1.61    0.79
  -2  -9  -3    1.28    0.56
  -3  -9  -3    1.35    0.82
  -3  -9  -3    0.13    0.54
  -3  -9  -3    0.63    0.62
  -4  -9  -3    4.39    0.82
  -4  -9  -3    5.55    1.04
  -4  -9  -3    6.47    1.23
  -5  -9  -3   -0.41    0.95
  -5  -9  -3   -0.83    0.62
  -5  -9  -3   -0.76    0.56
  -6  -9  -3   -0.13    0.45
  -6  -9  -3   -0.34    0.74
  -7  -9  -3    0.07    0.50
  -7  -9  -3    2.09    1.27
  -8  -9  -3   -0.87    1.10
  -8  -9  -3   -0.25    0.50
  -9  -9  -3    2.50    1.50
  -9  -9  -3    2.54    0.97
 -10  -9  -3   -0.97    0.79
 -10  -9  -3   -0.95    1.35
 -11  -9  -3   -1.43    0.97
 -11  -9  -3   -0.21    0.65
 -12  -9  -3   -0.50    1.06
 -12  -9  -3   -3.89    1.52
   5 -10  -3   -0.93    0.78
  -5  10   3   -0.83    0.96
  -5  10   3   -0.24    0.79
   4 -10  -3   -0.49    1.10
  -4  10   3    0.89    1.02
  -4  10   3    0.65    0.75
   3 -10  -3   -1.44    0.92
  -3  10   3    0.81    0.92
  -3  10   3   -0.03    0.84
   2 -10  -3    2.71    1.17
  -2  10   3    2.43    0.95
  -2  10   3    4.32    0.95
   1 -10  -3   -0.96    0.84
  -1  10   3    0.55    0.75
  -1  10   3    0.37    0.70
   0 -10  -3    5.06    1.27
   0  10   3    5.79    1.01
   0  10   3    7.11    1.05
  -1 -10  -3    8.35    1.22
  -1 -10  -3    8.49    1.30
  -2 -10  -3    2.50    0.73
  -2 -10  -3    3.92    0.93
  -3 -10  -3    2.00    0.69
  -3 -10  -3    2.29    0.80
  -4 -10  -3    5.35    1.27
  -4 -10  -3    6.27    1.04
  -4 -10  -3    7.46    1.26
  -5 -10  -3    5.11    1.17
  -5 -10  -3    3.49    0.98
  -5 -10  -3    5.63    1.02
  -6 -10  -3   -0.43    0.47
  -6 -10  -3    0.38    1.14
  -7 -10  -3    5.37    1.36
  -7 -10  -3    5.80    1.10
  -8 -10  -3    4.13    1.62
  -8 -10  -3    4.76    1.06
  -9 -10  -3   -0.01    0.84
  -9 -10  -3    0.94    1.10
 -10 -10  -3    3.04    1.18
 -10 -10  -3    2.68    1.70
 -11 -10  -3   -1.26    1.09
 -11 -10  -3    0.80    0.86
   4 -11  -3    0.94    1.34
  -4  11   3    1.71    1.16
  -4  11   3    1.33    1.22
   3 -11  -3   -0.64    1.11
  -3  11   3    0.15    0.71
  -3  11   3   -0.07    0.98
   2 -11  -3   -1.72    0.92
  -2  11   3   -0.42    0.82
  -2  11   3    0.50    0.91
   1 -11  -3    0.64    0.82
  -1  11   3    0.84    0.65
  -1  11   3    3.20    1.04
   0 -11  -3   -1.10    0.59
   0  11   3   -0.43    0.74
  -1 -11  -3   -0.13    0.91
  -1 -11  -3   -0.14    0.77
  -2 -11  -3    1.13    0.66
  -2 -11  -3    1.33    1.01
  -3 -11  -3   -0.44    0.84
  -3 -11  -3   -0.34    0.54
  -4 -11  -3    0.00    0.88
  -4 -11  -3    1.61    0.92
  -5 -11  -3    5.52    1.40
  -5 -11  -3    3.49    1.11
  -5 -11  -3    5.48    1.07
  -6 -11  -3    0.70    0.84
  -6 -11  -3   -0.97    1.16
  -7 -11  -3    1.00    1.33
  -7 -11  -3    1.50    0.98
  -8 -11  -3    1.21    0.77
  -8 -11  -3   -1.01    1.30
  -9 -11  -3    0.97    1.07
  -9 -11  -3    0.47    1.58
 -10 -11  -3    0.09    1.08
 -10 -11  -3   -1.22    1.11
   3 -12  -3    1.77    1.13
  -3  12   3    0.70    1.19
  -3  12   3    1.86    1.26
   2 -12  -3    0.62    0.90
  -2  12   3    0.23    1.03
   1 -12  -3   -0.04    0.85
  -1  12   3    0.75    1.01
   0 -12  -3   -1.24    1.01
   0  12   3   -0.15    0.88
  -1 -12  -3    2.28    1.01
  -2 -12  -3    1.64    0.99
  -2 -12  -3    0.48    0.79
  -3 -12  -3   -0.42    0.94
  -3 -12  -3    1.43    0.97
  -4 -12  -3   -0.27    0.73
  -4 -12  -3   -0.06    0.65
  -5 -12  -3    2.27    1.16
  -5 -12  -3    3.88    1.17
  -6 -12  -3    0.65    1.40
  -6 -12  -3   -0.37    0.86
  -7 -12  -3   -0.20    1.45
  -7 -12  -3   -0.04    0.98
  -8 -12  -3    1.30    1.29
  -8 -12  -3    1.11    0.87
  -9 -12  -3    0.70    1.72
  -9 -12  -3   -0.14    1.07
   1 -13  -3   -0.07    1.04
  -1  13   3    0.53    1.14
   0 -13  -3   -1.78    0.69
   0  13   3   -0.08    1.03
  -1 -13  -3   -0.47    1.19
   1  13   3   -0.84    0.95
  -2 -13  -3   -1.93    1.04
  -2 -13  -3   -0.59    0.96
  -3 -13  -3   -0.04    1.16
  -3 -13  -3    0.48    0.79
  -4 -13  -3   -0.71    0.96
  -4 -13  -3   -2.91    0.97
  -5 -13  -3   -0.52    0.98
  -6 -13  -3    1.96    1.02
  -7 -13  -3   -0.61    1.09
  -7 -13  -3   -0.11    1.60
  -8 -13  -3    1.22    1.30
  -8 -13  -3    0.34    1.37
  -2 -14  -3   -0.13    1.01
  -2 -14  -3    0.24    0.92
  -3 -14  -3   -2.01    0.78
  -3 -14  -3   -0.88    1.10
  -4 -14  -3    0.37    0.92
  -4 -14  -3   -1.41    1.25
  -5 -14  -3    0.51    0.93
  -5 -11   4    1.11    1.49
  -5 -11   4    0.34    1.16
  -4 -11   4    0.85    1.26
  -4 -11   4    0.08    1.10
  -3 -11   4    2.05    1.24
  -3 -11   4    2.29    1.10
  -2 -11   4    2.79    1.23
  -2 -11   4    3.32    1.42
  -1 -11   4    2.59    1.37
  -1 -11   4    0.31    0.79
   0 -11   4   -0.56    1.12
   0 -11   4    1.74    1.33
   1 -11   4    6.36    1.66
   2 -11   4   -1.46    1.18
  -7 -10   4   -0.75    1.16
  -7 -10   4   -1.41    0.98
  -6 -10   4   -0.25    1.10
  -6 -10   4    0.72    1.06
  -5 -10   4    2.13    1.08
  -5 -10   4    1.15    1.09
  -4 -10   4    4.12    1.23
  -4 -10   4    1.84    1.06
  -3 -10   4    0.40    0.92
  -3 -10   4    1.55    0.95
  -3 -10   4    1.58    0.97
  -2 -10   4    1.66    0.92
  -2 -10   4    0.46    0.87
  -1 -10   4    1.35    0.91
  -1 -10   4    1.74    0.99
   0 -10   4    1.61    1.16
   0 -10   4    0.73    0.72
   1 -10   4    0.60    1.15
   1 -10   4   -0.12    0.90
   2 -10   4    4.73    1.38
   3 -10   4   -0.68    0.78
   4 -10   4    1.73    1.09
  -8  -9   4   -0.50    1.53
  -8  -9   4    0.09    0.92
  -7  -9   4   -0.23    0.98
  -7  -9   4   -0.68    0.70
  -6  -9   4    0.72    0.80
  -6  -9   4    1.39    1.28
  -5  -9   4   -0.22    0.85
  -5  -9   4   -0.69    0.97
  -4  -9   4    1.32    1.02
  -4  -9   4    0.72    1.13
  -4  -9   4    1.96    0.97
  -3  -9   4    0.02    0.73
  -3  -9   4    0.18    0.76
  -3  -9   4    2.06    1.06
  -2  -9   4    7.73    1.42
  -2  -9   4    6.66    1.13
  -2  -9   4    6.44    1.25
  -1  -9   4    2.37    0.97
  -1  -9   4    2.86    1.16
   0  -9   4    0.93    0.67
   0  -9   4    3.05    1.17
   1  -9   4    6.62    1.44
   1  -9   4    3.65    1.01
   2  -9   4    0.06    0.62
   2  -9   4    0.93    1.08
  -3   9  -4    1.84    0.92
   3  -9   4    1.48    0.87
  -4   9  -4   -0.18    0.88
   4  -9   4    0.89    1.11
  -5   9  -4    1.49    1.12
   5  -9   4   -0.85    0.82
  -6   9  -4   -0.68    1.06
   6  -9   4   -0.05    1.29
  -9  -8   4   -1.36    1.60
  -9  -8   4    1.28    1.05
  -8  -8   4    0.97    1.57
  -8  -8   4    0.82    1.19
  -7  -8   4   -0.05    0.89
  -7  -8   4    0.00    0.92
  -6  -8   4   -0.17    0.86
  -6  -8   4    1.74    1.17
  -5  -8   4    1.55    1.00
  -5  -8   4    1.85    0.78
  -4  -8   4    2.20    0.87
  -4  -8   4    0.43    0.67
  -4  -8   4    1.04    0.74
  -3  -8   4    7.15    1.43
  -3  -8   4    7.65    1.17
  -3  -8   4    6.34    1.13
  -2  -8   4    5.99    1.21
  -2  -8   4    6.69    1.04
  -2  -8   4    4.15    1.01
  -1  -8   4    4.71    0.91
  -1  -8   4    7.47    1.38
  -1  -8   4    3.38    0.84
   0  -8   4    6.64    1.11
   0  -8   4    8.34    1.44
   1  -8   4    7.37    1.26
   1  -8   4    7.14    1.37
  -2   8  -4    3.43    0.98
   2  -8   4    3.84    0.92
   2  -8   4    4.85    1.22
  -3   8  -4    1.32    0.81
   3  -8   4    0.83    0.93
   3  -8   4    0.99    0.84
  -4   8  -4    4.09    1.15
   4  -8   4    1.50    0.73
  -5   8  -4    0.76    0.99
   5  -8   4    1.17    1.13
  -6   8  -4    3.53    1.25
   6  -8   4    3.29    1.41
  -7   8  -4    1.88    1.28
   7  -8   4   -0.24    1.32
  -9  -7   4    0.47    1.17
  -9  -7   4   -0.50    1.54
  -8  -7   4   -1.53    1.31
  -8  -7   4   -0.48    0.68
  -7  -7   4   -0.59    0.84
  -7  -7   4   -0.02    1.18
  -6  -7   4    5.17    1.20
  -6  -7   4    5.62    1.39
  -5  -7   4    0.52    0.56
  -5  -7   4   -0.20    0.72
  -4  -7   4    2.28    0.83
  -4  -7   4    3.89    1.09
  -4  -7   4    3.66    0.87
  -3  -7   4    5.45    1.12
  -3  -7   4    7.65    1.09
  -3  -7   4    6.05    1.05
  -2  -7   4   -0.13    0.60
  -2  -7   4    0.19    0.58
  -2  -7   4    0.73    0.58
  -1  -7   4    6.55    1.23
  -1  -7   4    6.02    1.00
  -1  -7   4    6.91    0.95
   0  -7   4    2.58    0.69
   0  -7   4    2.83    0.99
   0  -7   4    2.26    0.71
  -1   7  -4    2.35    0.77
   1  -7   4    3.18    0.89
   1  -7   4    3.58    0.84
  -2   7  -4    0.06    0.57
   2  -7   4    1.07    0.73
   2  -7   4    0.23    0.74
  -3   7  -4    2.94    0.76
   3  -7   4    5.71    1.22
   3  -7   4    4.13    0.90
  -4   7  -4    1.13    0.79
   4  -7   4    1.43    0.94
   4  -7   4   -0.23    0.73
  -5   7  -4    0.28    0.62
   5  -7   4    0.00    0.61
   5  -7   4    0.37    0.82
  -6   7  -4    0.10    0.84
   6  -7   4   -0.35    0.65
  -7   7  -4   -0.83    0.89
   7  -7   4   -2.56    0.93
  -8   7  -4    0.59    0.86
 -10  -6   4    0.35    1.21
 -10  -6   4    1.33    1.93
  -9  -6   4    0.72    1.12
  -9  -6   4    1.56    1.69
  -8  -6   4    1.38    1.00
  -8  -6   4   -2.45    1.16
  -7  -6   4   -0.67    1.15
  -7  -6   4    0.04    0.61
  -6  -6   4    6.50    1.31
  -6  -6   4    9.57    1.39
  -5  -6   4   10.95    1.32
  -5  -6   4    9.03    1.53
  -4  -6   4   -0.33    0.71
  -4  -6   4    0.13    0.61
  -4  -6   4   -0.39    0.52
  -3  -6   4    6.35    0.92
  -3  -6   4    5.62    0.93
  -3  -6   4    6.37    1.20
  -2  -6   4   16.43    1.32
  -2  -6   4   14.08    1.63
  -2  -6   4   15.40    1.17
  -1  -6   4    6.66    1.16
  -1  -6   4    8.10    0.91
  -1  -6   4    6.77    1.03
   0   6  -4   10.23    1.00
   0  -6   4   11.45    1.01
   0  -6   4    9.12    1.33
   0  -6   4    9.57    1.21
  -1   6  -4    1.27    0.56
   1  -6   4    2.69    0.70
   1  -6   4    1.35    0.53
   1  -6   4    2.03    0.80
  -2   6  -4   26.09    1.60
   2  -6   4   24.19    1.81
   2  -6   4   24.65    1.64
  -3   6  -4   -0.32    0.57
   3  -6   4    0.04    0.65
   3  -6   4   -0.19    0.40
  -4   6  -4    1.78    0.80
   4  -6   4    4.21    0.97
   4  -6   4    2.89    0.97
  -5   6  -4    0.33    0.75
   5  -6   4    0.29    0.72
   5  -6   4   -0.28    0.73
  -6   6  -4    0.87    0.84
   6  -6   4    0.65    0.81
   6  -6   4    1.49    0.91
  -7   6  -4    2.13    1.04
   7  -6   4    4.24    1.08
  -8   6  -4    1.66    1.13
  -9   6  -4    0.27    1.13
 -10  -5   4    0.23    1.78
 -10  -5   4   -0.38    0.78
  -9  -5   4   -1.69    1.37
  -9  -5   4    0.11    0.68
  -8  -5   4   -1.58    1.19
  -8  -5   4   -0.61    0.54
  -7  -5   4    2.09    1.27
  -7  -5   4    0.44    0.61
  -6  -5   4    1.56    0.81
  -6  -5   4    1.07    1.05
  -5  -5   4    0.46    0.84
  -5  -5   4    0.19    0.65
  -4  -5   4    3.01    0.68
  -4  -5   4    1.28    0.78
  -4  -5   4    3.19    0.72
  -3  -5   4   28.24    1.90
  -3  -5   4   30.16    1.64
  -3  -5   4   29.44    1.56
  -2  -5   4    0.13    0.32
  -2  -5   4    0.00    0.47
  -2  -5   4    0.38    0.47
   1   5  -4   50.78    1.90
  -1  -5   4   54.30    2.35
  -1  -5   4   49.98    2.56
  -1  -5   4   53.26    2.04
   0   5  -4    0.43    0.38
   0  -5   4   -0.11    0.57
   0  -5   4    0.25    0.48
   0  -5   4    0.30    0.33
  -1   5  -4   30.32    1.53
   1  -5   4   30.01    1.33
   1  -5   4   34.20    1.95
   1  -5   4   29.88    1.69
  -2   5  -4   25.21    1.47
   2  -5   4   24.42    1.60
   2  -5   4   24.47    1.14
   2  -5   4   24.96    1.54
  -3   5  -4   15.09    1.38
   3  -5   4   12.95    1.46
   3  -5   4   11.07    1.23
  -4   5  -4    1.39    0.71
   4  -5   4    0.69    0.71
   4  -5   4    2.10    0.64
  -5   5  -4   19.12    1.78
   5  -5   4   18.90    1.45
   5  -5   4   19.47    1.61
  -6   5  -4    2.20    0.77
   6  -5   4    1.98    0.84
   6  -5   4    1.86    0.86
  -7   5  -4   -0.04    0.52
   7  -5   4   -0.55    0.50
   7  -5   4    0.72    0.86
  -8   5  -4   -0.06    0.59
  -9   5  -4   -0.32    0.92
 -10   5  -4    2.74    1.33
 -10  -4   4   -0.59    0.72
 -10  -4   4   -1.47    1.61
  -9  -4   4   -0.95    1.46
  -9  -4   4    0.05    0.88
  -8  -4   4    0.12    0.80
  -8  -4   4   -0.84    1.20
  -7  -4   4    0.69    1.20
  -7  -4   4   -0.16    0.65
  -6  -4   4    7.31    1.18
  -6  -4   4    7.89    1.46
  -5  -4   4    7.40    1.29
  -5  -4   4    4.12    0.80
  -4  -4   4   26.54    1.74
  -4  -4   4   25.92    1.48
  -4  -4   4   26.94    1.42
  -3  -4   4    0.46    0.35
  -3  -4   4    1.19    0.66
  -3  -4   4    0.63    0.47
   2   4  -4   18.38    0.94
  -2  -4   4   18.25    1.12
  -2  -4   4   18.67    1.20
  -2  -4   4   17.84    1.39
   1   4  -4    1.53    0.40
  -1  -4   4    1.47    0.45
  -1  -4   4    1.15    0.63
  -1  -4   4    1.15    0.43
   0   4  -4    5.54    0.68
   0  -4   4    5.93    0.97
   0  -4   4    6.08    0.65
   0  -4   4    5.23    0.82
  -1   4  -4   32.51    1.53
   1  -4   4   36.19    1.36
   1  -4   4   34.37    1.71
   1  -4   4   33.97    1.87
  -2   4  -4    0.96    0.48
   2  -4   4    0.63    0.38
   2  -4   4    0.81    0.56
   2  -4   4    0.36    0.28
  -3   4  -4    0.27    0.38
   3  -4   4    0.50    0.55
   3  -4   4    0.03    0.47
  -4   4  -4   -0.36    0.47
   4  -4   4    0.98    0.64
   4  -4   4    0.66    0.43
  -5   4  -4   12.10    1.39
   5  -4   4   15.34    1.57
   5  -4   4   16.45    1.32
  -6   4  -4   12.35    1.41
   6  -4   4   11.98    1.49
   6  -4   4   12.53    1.30
  -7   4  -4    0.93    0.83
   7  -4   4    0.84    0.82
   7  -4   4    0.63    0.71
  -8   4  -4    0.29    0.83
   8  -4   4    1.23    0.95
  -9   4  -4    0.79    0.79
 -10   4  -4    1.18    1.22
 -10  -3   4   -2.19    1.45
 -10  -3   4    0.19    0.72
  -9  -3   4    0.83    0.90
  -9  -3   4   -2.62    1.26
  -8  -3   4   -0.16    0.55
  -8  -3   4   -1.26    1.07
  -7  -3   4   -0.78    0.94
  -7  -3   4   -0.25    0.64
  -6  -3   4    1.64    0.81
  -6  -3   4    1.79    0.76
  -5  -3   4    0.62    0.45
  -5  -3   4   -0.86    0.65
  -5  -3   4    0.25    0.57
  -4  -3   4    2.08    0.76
  -4  -3   4    1.66    0.54
  -4  -3   4    1.00    0.44
  -3  -3   4    0.26    0.37
  -3  -3   4   -0.05    0.39
  -3  -3   4    1.19    0.62
  -3  -3   4    0.72    0.35
   2   3  -4    0.25    0.27
  -2  -3   4   -0.11    0.47
  -2  -3   4    0.09    0.26
  -2  -3   4   -0.19    0.32
   1   3  -4   26.12    1.13
  -1  -3   4   24.12    1.30
  -1  -3   4   24.29    1.50
  -1  -3   4   23.30    1.13
   0   3  -4   42.80    1.60
   0  -3   4   40.97    1.48
   0  -3   4   38.40    1.92
   0  -3   4   41.61    1.82
  -1   3  -4   39.46    1.67
   1  -3   4   43.47    1.88
   1  -3   4   42.56    1.43
   1  -3   4   43.44    2.01
  -2   3  -4  115.15    3.69
   2  -3   4  113.14    3.14
   2  -3   4  118.70    3.86
   2  -3   4  114.28    4.17
  -3   3  -4    0.85    0.48
  -3   3  -4    0.51    0.25
   3  -3   4   -0.24    0.38
   3  -3   4   -0.30    0.29
  -4   3  -4   39.86    1.92
   4  -3   4   35.68    1.90
   4  -3   4   36.01    1.80
  -5   3  -4   -0.09    0.50
   5  -3   4    0.13    0.48
   5  -3   4   -0.22    0.50
  -6   3  -4    1.32    0.61
   6  -3   4    1.09    0.58
   6  -3   4    0.94    0.58
  -7   3  -4    7.91    1.27
   7  -3   4    7.10    1.21
   7  -3   4    7.03    1.04
  -8   3  -4    3.53    1.05
   8  -3   4    6.64    1.27
  -9   3  -4    0.16    0.66
   9  -3   4    2.11    1.04
 -10   3  -4    0.25    0.96
 -11   3  -4    1.11    0.96
 -10  -2   4    0.32    0.74
  -9  -2   4   -1.30    1.24
  -9  -2   4    0.42    0.65
  -8  -2   4   -0.24    0.53
  -8  -2   4    2.73    1.33
  -7  -2   4    3.06    0.93
  -7  -2   4    2.49    1.18
  -6  -2   4   19.25    1.66
  -6  -2   4   11.62    1.30
  -5  -2   4    0.66    0.47
  -5  -2   4    0.64    0.73
  -5  -2   4    0.73    0.45
  -5  -2   4    0.54    0.42
  -4  -2   4    2.34    0.50
  -4  -2   4    2.01    0.61
  -4  -2   4    0.86    0.42
  -4  -2   4    1.85    0.47
  -3  -2   4    9.56    0.77
  -3  -2   4    9.27    1.07
  -3  -2   4    9.74    0.96
  -3  -2   4    8.70    0.67
   2   2  -4   20.88    1.00
  -2  -2   4   21.34    1.09
  -2  -2   4   18.91    1.29
  -2  -2   4   23.33    1.18
   1   2  -4    4.04    0.51
  -1  -2   4    4.19    0.58
  -1  -2   4    3.81    0.66
  -1  -2   4    3.80    0.52
   0   2  -4   78.08    2.50
   0  -2   4   79.45    2.99
   0  -2   4   78.27    2.34
   0  -2   4   78.15    2.70
  -1   2  -4   29.43    1.30
   1  -2   4   29.33    1.54
   1  -2   4   28.75    1.35
   1  -2   4   28.89    1.01
  -2   2  -4   34.21    1.54
   2  -2   4   35.15    1.56
   2  -2   4   36.74    1.77
   2  -2   4   36.01    1.09
  -3   2  -4   15.61    1.00
   3  -2   4   13.83    0.94
   3  -2   4   14.12    1.09
  -4   2  -4   11.90    0.59
  -4   2  -4   12.67    1.14
   4  -2   4   12.57    1.06
   4  -2   4   11.43    0.92
  -5   2  -4   36.92    1.85
   5  -2   4   36.41    1.92
   5  -2   4   37.65    1.70
  -6   2  -4    0.29    0.59
   6  -2   4    0.95    0.64
   6  -2   4    0.48    0.43
  -7   2  -4    0.94    0.58
   7  -2   4    0.50    0.54
   7  -2   4    0.35    0.48
  -8   2  -4    5.10    1.01
   8  -2   4    4.73    1.14
  -9   2  -4    7.43    1.23
   9  -2   4    9.34    1.52
 -10   2  -4    1.89    1.08
  10  -2   4    1.37    1.12
 -11   2  -4   -0.51    0.98
 -10  -1   4   -0.59    0.67
  -9  -1   4    0.68    0.70
  -8  -1   4    0.00    0.52
  -8  -1   4   -0.79    1.06
  -7  -1   4   -0.05    0.45
  -7  -1   4   -0.73    0.96
  -6  -1   4    5.39    0.91
  -6  -1   4    4.97    1.11
  -6  -1   4    5.59    0.92
  -5  -1   4    7.49    0.87
  -5  -1   4    9.53    1.24
  -5  -1   4    7.40    1.03
  -4  -1   4   12.30    1.13
  -4  -1   4   10.57    0.84
  -4  -1   4   12.45    1.08
  -3  -1   4    1.02    0.47
  -3  -1   4    0.99    0.38
  -3  -1   4    0.47    0.45
  -2  -1   4    4.98    0.62
  -2  -1   4    5.93    0.85
  -2  -1   4    6.12    0.61
   1   1  -4    0.53    0.32
  -1  -1   4    0.64    0.31
  -1  -1   4    0.25    0.40
  -1  -1   4    0.90    0.40
   0   1  -4  129.61    3.75
   0  -1   4  128.61    3.53
   0  -1   4  131.51    4.30
   0  -1   4  127.81    3.89
  -1   1  -4   17.63    0.92
   1  -1   4   17.41    1.02
   1  -1   4   18.03    0.66
   1  -1   4   17.34    0.94
  -2   1  -4   58.09    2.09
   2  -1   4   63.61    2.16
   2  -1   4   59.73    2.36
  -3   1  -4   20.23    1.09
   3  -1   4   19.02    1.05
   3  -1   4   20.17    1.22
  -4   1  -4   14.50    0.98
   4  -1   4   13.29    0.85
   4  -1   4   12.99    1.00
  -5   1  -4    0.00    0.23
  -5   1  -4    0.45    0.37
   5  -1   4   -0.26    0.45
   5  -1   4    0.33    0.33
  -6   1  -4    7.00    0.95
   6  -1   4    6.03    0.73
   6  -1   4    8.37    1.14
  -7   1  -4   -0.62    0.54
   7  -1   4    0.15    0.63
   7  -1   4    0.53    0.41
  -8   1  -4    0.37    0.68
   8  -1   4    1.02    0.82
  -9   1  -4   -0.36    0.70
   9  -1   4   -0.04    0.83
 -10   1  -4    3.23    0.93
  10  -1   4    5.07    1.33
 -11   1  -4    2.81    1.18
  11  -1   4    0.31    1.15
 -12   1  -4   -0.31    1.09
 -10   0   4    0.69    0.79
  -9   0   4    1.27    0.99
  -8   0   4    1.20    0.83
  -7   0   4    7.87    1.44
  -7   0   4    6.60    1.07
  -7   0   4    7.53    1.18
  -6   0   4   13.03    1.49
  -6   0   4    9.89    1.17
  -6   0   4   10.65    1.22
  -5   0   4    2.49    0.68
  -5   0   4    2.60    0.81
  -5   0   4    1.56    0.54
  -4   0   4    0.89    0.42
  -4   0   4    0.49    0.53
  -4   0   4   -0.49    0.35
  -3   0   4    2.29    0.49
  -3   0   4    1.56    0.51
  -3   0   4    2.06    0.55
  -2   0   4    6.02    0.66
  -2   0   4    5.13    0.69
  -2   0   4    6.01    0.70
   1   0  -4    3.04    0.46
  -1   0   4    3.26    0.52
  -1   0   4    2.86    0.42
   0   0  -4    3.97    0.46
   0   0   4    4.33    0.44
   0   0   4    4.50    0.55
  -1   0  -4   28.25    1.18
   1   0   4   28.90    1.31
   1   0   4   27.77    0.92
  -2   0  -4   38.66    1.49
   2   0   4   39.09    1.65
   2   0   4   38.84    1.48
  -3   0  -4   22.92    1.11
   3   0   4   23.19    1.22
   3   0   4   21.44    1.01
  -4   0  -4   19.07    1.07
  -4   0  -4   17.91    0.69
   4   0   4   19.11    0.95
   4   0   4   18.00    1.20
  -5   0  -4    6.53    0.79
  -5   0  -4    6.27    0.51
   5   0   4    6.68    0.95
   5   0   4    5.94    0.63
  -6   0  -4    1.59    0.61
  -6   0  -4    2.73    0.45
   6   0   4    2.88    0.46
  -7   0  -4   -0.57    0.68
  -7   0  -4    0.54    0.40
  -7   0  -4    1.17    0.66
  -8   0  -4    1.06    0.91
  -8   0  -4    1.04    0.68
  -9   0  -4    5.74    1.14
  -9   0  -4    5.47    1.26
 -10   0  -4    7.45    1.33
 -10   0  -4    2.91    1.24
 -11   0  -4   -0.09    0.64
 -12   0  -4    1.42    1.11
  12   0   4   -1.25    1.18
 -10   1   4    1.14    1.08
  -9   1   4    2.68    1.10
  -9   1   4    3.45    1.13
  -8   1   4    0.80    0.87
  -8   1   4    2.95    0.86
  -7   1   4    0.09    0.82
  -7   1   4    1.38    0.82
  -6   1   4    0.43    0.49
  -6   1   4    0.20    0.57
  -6   1   4   -0.31    0.86
   5  -1  -4    8.77    0.90
  -5   1   4    9.69    1.17
  -5   1   4    9.30    1.11
  -5   1   4    6.93    1.03
   4  -1  -4   11.65    0.87
  -4   1   4   10.62    1.04
  -4   1   4   11.53    1.08
  -4   1   4   12.05    1.00
   3  -1  -4    2.01    0.48
  -3   1   4    1.03    0.38
  -3   1   4    2.20    0.50
  -3   1   4    0.87    0.47
   2  -1  -4   56.65    2.07
  -2   1   4   56.36    2.04
  -2   1   4   57.57    2.07
  -2   1   4   56.87    2.05
   1  -1  -4   48.42    1.81
  -1   1   4   50.12    1.81
  -1   1   4   47.45    1.72
  -1   1   4   48.52    1.79
   0  -1  -4   40.99    1.52
   0   1   4   42.41    1.58
   0   1   4   42.51    1.43
  -1  -1  -4   14.50    0.81
   1   1   4   14.12    0.81
   1   1   4   16.31    0.66
  -2  -1  -4    0.46    0.30
   2   1   4    0.28    0.15
   2   1   4    0.66    0.34
  -3  -1  -4    6.14    0.62
   3   1   4    6.31    0.75
  -4  -1  -4  111.43    3.54
  -4  -1  -4  118.95    4.10
  -4  -1  -4  114.87    3.08
   4   1   4  115.72    3.39
  -5  -1  -4   71.44    2.50
  -5  -1  -4   70.22    2.08
  -5  -1  -4   64.91    2.80
   5   1   4   67.19    2.19
  -6  -1  -4    1.94    0.65
  -6  -1  -4    1.38    0.38
  -6  -1  -4    2.21    0.58
   6   1   4    1.86    0.37
  -7  -1  -4    2.20    0.74
  -7  -1  -4    1.93    0.54
  -7  -1  -4    1.98    0.51
  -8  -1  -4    5.41    0.76
  -8  -1  -4    5.23    1.05
  -8  -1  -4    6.84    1.03
  -9  -1  -4   -0.05    0.64
  -9  -1  -4   -0.33    0.87
 -10  -1  -4    3.11    1.24
 -10  -1  -4    4.05    1.04
 -11  -1  -4    3.03    1.01
 -11  -1  -4    1.68    1.29
 -12  -1  -4    1.00    1.39
 -13  -1  -4    2.41    1.74
 -10   2   4   -0.65    1.02
  -9   2   4    0.24    0.65
  -9   2   4    0.27    0.69
  -8   2   4    0.92    0.94
  -8   2   4    0.83    0.69
  -7   2   4    0.25    0.68
  -7   2   4    0.25    0.87
  -6   2   4    3.00    0.84
  -6   2   4    1.02    0.69
   5  -2  -4   31.54    1.57
  -5   2   4   29.57    1.75
  -5   2   4   30.10    1.71
   4  -2  -4    0.40    0.42
  -4   2   4   -0.37    0.47
  -4   2   4    0.04    0.38
  -4   2   4   -0.22    0.49
   3  -2  -4    2.20    0.53
  -3   2   4    2.66    0.52
  -3   2   4    1.99    0.52
  -3   2   4    2.10    0.58
   2  -2  -4   26.41    1.29
  -2   2   4   26.06    1.09
  -2   2   4   27.35    1.30
  -2   2   4   25.58    1.25
   1  -2  -4   13.86    0.89
  -1   2   4   14.19    0.85
  -1   2   4   13.22    0.65
  -1   2   4   13.61    0.84
   0  -2  -4    0.91    0.32
   0   2   4    1.55    0.28
   0   2   4    1.26    0.35
  -1  -2  -4    8.66    0.59
  -1  -2  -4    7.76    0.59
   1   2   4    7.54    0.51
   1   2   4    7.42    0.52
  -2  -2  -4  149.17    4.30
  -2  -2  -4  152.23    4.04
  -2  -2  -4  156.68    4.39
  -3  -2  -4   12.12    0.76
  -3  -2  -4   12.75    0.62
  -3  -2  -4   14.25    0.91
  -4  -2  -4    9.18    0.78
  -4  -2  -4   10.99    1.10
  -4  -2  -4    8.96    0.56
  -5  -2  -4   55.38    1.85
  -5  -2  -4   58.25    2.54
  -5  -2  -4   60.98    2.13
   5   2   4   56.02    1.82
  -6  -2  -4    4.72    0.58
  -6  -2  -4    5.09    0.99
  -6  -2  -4    4.26    0.63
   6   2   4    4.33    0.42
  -7  -2  -4   10.57    1.43
  -7  -2  -4    8.13    0.95
  -7  -2  -4   10.47    0.90
  -8  -2  -4    1.49    0.55
  -8  -2  -4    0.89    0.58
  -8  -2  -4    1.39    1.00
  -9  -2  -4    1.38    1.06
  -9  -2  -4    3.06    0.73
  -9  -2  -4    3.14    0.80
 -10  -2  -4    0.14    0.65
 -10  -2  -4   -0.71    0.70
 -11  -2  -4   -1.16    1.14
 -12  -2  -4   -0.58    1.32
 -13  -2  -4   -0.03    1.13
 -10   3   4   -0.03    0.80
 -10   3   4   -0.05    1.19
  -9   3   4    1.63    1.13
  -9   3   4   -0.07    0.98
  -8   3   4    1.59    1.00
  -8   3   4    1.51    0.94
  -7   3   4    0.64    0.82
  -7   3   4   -1.39    0.69
   6  -3  -4    1.00    0.64
  -6   3   4    0.87    0.69
  -6   3   4    0.55    0.55
   5  -3  -4    5.30    0.87
  -5   3   4    6.66    0.98
  -5   3   4    4.86    1.04
   4  -3  -4   26.71    1.49
  -4   3   4   28.63    1.70
  -4   3   4   26.85    1.62
   3  -3  -4    2.65    0.55
  -3   3   4    2.36    0.42
  -3   3   4    2.94    0.66
  -3   3   4    1.23    0.62
   2  -3  -4   65.62    2.44
  -2   3   4   62.41    2.31
  -2   3   4   66.90    2.43
   1  -3  -4  264.12    7.35
  -1   3   4  257.94    7.22
  -1   3   4  256.33    7.00
   0  -3  -4    8.46    0.67
   0   3   4    7.85    0.59
   0   3   4    8.32    0.78
  -1  -3  -4    2.54    0.49
  -1  -3  -4    2.42    0.46
   1   3   4    2.92    0.41
  -2  -3  -4    0.89    0.36
  -2  -3  -4    0.74    0.26
  -2  -3  -4    0.18    0.27
  -2  -3  -4    0.45    0.27
  -3  -3  -4    0.57    0.28
  -3  -3  -4    0.34    0.23
  -3  -3  -4    0.93    0.49
  -3  -3  -4    0.63    0.30
  -4  -3  -4    7.32    0.63
  -4  -3  -4    7.31    0.88
  -5  -3  -4   13.34    1.31
  -5  -3  -4   10.12    0.72
  -6  -3  -4   19.20    1.46
  -6  -3  -4   18.79    1.03
   6   3   4   17.60    0.73
  -7  -3  -4   -0.84    0.47
  -7  -3  -4    0.13    0.35
  -7  -3  -4   -0.07    0.27
  -8  -3  -4    1.79    0.99
  -8  -3  -4    2.32    0.64
  -8  -3  -4    1.06    0.56
  -9  -3  -4    1.14    0.60
  -9  -3  -4    0.95    0.63
  -9  -3  -4    0.37    1.03
 -10  -3  -4    1.19    0.73
 -10  -3  -4   -0.33    1.10
 -11  -3  -4    0.27    1.25
 -12  -3  -4    0.78    1.58
 -13  -3  -4    0.10    1.64
  -9   4   4   -0.08    0.96
  -9   4   4    0.95    0.88
  -8   4   4    5.27    1.16
  -8   4   4    3.24    1.10
  -7   4   4    2.04    0.92
  -7   4   4    3.33    0.99
   6  -4  -4    0.48    0.68
  -6   4   4    0.36    0.66
  -6   4   4   -0.74    0.51
   5  -4  -4   -0.51    0.53
  -5   4   4   -0.60    0.69
  -5   4   4   -0.94    0.73
   4  -4  -4    7.87    1.04
  -4   4   4   10.22    1.27
  -4   4   4    9.27    1.07
   3  -4  -4   10.96    1.12
  -3   4   4    9.83    1.12
  -3   4   4    9.41    0.99
   2  -4  -4    0.24    0.50
  -2   4   4    0.46    0.37
  -2   4   4    0.07    0.31
   1  -4  -4   73.68    2.72
  -1   4   4   74.83    2.67
  -1   4   4   76.11    2.57
   0  -4  -4    1.24    0.51
   0   4   4    0.77    0.34
   0   4   4    0.89    0.41
  -1  -4  -4    6.60    0.68
  -1  -4  -4    4.23    0.48
   1   4   4    6.50    0.68
   1   4   4    6.83    0.65
  -2  -4  -4   21.96    1.06
  -2  -4  -4   21.11    1.10
  -2  -4  -4   20.42    0.99
  -2  -4  -4   21.36    1.02
  -3  -4  -4   44.67    1.88
  -3  -4  -4   46.85    1.70
  -3  -4  -4   47.73    1.71
  -4  -4  -4  112.75    3.93
  -4  -4  -4  109.65    3.31
  -4  -4  -4  112.13    3.34
  -4  -4  -4  111.42    3.29
  -5  -4  -4   11.05    1.21
  -5  -4  -4   10.50    0.74
  -5  -4  -4   11.69    0.68
  -5  -4  -4   11.74    0.83
  -6  -4  -4    0.27    0.31
  -6  -4  -4    1.06    0.74
  -6  -4  -4    0.34    0.41
  -7  -4  -4   22.14    1.61
  -7  -4  -4   22.21    1.24
  -7  -4  -4   22.58    1.22
  -8  -4  -4   22.21    1.28
  -8  -4  -4   22.65    1.72
  -8  -4  -4   19.74    1.36
  -9  -4  -4    5.07    1.18
  -9  -4  -4    7.14    1.06
 -10  -4  -4    3.65    0.92
 -10  -4  -4    1.62    1.03
 -11  -4  -4    0.05    1.25
 -11  -4  -4    0.27    0.76
 -12  -4  -4   -0.19    1.52
 -13  -4  -4   -1.13    1.62
  -9   5   4    1.31    1.25
  -9   5   4    1.68    1.34
  -8   5   4   -0.65    0.86
  -8   5   4   -0.20    0.72
  -7   5   4    4.09    1.02
  -7   5   4    3.54    1.01
   6  -5  -4    1.94    0.87
  -6   5   4    0.98    0.96
  -6   5   4    1.49    0.81
   5  -5  -4   -0.45    0.68
  -5   5   4    0.28    0.64
  -5   5   4    0.42    0.61
   4  -5  -4    0.65    0.54
  -4   5   4   -0.08    0.56
  -4   5   4    1.35    0.59
   3  -5  -4    0.20    0.45
  -3   5   4   -0.36    0.50
  -3   5   4   -0.25    0.46
   2  -5  -4   18.07    1.25
  -2   5   4   21.49    1.39
  -2   5   4   17.29    1.16
   1  -5  -4   41.05    1.90
  -1   5   4   36.72    1.70
  -1   5   4   37.06    1.78
   0  -5  -4  145.21    4.68
   0   5   4  151.33    4.55
   0   5   4  151.74    4.44
  -1  -5  -4   10.39    0.94
  -1  -5  -4    9.38    0.63
  -1  -5  -4    8.19    0.90
   1   5   4    8.85    0.83
  -2  -5  -4    4.42    0.59
  -2  -5  -4    5.72    0.68
  -2  -5  -4    5.03    0.65
   2   5   4    4.31    0.56
  -3  -5  -4   17.05    1.01
  -3  -5  -4   15.15    0.92
  -4  -5  -4    1.97    0.40
  -4  -5  -4    1.77    0.44
  -4  -5  -4    1.75    0.42
  -4  -5  -4    2.05    0.56
  -5  -5  -4    4.00    0.87
  -5  -5  -4    3.17    0.60
  -5  -5  -4    2.31    0.43
  -5  -5  -4    2.67    0.44
  -6  -5  -4    1.36    0.81
  -6  -5  -4    0.73    0.47
  -6  -5  -4    1.31    0.37
  -7  -5  -4   31.56    1.64
  -7  -5  -4   27.64    1.98
  -8  -5  -4    1.25    1.07
  -8  -5  -4    1.55    0.56
  -9  -5  -4   29.14    1.79
  -9  -5  -4   27.71    2.27
 -10  -5  -4    6.85    1.45
 -10  -5  -4    6.08    1.01
 -11  -5  -4    0.85    1.08
 -11  -5  -4    1.09    0.88
 -12  -5  -4    1.24    1.00
 -12  -5  -4   -2.20    1.44
 -13  -5  -4   -2.66    1.63
  -8   6   4   -0.06    0.79
  -8   6   4    1.88    1.17
  -7   6   4   -0.11    1.10
  -7   6   4    1.81    0.89
   6  -6  -4    0.37    0.85
  -6   6   4    0.34    0.73
  -6   6   4   -0.37    0.80
   5  -6  -4   -1.09    0.68
  -5   6   4    1.32    0.98
  -5   6   4    1.20    0.87
   4  -6  -4    0.65    0.79
  -4   6   4    0.85    0.94
  -4   6   4    1.74    0.77
   3  -6  -4   14.38    1.44
  -3   6   4   14.11    1.34
  -3   6   4   14.22    1.53
   2  -6  -4    8.15    1.03
  -2   6   4    9.92    1.13
  -2   6   4    7.61    1.10
   1  -6  -4   11.05    1.24
  -1   6   4   12.30    1.19
  -1   6   4   11.50    1.09
   0  -6  -4    2.65    0.65
   0   6   4    3.45    0.60
   0   6   4    2.44    0.56
  -1  -6  -4   15.74    0.89
  -1  -6  -4   15.09    1.00
  -1  -6  -4   16.29    1.13
   1   6   4   15.46    0.96
  -2  -6  -4    3.54    0.73
  -2  -6  -4    5.93    0.73
  -2  -6  -4    4.04    0.62
   2   6   4    3.53    0.55
  -3  -6  -4   40.95    1.83
  -3  -6  -4   40.15    1.72
  -3  -6  -4   39.57    1.77
   3   6   4   38.67    1.52
  -4  -6  -4   35.08    1.57
  -4  -6  -4   35.59    1.76
  -4  -6  -4   32.06    1.60
   4   6   4   35.99    1.37
  -5  -6  -4   13.74    0.90
  -5  -6  -4   14.74    1.03
  -5  -6  -4   15.06    0.82
  -5  -6  -4   15.65    1.21
  -6  -6  -4    7.33    1.10
  -6  -6  -4    6.10    0.88
  -7  -6  -4    1.06    0.51
  -7  -6  -4    1.92    1.00
  -8  -6  -4    2.85    0.82
  -8  -6  -4    4.53    1.31
  -9  -6  -4    7.94    1.63
  -9  -6  -4   10.63    1.28
 -10  -6  -4    1.74    1.00
 -10  -6  -4    1.70    0.71
 -11  -6  -4    2.85    1.53
 -11  -6  -4    1.89    0.96
 -12  -6  -4    0.36    0.96
 -12  -6  -4    0.04    1.53
 -13  -6  -4   -1.64    1.21
  -8   7   4    1.18    1.25
  -8   7   4   -2.12    1.07
  -7   7   4   -2.59    1.06
  -7   7   4    0.05    0.69
   6  -7  -4   -0.23    0.88
  -6   7   4   -0.24    0.72
  -6   7   4    0.43    0.85
   5  -7  -4    0.30    0.91
  -5   7   4    1.47    0.72
  -5   7   4    0.47    0.65
   4  -7  -4    0.44    0.81
  -4   7   4   -0.18    0.76
  -4   7   4    0.34    0.54
   3  -7  -4   17.14    1.62
  -3   7   4   18.06    1.38
  -3   7   4   20.37    1.87
   2  -7  -4   26.76    1.73
  -2   7   4   28.08    1.74
  -2   7   4   27.24    1.59
   1  -7  -4    1.32    0.61
  -1   7   4    1.95    0.63
  -1   7   4    2.39    0.71
   0  -7  -4    6.02    1.01
   0   7   4    7.11    0.88
   0   7   4    6.86    0.86
  -1  -7  -4   -0.23    0.39
  -1  -7  -4    0.12    0.33
  -1  -7  -4   -0.02    0.62
   1   7   4   -0.06    0.42
  -2  -7  -4    4.41    0.86
  -2  -7  -4    4.57    0.76
  -2  -7  -4    6.47    0.87
   2   7   4    5.88    0.72
  -3  -7  -4    1.04    0.48
  -3  -7  -4    0.65    0.59
  -3  -7  -4    0.24    0.35
   3   7   4    0.57    0.38
  -4  -7  -4   -0.47    0.45
  -4  -7  -4    0.18    0.63
  -4  -7  -4   -0.14    0.43
   4   7   4    0.27    0.32
  -5  -7  -4   38.09    1.84
  -5  -7  -4   39.93    2.09
  -5  -7  -4   37.99    1.73
  -6  -7  -4    7.73    1.20
  -6  -7  -4    6.71    0.94
  -7  -7  -4    2.57    0.77
  -7  -7  -4    3.91    1.22
  -8  -7  -4    4.31    0.97
  -8  -7  -4    4.03    1.30
  -9  -7  -4    2.95    0.83
  -9  -7  -4    4.82    1.29
 -10  -7  -4    3.56    0.93
 -10  -7  -4    4.15    1.55
 -11  -7  -4    0.03    0.86
 -11  -7  -4   -0.32    1.25
 -12  -7  -4   -1.58    1.41
 -12  -7  -4    0.69    0.81
 -13  -7  -4    2.00    1.05
 -13  -7  -4   -1.58    1.73
  -7   8   4    0.13    1.08
  -7   8   4   -1.75    0.86
   6  -8  -4   -1.89    0.87
  -6   8   4    1.32    0.86
  -6   8   4    0.22    1.08
   5  -8  -4   -0.08    0.67
  -5   8   4    0.08    0.83
  -5   8   4    0.21    0.86
   4  -8  -4   -0.39    0.84
  -4   8   4    0.32    0.65
  -4   8   4    1.28    0.83
   3  -8  -4    3.90    1.12
  -3   8   4    5.01    1.18
  -3   8   4    2.98    0.79
   2  -8  -4   -0.44    0.55
  -2   8   4    1.41    0.75
  -2   8   4    0.16    0.60
   1  -8  -4    3.59    1.01
  -1   8   4    3.81    0.76
  -1   8   4    4.10    0.98
   0  -8  -4    0.58    0.58
   0   8   4    1.25    0.53
   0   8   4    1.41    0.60
  -1  -8  -4   -0.68    0.63
  -1  -8  -4    1.08    0.48
   1   8   4    0.03    0.55
  -2  -8  -4    1.59    0.72
  -2  -8  -4    1.20    0.70
  -2  -8  -4    1.08    0.48
   2   8   4    1.13    0.54
  -3  -8  -4    0.43    0.50
  -3  -8  -4    0.04    0.81
  -3  -8  -4    1.30    0.61
   3   8   4    0.65    0.48
  -4  -8  -4    4.27    1.00
  -4  -8  -4    4.22    0.77
  -4  -8  -4    3.94    0.84
  -5  -8  -4   12.14    1.53
  -5  -8  -4   18.67    1.40
  -5  -8  -4   16.56    1.31
  -6  -8  -4    1.91    1.07
  -6  -8  -4    1.54    0.59
  -7  -8  -4   11.19    1.54
  -7  -8  -4    9.95    1.27
  -8  -8  -4    1.88    1.24
  -8  -8  -4    2.73    0.86
  -9  -8  -4    1.99    0.73
  -9  -8  -4    0.82    1.23
 -10  -8  -4    0.38    0.62
 -10  -8  -4    0.18    0.99
 -11  -8  -4    0.04    0.90
 -11  -8  -4   -0.51    1.37
 -12  -8  -4   -0.64    1.09
 -12  -8  -4    0.17    0.75
   6  -9  -4    0.37    0.91
  -6   9   4    0.83    1.05
  -6   9   4   -0.40    1.14
   5  -9  -4    1.05    1.16
  -5   9   4    1.63    0.85
  -5   9   4    2.47    1.10
   4  -9  -4   -1.18    0.56
  -4   9   4   -0.14    0.82
  -4   9   4    0.83    0.92
   3  -9  -4   -0.02    0.68
  -3   9   4    0.11    0.80
  -3   9   4    0.61    0.81
   2  -9  -4   10.79    1.48
  -2   9   4   13.34    1.51
  -2   9   4   10.71    1.38
   1  -9  -4    0.32    0.64
  -1   9   4    1.68    0.64
  -1   9   4    1.57    0.88
   0  -9  -4    1.26    0.89
   0   9   4    0.42    0.74
   0   9   4    0.81    0.51
  -1  -9  -4    1.63    0.71
  -1  -9  -4    2.15    0.75
   1   9   4    0.47    0.69
  -2  -9  -4   11.00    1.20
  -2  -9  -4   10.36    1.29
   2   9   4   10.43    1.11
  -3  -9  -4   18.05    1.67
  -3  -9  -4   17.31    1.38
  -3  -9  -4   15.23    1.48
  -4  -9  -4    1.32    0.78
  -4  -9  -4    1.15    0.55
  -4  -9  -4   -1.04    0.40
  -5  -9  -4   -0.36    0.63
  -5  -9  -4    0.14    0.48
  -5  -9  -4    1.04    1.03
  -6  -9  -4    4.49    1.31
  -6  -9  -4    2.55    0.86
  -7  -9  -4   11.51    1.62
  -7  -9  -4    9.82    1.32
  -8  -9  -4    2.91    0.99
  -8  -9  -4    3.89    1.44
  -9  -9  -4    0.01    1.29
  -9  -9  -4    0.77    0.62
 -10  -9  -4   -0.01    0.60
 -10  -9  -4   -0.57    0.94
 -11  -9  -4   -0.37    1.52
 -11  -9  -4   -0.48    0.86
 -12  -9  -4   -0.73    1.60
 -12  -9  -4    0.26    1.12
   5 -10  -4   -0.99    1.09
  -5  10   4    0.89    1.15
  -5  10   4    1.54    1.16
   4 -10  -4   -0.46    0.84
  -4  10   4   -0.23    0.87
  -4  10   4   -0.11    0.90
   3 -10  -4   -1.33    0.86
  -3  10   4    0.12    0.61
  -3  10   4    0.10    0.90
   2 -10  -4    0.93    0.77
  -2  10   4    0.50    0.60
  -2  10   4    0.89    0.71
   1 -10  -4   -0.21    0.64
  -1  10   4   -0.36    0.53
  -1  10   4    0.04    0.52
   0 -10  -4   -0.48    0.81
   0  10   4    1.43    0.81
   0  10   4   -0.23    0.64
  -1 -10  -4   12.94    1.42
  -1 -10  -4   15.05    1.64
   1  10   4   11.63    1.36
  -2 -10  -4   -0.12    0.46
  -2 -10  -4    0.56    0.88
  -3 -10  -4   11.48    1.48
  -4 -10  -4    3.92    1.10
  -4 -10  -4    2.93    0.88
  -4 -10  -4    5.79    1.14
  -5 -10  -4   -0.05    0.48
  -5 -10  -4    0.33    0.60
  -5 -10  -4   -0.62    1.01
  -6 -10  -4    3.21    1.00
  -6 -10  -4    3.32    1.30
  -7 -10  -4    0.63    1.22
  -7 -10  -4    0.24    0.76
  -8 -10  -4    0.31    1.29
  -8 -10  -4   -0.29    0.70
  -9 -10  -4    0.38    1.36
  -9 -10  -4    0.94    0.72
 -10 -10  -4   -0.54    1.42
 -10 -10  -4    0.97    0.76
 -11 -10  -4   -2.07    1.42
 -11 -10  -4    1.08    0.85
   4 -11  -4   -0.25    0.94
  -4  11   4    0.77    1.11
  -4  11   4    2.06    1.20
   3 -11  -4   -0.11    0.85
  -3  11   4   -1.02    0.90
  -3  11   4   -0.62    0.93
   2 -11  -4   -0.42    0.74
  -2  11   4   -0.35    0.81
  -2  11   4    0.06    0.64
   1 -11  -4    0.08    0.75
  -1  11   4    0.30    0.81
  -1  11   4    0.06    0.73
   0 -11  -4   -0.33    0.95
   0  11   4    0.56    0.76
   0  11   4   -0.05    0.52
  -1 -11  -4    0.07    0.66
   1  11   4   -0.41    0.49
  -2 -11  -4    3.95    1.19
  -2 -11  -4    3.95    1.04
  -3 -11  -4    5.82    1.04
  -3 -11  -4    4.95    1.22
  -4 -11  -4    1.21    0.70
  -4 -11  -4    1.01    0.77
  -5 -11  -4    4.81    1.10
  -5 -11  -4    6.42    1.50
  -5 -11  -4    4.64    1.16
  -6 -11  -4    5.13    1.05
  -6 -11  -4    5.50    1.51
  -7 -11  -4   -0.75    1.24
  -7 -11  -4    0.48    0.65
  -8 -11  -4   -1.14    0.73
  -8 -11  -4   -0.73    0.97
  -9 -11  -4   -0.12    0.64
  -9 -11  -4   -0.87    1.41
 -10 -11  -4   -2.94    1.42
 -10 -11  -4    0.48    1.04
 -11 -11  -4   -0.35    1.10
 -11 -11  -4    0.64    1.40
   3 -12  -4   -0.21    0.92
  -3  12   4    0.88    1.23
  -3  12   4    1.04    1.24
   2 -12  -4   -0.76    0.76
  -2  12   4    0.23    0.97
  -2  12   4   -0.04    1.04
   1 -12  -4    1.13    1.18
  -1  12   4    0.12    0.94
   0 -12  -4   -0.42    1.06
   0  12   4    2.09    0.97
  -1 -12  -4    0.36    0.83
   1  12   4    1.13    0.94
  -2 -12  -4    0.11    0.95
  -2 -12  -4    0.46    0.81
  -3 -12  -4    0.63    0.71
  -3 -12  -4   -1.15    0.63
  -4 -12  -4    1.20    1.08
  -4 -12  -4    0.60    0.87
  -5 -12  -4   -0.22    1.08
  -5 -12  -4    0.21    0.69
  -6 -12  -4    0.02    0.87
  -6 -12  -4   -0.62    1.27
  -7 -12  -4   -1.15    1.35
  -7 -12  -4    1.48    0.82
  -8 -12  -4    0.69    0.85
  -8 -12  -4   -1.54    1.40
  -9 -12  -4   -1.85    1.41
  -9 -12  -4    0.20    1.03
 -10 -12  -4   -0.45    1.13
 -10 -12  -4   -3.31    1.46
   1 -13  -4    0.15    1.32
  -1  13   4   -0.29    1.05
   0 -13  -4    0.22    0.91
   0  13   4    0.35    1.08
  -1 -13  -4   -1.29    1.11
   1  13   4   -0.38    0.94
  -2 -13  -4    0.24    0.76
  -2 -13  -4   -0.70    1.12
  -3 -13  -4    0.22    0.73
  -3 -13  -4   -1.13    0.99
  -4 -13  -4    1.69    1.11
  -4 -13  -4    1.34    1.22
  -5 -13  -4   -1.36    0.68
  -5 -13  -4   -1.37    0.96
  -6 -13  -4    2.18    1.22
  -7 -13  -4    2.16    1.27
  -8 -13  -4    0.33    0.91
  -8 -13  -4   -2.29    1.53
  -2 -14  -4    1.29    1.12
   2  14   4   -0.28    0.74
  -3 -14  -4   -1.04    1.04
  -3 -14  -4    1.16    1.09
  -4 -14  -4    1.06    1.10
  -4 -14  -4    0.29    0.87
  -5 -14  -4    0.66    0.88
  -6 -14  -4    0.90    1.00
  -3 -11   5    3.37    1.56
  -3 -11   5    0.23    1.06
  -2 -11   5    2.00    1.22
  -2 -11   5    3.54    1.51
  -1 -11   5    1.00    0.92
  -1 -11   5    2.16    1.43
   0 -11   5    0.68    1.43
   0 -11   5    0.80    1.28
   1 -11   5   -0.77    1.14
   1 -11   5    1.22    1.43
  -5 -10   5    1.09    0.92
  -5 -10   5    2.96    1.40
  -4 -10   5    2.84    1.38
  -3 -10   5    4.74    1.51
  -3 -10   5    1.23    1.09
  -2 -10   5    2.44    1.25
  -2 -10   5    1.25    1.01
  -1 -10   5    2.38    0.96
  -1 -10   5    3.20    1.37
   0 -10   5    1.46    1.05
   0 -10   5    1.53    1.00
   1 -10   5    0.08    0.96
   1 -10   5    2.38    1.36
   2 -10   5    1.61    1.39
   2 -10   5    1.60    1.14
   3 -10   5    5.46    1.55
   4 -10   5   -0.25    1.24
  -7  -9   5   -0.18    1.50
  -7  -9   5    0.37    1.20
  -6  -9   5    1.13    0.94
  -6  -9   5    2.39    1.37
  -5  -9   5    1.12    1.09
  -5  -9   5    3.34    1.36
  -4  -9   5    1.24    0.85
  -4  -9   5    0.39    0.88
  -3  -9   5    1.04    0.90
  -3  -9   5    1.35    0.89
  -3  -9   5    1.71    0.94
  -2  -9   5    8.43    1.45
  -2  -9   5   10.17    1.79
  -1  -9   5    1.66    1.18
  -1  -9   5    1.90    0.77
   0  -9   5    0.84    0.90
   0  -9   5    2.49    1.20
   1  -9   5    1.16    0.94
   1  -9   5    2.26    1.22
   2  -9   5    1.85    0.96
   2  -9   5    2.21    1.25
   3  -9   5    0.77    0.74
   3  -9   5   -0.16    1.05
  -4   9  -5    1.83    1.12
   4  -9   5    1.70    0.99
  -5   9  -5    0.13    0.77
   5  -9   5    0.15    1.16
  -8  -8   5   -0.41    1.18
  -8  -8   5   -0.71    1.11
  -7  -8   5   -0.40    1.29
  -7  -8   5    0.04    0.78
  -6  -8   5    1.49    1.10
  -6  -8   5   -0.55    1.00
  -5  -8   5    0.20    0.63
  -5  -8   5    1.23    0.97
  -4  -8   5    0.16    0.83
  -4  -8   5    1.15    0.69
  -4  -8   5    0.91    0.97
  -3  -8   5   10.32    1.36
  -3  -8   5   10.23    1.59
  -3  -8   5   12.07    1.46
  -2  -8   5    4.22    1.25
  -2  -8   5    3.99    1.07
  -2  -8   5    3.86    0.97
  -1  -8   5    8.22    1.23
  -1  -8   5    7.52    1.45
   0  -8   5    4.79    1.15
   0  -8   5    5.23    1.14
   1  -8   5    2.33    1.11
   1  -8   5    3.37    0.98
   2  -8   5    2.55    1.02
   2  -8   5    3.10    1.19
  -3   8  -5    0.10    0.78
   3  -8   5    1.14    0.85
   3  -8   5    0.91    0.70
  -4   8  -5    1.42    0.92
   4  -8   5    1.47    1.01
   4  -8   5    0.14    1.05
  -5   8  -5    1.10    0.98
   5  -8   5   -0.47    0.58
  -6   8  -5    3.03    1.23
   6  -8   5    3.83    1.42
  -7   8  -5    3.45    1.44
   7  -8   5    3.23    1.62
  -8  -7   5   -0.40    1.48
  -8  -7   5    1.05    0.94
  -7  -7   5   -0.18    1.23
  -7  -7   5    0.50    1.02
  -6  -7   5   -1.40    0.76
  -6  -7   5   -0.64    0.94
  -5  -7   5   -0.79    0.81
  -5  -7   5    0.14    0.78
  -4  -7   5    0.17    0.73
  -4  -7   5    0.41    0.64
  -4  -7   5    0.18    0.67
  -3  -7   5    3.48    1.14
  -3  -7   5    5.65    1.03
  -3  -7   5    3.75    0.95
  -2  -7   5    8.03    1.35
  -2  -7   5    4.21    0.88
  -2  -7   5    7.33    1.07
  -1  -7   5    1.62    0.91
  -1  -7   5    2.29    0.83
  -1  -7   5    0.56    0.56
   0  -7   5    2.79    0.90
   0  -7   5    2.92    1.05
  -1   7  -5    1.56    0.68
   1  -7   5    2.48    0.89
   1  -7   5    3.07    1.05
  -2   7  -5    3.67    0.87
   2  -7   5    4.85    1.03
   2  -7   5    4.68    1.17
  -3   7  -5    5.35    1.08
   3  -7   5    5.35    1.05
   3  -7   5    5.93    1.30
  -4   7  -5    1.89    0.89
   4  -7   5    2.22    0.91
   4  -7   5    2.59    1.04
  -5   7  -5    5.24    1.19
   5  -7   5    4.66    1.25
   5  -7   5    5.33    1.21
  -6   7  -5   -0.03    0.87
   6  -7   5    1.59    1.04
  -7   7  -5    0.99    0.86
   7  -7   5    1.50    1.25
  -8   7  -5    2.11    1.03
   8  -7   5    0.71    1.36
  -9  -6   5   -2.56    1.49
  -9  -6   5    1.08    1.21
  -8  -6   5    0.16    0.99
  -8  -6   5    0.41    1.49
  -7  -6   5   -0.89    1.06
  -7  -6   5    0.31    0.68
  -6  -6   5    1.30    0.92
  -6  -6   5   -0.50    0.94
  -5  -6   5    9.18    1.54
  -5  -6   5    9.34    1.33
  -4  -6   5   13.05    1.37
  -4  -6   5   14.19    1.70
  -4  -6   5   14.46    1.47
  -3  -6   5    1.17    0.67
  -3  -6   5    1.54    0.71
  -3  -6   5    1.53    0.74
  -2  -6   5   -0.45    0.37
  -2  -6   5   -0.31    0.47
  -2  -6   5    0.04    0.54
  -1  -6   5    3.71    0.73
  -1  -6   5    4.20    0.86
  -1  -6   5    4.05    0.96
   0   6  -5   23.21    1.39
   0  -6   5   22.74    1.33
   0  -6   5   22.37    1.58
   0  -6   5   21.96    1.86
  -1   6  -5    0.61    0.57
   1  -6   5    0.17    0.81
   1  -6   5    1.02    0.59
  -2   6  -5    0.93    0.63
   2  -6   5    1.04    0.75
   2  -6   5    0.18    0.73
  -3   6  -5    0.06    0.47
   3  -6   5   -0.01    0.43
   3  -6   5    0.56    0.80
  -4   6  -5    0.17    0.63
   4  -6   5    0.28    0.75
   4  -6   5    0.38    0.50
  -5   6  -5    0.59    0.79
   5  -6   5    0.31    0.65
   5  -6   5    1.42    0.92
  -6   6  -5   -0.48    0.50
   6  -6   5    0.53    0.84
   6  -6   5   -0.25    0.80
  -7   6  -5    1.25    1.01
   7  -6   5    0.20    0.69
  -8   6  -5    0.51    1.05
   8  -6   5   -0.78    1.04
  -9   6  -5    0.15    1.17
  -9  -5   5    0.59    0.88
  -9  -5   5    0.78    1.62
  -8  -5   5   -1.86    1.26
  -8  -5   5   -0.51    0.59
  -7  -5   5   -0.10    0.57
  -7  -5   5   -0.85    1.11
  -6  -5   5    1.07    0.82
  -6  -5   5    0.98    0.80
  -5  -5   5    2.76    0.86
  -5  -5   5    3.61    0.95
  -4  -5   5    6.69    1.17
  -4  -5   5    5.35    0.98
  -4  -5   5    6.77    0.93
  -3  -5   5   12.36    1.56
  -3  -5   5   10.62    1.21
  -3  -5   5   10.98    1.20
  -2  -5   5   11.48    1.08
  -2  -5   5   13.09    1.27
  -2  -5   5   11.89    1.48
   1   5  -5    0.19    0.39
  -1  -5   5    0.27    0.42
  -1  -5   5   -0.15    0.35
  -1  -5   5    0.26    0.49
   0   5  -5   12.61    0.98
   0  -5   5   12.99    0.91
   0  -5   5   12.81    1.45
   0  -5   5   11.45    1.24
  -1   5  -5    0.69    0.48
   1  -5   5    0.82    0.69
   1  -5   5    0.66    0.43
   1  -5   5    1.06    0.62
  -2   5  -5    0.79    0.55
   2  -5   5    0.75    0.68
   2  -5   5    1.08    0.52
  -3   5  -5    2.53    0.69
   3  -5   5    2.73    0.81
   3  -5   5    1.00    0.54
  -4   5  -5    0.33    0.63
   4  -5   5   -0.73    0.66
   4  -5   5    0.48    0.51
  -5   5  -5   -0.14    0.63
   5  -5   5   -0.03    0.70
   5  -5   5   -0.21    0.44
  -6   5  -5   -0.23    0.69
   6  -5   5   -0.20    0.76
   6  -5   5   -0.28    0.41
  -7   5  -5    0.29    0.80
   7  -5   5    1.22    0.83
   7  -5   5    0.20    0.88
  -8   5  -5   -0.39    0.57
  -9   5  -5    1.65    1.16
 -10   5  -5    0.48    1.22
 -10  -4   5   -1.18    1.60
 -10  -4   5   -0.59    0.79
  -9  -4   5    0.51    1.64
  -9  -4   5   -0.16    1.04
  -8  -4   5    1.71    1.03
  -8  -4   5   -0.38    1.31
  -7  -4   5    3.12    1.39
  -7  -4   5    3.69    1.07
  -6  -4   5    0.63    0.97
  -6  -4   5    0.76    0.76
  -5  -4   5   13.61    1.42
  -5  -4   5   16.61    1.84
  -4  -4   5   35.76    1.81
  -4  -4   5   38.38    1.89
  -4  -4   5   33.07    2.09
  -3  -4   5   22.36    1.40
  -3  -4   5   22.53    1.41
  -3  -4   5   22.46    1.68
   2   4  -5   26.53    1.25
  -2  -4   5   27.47    1.75
  -2  -4   5   27.53    1.44
  -2  -4   5   26.63    1.54
   1   4  -5   20.23    1.11
  -1  -4   5   22.16    1.54
  -1  -4   5   21.32    1.17
  -1  -4   5   21.96    1.40
   0   4  -5    6.84    0.76
   0  -4   5    6.83    0.93
   0  -4   5    6.74    0.70
   0  -4   5    7.62    1.13
  -1   4  -5   16.06    1.09
   1  -4   5   17.06    1.22
   1  -4   5   17.36    0.89
   1  -4   5   15.50    1.27
  -2   4  -5   11.48    1.11
   2  -4   5   11.06    1.16
   2  -4   5   14.35    1.48
  -3   4  -5    7.14    0.98
   3  -4   5    7.66    0.99
   3  -4   5    7.12    1.14
  -4   4  -5    0.44    0.56
   4  -4   5    1.11    0.63
   4  -4   5    0.00    0.60
  -5   4  -5    1.16    0.75
   5  -4   5    3.16    0.95
   5  -4   5    3.07    0.71
  -6   4  -5   17.71    1.76
   6  -4   5   17.24    1.62
   6  -4   5   15.34    1.68
  -7   4  -5    9.27    1.30
   7  -4   5    8.89    1.27
   7  -4   5    7.22    1.36
  -8   4  -5   -0.49    0.53
   8  -4   5    0.85    0.91
  -9   4  -5    0.30    0.74
 -10   4  -5   -0.48    1.04
 -10  -3   5    0.40    0.89
  -9  -3   5    1.64    1.13
  -9  -3   5   -0.01    1.52
  -8  -3   5   -0.22    0.57
  -8  -3   5   -1.41    1.14
  -7  -3   5    1.16    1.18
  -7  -3   5    0.25    0.78
  -6  -3   5    0.69    0.72
  -6  -3   5   -0.40    0.90
  -5  -3   5    5.71    1.20
  -5  -3   5    4.34    0.97
  -4  -3   5   15.18    1.11
  -4  -3   5   16.72    1.67
  -4  -3   5   13.49    1.31
  -3  -3   5   16.86    1.14
  -3  -3   5   19.05    1.17
  -3  -3   5   21.10    1.45
  -3  -3   5   18.63    1.04
   2   3  -5   32.05    1.38
  -2  -3   5   32.32    1.58
  -2  -3   5   32.68    1.51
  -2  -3   5   31.10    1.85
   1   3  -5    0.13    0.30
  -1  -3   5   -0.43    0.47
  -1  -3   5   -0.18    0.26
  -1  -3   5    0.36    0.33
   0   3  -5   16.30    0.97
   0  -3   5   12.98    1.00
   0  -3   5   15.45    1.19
   0  -3   5   16.08    0.86
  -1   3  -5   69.14    2.48
   1  -3   5   66.73    2.88
   1  -3   5   69.50    2.68
   1  -3   5   68.44    2.12
  -2   3  -5    8.36    0.91
   2  -3   5    8.40    0.93
   2  -3   5    9.43    1.12
   2  -3   5    7.26    0.50
  -3   3  -5   27.05    1.50
   3  -3   5   26.05    1.65
   3  -3   5   24.37    1.44
  -4   3  -5   28.67    1.67
   4  -3   5   27.70    1.78
   4  -3   5   31.60    1.65
  -5   3  -5    0.97    0.64
   5  -3   5   -0.06    0.59
   5  -3   5    0.11    0.50
  -6   3  -5    0.94    0.56
   6  -3   5    1.05    0.76
   6  -3   5    1.56    0.63
  -7   3  -5   11.68    1.46
   7  -3   5   10.66    1.46
   7  -3   5   12.80    1.37
  -8   3  -5    9.71    1.37
   8  -3   5    7.67    1.44
  -9   3  -5   -0.18    0.60
   9  -3   5   -0.26    0.90
 -10   3  -5    2.54    1.22
 -11   3  -5   -0.62    0.77
 -10  -2   5   -0.30    0.79
  -9  -2   5   -0.04    0.68
  -8  -2   5   -0.27    0.77
  -8  -2   5    0.80    1.32
  -7  -2   5    0.23    0.54
  -7  -2   5   -0.81    1.05
  -6  -2   5    2.74    1.15
  -6  -2   5    2.83    0.87
  -5  -2   5    0.59    0.78
  -5  -2   5    0.52    0.43
  -5  -2   5   -0.49    0.35
  -4  -2   5    7.42    0.82
  -4  -2   5    7.52    0.87
  -4  -2   5    7.14    0.94
  -4  -2   5    7.12    1.10
  -3  -2   5    6.94    1.02
  -3  -2   5    5.46    0.80
  -3  -2   5    4.98    0.68
  -3  -2   5    5.13    0.66
   2   2  -5   13.25    0.87
  -2  -2   5   11.62    1.01
  -2  -2   5   11.72    0.88
  -2  -2   5   13.06    1.12
   1   2  -5   -0.19    0.32
  -1  -2   5    0.49    0.33
  -1  -2   5   -0.57    0.40
  -1  -2   5   -0.58    0.34
   0   2  -5   88.07    2.87
   0  -2   5   88.41    2.65
   0  -2   5   86.03    3.05
   0  -2   5   92.49    3.44
  -1   2  -5   50.42    1.95
   1  -2   5   52.48    2.10
   1  -2   5   53.23    1.62
   1  -2   5   48.42    2.24
  -2   2  -5   14.76    1.01
   2  -2   5   13.72    1.13
   2  -2   5   15.09    0.60
   2  -2   5   14.06    0.98
  -3   2  -5   29.23    1.46
   3  -2   5   29.56    1.67
   3  -2   5   26.46    1.46
  -4   2  -5    0.31    0.48
   4  -2   5    0.12    0.51
   4  -2   5   -0.30    0.38
  -5   2  -5    9.34    1.12
   5  -2   5    9.00    1.19
   5  -2   5    9.05    0.98
  -6   2  -5   28.05    1.79
   6  -2   5   31.07    1.64
   6  -2   5   27.67    1.85
  -7   2  -5    0.81    0.71
   7  -2   5    0.65    0.77
   7  -2   5    2.10    0.62
  -8   2  -5    8.78    1.37
   8  -2   5    8.92    1.45
  -9   2  -5    2.06    0.98
   9  -2   5    2.42    1.08
 -10   2  -5   -0.29    0.85
  10  -2   5    1.20    1.14
 -11   2  -5    1.01    0.87
 -10  -1   5    0.36    0.80
  -9  -1   5   -0.50    0.57
  -8  -1   5    1.60    0.74
  -7  -1   5    0.95    0.60
  -7  -1   5    0.95    1.10
  -6  -1   5    4.63    1.19
  -6  -1   5    3.11    0.90
  -6  -1   5    4.31    0.88
  -5  -1   5    1.23    0.83
  -5  -1   5    0.56    0.62
  -5  -1   5    1.33    0.56
  -4  -1   5    5.20    0.81
  -4  -1   5    4.62    0.88
  -4  -1   5    3.84    0.67
  -3  -1   5    7.33    0.96
  -3  -1   5    6.60    0.83
  -3  -1   5    8.48    0.85
  -2  -1   5    1.61    0.41
  -2  -1   5    0.28    0.43
   1   1  -5    0.19    0.32
  -1  -1   5    0.17    0.37
  -1  -1   5    0.21    0.33
  -1  -1   5    0.44    0.46
   0   1  -5    8.34    0.77
   0  -1   5    8.87    0.61
   0  -1   5   10.14    0.92
   0  -1   5    8.04    0.93
  -1   1  -5   10.21    0.79
   1  -1   5   10.09    0.54
   1  -1   5    8.89    0.84
   1  -1   5    8.83    0.98
  -2   1  -5   33.84    1.48
   2  -1   5   33.35    1.51
   2  -1   5   33.76    1.70
  -3   1  -5    7.33    0.82
   3  -1   5    6.81    0.78
   3  -1   5    9.01    1.03
  -4   1  -5    4.11    0.66
   4  -1   5    5.12    0.67
   4  -1   5    5.26    0.81
  -5   1  -5    9.92    1.09
   5  -1   5   13.64    1.38
   5  -1   5   11.55    0.92
  -6   1  -5    6.68    0.93
   6  -1   5    6.76    0.82
   6  -1   5    6.22    1.00
  -7   1  -5    8.52    1.19
   7  -1   5    8.46    1.31
   7  -1   5    8.69    0.98
  -8   1  -5    0.78    0.61
   8  -1   5    2.38    0.83
  -9   1  -5   -0.20    0.54
   9  -1   5    0.05    0.79
 -10   1  -5    1.20    0.73
  10  -1   5    3.31    1.24
 -11   1  -5    0.23    0.98
  11  -1   5    1.42    1.20
 -12   1  -5    1.07    1.14
 -10   0   5    1.26    1.12
  -9   0   5   -0.79    0.53
  -8   0   5    0.59    0.69
  -7   0   5    1.36    0.83
  -7   0   5    2.23    0.98
  -6   0   5   26.11    1.87
  -6   0   5   29.32    1.89
  -6   0   5   27.78    1.77
  -5   0   5    9.35    1.09
  -5   0   5   10.15    1.25
  -5   0   5    8.76    1.17
  -4   0   5    1.56    0.61
  -4   0   5    1.38    0.68
  -4   0   5    1.94    0.60
  -3   0   5    4.45    0.73
  -3   0   5    3.69    0.65
  -3   0   5    3.22    0.67
  -2   0   5    9.39    0.83
  -2   0   5    9.20    0.88
  -2   0   5   10.70    0.95
   1   0  -5    1.62    0.39
  -1   0   5    1.74    0.50
  -1   0   5    1.33    0.35
   0   0  -5   58.37    2.09
   0   0   5   60.36    2.31
   0   0   5   61.09    1.95
  -1   0  -5   37.29    1.52
   1   0   5   39.97    1.28
   1   0   5   37.29    1.68
  -2   0  -5    0.87    0.39
   2   0   5    1.05    0.40
   2   0   5    0.75    0.32
  -3   0  -5    9.10    0.87
   3   0   5   10.27    1.04
   3   0   5    8.75    0.69
  -4   0  -5    7.74    0.84
   4   0   5    8.74    0.98
   4   0   5    7.38    0.74
  -5   0  -5    0.12    0.19
  -5   0  -5    0.52    0.45
   5   0   5    0.16    0.32
   5   0   5    0.53    0.54
  -6   0  -5    0.31    0.52
   6   0   5    1.04    0.41
   6   0   5    1.07    0.55
  -7   0  -5    0.26    0.56
   7   0   5    0.66    0.72
   7   0   5   -0.09    0.34
  -8   0  -5    0.60    0.53
   8   0   5   -0.64    0.72
  -9   0  -5    0.85    0.77
   9   0   5    0.40    0.85
 -10   0  -5   -0.16    0.77
  10   0   5   -0.33    0.94
 -11   0  -5    1.05    0.76
  11   0   5    0.36    0.88
 -12   0  -5    0.21    1.02
  12   0   5   -1.15    1.19
 -10   1   5    1.34    1.21
  -9   1   5    0.66    0.73
  -8   1   5    0.67    1.01
  -8   1   5    2.54    1.00
  -7   1   5   -0.36    0.85
  -7   1   5    0.23    0.55
  -6   1   5    0.84    0.60
  -6   1   5   -0.41    0.76
  -5   1   5   37.96    1.97
  -5   1   5   36.49    1.95
  -5   1   5   37.38    1.94
   4  -1  -5   10.42    1.00
  -4   1   5   10.29    1.11
  -4   1   5   10.52    1.11
  -4   1   5   10.11    1.09
   3  -1  -5   19.08    1.07
  -3   1   5   16.95    1.07
  -3   1   5   16.64    1.10
  -3   1   5   14.57    1.03
  -2   1   5    0.68    0.34
  -2   1   5    0.54    0.35
  -2   1   5    1.05    0.47
  -1   1   5   -0.28    0.22
  -1   1   5    0.45    0.36
  -1   1   5    0.25    0.37
   0  -1  -5    2.20    0.47
   0   1   5    3.16    0.46
   0   1   5    3.31    0.50
  -1  -1  -5   29.24    1.30
   1   1   5   29.28    1.35
   1   1   5   29.80    1.08
  -2  -1  -5   93.44    3.01
   2   1   5   99.91    3.34
   2   1   5   93.74    2.57
  -3  -1  -5   36.11    1.54
   3   1   5   37.22    1.72
  -4  -1  -5    1.58    0.41
  -4  -1  -5    1.08    0.22
   4   1   5    0.99    0.43
   4   1   5    1.11    0.35
  -5  -1  -5    2.09    0.48
  -5  -1  -5    1.44    0.28
   5   1   5    1.95    0.57
   5   1   5    1.94    0.42
  -6  -1  -5    3.90    0.73
  -6  -1  -5    4.18    0.48
  -6  -1  -5    4.01    0.98
   6   1   5    4.59    0.57
  -7  -1  -5    7.17    1.24
  -7  -1  -5    6.69    0.91
  -8  -1  -5    3.61    0.88
  -8  -1  -5    2.24    1.04
  -9  -1  -5    5.18    1.35
  -9  -1  -5    6.59    1.12
 -10  -1  -5    0.25    0.78
 -10  -1  -5    1.20    1.12
 -11  -1  -5    1.17    0.92
 -11  -1  -5    1.32    1.26
 -12  -1  -5    0.18    1.00
 -12  -1  -5    0.72    1.01
 -10   2   5    1.54    1.02
  -9   2   5    0.96    1.07
  -9   2   5   -0.04    0.95
  -8   2   5   -1.19    0.89
  -8   2   5   -0.09    0.83
  -7   2   5    2.78    1.16
  -7   2   5    3.77    0.93
  -6   2   5    0.73    0.57
  -6   2   5   -0.60    0.78
   5  -2  -5   17.89    1.28
  -5   2   5   18.43    1.62
  -5   2   5   19.47    1.51
   4  -2  -5   -0.23    0.40
  -4   2   5    0.81    0.62
  -4   2   5    0.32    0.54
  -4   2   5    0.28    0.40
   3  -2  -5   12.53    0.99
  -3   2   5   10.81    0.86
  -3   2   5   11.45    1.15
  -3   2   5   13.75    1.22
   2  -2  -5   90.96    3.15
  -2   2   5   95.69    3.09
  -2   2   5   92.86    3.05
  -2   2   5   90.79    3.13
   1  -2  -5    6.39    0.77
  -1   2   5    7.49    0.74
  -1   2   5    5.17    0.66
  -1   2   5    7.35    0.56
   0  -2  -5    9.58    0.73
   0  -2  -5   11.47    0.86
   0   2   5    8.48    0.67
   0   2   5   11.08    0.65
  -1  -2  -5   19.86    1.01
  -1  -2  -5   20.48    1.05
   1   2   5   18.23    0.87
   1   2   5   20.81    0.99
  -2  -2  -5   20.84    1.04
   2   2   5   21.38    0.85
   2   2   5   21.91    1.11
  -3  -2  -5    1.20    0.25
  -3  -2  -5    0.78    0.31
   3   2   5    1.20    0.47
  -4  -2  -5   17.99    1.00
  -4  -2  -5   21.77    1.35
  -4  -2  -5   18.41    0.80
  -5  -2  -5   39.83    1.39
  -5  -2  -5   39.22    1.69
  -5  -2  -5   42.13    2.05
   5   2   5   41.86    1.52
  -6  -2  -5   12.31    0.76
  -6  -2  -5   12.41    1.12
  -6  -2  -5   13.09    1.38
   6   2   5   12.42    0.73
  -7  -2  -5    3.27    1.01
  -7  -2  -5    4.27    0.58
  -7  -2  -5    4.31    0.77
  -8  -2  -5    5.41    0.74
  -8  -2  -5    5.06    1.28
  -8  -2  -5    3.96    0.75
  -9  -2  -5    2.44    1.19
  -9  -2  -5    2.39    0.84
 -10  -2  -5    3.22    1.06
 -10  -2  -5    3.14    0.94
 -11  -2  -5    0.76    0.84
 -11  -2  -5    0.21    1.20
 -12  -2  -5    1.08    1.47
 -13  -2  -5    0.98    1.55
  -9   3   5    0.34    1.04
  -9   3   5    0.72    1.04
  -8   3   5    0.26    0.64
  -8   3   5   -0.88    0.68
  -7   3   5    0.66    0.61
  -7   3   5   -0.60    0.95
  -6   3   5    3.54    0.86
  -6   3   5    2.72    1.06
   5  -3  -5    1.88    0.71
  -5   3   5    2.40    0.76
  -5   3   5    2.40    0.97
   4  -3  -5    2.66    0.71
  -4   3   5    2.83    0.86
  -4   3   5    2.00    0.78
   3  -3  -5    7.43    0.86
  -3   3   5    8.33    0.96
  -3   3   5    6.19    0.92
   2  -3  -5    3.01    0.58
  -2   3   5    2.26    0.52
  -2   3   5    1.95    0.60
  -2   3   5    2.61    0.39
   1  -3  -5  122.40    3.86
  -1   3   5  118.39    3.61
  -1   3   5  117.79    3.82
  -1   3   5  120.20    3.68
   0  -3  -5   68.71    2.42
   0   3   5   66.03    2.26
   0   3   5   66.90    2.17
   0   3   5   65.19    2.38
  -1  -3  -5   25.00    1.19
  -1  -3  -5   25.25    1.22
   1   3   5   25.43    1.11
   1   3   5   24.80    1.07
  -2  -3  -5   92.49    2.99
  -2  -3  -5   86.26    2.87
   2   3   5   93.78    3.09
   2   3   5   92.02    2.70
  -3  -3  -5    4.64    0.60
  -3  -3  -5    5.19    0.52
  -3  -3  -5    4.30    0.54
  -3  -3  -5    6.37    0.81
  -4  -3  -5   37.38    1.53
  -4  -3  -5   36.34    1.37
  -4  -3  -5   41.52    1.91
  -5  -3  -5   61.51    2.06
  -5  -3  -5   65.16    2.73
  -5  -3  -5   64.44    2.28
  -6  -3  -5   55.39    2.68
  -6  -3  -5   59.90    2.03
  -6  -3  -5   56.14    2.19
   6   3   5   57.53    1.89
  -7  -3  -5   26.10    1.44
  -7  -3  -5   27.29    1.31
  -7  -3  -5   24.74    1.74
  -8  -3  -5    7.57    0.87
  -8  -3  -5    8.35    1.43
  -8  -3  -5    8.04    0.99
  -9  -3  -5    1.42    0.69
  -9  -3  -5    2.17    0.67
  -9  -3  -5    1.64    0.94
 -10  -3  -5   -0.24    1.13
 -10  -3  -5    0.99    0.78
 -11  -3  -5    1.02    1.27
 -12  -3  -5    0.11    1.32
 -13  -3  -5    0.33    1.53
  -9   4   5    2.00    1.28
  -9   4   5    1.87    1.26
  -8   4   5    0.10    0.87
  -8   4   5   -0.35    1.01
  -7   4   5    1.74    1.18
  -7   4   5    2.60    0.98
   6  -4  -5    1.19    0.73
  -6   4   5    0.87    0.68
  -6   4   5   -0.38    0.91
   5  -4  -5   -0.86    0.54
  -5   4   5    0.41    0.81
  -5   4   5   -0.71    0.53
   4  -4  -5    3.70    0.83
  -4   4   5    2.00    0.67
  -4   4   5    2.14    0.89
   3  -4  -5    6.03    0.93
  -3   4   5    7.57    1.05
  -3   4   5    6.53    0.94
   2  -4  -5   -0.21    0.32
  -2   4   5    1.72    0.61
  -2   4   5    0.93    0.42
   1  -4  -5    6.16    0.80
  -1   4   5    6.86    0.85
  -1   4   5    7.75    0.84
   0  -4  -5  129.88    4.20
   0   4   5  137.36    4.17
   0   4   5  131.03    3.97
  -1  -4  -5   27.73    1.34
   1   4   5   28.49    1.31
   1   4   5   26.73    1.21
   1   4   5   25.93    1.08
  -2  -4  -5   29.30    1.31
  -2  -4  -5   25.26    1.26
  -2  -4  -5   28.52    1.22
  -2  -4  -5   30.31    1.38
  -3  -4  -5   36.62    1.51
  -3  -4  -5   38.03    1.47
  -3  -4  -5   37.21    1.53
  -4  -4  -5    5.68    0.82
  -4  -4  -5    4.13    0.57
  -4  -4  -5    4.35    0.57
  -4  -4  -5    4.41    0.54
  -5  -4  -5    2.70    0.81
  -5  -4  -5    0.11    0.21
  -5  -4  -5    1.39    0.42
  -6  -4  -5    8.56    1.15
  -6  -4  -5    6.35    0.72
  -6  -4  -5    6.97    0.76
  -7  -4  -5   18.92    1.17
  -7  -4  -5   18.51    1.15
  -7  -4  -5   18.53    1.50
  -8  -4  -5   14.88    1.13
  -8  -4  -5   13.87    1.23
  -8  -4  -5   12.79    1.73
  -9  -4  -5    9.98    1.71
  -9  -4  -5   13.48    1.30
  -9  -4  -5   11.73    1.20
 -10  -4  -5    5.36    1.31
 -10  -4  -5    4.15    0.93
 -11  -4  -5   -1.49    0.71
 -12  -4  -5   -0.04    1.09
 -13  -4  -5   -2.04    1.46
  -8   5   5   -0.96    1.02
  -8   5   5    0.13    0.69
  -7   5   5    1.06    1.16
  -7   5   5    0.59    0.97
   6  -5  -5    9.01    1.33
  -6   5   5    5.83    1.39
  -6   5   5    6.56    1.33
   5  -5  -5    1.73    0.69
  -5   5   5    3.04    0.87
  -5   5   5    2.49    1.06
   4  -5  -5   -0.53    0.64
  -4   5   5   -0.75    0.47
  -4   5   5    0.52    0.57
   3  -5  -5   -0.22    0.59
  -3   5   5    0.01    0.41
  -3   5   5    0.32    0.68
   2  -5  -5    0.59    0.49
  -2   5   5    0.37    0.39
  -2   5   5   -0.02    0.41
   1  -5  -5    6.65    0.96
  -1   5   5    8.23    0.89
  -1   5   5    8.04    0.91
   0  -5  -5    3.71    0.75
   0   5   5    3.48    0.67
   0   5   5    4.64    0.65
  -1  -5  -5    4.81    0.71
   1   5   5    5.58    0.67
   1   5   5    3.27    0.62
  -2  -5  -5   13.09    0.89
  -2  -5  -5   14.38    0.96
  -2  -5  -5   12.29    0.84
   2   5   5   12.54    0.90
  -3  -5  -5   25.59    1.26
  -3  -5  -5   24.36    1.28
  -3  -5  -5   23.66    1.31
  -3  -5  -5   24.74    1.19
  -4  -5  -5    7.79    0.78
  -4  -5  -5    6.89    0.70
  -4  -5  -5    9.71    1.07
  -4  -5  -5    8.84    0.85
  -5  -5  -5   41.85    1.70
  -5  -5  -5   37.71    1.54
  -5  -5  -5   39.64    1.57
  -5  -5  -5   37.41    1.94
  -6  -5  -5    0.76    0.34
  -6  -5  -5    0.96    0.46
  -6  -5  -5    1.68    0.70
  -6  -5  -5    0.53    0.36
  -7  -5  -5    8.63    0.97
  -7  -5  -5    9.14    0.86
  -7  -5  -5   11.60    1.51
  -8  -5  -5    5.81    0.93
  -8  -5  -5    9.81    1.55
  -9  -5  -5   11.72    1.66
  -9  -5  -5    9.35    1.14
 -10  -5  -5    0.73    0.95
 -10  -5  -5   -0.69    0.60
 -11  -5  -5    0.59    0.80
 -11  -5  -5    2.44    1.22
 -12  -5  -5    1.33    1.23
 -13  -5  -5   -1.79    1.62
  -8   6   5    3.50    1.38
  -8   6   5    0.45    1.07
  -7   6   5    2.92    1.25
  -7   6   5    0.20    1.12
   6  -6  -5    0.53    0.90
  -6   6   5    0.09    0.96
  -6   6   5    0.02    0.72
   5  -6  -5    2.06    0.79
  -5   6   5    0.67    0.75
  -5   6   5    1.27    0.95
   4  -6  -5    1.13    0.83
  -4   6   5    1.17    0.95
  -4   6   5    0.01    0.69
   3  -6  -5   -0.49    0.68
  -3   6   5    0.29    0.78
  -3   6   5    0.22    0.61
   2  -6  -5    0.09    0.48
  -2   6   5   -0.14    0.61
  -2   6   5    0.26    0.42
   1  -6  -5   13.64    1.32
  -1   6   5    9.74    1.09
  -1   6   5   12.78    1.27
   0  -6  -5   17.58    1.25
   0   6   5   19.62    1.24
   0   6   5   17.45    1.16
  -1  -6  -5    2.74    0.48
  -1  -6  -5    3.91    0.72
   1   6   5    3.58    0.61
   1   6   5    3.21    0.65
  -2  -6  -5   13.84    1.11
  -2  -6  -5   14.83    1.04
  -2  -6  -5   14.32    0.94
   2   6   5   13.93    0.96
  -3  -6  -5   10.71    1.01
  -3  -6  -5   12.36    0.95
  -3  -6  -5   10.04    0.98
   3   6   5   10.24    0.80
  -4  -6  -5   22.33    1.28
  -4  -6  -5   25.02    1.49
  -4  -6  -5   24.77    1.19
  -4  -6  -5   25.15    1.30
  -5  -6  -5   12.59    0.94
  -5  -6  -5   11.21    0.78
  -5  -6  -5   10.59    1.20
  -5  -6  -5   11.64    0.87
  -6  -6  -5    0.66    0.51
  -6  -6  -5   -0.03    0.74
  -6  -6  -5    0.19    0.37
  -6  -6  -5   -0.03    0.31
  -7  -6  -5   10.65    1.09
  -7  -6  -5   11.60    1.58
  -8  -6  -5    2.17    0.73
  -8  -6  -5    2.60    1.01
  -9  -6  -5    6.77    1.38
  -9  -6  -5    6.83    1.03
 -10  -6  -5   -1.14    0.69
 -10  -6  -5   -0.09    0.50
 -11  -6  -5    0.79    1.05
 -11  -6  -5   -0.27    0.77
 -12  -6  -5    0.08    1.53
 -12  -6  -5    2.63    1.13
 -13  -6  -5   -1.20    1.74
  -7   7   5    1.60    1.21
  -7   7   5   -1.32    1.13
   6  -7  -5   -0.44    0.64
  -6   7   5    0.32    0.79
  -6   7   5    1.24    0.86
   5  -7  -5    1.04    0.97
  -5   7   5    0.71    0.90
  -5   7   5    0.31    0.93
   4  -7  -5   -0.52    0.78
  -4   7   5    0.70    0.72
  -4   7   5   -0.42    0.86
   3  -7  -5    4.90    0.98
  -3   7   5    5.99    1.23
  -3   7   5    6.69    1.13
   2  -7  -5   23.72    1.77
  -2   7   5   24.41    1.56
  -2   7   5   25.56    1.84
   1  -7  -5   28.03    1.83
  -1   7   5   27.48    1.66
  -1   7   5   30.48    1.81
   0  -7  -5    1.65    0.64
   0   7   5    2.55    0.64
   0   7   5    1.37    0.59
  -1  -7  -5   29.06    1.66
   1   7   5   27.10    1.51
   1   7   5   26.69    1.51
  -2  -7  -5    6.07    0.78
  -2  -7  -5    6.26    0.88
  -2  -7  -5    6.36    0.96
   2   7   5    6.37    0.80
  -3  -7  -5    0.84    0.47
  -3  -7  -5   -0.10    0.31
  -3  -7  -5   -0.06    0.54
   3   7   5    0.44    0.39
  -4  -7  -5    0.23    0.36
  -4  -7  -5   -0.40    0.32
  -4  -7  -5   -0.08    0.51
   4   7   5    0.24    0.38
  -5  -7  -5   -0.53    0.66
  -5  -7  -5   -0.30    0.45
  -5  -7  -5   -0.38    0.42
   5   7   5    0.08    0.34
  -6  -7  -5    9.83    0.93
  -6  -7  -5   11.98    1.49
  -6  -7  -5   11.53    1.19
  -7  -7  -5    7.59    1.01
  -7  -7  -5    6.07    1.35
  -8  -7  -5   10.78    1.71
  -8  -7  -5   12.87    1.43
  -9  -7  -5    5.90    1.54
  -9  -7  -5    3.95    0.91
 -10  -7  -5    1.83    0.89
 -10  -7  -5    3.12    1.44
 -11  -7  -5    0.31    0.65
 -11  -7  -5   -0.80    1.27
 -12  -7  -5   -0.21    0.91
 -12  -7  -5   -1.22    1.38
 -13  -7  -5   -1.10    1.22
  -7   8   5   -0.17    0.79
  -7   8   5   -2.55    1.30
   6  -8  -5    0.90    0.87
  -6   8   5   -0.29    0.92
  -6   8   5   -0.96    0.77
   5  -8  -5   -0.74    0.93
  -5   8   5    0.22    0.98
  -5   8   5   -1.24    0.80
   4  -8  -5    2.14    1.03
  -4   8   5    0.90    0.81
  -4   8   5    2.61    0.92
   3  -8  -5    0.56    0.70
  -3   8   5    0.53    0.73
  -3   8   5   -0.11    0.90
   2  -8  -5    2.61    1.01
  -2   8   5    3.00    1.06
  -2   8   5    5.89    0.97
   1  -8  -5   22.73    2.04
  -1   8   5   23.12    1.52
  -1   8   5   24.55    1.65
   0  -8  -5   27.36    1.77
   0   8   5   27.69    1.61
   0   8   5   27.17    1.62
  -1  -8  -5    3.80    0.84
   1   8   5    1.90    0.68
   1   8   5    3.73    0.72
  -2  -8  -5    4.11    0.82
  -2  -8  -5    4.81    0.85
   2   8   5    5.22    0.78
  -3  -8  -5    1.01    0.48
  -3  -8  -5    0.66    0.71
  -3  -8  -5    1.23    0.74
   3   8   5    0.72    0.45
  -4  -8  -5    7.55    1.05
  -4  -8  -5    5.63    0.94
  -4  -8  -5    5.93    1.00
   4   8   5    6.47    0.78
  -5  -8  -5    7.06    0.97
  -5  -8  -5    7.44    1.11
  -5  -8  -5    7.10    0.97
  -6  -8  -5    3.98    0.81
  -6  -8  -5    4.34    1.18
  -6  -8  -5    4.23    0.79
  -7  -8  -5    1.29    0.73
  -7  -8  -5    3.03    1.16
  -8  -8  -5    1.97    0.80
  -8  -8  -5    1.68    1.17
  -9  -8  -5    0.06    1.20
  -9  -8  -5    1.08    0.68
 -10  -8  -5    0.14    0.97
 -10  -8  -5    2.11    0.99
 -11  -8  -5    1.24    0.98
 -11  -8  -5   -0.93    1.35
 -12  -8  -5   -0.56    0.94
 -12  -8  -5   -1.63    1.37
 -13  -8  -5   -1.16    1.69
   6  -9  -5   -0.94    1.17
  -6   9   5    1.41    1.15
  -6   9   5    0.68    1.35
   5  -9  -5   -0.20    0.79
  -5   9   5    0.88    1.02
  -5   9   5    0.73    1.02
   4  -9  -5   -0.77    0.97
  -4   9   5   -0.51    0.95
  -4   9   5    0.21    0.64
   3  -9  -5    1.50    1.07
  -3   9   5    1.39    0.71
  -3   9   5    2.91    1.13
   2  -9  -5    3.21    1.11
  -2   9   5    1.21    0.99
  -2   9   5    2.82    0.92
   1  -9  -5    3.91    0.93
  -1   9   5    4.78    1.00
  -1   9   5    5.19    1.18
   0  -9  -5    0.39    0.84
   0   9   5   -0.25    0.43
   0   9   5   -0.52    0.73
  -1  -9  -5    2.02    0.78
   1   9   5    0.68    0.75
   1   9   5    0.86    0.70
  -2  -9  -5    5.30    1.02
  -2  -9  -5    3.92    0.79
   2   9   5    4.17    0.84
  -3  -9  -5    0.48    0.60
  -3  -9  -5   -1.06    0.64
   3   9   5   -0.48    0.55
  -4  -9  -5    1.10    0.64
  -4  -9  -5    1.16    0.68
  -4  -9  -5    0.96    0.96
  -5  -9  -5    1.08    0.73
  -5  -9  -5    0.37    0.62
  -5  -9  -5   -1.46    0.77
  -6  -9  -5   -1.19    0.89
  -6  -9  -5   -0.26    0.63
  -7  -9  -5    6.83    1.55
  -7  -9  -5    5.70    1.11
  -8  -9  -5    3.39    0.97
  -8  -9  -5    3.04    1.36
  -9  -9  -5    2.00    1.39
  -9  -9  -5    2.52    0.96
 -10  -9  -5    0.96    0.93
 -10  -9  -5   -1.58    1.24
 -11  -9  -5   -0.18    1.10
 -11  -9  -5    0.51    1.00
 -12  -9  -5   -0.72    0.71
 -12  -9  -5   -1.52    1.54
   5 -10  -5    0.03    1.21
  -5  10   5    0.69    1.14
  -5  10   5    0.52    1.13
   4 -10  -5    1.04    1.18
  -4  10   5    1.46    1.06
  -4  10   5    1.39    1.11
   3 -10  -5   -0.27    0.72
  -3  10   5    0.16    0.87
  -3  10   5    0.16    0.76
   2 -10  -5    2.40    0.95
  -2  10   5    2.03    0.96
  -2  10   5    1.35    1.03
   1 -10  -5    0.09    0.90
  -1  10   5    1.89    1.05
  -1  10   5    1.67    0.85
   0 -10  -5    2.17    0.87
   0  10   5   -0.43    0.81
   0  10   5    0.31    0.54
  -1 -10  -5    1.04    0.94
   1  10   5   -0.41    0.74
   1  10   5    0.22    0.51
  -2 -10  -5    7.84    1.18
  -2 -10  -5    8.25    1.39
   2  10   5    7.71    1.18
  -3 -10  -5    5.15    1.16
  -3 -10  -5    5.29    1.01
  -4 -10  -5    3.06    0.90
  -4 -10  -5    3.30    0.86
  -5 -10  -5   -0.61    0.82
  -5 -10  -5   -0.99    0.60
  -5 -10  -5   -0.29    0.53
  -6 -10  -5   13.31    1.48
  -6 -10  -5    9.41    1.60
  -7 -10  -5    1.43    0.71
  -7 -10  -5    2.23    1.26
  -8 -10  -5   -1.53    1.17
  -8 -10  -5    0.09    0.60
  -9 -10  -5    1.16    0.94
  -9 -10  -5    0.80    1.42
 -10 -10  -5   -1.47    0.91
 -10 -10  -5   -0.11    0.90
 -11 -10  -5    0.15    1.23
 -11 -10  -5   -0.55    0.98
 -12 -10  -5    0.79    1.16
 -12 -10  -5   -1.85    1.68
   4 -11  -5   -1.06    0.82
  -4  11   5   -0.58    0.69
  -4  11   5    1.07    1.15
   3 -11  -5   -1.51    0.66
  -3  11   5    0.63    1.03
  -3  11   5    1.31    0.81
   2 -11  -5    0.58    0.88
  -2  11   5   -1.20    0.85
  -2  11   5   -0.76    0.85
   1 -11  -5    0.15    1.03
  -1  11   5    1.27    0.88
  -1  11   5    1.14    1.02
   0 -11  -5    1.09    0.85
   0  11   5    0.67    0.81
   0  11   5   -0.89    0.81
  -1 -11  -5    0.78    1.00
   1  11   5   -0.23    0.66
  -2 -11  -5    3.15    0.97
  -2 -11  -5    1.81    0.86
  -3 -11  -5    0.76    0.96
  -3 -11  -5    1.62    0.86
  -4 -11  -5    0.81    0.95
  -4 -11  -5    0.48    0.77
  -5 -11  -5    0.94    0.94
  -5 -11  -5    1.97    0.75
  -6 -11  -5    4.98    1.15
  -6 -11  -5    4.94    1.41
  -7 -11  -5    0.95    1.27
  -7 -11  -5    1.69    0.92
  -8 -11  -5   -0.55    0.76
  -8 -11  -5   -0.53    1.00
  -9 -11  -5    0.10    0.65
  -9 -11  -5   -0.89    0.98
 -10 -11  -5   -2.54    1.38
 -10 -11  -5   -0.03    0.69
 -11 -11  -5   -0.08    0.79
 -11 -11  -5   -0.39    1.81
   3 -12  -5   -0.73    0.97
  -3  12   5    0.14    1.13
  -3  12   5    1.06    1.22
   2 -12  -5   -0.61    0.81
  -2  12   5    1.20    1.14
  -2  12   5    0.56    1.01
   1 -12  -5   -2.71    0.90
  -1  12   5    0.40    0.71
  -1  12   5    0.65    0.77
   0 -12  -5   -1.06    0.66
   0  12   5    0.18    0.65
  -1 -12  -5   -2.15    0.88
   1  12   5    0.16    0.60
  -2 -12  -5    0.63    0.69
  -2 -12  -5    0.01    0.72
  -3 -12  -5   -0.65    0.78
  -3 -12  -5   -0.70    0.92
  -4 -12  -5    0.93    1.10
  -4 -12  -5   -0.08    0.56
  -5 -12  -5    0.57    0.86
  -5 -12  -5   -0.04    0.96
  -6 -12  -5   -0.10    0.60
  -7 -12  -5    0.38    1.40
  -7 -12  -5    4.55    1.12
  -8 -12  -5    1.18    1.03
  -8 -12  -5   -1.69    1.37
  -9 -12  -5   -0.28    0.67
  -9 -12  -5   -2.60    1.45
 -10 -12  -5   -0.20    1.72
 -10 -12  -5   -0.36    1.08
   1 -13  -5   -3.25    1.08
  -1  13   5   -0.25    1.01
   0 -13  -5   -1.11    0.78
   0  13   5    0.11    1.03
  -1 -13  -5   -0.96    1.08
   1  13   5    0.40    0.68
  -2 -13  -5   -0.82    1.10
   2  13   5    0.18    0.66
  -3 -13  -5   -0.02    0.96
  -3 -13  -5    0.79    1.21
  -4 -13  -5   -0.82    1.07
  -4 -13  -5    0.75    0.79
  -5 -13  -5    0.45    1.06
  -5 -13  -5   -1.54    0.96
  -6 -13  -5   -0.34    1.01
  -7 -13  -5    0.76    1.10
  -8 -13  -5   -0.36    1.66
  -8 -13  -5   -0.36    0.81
  -9 -13  -5   -0.09    1.77
  -9 -13  -5   -0.36    1.25
  -2 -14  -5   -1.53    1.16
   2  14   5    0.44    0.85
  -3 -14  -5   -2.51    1.10
  -3 -14  -5    0.13    1.18
  -4 -14  -5    1.63    1.25
  -4 -14  -5   -0.15    0.91
  -5 -14  -5    6.64    1.44
  -6 -14  -5   -0.23    0.83
  -7 -14  -5    1.45    1.09
  -4 -10   6    2.16    1.41
  -3 -10   6    0.93    1.14
  -3 -10   6    2.18    1.44
  -2 -10   6    1.78    1.21
  -2 -10   6    1.28    1.28
  -1 -10   6    3.43    1.50
  -1 -10   6    1.44    0.93
   0 -10   6    2.21    1.17
   0 -10   6    3.34    1.33
   1 -10   6    2.85    1.49
   1 -10   6    0.74    1.14
   2 -10   6    0.01    1.01
   2 -10   6    1.90    1.47
  -6  -9   6    1.15    1.40
  -6  -9   6   -0.15    1.18
  -5  -9   6    2.17    1.09
  -5  -9   6    0.93    1.17
  -4  -9   6    1.23    0.94
  -3  -9   6    0.29    0.82
  -3  -9   6    1.53    1.14
  -2  -9   6    0.83    0.89
  -2  -9   6    2.14    1.25
  -1  -9   6    1.31    1.17
  -1  -9   6    0.89    0.75
   0  -9   6    0.25    0.79
   0  -9   6    0.92    1.16
   1  -9   6    1.63    1.02
   1  -9   6    2.14    1.28
   2  -9   6    1.18    1.03
   2  -9   6    0.58    0.94
   3  -9   6    1.64    1.32
   3  -9   6    2.38    1.12
   4  -9   6    4.03    1.50
   4  -9   6    4.32    1.20
  -5   9  -6    4.73    1.46
   5  -9   6   -0.25    1.17
  -7  -8   6   -1.43    1.38
  -7  -8   6   -1.36    1.08
  -6  -8   6    0.90    0.98
  -6  -8   6    0.04    0.77
  -5  -8   6    2.28    1.25
  -5  -8   6    0.26    1.03
  -4  -8   6    2.40    1.02
  -4  -8   6    4.37    1.35
  -3  -8   6    1.27    0.81
  -3  -8   6    1.84    0.82
  -2  -8   6    1.41    0.86
  -2  -8   6    2.13    1.13
  -1  -8   6    0.80    0.99
  -1  -8   6    0.84    0.67
   0  -8   6    3.44    1.05
   0  -8   6    1.00    0.79
   1  -8   6    0.38    0.74
   1  -8   6    1.40    0.89
   2  -8   6    1.50    0.90
   2  -8   6   -0.12    0.74
  -3   8  -6    0.00    0.79
   3  -8   6    1.09    1.17
   3  -8   6    0.47    0.83
  -4   8  -6   -0.11    0.57
   4  -8   6    2.07    1.19
   4  -8   6   -0.39    0.55
  -5   8  -6    0.39    0.78
   5  -8   6   -0.10    0.90
   5  -8   6    0.31    1.17
  -6   8  -6    0.27    1.09
   6  -8   6   -0.14    1.11
  -8  -7   6    1.14    1.08
  -8  -7   6   -2.30    1.51
  -7  -7   6    1.88    1.55
  -7  -7   6    0.56    1.19
  -6  -7   6    0.49    1.02
  -6  -7   6    1.36    0.95
  -5  -7   6    1.89    1.02
  -5  -7   6    0.23    0.91
  -4  -7   6    3.02    0.95
  -4  -7   6    3.29    0.87
  -4  -7   6    2.90    0.99
  -3  -7   6    0.89    0.76
  -3  -7   6    3.08    1.11
  -3  -7   6    2.44    0.92
  -2  -7   6    2.45    1.06
  -2  -7   6    2.37    0.93
  -2  -7   6    1.27    0.71
  -1  -7   6    1.02    0.88
  -1  -7   6    0.37    0.70
   0  -7   6    1.70    0.98
   0  -7   6    0.85    0.59
   1  -7   6    4.04    1.24
   1  -7   6    4.77    0.97
  -2   7  -6    0.30    0.67
   2  -7   6    0.14    0.68
   2  -7   6    0.57    0.92
  -3   7  -6    1.52    0.80
   3  -7   6    1.61    1.05
   3  -7   6    0.71    0.73
  -4   7  -6    0.31    0.80
   4  -7   6    1.27    1.09
   4  -7   6   -0.57    0.47
  -5   7  -6    3.54    1.16
   5  -7   6    3.31    1.22
   5  -7   6    3.01    0.94
  -6   7  -6    5.78    1.39
   6  -7   6    8.33    1.65
   6  -7   6   10.53    1.65
  -7   7  -6    0.66    1.05
   7  -7   6    1.25    1.16
  -8  -6   6   -0.78    1.57
  -8  -6   6    0.67    1.15
  -7  -6   6    0.29    1.35
  -7  -6   6    0.38    0.76
  -6  -6   6    0.82    0.94
  -6  -6   6    1.40    0.99
  -5  -6   6    0.80    0.81
  -5  -6   6    1.34    0.96
  -4  -6   6   -0.49    0.67
  -4  -6   6    1.92    0.97
  -4  -6   6    0.95    0.72
  -3  -6   6    5.74    1.28
  -3  -6   6    5.22    1.08
  -3  -6   6    2.68    0.83
  -2  -6   6    8.84    1.20
  -2  -6   6    9.62    1.46
  -2  -6   6    8.41    1.12
  -1  -6   6    8.58    1.25
  -1  -6   6    5.31    1.10
  -1  -6   6    9.60    1.08
   0  -6   6   -0.11    0.63
   0  -6   6    0.64    0.89
  -1   6  -6    2.55    0.72
   1  -6   6    1.66    0.77
   1  -6   6    2.30    0.85
  -2   6  -6    0.23    0.60
   2  -6   6    1.69    0.67
   2  -6   6    1.27    0.90
  -3   6  -6    0.92    0.69
   3  -6   6    1.12    0.74
   3  -6   6    1.87    0.80
  -4   6  -6    1.68    0.84
   4  -6   6    0.01    0.49
   4  -6   6    1.17    0.88
  -5   6  -6   -0.61    0.67
   5  -6   6    0.66    0.60
   5  -6   6    1.65    1.01
  -6   6  -6   -0.23    0.80
   6  -6   6   -0.55    0.62
   6  -6   6    0.05    0.53
  -7   6  -6    1.87    0.87
   7  -6   6    1.86    0.83
   7  -6   6    1.33    1.11
  -8   6  -6    2.11    1.20
   8  -6   6   -1.69    1.03
  -9  -5   6   -3.00    1.65
  -9  -5   6    0.58    1.19
  -8  -5   6    0.92    0.91
  -8  -5   6   -0.59    1.06
  -7  -5   6    0.42    0.93
  -7  -5   6   -1.57    1.13
  -6  -5   6    2.76    1.24
  -6  -5   6    2.16    1.01
  -5  -5   6    1.51    0.91
  -5  -5   6    1.02    0.80
  -4  -5   6    6.38    1.06
  -4  -5   6    8.52    1.47
  -4  -5   6    5.17    1.03
  -3  -5   6   17.33    1.30
  -3  -5   6   20.87    1.53
  -3  -5   6   19.23    2.01
  -2  -5   6    2.19    0.66
  -2  -5   6    3.72    0.78
  -2  -5   6    2.50    0.87
  -1  -5   6    8.67    1.30
  -1  -5   6   10.14    1.28
  -1  -5   6   11.69    1.12
   0   5  -6    1.91    0.68
   0  -5   6    0.51    0.69
   0  -5   6    1.88    0.79
  -1   5  -6    0.90    0.60
   1  -5   6   -0.01    0.45
   1  -5   6    0.62    0.62
  -2   5  -6   32.93    1.75
   2  -5   6   35.54    2.25
   2  -5   6   25.95    1.85
  -3   5  -6    8.65    1.18
   3  -5   6   10.94    1.45
   3  -5   6    8.65    1.17
  -4   5  -6   12.80    1.45
   4  -5   6   11.37    1.38
   4  -5   6   15.47    1.77
  -5   5  -6    1.72    0.68
   5  -5   6    0.98    0.62
   5  -5   6    2.84    1.03
  -6   5  -6    5.60    1.20
   6  -5   6    9.95    1.57
   6  -5   6    5.90    1.13
  -7   5  -6    3.85    1.14
   7  -5   6    6.26    1.26
   7  -5   6    3.82    1.10
  -8   5  -6    0.17    0.92
   8  -5   6   -0.02    0.98
   8  -5   6   -0.44    0.57
  -9   5  -6    0.76    1.10
  -9  -4   6   -0.45    0.78
  -9  -4   6   -1.60    1.65
  -8  -4   6   -0.16    1.05
  -8  -4   6    1.34    1.13
  -7  -4   6   -2.04    1.03
  -7  -4   6   -0.32    0.84
  -6  -4   6    1.70    0.93
  -6  -4   6    0.97    0.90
  -5  -4   6    4.05    1.01
  -5  -4   6    2.35    0.71
  -4  -4   6    0.15    0.72
  -4  -4   6    0.09    0.45
  -4  -4   6   -0.41    0.52
  -3  -4   6    2.52    0.94
  -3  -4   6    3.90    0.82
  -3  -4   6    3.30    0.79
  -2  -4   6   12.07    1.26
  -2  -4   6   11.28    1.12
  -2  -4   6   10.35    1.37
   1   4  -6    4.87    0.71
  -1  -4   6    5.91    0.77
  -1  -4   6    5.02    1.07
  -1  -4   6    5.56    0.96
   0   4  -6    5.20    0.76
   0  -4   6    6.14    0.97
   0  -4   6    5.71    0.70
   0  -4   6    4.87    0.94
  -1   4  -6   11.76    1.13
   1  -4   6   12.90    1.30
   1  -4   6   11.92    1.45
  -2   4  -6   23.86    1.48
   2  -4   6   24.04    1.62
   2  -4   6   24.66    1.78
  -3   4  -6    0.04    0.38
   3  -4   6    0.30    0.68
   3  -4   6    1.06    0.64
  -4   4  -6    1.66    0.60
   4  -4   6    0.94    0.66
   4  -4   6    1.09    0.66
  -5   4  -6    0.71    0.73
   5  -4   6   -0.04    0.53
   5  -4   6    0.66    0.54
  -6   4  -6   11.48    1.49
   6  -4   6   11.92    1.60
   6  -4   6   10.71    1.37
  -7   4  -6    1.24    0.85
   7  -4   6    2.01    1.01
   7  -4   6    1.93    0.82
  -8   4  -6    1.64    0.95
   8  -4   6    0.82    0.80
   8  -4   6    2.05    1.06
  -9   4  -6    0.74    0.97
   9  -4   6   -0.22    1.01
 -10   4  -6    1.72    1.21
  -9  -3   6    0.53    1.18
  -8  -3   6    0.33    0.73
  -8  -3   6    1.63    1.44
  -7  -3   6    2.75    0.94
  -7  -3   6   -0.71    1.14
  -6  -3   6    7.95    1.40
  -6  -3   6    7.36    1.31
  -5  -3   6    7.52    1.21
  -5  -3   6    7.29    1.33
  -4  -3   6    4.53    0.97
  -4  -3   6    4.35    0.81
  -4  -3   6    3.76    0.80
  -3  -3   6    9.12    1.03
  -3  -3   6   10.60    1.15
  -3  -3   6   10.17    1.40
   2   3  -6    0.07    0.37
  -2  -3   6   -0.18    0.41
  -2  -3   6   -0.16    0.55
  -2  -3   6   -0.45    0.43
   1   3  -6    0.48    0.39
  -1  -3   6    0.05    0.47
  -1  -3   6    0.75    0.64
  -1  -3   6    0.76    0.40
   0   3  -6    8.04    0.87
   0  -3   6    9.27    0.80
   0  -3   6    7.73    1.15
   0  -3   6    9.72    1.05
  -1   3  -6    2.46    0.60
   1  -3   6    2.64    0.68
   1  -3   6    2.02    0.39
   1  -3   6    2.12    0.64
  -2   3  -6    0.18    0.43
   2  -3   6    0.62    0.49
   2  -3   6    0.09    0.53
  -3   3  -6   22.89    1.39
   3  -3   6   22.69    1.49
   3  -3   6   21.81    1.55
  -4   3  -6   21.64    1.48
   4  -3   6   17.00    1.29
   4  -3   6   22.40    1.65
  -5   3  -6    3.74    0.79
   5  -3   6    3.92    0.87
   5  -3   6    3.27    0.94
  -6   3  -6    0.92    0.72
   6  -3   6    0.54    0.49
   6  -3   6    1.11    0.80
  -7   3  -6    0.65    0.60
   7  -3   6    0.31    0.47
   7  -3   6    1.15    0.85
  -8   3  -6    0.86    0.79
   8  -3   6    0.66    0.93
  -9   3  -6    0.58    0.89
   9  -3   6    1.45    1.07
 -10   3  -6    0.60    1.03
  10  -3   6   -0.42    1.07
 -11   3  -6   -0.01    1.19
  -9  -2   6   -1.49    0.95
  -8  -2   6   -0.69    0.59
  -7  -2   6   -0.33    0.56
  -7  -2   6    0.02    1.14
  -6  -2   6    8.16    1.53
  -6  -2   6    4.44    1.06
  -5  -2   6    5.02    1.14
  -5  -2   6    2.69    0.88
  -4  -2   6    0.15    0.67
  -4  -2   6    0.60    0.56
  -4  -2   6    0.34    0.49
  -4  -2   6    0.30    0.58
  -3  -2   6   -0.29    0.39
  -3  -2   6   -0.48    0.42
  -3  -2   6    0.42    0.44
  -3  -2   6    0.71    0.62
   2   2  -6    3.06    0.60
  -2  -2   6    2.50    0.55
  -2  -2   6    2.21    0.58
  -2  -2   6    2.48    0.75
   1   2  -6    0.65    0.39
  -1  -2   6    0.46    0.38
  -1  -2   6    0.46    0.36
  -1  -2   6    0.96    0.51
   0   2  -6    0.06    0.34
   0  -2   6   -0.03    0.27
   0  -2   6    0.02    0.48
   0  -2   6    0.25    0.48
  -1   2  -6    8.81    0.89
   1  -2   6   10.14    1.04
   1  -2   6    8.24    0.58
   1  -2   6    8.59    1.06
  -2   2  -6    7.47    0.86
   2  -2   6    7.35    1.00
   2  -2   6    7.93    0.95
   2  -2   6    7.39    0.46
  -3   2  -6   12.75    1.19
   3  -2   6   13.72    1.04
   3  -2   6   13.82    1.22
  -4   2  -6    2.42    0.66
   4  -2   6    2.56    0.78
   4  -2   6    0.92    0.54
  -5   2  -6    0.35    0.53
   5  -2   6    0.39    0.61
   5  -2   6    0.49    0.53
  -6   2  -6    7.57    1.07
   6  -2   6    9.02    1.33
   6  -2   6    7.40    1.03
  -7   2  -6    0.01    0.67
   7  -2   6    0.93    0.65
   7  -2   6    0.61    0.47
  -8   2  -6    1.41    0.83
   8  -2   6    1.85    0.98
  -9   2  -6    0.89    0.90
   9  -2   6    1.98    1.10
 -10   2  -6    0.86    0.97
  10  -2   6    0.44    1.07
 -11   2  -6    4.01    1.34
  11  -2   6    1.13    1.33
  -9  -1   6    0.64    1.15
  -8  -1   6    0.56    0.93
  -7  -1   6    3.66    1.06
  -6  -1   6    0.46    0.99
  -6  -1   6    1.68    0.70
  -5  -1   6    3.87    0.83
  -5  -1   6    3.76    0.86
  -5  -1   6    5.86    1.15
  -4  -1   6   10.78    1.08
  -4  -1   6    9.17    1.17
  -4  -1   6   12.00    1.38
  -3  -1   6    0.92    0.60
  -3  -1   6    0.57    0.50
  -3  -1   6    0.23    0.35
   2   1  -6    6.64    0.77
  -2  -1   6    4.60    0.69
  -2  -1   6    5.66    0.78
  -2  -1   6    6.21    0.94
   1   1  -6   -0.16    0.32
  -1  -1   6   -0.16    0.31
  -1  -1   6   -0.02    0.29
  -1  -1   6    0.19    0.48
   0   1  -6   -0.43    0.31
   0  -1   6    0.01    0.26
   0  -1   6   -0.21    0.39
   0  -1   6   -0.24    0.42
  -1   1  -6   16.24    1.05
   1  -1   6   17.00    1.13
   1  -1   6   16.34    0.78
   1  -1   6   17.80    1.19
  -2   1  -6   12.38    0.96
   2  -1   6   13.12    0.56
   2  -1   6   13.25    0.95
   2  -1   6   13.42    1.11
  -3   1  -6   12.45    1.13
   3  -1   6   10.98    0.88
   3  -1   6   14.41    1.16
  -4   1  -6    5.44    0.79
   4  -1   6    6.19    0.77
   4  -1   6    5.28    0.92
  -5   1  -6   52.91    2.33
   5  -1   6   54.72    2.56
   5  -1   6   53.85    2.25
  -6   1  -6    7.75    1.04
   6  -1   6    8.32    1.24
   6  -1   6    8.54    0.99
  -7   1  -6   12.96    1.41
   7  -1   6   12.45    1.50
   7  -1   6   12.05    1.18
  -8   1  -6    1.67    0.85
   8  -1   6    2.95    1.02
  -9   1  -6    0.76    0.67
   9  -1   6    0.66    0.95
 -10   1  -6   -0.04    0.66
  10  -1   6    0.92    1.11
 -11   1  -6    0.68    1.05
  11  -1   6    0.06    1.13
 -12   1  -6   -0.19    1.13
  12  -1   6    0.03    1.29
  -9   0   6   -0.14    1.04
  -8   0   6   -0.19    0.82
  -7   0   6   -0.09    0.53
  -6   0   6    4.57    1.00
  -6   0   6    5.50    1.01
  -5   0   6    9.12    1.13
  -5   0   6   10.07    1.22
  -5   0   6   12.27    1.50
  -4   0   6    5.79    0.95
  -4   0   6    5.70    0.86
  -4   0   6    4.33    0.79
  -3   0   6   21.05    1.33
  -3   0   6   20.07    1.27
  -3   0   6   19.31    1.25
  -2   0   6    2.12    0.60
  -2   0   6    2.43    0.57
  -2   0   6    2.14    0.58
   1   0  -6   30.48    1.43
  -1   0   6   30.54    1.37
  -1   0   6   31.26    1.61
   0   0  -6   57.35    2.15
   0   0   6   56.56    2.35
   0   0   6   59.52    1.99
  -1   0  -6   11.31    0.82
   1   0   6   10.46    0.87
   1   0   6   11.16    0.66
  -2   0  -6    8.50    0.88
   2   0   6    9.58    0.91
   2   0   6    7.55    0.46
   2   0   6    9.05    0.98
  -3   0  -6    7.36    0.82
   3   0   6   11.10    1.15
   3   0   6    7.65    0.81
  -4   0  -6    0.83    0.51
   4   0   6    1.87    0.51
   4   0   6    1.98    0.64
  -5   0  -6   -0.21    0.43
   5   0   6    1.19    0.59
   5   0   6    0.20    0.37
  -6   0  -6   12.15    1.27
   6   0   6   12.60    0.96
   6   0   6   13.49    1.45
  -7   0  -6    0.34    0.60
   7   0   6    1.80    0.57
   7   0   6    1.10    0.78
  -8   0  -6   -0.56    0.59
   8   0   6   -0.26    0.53
  -9   0  -6    6.75    1.10
   9   0   6    6.32    1.32
 -10   0  -6    0.96    0.92
  10   0   6    1.10    1.02
 -11   0  -6   -0.59    0.84
  11   0   6   -0.01    1.05
 -12   0  -6    0.78    1.11
  12   0   6    0.45    1.25
  -9   1   6   -0.56    1.00
  -8   1   6   -0.25    0.58
  -7   1   6    1.94    1.11
  -7   1   6    0.96    0.68
  -6   1   6    6.33    1.15
  -6   1   6    2.65    0.96
  -5   1   6   12.30    1.34
  -5   1   6   13.63    1.40
  -4   1   6   43.52    2.10
  -4   1   6   46.24    2.22
  -4   1   6   44.58    2.10
  -3   1   6    0.31    0.48
  -3   1   6    0.19    0.44
  -3   1   6   -0.69    0.44
  -2   1   6    2.48    0.60
  -2   1   6    2.64    0.60
  -2   1   6    2.98    0.58
  -1   1   6    2.59    0.57
  -1   1   6    2.29    0.52
   0  -1  -6   73.93    2.62
   0   1   6   75.62    2.44
   0   1   6   75.16    2.76
  -1  -1  -6    0.62    0.34
   1   1   6    0.62    0.40
   1   1   6    0.91    0.33
  -2  -1  -6    1.83    0.44
   2   1   6    1.69    0.31
   2   1   6    1.41    0.44
  -3  -1  -6  104.32    3.31
   3   1   6   98.57    2.63
   3   1   6   98.78    3.62
  -4  -1  -6    1.86    0.47
   4   1   6    1.77    0.41
   4   1   6    1.83    0.61
  -5  -1  -6   12.58    0.97
   5   1   6   11.65    1.31
   5   1   6    9.68    0.89
  -6  -1  -6    0.84    0.55
   6   1   6    0.93    0.37
   6   1   6    0.41    0.61
  -7  -1  -6   12.18    1.23
   7   1   6   10.46    0.93
   7   1   6   10.35    1.43
  -8  -1  -6   15.81    1.52
   8   1   6   12.25    1.55
  -9  -1  -6    0.25    0.53
 -10  -1  -6    0.47    0.75
  10   1   6    0.55    0.79
 -11  -1  -6   -0.27    0.84
  11   1   6   -0.83    0.96
 -12  -1  -6    0.44    0.82
  12   1   6    1.67    1.40
  13   1   6    2.10    1.64
  -9   2   6    0.57    0.82
  -8   2   6   -1.84    1.01
  -8   2   6   -0.19    0.89
  -7   2   6    1.39    0.92
  -7   2   6   -0.20    1.04
  -6   2   6    5.21    1.22
  -6   2   6    5.90    1.04
   5  -2  -6    1.46    0.64
  -5   2   6    1.16    0.74
  -5   2   6    0.86    0.78
   4  -2  -6    0.38    0.38
  -4   2   6    0.19    0.63
  -4   2   6    0.37    0.59
   3  -2  -6   23.10    1.37
  -3   2   6   18.40    1.37
  -3   2   6   21.68    1.40
  -3   2   6   19.91    1.17
   2  -2  -6   13.76    1.00
  -2   2   6   13.58    0.88
  -2   2   6   14.78    1.13
  -2   2   6   14.53    1.12
   1  -2  -6   -0.44    0.40
  -1   2   6    0.47    0.45
  -1   2   6    0.66    0.37
  -1   2   6    0.08    0.42
   0  -2  -6   36.75    1.68
   0  -2  -6   35.95    1.68
   0   2   6   39.37    1.55
   0   2   6   39.59    1.60
  -1  -2  -6    0.20    0.29
   1   2   6    0.52    0.30
   1   2   6    0.79    0.36
  -2  -2  -6   14.65    0.97
   2   2   6   14.26    0.95
   2   2   6   13.63    0.73
  -3  -2  -6    3.52    0.56
   3   2   6    4.70    0.74
   3   2   6    4.70    0.44
  -4  -2  -6   31.74    1.50
  -4  -2  -6   31.09    1.07
   4   2   6   29.65    1.60
  -5  -2  -6    3.37    0.41
  -5  -2  -6    3.75    0.62
   5   2   6    4.24    0.57
  -6  -2  -6    3.46    0.96
  -6  -2  -6    1.88    0.52
  -6  -2  -6    1.79    0.37
   6   2   6    2.33    0.48
  -7  -2  -6   10.22    1.10
  -7  -2  -6   11.86    1.54
   7   2   6    9.86    0.75
  -8  -2  -6   10.92    1.47
  -8  -2  -6    8.22    1.10
  -9  -2  -6   12.36    1.65
  -9  -2  -6   13.30    1.42
 -10  -2  -6    4.02    1.35
 -10  -2  -6    5.35    1.10
 -11  -2  -6    0.77    1.24
 -11  -2  -6    1.71    0.75
 -12  -2  -6   -0.55    1.23
 -13  -2  -6    1.52    1.24
  -9   3   6   -0.68    1.09
  -9   3   6    1.28    1.14
  -8   3   6   -0.79    1.15
  -8   3   6    0.94    1.07
  -7   3   6    1.06    1.17
  -7   3   6    2.08    0.97
  -6   3   6    0.05    0.53
  -6   3   6    0.27    0.98
   5  -3  -6    1.71    0.71
  -5   3   6    1.37    0.68
  -5   3   6    1.60    0.67
   4  -3  -6   -0.09    0.35
  -4   3   6    0.38    0.54
  -4   3   6    1.13    0.56
   3  -3  -6    2.49    0.69
  -3   3   6    2.98    0.77
  -3   3   6    2.83    0.80
   2  -3  -6    8.81    1.02
  -2   3   6    8.62    0.97
  -2   3   6   11.39    1.08
   1  -3  -6    0.36    0.37
  -1   3   6    0.47    0.35
  -1   3   6    0.18    0.26
  -1   3   6   -0.19    0.30
   0  -3  -6   25.75    1.43
   0   3   6   29.17    1.34
   0   3   6   23.81    1.37
   0   3   6   28.16    1.17
  -1  -3  -6    0.89    0.40
  -1  -3  -6    0.71    0.43
   1   3   6    1.41    0.42
   1   3   6    1.56    0.37
  -2  -3  -6   49.08    1.94
  -2  -3  -6   48.73    1.90
   2   3   6   47.79    1.68
   2   3   6   47.37    1.92
  -3  -3  -6   48.28    1.90
   3   3   6   46.62    2.01
  -4  -3  -6   95.49    3.97
  -4  -3  -6  121.24    3.65
  -4  -3  -6  123.49    3.27
  -5  -3  -6    1.83    0.50
  -5  -3  -6    1.46    0.36
  -5  -3  -6    1.86    0.63
  -6  -3  -6   11.24    1.34
  -6  -3  -6   11.03    1.05
  -6  -3  -6   11.99    0.78
   6   3   6   12.59    0.79
  -7  -3  -6    3.71    1.08
  -7  -3  -6    2.31    0.49
  -7  -3  -6    2.19    0.63
  -8  -3  -6    2.18    0.86
  -8  -3  -6    2.32    0.62
  -9  -3  -6    1.75    0.72
  -9  -3  -6    3.18    1.27
 -10  -3  -6    0.87    0.72
 -10  -3  -6   -0.39    1.02
 -11  -3  -6   -0.47    1.09
 -11  -3  -6    1.30    0.86
 -12  -3  -6    0.29    1.06
 -13  -3  -6    1.08    1.62
  -8   4   6   -0.96    1.18
  -8   4   6    0.43    0.74
  -7   4   6    0.42    0.66
  -7   4   6   -0.64    1.08
  -6   4   6    0.42    0.79
  -6   4   6   -0.21    0.55
   5  -4  -6    0.19    0.66
  -5   4   6   -0.64    0.49
  -5   4   6   -0.48    0.80
   4  -4  -6    2.40    0.79
  -4   4   6    0.38    0.77
  -4   4   6    1.79    0.84
   3  -4  -6   -0.20    0.38
  -3   4   6   -0.33    0.38
  -3   4   6    0.05    0.47
   2  -4  -6    4.10    0.83
  -2   4   6    5.74    0.82
  -2   4   6    4.59    0.85
   1  -4  -6    0.23    0.48
  -1   4   6    0.82    0.39
  -1   4   6    1.01    0.45
   0  -4  -6    0.37    0.38
   0   4   6    0.54    0.23
   0   4   6    0.62    0.37
   0   4   6    0.41    0.33
  -1  -4  -6   88.77    3.15
   1   4   6   94.27    2.95
   1   4   6   92.08    2.98
   1   4   6   91.51    3.14
  -2  -4  -6    6.65    0.82
  -2  -4  -6    6.59    0.78
   2   4   6    6.93    0.71
   2   4   6    6.85    0.72
  -3  -4  -6    0.97    0.47
  -3  -4  -6    0.39    0.27
  -3  -4  -6    0.63    0.25
  -3  -4  -6    0.62    0.43
  -4  -4  -6    0.04    0.30
  -4  -4  -6   -0.01    0.36
  -4  -4  -6   -0.59    0.29
  -4  -4  -6    0.20    0.55
  -5  -4  -6    2.66    0.55
  -5  -4  -6    1.56    0.75
  -5  -4  -6    3.23    0.53
  -6  -4  -6   -0.22    0.31
  -6  -4  -6   -0.56    0.65
  -6  -4  -6   -0.37    0.33
  -7  -4  -6   11.85    0.91
  -7  -4  -6   11.30    1.09
  -7  -4  -6   12.24    1.59
  -8  -4  -6   19.65    1.30
  -9  -4  -6    3.30    1.06
 -10  -4  -6    5.37    1.49
 -11  -4  -6   -0.33    0.89
 -12  -4  -6   -0.56    0.96
 -13  -4  -6    0.19    1.63
  -8   5   6    1.21    1.32
  -8   5   6   -0.04    1.00
  -7   5   6   -0.16    1.12
  -7   5   6    0.76    1.00
   6  -5  -6    0.78    0.86
  -6   5   6    0.94    1.01
  -6   5   6    1.30    1.01
   5  -5  -6    1.01    0.64
  -5   5   6    1.48    0.78
  -5   5   6    1.01    0.80
   4  -5  -6    0.71    0.55
  -4   5   6    0.97    0.81
  -4   5   6    0.68    0.87
   3  -5  -6    0.34    0.53
  -3   5   6    0.44    0.57
  -3   5   6    0.55    0.51
   2  -5  -6    4.46    0.90
  -2   5   6    3.85    0.76
  -2   5   6    2.68    0.63
   1  -5  -6    6.16    0.94
  -1   5   6    6.34    0.87
  -1   5   6    4.73    0.81
   0  -5  -6    3.21    0.77
   0   5   6    3.33    0.72
   0   5   6    3.32    0.60
  -1  -5  -6    0.67    0.42
   1   5   6    0.46    0.27
   1   5   6    1.44    0.50
   1   5   6    0.24    0.46
  -2  -5  -6   -0.11    0.38
  -2  -5  -6    0.36    0.37
   2   5   6   -0.31    0.37
   2   5   6    0.31    0.28
  -3  -5  -6    6.00    0.73
  -3  -5  -6    6.23    0.75
  -3  -5  -6    5.65    0.69
  -4  -5  -6    1.17    0.47
  -4  -5  -6    1.88    0.50
  -4  -5  -6    2.47    0.73
  -4  -5  -6    2.39    0.52
  -5  -5  -6    4.16    0.60
  -5  -5  -6    4.69    0.97
  -5  -5  -6    3.96    0.62
  -6  -5  -6    5.01    0.73
  -6  -5  -6    6.80    0.79
  -6  -5  -6    7.87    1.15
  -7  -5  -6    3.75    0.98
  -7  -5  -6    3.55    0.70
  -7  -5  -6    3.59    0.68
  -8  -5  -6   11.22    1.15
  -8  -5  -6   10.42    1.06
  -8  -5  -6   10.89    1.56
  -9  -5  -6   -0.70    0.99
  -9  -5  -6   -0.41    0.54
 -10  -5  -6   -1.08    1.04
 -11  -5  -6   -0.94    0.79
 -12  -5  -6    1.31    1.21
 -13  -5  -6    1.41    1.33
  -8   6   6    0.41    1.26
  -8   6   6    0.80    1.20
  -7   6   6    0.19    1.04
  -7   6   6   -0.22    1.15
   6  -6  -6    0.42    0.92
  -6   6   6    0.13    0.77
  -6   6   6   -0.68    1.05
   5  -6  -6    0.99    0.67
  -5   6   6    0.20    1.02
  -5   6   6    2.47    1.09
   4  -6  -6   -0.17    0.52
  -4   6   6   -0.03    0.53
  -4   6   6    0.88    0.71
   3  -6  -6    0.28    0.54
  -3   6   6    0.07    0.58
  -3   6   6    0.25    0.48
   2  -6  -6    8.46    1.21
  -2   6   6    7.26    1.00
  -2   6   6    8.60    1.21
   1  -6  -6   11.27    1.27
  -1   6   6   11.53    1.24
  -1   6   6   11.18    1.17
   0  -6  -6    0.81    0.53
   0   6   6    0.25    0.54
   0   6   6    1.14    0.45
  -1  -6  -6   -0.16    0.40
   1   6   6   -0.15    0.28
   1   6   6   -0.41    0.41
  -2  -6  -6    0.71    0.58
  -2  -6  -6    0.32    0.47
   2   6   6    1.18    0.43
   2   6   6    0.41    0.34
  -3  -6  -6    0.63    0.44
  -3  -6  -6    1.38    0.63
  -3  -6  -6    1.11    0.45
   3   6   6    0.01    0.27
  -4  -6  -6    1.34    0.45
  -4  -6  -6    2.18    0.59
  -5  -6  -6   20.09    1.13
  -5  -6  -6   17.72    1.12
  -5  -6  -6   19.59    1.22
  -5  -6  -6   21.23    1.51
  -6  -6  -6   14.37    1.04
  -6  -6  -6   19.30    1.79
  -6  -6  -6   16.52    1.02
  -6  -6  -6   13.38    0.97
  -7  -6  -6    0.57    0.43
  -7  -6  -6    0.31    0.88
  -7  -6  -6    0.50    0.44
  -8  -6  -6   23.35    1.86
  -8  -6  -6   22.69    1.51
  -9  -6  -6   23.30    2.38
  -9  -6  -6   25.03    1.66
 -10  -6  -6    2.35    1.38
 -10  -6  -6    1.90    0.83
 -11  -6  -6    2.21    1.14
 -12  -6  -6   -1.55    0.92
 -13  -6  -6   -0.78    1.55
  -7   7   6   -1.84    1.11
  -7   7   6    1.11    1.25
   6  -7  -6   -0.21    1.08
  -6   7   6   -0.59    1.04
  -6   7   6   -0.25    0.84
   5  -7  -6    0.03    0.94
  -5   7   6    1.51    1.04
  -5   7   6    0.30    1.08
   4  -7  -6    0.06    0.83
  -4   7   6    0.14    0.74
  -4   7   6   -0.90    0.61
   3  -7  -6    4.25    1.09
  -3   7   6    5.58    0.99
  -3   7   6    4.41    1.17
   2  -7  -6   -0.04    0.74
  -2   7   6   -0.78    0.68
  -2   7   6    0.29    0.48
   1  -7  -6    2.21    0.72
  -1   7   6    1.49    0.78
  -1   7   6    1.63    0.74
   0  -7  -6    0.32    0.47
   0   7   6   -0.80    0.48
   0   7   6   -0.37    0.31
  -1  -7  -6    3.86    0.79
   1   7   6    6.48    0.86
   1   7   6    3.43    0.67
  -2  -7  -6    2.60    0.58
  -2  -7  -6    2.39    0.65
   2   7   6    3.26    0.68
  -3  -7  -6    0.68    0.48
  -3  -7  -6   -0.20    0.50
  -3  -7  -6    0.65    0.52
   3   7   6    0.96    0.49
  -4  -7  -6    4.82    0.84
  -4  -7  -6    4.79    0.81
  -4  -7  -6    5.03    0.91
   4   7   6    3.58    0.62
  -5  -7  -6    1.15    0.58
  -5  -7  -6    0.91    0.47
  -5  -7  -6    0.31    0.67
  -5  -7  -6    1.06    0.60
  -6  -7  -6    5.22    0.71
  -6  -7  -6    5.86    0.91
  -6  -7  -6    6.86    1.15
  -6  -7  -6    6.58    0.81
  -7  -7  -6   -0.11    0.56
  -7  -7  -6    0.22    0.99
  -8  -7  -6    2.10    0.77
  -8  -7  -6    1.57    0.91
  -9  -7  -6    1.21    1.18
  -9  -7  -6    1.58    0.78
 -10  -7  -6    1.40    1.31
 -10  -7  -6    0.02    0.73
 -11  -7  -6   -1.24    1.31
 -11  -7  -6   -0.08    0.80
 -12  -7  -6    0.19    1.53
 -13  -7  -6   -0.65    1.72
   6  -8  -6    0.96    1.18
  -6   8   6    0.50    0.88
  -6   8   6    0.64    1.00
   5  -8  -6   -0.74    0.95
  -5   8   6    0.19    0.93
  -5   8   6   -0.06    1.02
   4  -8  -6    0.45    0.75
  -4   8   6    1.14    1.14
  -4   8   6    2.06    0.93
   3  -8  -6    3.20    0.94
  -3   8   6    4.47    0.94
  -3   8   6    4.56    1.27
   2  -8  -6    7.69    1.21
  -2   8   6    8.57    1.35
  -2   8   6    9.46    1.23
   1  -8  -6    5.74    1.14
  -1   8   6    5.05    1.09
  -1   8   6    5.47    1.04
   0  -8  -6    5.37    1.00
   0   8   6    7.16    1.11
   0   8   6    5.44    0.95
  -1  -8  -6   19.96    1.49
   1   8   6   18.28    1.42
   1   8   6   23.81    1.45
  -2  -8  -6    2.35    0.85
  -2  -8  -6    2.27    0.65
   2   8   6    2.10    0.55
  -3  -8  -6    5.38    0.88
  -3  -8  -6    4.75    0.85
   3   8   6    4.39    0.75
  -4  -8  -6    0.01    0.46
  -4  -8  -6    1.36    0.51
  -4  -8  -6    0.00    0.77
   4   8   6    0.39    0.43
  -5  -8  -6    0.96    0.60
  -5  -8  -6   -0.10    0.73
  -5  -8  -6    1.46    0.69
  -6  -8  -6    1.37    0.70
  -6  -8  -6    0.39    0.56
  -6  -8  -6    0.95    0.96
  -7  -8  -6    0.24    0.50
  -7  -8  -6    0.04    1.01
  -8  -8  -6   12.35    1.42
  -8  -8  -6   16.33    2.06
  -9  -8  -6    2.10    0.73
  -9  -8  -6    0.83    0.98
 -10  -8  -6    0.70    0.87
 -10  -8  -6   -0.09    0.93
 -11  -8  -6    0.54    0.89
 -11  -8  -6    0.55    1.08
 -12  -8  -6   -0.50    1.14
 -12  -8  -6    0.00    1.00
 -13  -8  -6   -1.65    1.69
   6  -9  -6    0.02    1.23
  -6   9   6   -2.15    1.25
  -6   9   6    1.10    1.22
   5  -9  -6   -1.45    0.99
  -5   9   6    1.34    1.19
  -5   9   6    1.09    1.19
   4  -9  -6    1.28    1.06
  -4   9   6    0.67    0.67
  -4   9   6    1.61    0.98
   3  -9  -6    0.08    0.71
  -3   9   6    0.44    0.65
  -3   9   6   -0.22    1.06
   2  -9  -6    3.29    1.13
  -2   9   6    2.09    0.87
  -2   9   6    1.66    0.87
   1  -9  -6    1.25    0.94
  -1   9   6    0.82    0.57
  -1   9   6   -0.52    0.59
   0  -9  -6    0.60    0.66
   0   9   6    0.80    0.54
   0   9   6    1.26    0.86
  -1  -9  -6   -0.30    0.52
   1   9   6   -0.40    0.57
   1   9   6   -0.65    0.61
  -2  -9  -6   16.53    1.63
  -2  -9  -6   18.55    1.36
   2   9   6   14.41    1.37
  -3  -9  -6    1.42    0.85
  -3  -9  -6    0.44    0.51
   3   9   6    0.24    0.52
  -4  -9  -6    7.47    1.19
  -4  -9  -6    6.61    1.05
  -5  -9  -6   16.41    1.52
  -6  -9  -6   24.23    1.58
  -6  -9  -6   21.34    1.86
  -6  -9  -6   22.49    1.56
  -7  -9  -6    1.83    1.18
  -7  -9  -6    1.77    0.84
  -8  -9  -6    4.03    1.01
  -8  -9  -6    6.05    1.35
  -9  -9  -6    0.33    0.95
  -9  -9  -6    0.36    0.76
 -10  -9  -6   -0.12    1.28
 -10  -9  -6   -0.52    0.77
 -11  -9  -6    0.28    0.70
 -11  -9  -6   -0.38    1.09
 -12  -9  -6    0.49    1.03
 -12  -9  -6   -0.41    1.22
   5 -10  -6   -0.71    0.80
  -5  10   6   -1.15    1.14
  -5  10   6    2.40    1.29
   4 -10  -6    0.82    1.24
  -4  10   6    2.30    1.15
  -4  10   6    1.29    0.93
   3 -10  -6   10.06    1.72
  -3  10   6    8.32    1.31
  -3  10   6   10.07    1.80
   2 -10  -6    0.23    0.98
  -2  10   6   -0.26    0.58
  -2  10   6   -0.02    0.74
   1 -10  -6   -0.54    0.59
  -1  10   6    0.14    0.99
  -1  10   6   -0.46    0.45
   0 -10  -6    1.12    0.97
   0  10   6    0.75    0.60
   0  10   6    1.14    0.75
  -1 -10  -6   -0.24    0.60
   1  10   6    0.46    0.53
   1  10   6   -0.40    0.79
  -2 -10  -6    6.75    1.15
   2  10   6    5.15    1.00
  -3 -10  -6    0.21    0.68
  -3 -10  -6    0.67    0.85
  -4 -10  -6    2.07    0.80
  -4 -10  -6    1.14    0.76
  -5 -10  -6    0.73    0.58
  -5 -10  -6    3.22    0.85
  -6 -10  -6   12.49    1.73
  -6 -10  -6   11.56    1.42
  -7 -10  -6    9.84    1.72
  -7 -10  -6    8.59    1.25
  -8 -10  -6    1.17    0.68
  -8 -10  -6    0.80    0.95
  -9 -10  -6   -0.54    1.28
  -9 -10  -6    1.95    0.84
 -10 -10  -6    0.84    0.97
 -10 -10  -6   -0.37    1.47
 -11 -10  -6   -1.82    0.98
 -11 -10  -6    0.67    1.06
 -12 -10  -6    0.38    0.83
 -12 -10  -6   -0.25    1.30
   4 -11  -6   -1.06    1.22
  -4  11   6    1.12    1.25
  -4  11   6    0.23    1.15
   3 -11  -6    0.89    1.22
  -3  11   6    4.14    1.36
  -3  11   6    1.71    1.23
   2 -11  -6    3.31    1.35
  -2  11   6    1.34    0.95
  -2  11   6    1.22    0.79
   1 -11  -6   -0.11    1.01
  -1  11   6    0.31    1.06
  -1  11   6   -0.19    0.58
   0 -11  -6   -0.29    0.70
   0  11   6   -1.48    0.89
   0  11   6   -0.62    0.46
  -1 -11  -6    0.65    0.74
   1  11   6    1.47    0.70
   1  11   6    0.45    0.95
  -2 -11  -6   -0.14    0.92
   2  11   6    0.28    0.55
  -3 -11  -6    8.10    1.21
  -3 -11  -6    5.37    1.14
  -4 -11  -6    0.27    0.93
  -4 -11  -6    3.52    0.99
  -5 -11  -6    9.05    1.40
  -5 -11  -6    7.86    1.18
  -6 -11  -6    2.28    0.96
  -7 -11  -6   -0.20    0.73
  -7 -11  -6   -1.39    1.08
  -8 -11  -6    0.47    0.90
  -8 -11  -6    2.16    1.52
  -9 -11  -6    0.03    0.87
  -9 -11  -6   -0.20    1.08
 -10 -11  -6   -0.04    0.96
 -10 -11  -6   -0.17    1.14
 -11 -11  -6    2.09    1.24
 -11 -11  -6    0.22    1.39
   2 -12  -6   -0.66    1.13
  -2  12   6   -0.17    0.78
  -2  12   6    0.60    0.84
   1 -12  -6   -0.06    1.11
  -1  12   6   -0.12    0.67
  -1  12   6    0.12    1.07
   0 -12  -6    0.58    0.88
   0  12   6    1.09    0.97
   0  12   6   -1.54    0.91
  -1 -12  -6   -0.24    1.09
   1  12   6    0.67    0.91
  -2 -12  -6    0.38    1.07
   2  12   6    0.35    0.60
  -3 -12  -6   -0.22    1.02
  -3 -12  -6   -0.31    0.55
  -4 -12  -6    0.80    0.90
  -4 -12  -6    0.57    0.75
  -5 -12  -6   -0.97    0.95
  -5 -12  -6    0.30    0.63
  -6 -12  -6    2.98    1.09
  -7 -12  -6    2.96    1.13
  -8 -12  -6    3.25    1.67
  -8 -12  -6    2.74    0.99
  -9 -12  -6   -0.81    1.50
  -9 -12  -6    1.10    1.05
 -10 -12  -6    0.05    0.80
 -10 -12  -6   -2.21    1.64
   1 -13  -6   -1.96    1.17
  -1  13   6    0.93    1.26
   0 -13  -6   -0.84    0.81
   0  13   6    0.39    0.78
  -1 -13  -6   -0.48    1.23
   1  13   6    0.71    0.79
  -2 -13  -6    1.55    1.29
   2  13   6    0.71    1.00
  -3 -13  -6    1.07    0.80
  -3 -13  -6   -0.90    1.15
  -4 -13  -6   -0.21    0.94
  -4 -13  -6   -0.27    1.09
  -5 -13  -6   -1.93    0.98
  -5 -13  -6   -0.08    0.65
  -6 -13  -6    1.06    0.81
  -7 -13  -6    1.50    0.90
  -8 -13  -6    1.17    1.14
  -9 -13  -6    0.33    1.17
  -9 -13  -6    0.12    1.75
  -2 -14  -6   -1.40    1.22
   2  14   6   -0.39    1.05
  -3 -14  -6   -1.36    1.20
   3  14   6    1.09    0.85
  -4 -14  -6   -0.66    1.09
  -4 -14  -6    0.26    0.98
  -5 -14  -6    0.04    1.13
  -5 -14  -6    2.74    1.39
  -6 -14  -6    1.74    1.22
  -7 -14  -6   -0.43    1.21
  -1 -10   7    9.18    1.93
   0 -10   7    1.16    0.97
   0 -10   7    1.93    1.50
  -4  -9   7    3.99    1.45
  -3  -9   7    1.82    1.12
  -3  -9   7    2.15    1.32
  -2  -9   7    1.30    0.85
  -2  -9   7    2.56    1.31
  -1  -9   7    0.82    1.01
  -1  -9   7    0.95    1.20
   0  -9   7    1.54    1.32
   0  -9   7    0.47    0.69
   1  -9   7    0.59    0.94
   1  -9   7    0.86    0.97
   2  -9   7    0.56    1.06
   2  -9   7    1.36    1.34
   3  -9   7   -0.02    1.33
   3  -9   7    1.35    1.08
   4  -9   7   -0.36    0.66
   4  -9   7    1.52    1.52
  -6  -8   7    0.37    1.25
  -6  -8   7    2.24    1.49
  -5  -8   7    1.86    1.24
  -5  -8   7    0.77    1.18
  -4  -8   7    1.02    1.05
  -3  -8   7    1.37    1.00
  -3  -8   7    2.01    0.95
  -2  -8   7    1.53    0.99
  -2  -8   7    1.21    1.09
  -1  -8   7   -0.22    0.57
  -1  -8   7    0.02    1.07
   0  -8   7    3.54    1.34
   0  -8   7    1.27    0.95
   1  -8   7   -0.15    0.80
   1  -8   7    1.95    1.25
   2  -8   7    0.89    1.16
   2  -8   7    1.07    0.90
   3  -8   7    0.90    1.17
   3  -8   7    1.55    1.01
  -4   8  -7    2.13    1.11
   4  -8   7    0.92    0.79
   4  -8   7    0.73    1.25
  -5   8  -7   -0.03    1.04
   5  -8   7    1.02    1.28
   5  -8   7    0.69    1.01
  -6   8  -7    3.06    1.34
   6  -8   7    3.36    1.19
  -7  -7   7    0.03    1.26
  -7  -7   7   -0.20    1.51
  -6  -7   7    1.90    1.38
  -6  -7   7    1.13    1.19
  -5  -7   7    1.98    1.17
  -5  -7   7    2.08    1.12
  -4  -7   7    1.41    0.76
  -4  -7   7    1.94    1.09
  -3  -7   7    1.49    1.23
  -3  -7   7    0.25    0.86
  -2  -7   7    2.69    0.85
  -2  -7   7    1.40    0.84
  -1  -7   7    0.55    0.94
  -1  -7   7    2.95    0.99
   0  -7   7    1.96    0.91
   0  -7   7    2.58    0.84
   1  -7   7    5.82    1.11
   1  -7   7    5.02    1.21
   2  -7   7    0.15    0.69
   2  -7   7    0.71    1.02
  -3   7  -7    1.48    0.85
   3  -7   7    0.88    1.03
   3  -7   7    0.48    0.77
  -4   7  -7    0.36    0.79
   4  -7   7    0.98    1.07
   4  -7   7   -0.25    0.53
  -5   7  -7    0.25    0.69
   5  -7   7    0.58    1.17
   5  -7   7    0.36    0.90
  -6   7  -7    0.43    0.98
   6  -7   7    0.25    1.12
   6  -7   7    0.95    1.02
  -7   7  -7    1.27    1.18
   7  -7   7   -0.35    1.07
  -7  -6   7   -0.12    0.78
  -7  -6   7   -1.21    1.35
  -6  -6   7    0.29    1.14
  -6  -6   7    1.65    1.13
  -5  -6   7    1.64    0.91
  -5  -6   7    0.77    0.91
  -4  -6   7    1.22    0.82
  -4  -6   7    1.49    1.03
  -4  -6   7    0.62    0.83
  -3  -6   7    4.35    0.95
  -3  -6   7    3.54    1.16
  -3  -6   7    5.59    1.07
  -2  -6   7    9.53    1.37
  -2  -6   7    8.63    1.45
  -1  -6   7    7.03    1.38
  -1  -6   7    7.93    1.20
   0  -6   7   -0.62    0.58
   0  -6   7   -0.22    0.81
   1  -6   7    1.58    0.81
   1  -6   7    0.60    0.90
  -2   6  -7    1.36    0.71
   2  -6   7    0.84    0.75
   2  -6   7    0.59    0.59
  -3   6  -7    2.30    0.85
   3  -6   7    2.44    0.92
   3  -6   7    1.64    0.86
  -4   6  -7    1.54    0.85
   4  -6   7    3.07    0.89
   4  -6   7    2.05    0.92
  -5   6  -7    0.06    0.59
   5  -6   7    0.03    0.75
   5  -6   7    1.93    1.11
  -6   6  -7    1.39    0.83
   6  -6   7    1.91    0.99
   6  -6   7    1.60    1.08
  -7   6  -7    5.54    1.35
   7  -6   7    3.09    1.32
   7  -6   7    4.18    1.23
  -8   6  -7    3.12    1.31
   8  -6   7    2.69    1.28
  -8  -5   7   -0.06    1.26
  -8  -5   7   -2.62    1.55
  -7  -5   7    0.28    1.38
  -7  -5   7   -0.42    0.95
  -6  -5   7    0.84    0.95
  -6  -5   7    0.58    0.87
  -5  -5   7    0.65    0.92
  -5  -5   7    0.25    0.81
  -4  -5   7    0.21    0.68
  -4  -5   7    0.27    0.74
  -4  -5   7    0.47    0.81
  -3  -5   7    0.05    0.46
  -3  -5   7    0.31    0.82
  -3  -5   7    1.08    0.74
  -2  -5   7    0.16    0.74
  -2  -5   7    1.08    0.62
  -2  -5   7    1.09    0.70
  -1  -5   7   16.52    1.63
  -1  -5   7   11.52    1.58
   0   5  -7    6.68    1.01
   0  -5   7    4.70    1.19
   0  -5   7    7.13    1.11
  -1   5  -7    8.56    1.07
   1  -5   7    7.00    1.30
   1  -5   7   11.07    1.35
  -2   5  -7   -0.44    0.50
   2  -5   7    0.17    0.75
   2  -5   7    1.44    0.75
  -3   5  -7   10.11    1.30
   3  -5   7    9.89    1.46
   3  -5   7   13.38    1.54
  -4   5  -7    2.71    0.88
   4  -5   7    1.78    0.94
   4  -5   7    1.46    0.81
  -5   5  -7    0.52    0.58
   5  -5   7    3.09    1.00
   5  -5   7    2.00    0.87
  -6   5  -7    1.69    0.94
   6  -5   7    3.11    1.00
   6  -5   7    2.00    1.10
  -7   5  -7    1.82    0.86
   7  -5   7    2.60    0.98
   7  -5   7    1.06    1.02
  -8   5  -7   -0.25    0.96
   8  -5   7    0.73    0.93
   8  -5   7    1.03    1.11
  -9   5  -7    2.03    1.30
  -8  -4   7   -0.44    0.74
  -8  -4   7   -2.54    1.47
  -7  -4   7   -0.32    1.64
  -7  -4   7    0.56    0.74
  -6  -4   7    0.28    0.68
  -6  -4   7    0.18    1.05
  -5  -4   7    4.59    1.24
  -5  -4   7    2.48    0.97
  -4  -4   7    5.84    0.96
  -4  -4   7    7.47    1.42
  -4  -4   7    5.58    1.02
  -3  -4   7   -0.01    0.53
  -3  -4   7    0.39    0.62
  -3  -4   7    1.03    0.71
  -2  -4   7    5.44    0.81
  -2  -4   7    5.61    0.94
  -2  -4   7    4.02    0.90
   1   4  -7    1.70    0.63
  -1  -4   7    2.29    0.60
  -1  -4   7    2.15    0.83
  -1  -4   7    1.55    0.88
   0   4  -7    0.27    0.55
   0  -4   7   -0.22    0.75
   0  -4   7    1.11    0.68
  -1   4  -7    2.66    0.72
   1  -4   7    1.69    0.61
   1  -4   7    2.45    0.93
  -2   4  -7    3.31    0.80
   2  -4   7    3.02    0.84
   2  -4   7    3.23    1.01
  -3   4  -7    3.90    0.90
   3  -4   7    1.32    0.60
   3  -4   7    2.81    1.00
  -4   4  -7   10.50    1.25
   4  -4   7   12.32    1.42
   4  -4   7    9.60    1.50
  -5   4  -7   10.35    1.29
   5  -4   7    8.74    1.22
   5  -4   7    9.70    1.52
  -6   4  -7   -0.02    0.49
   6  -4   7    0.30    0.78
   6  -4   7    0.28    0.68
  -7   4  -7    4.44    1.03
   7  -4   7    2.63    1.14
   7  -4   7    3.43    0.85
  -8   4  -7   -0.41    0.81
   8  -4   7    0.51    1.01
   8  -4   7    0.00    0.75
  -9   4  -7   -1.77    0.86
   9  -4   7    0.95    1.14
 -10   4  -7   -0.30    1.05
  -8  -3   7   -2.25    1.43
  -8  -3   7   -0.70    1.03
  -7  -3   7   -0.32    0.67
  -7  -3   7   -1.81    1.18
  -6  -3   7    3.03    1.31
  -6  -3   7    2.17    0.86
  -5  -3   7    1.45    0.92
  -5  -3   7    2.27    0.76
  -4  -3   7   -0.51    0.57
  -4  -3   7   -0.08    0.56
  -4  -3   7    0.11    0.73
  -3  -3   7    7.96    1.09
  -3  -3   7    9.49    1.19
  -3  -3   7    8.85    1.36
   2   3  -7   -0.44    0.42
  -2  -3   7   -0.05    0.38
  -2  -3   7    0.47    0.49
  -2  -3   7    0.39    0.72
   1   3  -7   -0.12    0.41
  -1  -3   7   -0.43    0.41
  -1  -3   7   -0.17    0.32
  -1  -3   7    0.69    0.45
   0   3  -7    0.42    0.46
   0  -3   7    0.18    0.33
   0  -3   7    0.95    0.58
   0  -3   7    0.75    0.47
  -1   3  -7    1.87    0.61
   1  -3   7    1.67    0.64
   1  -3   7    0.92    0.70
  -2   3  -7    6.01    0.91
   2  -3   7    5.33    0.87
   2  -3   7    5.13    1.05
  -3   3  -7    1.65    0.56
   3  -3   7    2.71    0.89
   3  -3   7    2.68    0.66
  -4   3  -7   22.38    1.58
   4  -3   7   18.71    1.58
   4  -3   7   20.35    1.54
  -5   3  -7   18.25    1.68
   5  -3   7   16.71    1.59
   5  -3   7   16.72    1.51
  -6   3  -7    2.93    0.92
   6  -3   7    2.58    0.81
   6  -3   7    1.38    0.88
  -7   3  -7   -0.18    0.71
   7  -3   7    0.39    0.52
   7  -3   7    0.65    0.84
  -8   3  -7   -0.31    0.76
   8  -3   7    0.86    0.87
   8  -3   7    0.30    0.69
  -9   3  -7    1.31    1.00
   9  -3   7   -0.30    0.93
 -10   3  -7    0.39    1.09
  10  -3   7    1.75    1.34
 -11   3  -7   -1.17    1.12
  -9  -2   7    1.88    1.10
  -8  -2   7   -0.65    0.98
  -7  -2   7    1.28    1.35
  -7  -2   7    1.31    0.99
  -6  -2   7   -0.01    0.56
  -6  -2   7    0.31    1.13
  -5  -2   7   32.83    2.20
  -5  -2   7   30.17    1.91
  -4  -2   7   36.98    2.23
  -4  -2   7   35.47    1.94
  -4  -2   7   32.83    1.85
  -3  -2   7   11.70    1.46
  -3  -2   7    9.96    1.16
  -3  -2   7    9.29    1.08
  -3  -2   7    8.24    0.96
   2   2  -7    0.83    0.51
  -2  -2   7   -0.01    0.36
  -2  -2   7   -0.23    0.41
  -2  -2   7   -0.40    0.60
   1   2  -7    1.55    0.55
  -1  -2   7    2.14    0.53
  -1  -2   7    2.09    0.58
  -1  -2   7    1.38    0.72
   0   2  -7    0.40    0.43
   0  -2   7    0.64    0.43
   0  -2   7    0.34    0.38
   0  -2   7   -0.13    0.40
  -1   2  -7    1.54    0.54
   1  -2   7    1.31    0.56
   1  -2   7    0.92    0.34
   1  -2   7    0.96    0.46
  -2   2  -7    2.62    0.56
   2  -2   7    2.95    0.70
   2  -2   7    3.56    0.88
  -3   2  -7   33.36    1.76
   3  -2   7   30.28    1.69
   3  -2   7   31.86    1.97
  -4   2  -7    0.46    0.58
   4  -2   7    0.66    0.45
   4  -2   7    0.95    0.69
  -5   2  -7   27.90    1.77
   5  -2   7   29.76    1.98
   5  -2   7   24.89    1.57
  -6   2  -7   37.52    2.06
   6  -2   7   32.39    2.21
   6  -2   7   35.26    1.96
  -7   2  -7   10.79    1.37
   7  -2   7   16.05    1.80
   7  -2   7   15.04    1.49
  -8   2  -7   -0.27    0.53
   8  -2   7   -0.25    0.55
   8  -2   7    0.14    0.64
  -9   2  -7   -0.47    0.72
   9  -2   7   -0.40    0.89
 -10   2  -7    0.54    0.99
  10  -2   7    0.87    0.90
 -11   2  -7    0.09    1.11
  11  -2   7   -0.51    1.17
  -9  -1   7    0.68    0.97
  -8  -1   7    0.04    0.71
  -7  -1   7    0.84    0.73
  -6  -1   7   -1.10    0.96
  -6  -1   7   -0.46    0.75
  -5  -1   7    0.23    0.72
  -5  -1   7    1.72    0.93
  -4  -1   7    4.11    0.82
  -4  -1   7    4.09    0.93
  -4  -1   7    6.51    1.14
  -3  -1   7    0.64    0.45
  -3  -1   7    0.12    0.30
  -3  -1   7    0.43    0.60
  -3  -1   7    0.66    0.44
  -2  -1   7    3.35    0.74
  -2  -1   7    3.63    0.72
  -2  -1   7    3.33    0.83
   1   1  -7    2.97    0.62
  -1  -1   7    3.19    0.72
  -1  -1   7    4.01    0.87
  -1  -1   7    3.73    0.64
   0   1  -7   -0.33    0.24
   0  -1   7    0.50    0.33
   0  -1   7    0.13    0.40
   0  -1   7    0.32    0.35
  -1   1  -7   -0.31    0.37
   1  -1   7    0.34    0.51
   1  -1   7   -0.09    0.43
   1  -1   7   -0.13    0.25
  -2   1  -7    3.69    0.70
   2  -1   7    4.22    0.77
   2  -1   7    4.48    0.89
  -3   1  -7   22.92    1.41
   3  -1   7   21.96    1.34
   3  -1   7   24.71    1.56
  -4   1  -7   27.63    1.57
   4  -1   7   29.30    1.60
   4  -1   7   27.07    1.72
  -5   1  -7   35.60    1.87
   5  -1   7   33.22    2.05
   5  -1   7   34.66    1.80
  -6   1  -7    5.50    0.91
   6  -1   7    5.58    0.91
   6  -1   7    5.33    1.16
  -7   1  -7   14.43    1.56
   7  -1   7   15.90    1.25
   7  -1   7   18.29    1.87
  -8   1  -7    5.30    1.02
   8  -1   7    7.45    1.39
  -9   1  -7    1.59    0.92
   9  -1   7    0.47    0.95
 -10   1  -7    2.09    0.89
  10  -1   7    2.14    1.17
 -11   1  -7   -0.44    0.68
  11  -1   7    0.65    1.20
 -12   1  -7   -0.31    1.14
  12  -1   7    0.55    1.41
  -9   0   7    0.20    0.89
  -8   0   7   -0.08    0.68
  -7   0   7    5.62    1.33
  -6   0   7    0.23    0.81
  -5   0   7    3.08    1.05
  -5   0   7    2.96    0.84
  -5   0   7    2.51    0.78
  -4   0   7   16.07    1.36
  -4   0   7   16.13    1.48
  -4   0   7   16.17    1.44
  -3   0   7   13.66    1.38
  -3   0   7   12.11    1.22
  -3   0   7   13.54    1.27
  -2   0   7    2.37    0.65
  -2   0   7    1.21    0.58
  -2   0   7    1.55    0.59
   1   0  -7   12.00    1.11
  -1   0   7   12.95    0.95
  -1   0   7   11.87    1.07
   0   0  -7    2.59    0.53
   0   0   7    1.65    0.44
   0   0   7    2.61    0.65
  -1   0  -7    0.17    0.42
   1   0   7    0.17    0.35
   1   0   7   -0.15    0.28
   1   0   7    0.09    0.30
  -2   0  -7   33.66    1.60
   2   0   7   33.73    1.80
   2   0   7   32.31    1.14
   2   0   7   32.94    1.62
  -3   0  -7   27.71    1.52
   3   0   7   29.04    1.69
   3   0   7   27.77    1.51
  -4   0  -7    1.12    0.46
   4   0   7    0.58    0.46
   4   0   7    0.80    0.46
  -5   0  -7   11.75    1.26
   5   0   7   12.69    1.02
   5   0   7   13.63    1.48
  -6   0  -7   22.80    1.59
   6   0   7   25.70    1.45
   6   0   7   23.06    1.73
  -7   0  -7    0.08    0.47
   7   0   7    1.04    0.80
   7   0   7   -0.15    0.45
  -8   0  -7    2.96    0.81
   8   0   7    1.30    0.89
  -9   0  -7    5.09    1.04
   9   0   7    4.32    1.25
 -10   0  -7    1.29    0.91
  10   0   7   -0.22    1.01
 -11   0  -7    0.46    0.88
  11   0   7    0.76    1.18
 -12   0  -7    0.60    0.84
  12   0   7    0.93    1.30
  -9   1   7    0.56    0.92
  -8   1   7   -0.36    0.69
  -7   1   7   -0.30    0.81
  -7   1   7   -1.11    1.04
  -6   1   7   -0.88    0.81
  -6   1   7    0.42    0.57
  -5   1   7    2.56    0.78
  -5   1   7    2.89    0.89
  -4   1   7   11.51    1.29
  -4   1   7   10.89    1.31
  -3   1   7   -0.17    0.53
  -3   1   7    0.22    0.56
  -3   1   7    0.87    0.54
  -2   1   7    0.71    0.47
  -2   1   7    0.07    0.37
  -2   1   7    0.20    0.37
   1  -1  -7    0.22    0.35
  -1   1   7   -0.15    0.27
  -1   1   7   -0.19    0.42
   0  -1  -7   58.75    2.33
   0   1   7   62.19    2.17
   0   1   7   61.14    2.48
  -1  -1  -7   65.03    2.45
   1   1   7   64.43    2.63
   1   1   7   65.59    2.14
  -2  -1  -7    1.41    0.46
   2   1   7    1.82    0.58
   2   1   7    1.59    0.35
  -3  -1  -7    5.90    0.81
   3   1   7    5.96    0.44
   3   1   7    6.31    0.92
  -4  -1  -7   12.87    1.17
   4   1   7   14.24    1.11
   4   1   7   10.80    1.02
  -5  -1  -7    5.45    0.87
   5   1   7    5.71    0.78
   5   1   7    6.41    1.04
  -6  -1  -7    4.56    0.87
   6   1   7    4.05    1.02
   6   1   7    3.67    0.64
  -7  -1  -7    3.18    0.84
   7   1   7    2.02    0.85
   7   1   7    3.01    0.63
  -8  -1  -7   12.69    1.36
   8   1   7   12.01    1.65
  -9  -1  -7    3.64    1.01
   9   1   7    3.63    1.05
 -10  -1  -7    1.70    0.91
  10   1   7    1.56    0.95
 -11  -1  -7    1.35    0.98
  11   1   7    1.18    1.01
 -12  -1  -7    0.85    1.05
  12   1   7    1.75    1.36
  -9   2   7    0.45    1.20
  -8   2   7   -0.54    0.71
  -8   2   7   -1.68    1.13
  -7   2   7   -0.49    1.14
  -7   2   7   -0.02    0.94
  -6   2   7    5.68    1.32
  -6   2   7    4.88    1.03
  -5   2   7    7.05    1.22
  -5   2   7    6.49    1.16
  -4   2   7    4.35    0.87
  -4   2   7    3.20    0.88
  -3   2   7    2.37    0.73
  -3   2   7    1.69    0.59
  -2   2   7    0.12    0.53
  -2   2   7   -0.05    0.38
  -2   2   7    0.91    0.58
  -1   2   7   16.18    1.12
  -1   2   7   13.71    1.04
  -1   2   7   13.23    0.96
   0  -2  -7    0.24    0.46
   0   2   7    1.08    0.44
   0   2   7    0.15    0.40
  -1  -2  -7    8.55    0.94
   1   2   7    9.73    0.73
   1   2   7    9.13    0.81
  -2  -2  -7    0.07    0.40
   2   2   7   -0.12    0.26
   2   2   7   -0.31    0.34
  -3  -2  -7   19.59    1.17
   3   2   7   19.24    0.84
   3   2   7   20.20    1.28
  -4  -2  -7    2.60    0.54
   4   2   7    3.85    0.80
   4   2   7    3.19    0.37
  -5  -2  -7    3.74    0.74
   5   2   7    4.25    0.87
   5   2   7    4.02    0.65
  -6  -2  -7   -0.28    0.45
   6   2   7    0.44    0.37
   6   2   7    0.01    0.57
  -7  -2  -7    0.72    0.62
   7   2   7    0.03    0.67
   7   2   7    0.86    0.39
  -8  -2  -7    2.12    0.65
  -9  -2  -7   10.86    1.32
 -10  -2  -7    0.93    0.80
 -11  -2  -7   -0.84    0.52
 -12  -2  -7    0.93    0.99
  12   2   7   -0.31    0.88
  13   2   7   -0.74    1.39
  -8   3   7   -1.12    1.28
  -8   3   7    0.45    1.03
  -7   3   7   -1.56    1.09
  -7   3   7    1.02    0.97
  -6   3   7    0.97    0.68
  -6   3   7    0.03    1.04
   5  -3  -7    1.89    0.74
  -5   3   7    0.60    0.88
  -5   3   7    0.67    0.60
   4  -3  -7    1.98    0.62
  -4   3   7    2.67    0.78
  -4   3   7    0.79    0.75
   3  -3  -7    2.21    0.74
  -3   3   7    1.70    0.76
  -3   3   7    3.40    0.77
   2  -3  -7    2.96    0.75
  -2   3   7    4.09    0.75
  -2   3   7    4.17    0.76
   1  -3  -7    0.12    0.37
  -1   3   7    0.06    0.48
  -1   3   7   -0.02    0.35
  -1   3   7    0.15    0.30
   0  -3  -7    2.45    0.67
   0   3   7    2.14    0.54
   0   3   7    3.17    0.68
   0   3   7    3.79    0.53
  -1  -3  -7    1.29    0.44
  -1  -3  -7    2.71    0.56
   1   3   7    1.55    0.41
   1   3   7    0.90    0.41
  -2  -3  -7    0.17    0.42
   2   3   7    0.18    0.29
   2   3   7   -0.26    0.30
  -3  -3  -7   22.42    1.30
   3   3   7   22.18    1.31
   3   3   7   21.59    1.01
  -4  -3  -7   79.62    2.85
   4   3   7   77.74    3.12
  -5  -3  -7   15.82    1.15
  -5  -3  -7   17.31    0.85
   5   3   7   17.93    1.29
  -6  -3  -7   15.27    1.17
  -6  -3  -7   16.40    0.87
  -6  -3  -7   16.82    1.73
   6   3   7   15.16    0.97
  -7  -3  -7    8.26    1.36
  -7  -3  -7    6.19    0.93
   7   3   7    6.59    0.72
  -8  -3  -7   -0.26    0.65
  -8  -3  -7   -0.76    0.49
  -9  -3  -7    5.75    1.42
  -9  -3  -7    7.04    1.02
 -10  -3  -7    2.44    1.05
 -10  -3  -7    2.16    0.84
 -11  -3  -7    0.47    0.83
 -11  -3  -7    0.46    1.15
 -12  -3  -7    0.79    1.41
 -13  -3  -7    2.35    1.70
  -8   4   7    1.04    1.16
  -8   4   7   -0.48    1.32
  -7   4   7   -1.93    1.11
  -7   4   7    0.46    0.72
  -6   4   7    2.16    1.23
  -6   4   7    2.57    0.83
   5  -4  -7    7.97    1.21
  -5   4   7    6.12    1.27
  -5   4   7    6.63    1.15
   4  -4  -7    1.51    0.77
  -4   4   7    1.03    0.68
  -4   4   7    0.13    0.75
   3  -4  -7   -0.05    0.48
  -3   4   7   -0.34    0.64
  -3   4   7   -0.55    0.60
   2  -4  -7    5.98    0.88
  -2   4   7    6.48    0.92
  -2   4   7    4.79    0.85
   1  -4  -7   14.74    1.16
  -1   4   7   16.40    1.19
  -1   4   7   16.62    1.30
   0  -4  -7    1.42    0.63
   0   4   7    1.36    0.45
   0   4   7    1.11    0.33
   0   4   7    0.79    0.42
  -1  -4  -7   20.16    1.32
   1   4   7   18.68    0.99
   1   4   7   17.51    1.09
  -2  -4  -7  102.55    3.46
  -2  -4  -7  101.60    3.53
   2   4   7  100.99    3.50
   2   4   7  104.85    3.21
  -3  -4  -7   26.49    1.45
  -3  -4  -7   27.02    1.40
   3   4   7   27.78    1.45
   3   4   7   28.74    1.26
  -4  -4  -7   25.23    1.37
  -4  -4  -7   22.13    1.10
  -5  -4  -7   25.45    1.65
  -5  -4  -7   23.45    1.36
  -5  -4  -7   23.80    1.16
  -6  -4  -7   24.20    1.20
  -6  -4  -7   24.76    1.76
  -6  -4  -7   24.13    1.42
  -7  -4  -7    0.12    0.50
  -7  -4  -7    0.39    0.84
  -7  -4  -7    0.32    0.37
  -8  -4  -7    1.76    0.68
  -8  -4  -7    1.52    1.09
  -9  -4  -7    4.33    0.94
  -9  -4  -7    7.13    1.53
 -10  -4  -7    2.28    0.85
 -10  -4  -7    3.61    1.35
 -11  -4  -7    0.63    0.97
 -12  -4  -7    0.54    1.37
 -13  -4  -7    1.56    1.67
  -8   5   7   -0.96    1.30
  -8   5   7    1.04    1.25
  -7   5   7   -2.28    1.10
  -7   5   7    0.23    1.01
  -6   5   7   -1.50    0.75
  -6   5   7   -0.39    0.86
   5  -5  -7    0.05    0.57
  -5   5   7   -0.73    0.58
  -5   5   7    0.22    1.02
   4  -5  -7   -0.48    0.45
  -4   5   7    0.26    0.72
  -4   5   7   -0.93    0.52
   3  -5  -7   10.05    1.32
  -3   5   7   11.07    1.39
  -3   5   7   11.59    1.38
   2  -5  -7   -0.28    0.40
  -2   5   7   -0.07    0.36
  -2   5   7    0.12    0.63
   1  -5  -7   29.69    1.71
  -1   5   7   30.71    1.63
  -1   5   7   32.92    1.83
   0  -5  -7   17.63    1.24
   0   5   7   16.47    1.20
   0   5   7   15.57    1.18
  -1  -5  -7    0.52    0.55
   1   5   7    0.34    0.28
   1   5   7    0.03    0.28
   1   5   7   -0.02    0.49
  -2  -5  -7    0.44    0.52
   2   5   7    0.50    0.40
   2   5   7    0.79    0.38
  -3  -5  -7   29.93    1.54
  -3  -5  -7   31.16    1.57
   3   5   7   30.15    1.41
  -4  -5  -7    0.03    0.51
  -4  -5  -7    0.00    0.47
  -4  -5  -7    0.09    0.31
  -4  -5  -7    0.14    0.36
  -5  -5  -7    0.96    0.44
  -5  -5  -7    0.26    0.41
  -5  -5  -7    0.33    0.70
  -5  -5  -7    0.14    0.40
  -6  -5  -7   22.32    1.22
  -6  -5  -7   22.19    1.70
  -6  -5  -7   21.19    1.31
  -7  -5  -7   20.28    1.22
  -7  -5  -7   17.81    1.55
  -7  -5  -7   18.95    1.26
  -8  -5  -7   -0.20    0.46
  -8  -5  -7    0.40    0.78
  -8  -5  -7   -0.07    0.34
  -9  -5  -7    5.89    0.94
  -9  -5  -7    6.24    1.35
 -10  -5  -7    5.06    1.51
 -11  -5  -7    1.92    1.14
 -12  -5  -7   -1.58    1.26
 -13  -5  -7   -0.73    1.49
  -7   6   7    1.20    1.42
  -7   6   7    2.03    0.97
  -6   6   7   -0.46    0.75
  -6   6   7   -2.23    1.07
   5  -6  -7   -0.12    0.56
  -5   6   7   -1.09    0.69
  -5   6   7   -2.16    0.82
   4  -6  -7    0.08    0.59
  -4   6   7    0.99    0.91
  -4   6   7   -0.26    0.89
   3  -6  -7    1.17    0.68
  -3   6   7    0.23    0.68
  -3   6   7    1.34    0.89
   2  -6  -7   17.12    1.67
  -2   6   7   17.98    1.67
  -2   6   7   22.01    1.47
   1  -6  -7    2.66    0.72
  -1   6   7    2.67    0.66
  -1   6   7    1.99    0.65
   0  -6  -7   -0.01    0.43
   0   6   7    0.13    0.41
   0   6   7   -0.25    0.46
  -1  -6  -7    4.77    0.92
   1   6   7    6.29    0.86
   1   6   7    6.60    0.84
  -2  -6  -7   46.73    2.18
   2   6   7   49.66    2.05
   2   6   7   49.24    1.93
   2   6   7   54.26    2.24
  -3  -6  -7    0.22    0.49
  -3  -6  -7    0.47    0.36
  -3  -6  -7    1.06    0.58
  -4  -6  -7   -0.36    0.38
  -4  -6  -7    0.07    0.42
  -4  -6  -7   -0.07    0.59
  -4  -6  -7   -0.28    0.44
  -5  -6  -7   13.59    1.02
  -5  -6  -7   13.28    1.03
  -5  -6  -7   15.37    1.54
  -5  -6  -7   10.32    1.05
  -6  -6  -7    2.45    0.83
  -6  -6  -7    2.44    0.63
  -6  -6  -7    2.31    0.58
  -6  -6  -7    1.13    0.49
  -7  -6  -7    3.49    0.74
  -7  -6  -7    5.28    1.28
  -7  -6  -7    4.74    0.82
  -8  -6  -7    2.98    1.24
  -8  -6  -7    1.48    0.66
  -8  -6  -7    1.07    0.64
  -9  -6  -7    0.72    0.88
  -9  -6  -7    0.59    0.63
 -10  -6  -7    5.01    1.60
 -11  -6  -7   -1.48    1.18
 -12  -6  -7    0.04    1.12
 -13  -6  -7    0.78    1.67
  -7   7   7    0.64    1.10
  -7   7   7    0.03    1.33
   6  -7  -7    0.54    1.08
  -6   7   7    0.80    0.99
  -6   7   7   -2.58    1.13
   5  -7  -7    0.89    1.00
  -5   7   7   -0.27    1.03
  -5   7   7   -0.36    1.16
   4  -7  -7    0.02    0.58
  -4   7   7   -0.98    0.51
  -4   7   7    0.22    1.04
   3  -7  -7   -0.52    0.73
  -3   7   7   -0.58    0.82
  -3   7   7   -0.52    0.63
   2  -7  -7   17.54    1.76
  -2   7   7   15.30    1.57
  -2   7   7   14.23    1.52
   1  -7  -7   10.57    1.36
  -1   7   7   16.25    1.58
  -1   7   7   12.75    1.39
   0  -7  -7    4.06    0.86
   0   7   7    3.35    0.75
   0   7   7    2.20    0.72
  -1  -7  -7    9.13    1.14
   1   7   7    8.74    1.03
   1   7   7    7.91    1.06
  -2  -7  -7    1.44    0.71
   2   7   7    1.98    0.64
   2   7   7    0.82    0.44
  -3  -7  -7   -1.11    0.52
  -3  -7  -7    0.89    0.64
  -3  -7  -7    0.70    0.53
   3   7   7    0.32    0.38
  -4  -7  -7    1.27    0.58
  -4  -7  -7    2.26    0.78
  -4  -7  -7    0.98    0.53
   4   7   7    1.18    0.55
  -5  -7  -7   -0.30    0.76
  -5  -7  -7    0.27    0.50
  -5  -7  -7    0.19    0.38
  -5  -7  -7   -0.66    0.44
  -6  -7  -7   40.29    1.87
  -6  -7  -7   39.13    2.01
  -6  -7  -7   40.97    1.84
  -6  -7  -7   41.14    2.35
  -7  -7  -7   23.30    1.97
  -8  -7  -7   -0.16    0.42
  -8  -7  -7    0.17    1.11
  -9  -7  -7    5.65    1.53
  -9  -7  -7    7.20    1.12
 -10  -7  -7   12.23    1.44
 -10  -7  -7    9.24    1.84
 -11  -7  -7    1.18    1.49
 -12  -7  -7    0.22    1.57
 -13  -7  -7   -0.79    1.66
   6  -8  -7    1.60    1.25
  -6   8   7   -0.38    0.94
  -6   8   7    0.73    0.97
   5  -8  -7   -0.82    0.63
  -5   8   7   -1.18    0.79
  -5   8   7   -1.49    0.97
   4  -8  -7   -0.95    0.84
  -4   8   7    1.13    0.92
  -4   8   7    0.71    0.68
   3  -8  -7   -0.10    0.61
  -3   8   7   -0.94    0.63
  -3   8   7   -0.27    0.71
   2  -8  -7    4.73    1.09
  -2   8   7    8.16    1.26
  -2   8   7    7.24    1.27
   1  -8  -7   17.19    1.83
  -1   8   7   19.78    1.54
  -1   8   7   14.89    1.54
   0  -8  -7   -0.27    0.50
   0   8   7    0.02    0.57
   0   8   7   -0.22    0.65
  -1  -8  -7    2.19    0.76
   1   8   7    1.06    0.53
   1   8   7    0.74    0.65
  -2  -8  -7    2.04    0.88
   2   8   7    1.80    0.70
   2   8   7    2.31    0.73
  -3  -8  -7   20.09    1.45
  -3  -8  -7   20.38    1.36
   3   8   7   18.51    1.32
  -4  -8  -7    1.80    0.69
  -4  -8  -7    0.81    0.70
  -4  -8  -7    1.70    0.85
   4   8   7    1.25    0.55
  -5  -8  -7    0.50    0.64
  -5  -8  -7    0.16    0.60
  -5  -8  -7   -0.78    0.69
   5   8   7    0.83    0.49
  -6  -8  -7   10.14    1.50
  -6  -8  -7    7.89    1.11
  -6  -8  -7    9.18    1.06
  -7  -8  -7    8.53    1.18
  -7  -8  -7    9.84    1.60
  -8  -8  -7    0.35    0.85
  -8  -8  -7    1.02    0.73
  -9  -8  -7   -1.35    1.06
  -9  -8  -7    0.23    0.71
 -10  -8  -7   -1.77    1.21
 -10  -8  -7   -0.33    0.72
 -11  -8  -7    0.04    0.83
 -11  -8  -7    0.04    1.09
 -12  -8  -7    0.92    1.27
 -13  -8  -7   -2.84    1.04
   5  -9  -7   -0.41    0.77
  -5   9   7    1.05    1.21
  -5   9   7   -0.94    1.20
   4  -9  -7   -0.42    0.97
  -4   9   7   -0.21    0.87
  -4   9   7   -0.80    1.16
   3  -9  -7    0.08    0.68
  -3   9   7    1.37    0.88
  -3   9   7   -0.35    0.81
   2  -9  -7    2.67    0.96
  -2   9   7    2.11    1.13
  -2   9   7    4.03    0.96
   1  -9  -7    7.84    1.43
  -1   9   7    9.61    1.46
  -1   9   7    7.66    1.19
   0  -9  -7    2.52    0.81
   0   9   7    1.43    0.87
   0   9   7    2.78    0.81
  -1  -9  -7   -0.29    0.57
   1   9   7    0.60    0.68
   1   9   7   -0.54    0.38
  -2  -9  -7    0.57    0.65
   2   9   7    1.92    0.76
   2   9   7    0.70    0.63
  -3  -9  -7   16.03    1.66
  -3  -9  -7   16.52    1.56
   3   9   7   18.82    1.36
  -4  -9  -7    5.85    0.93
  -4  -9  -7    6.57    1.17
   4   9   7    7.84    1.00
  -5  -9  -7   -0.36    0.67
  -5  -9  -7   -1.83    0.75
  -5  -9  -7   -0.13    0.45
  -6  -9  -7    0.86    1.00
  -6  -9  -7    0.48    0.69
  -6  -9  -7   -0.19    0.59
  -7  -9  -7   10.32    1.70
  -7  -9  -7    8.73    1.28
  -8  -9  -7    4.03    1.40
  -8  -9  -7    5.76    1.12
  -9  -9  -7   -0.82    0.70
  -9  -9  -7   -0.64    1.26
 -10  -9  -7   -0.24    0.77
 -10  -9  -7    0.46    1.07
 -11  -9  -7    0.17    1.52
 -11  -9  -7    0.44    0.73
 -12  -9  -7   -1.43    1.61
 -12  -9  -7    0.35    0.81
   4 -10  -7   -0.83    0.75
  -4  10   7   -0.57    1.23
  -4  10   7    0.41    1.03
   3 -10  -7    0.15    0.82
  -3  10   7    3.40    1.01
  -3  10   7    0.53    0.96
   2 -10  -7    4.93    1.20
  -2  10   7    6.03    1.48
  -2  10   7    4.21    1.14
   1 -10  -7    1.14    1.01
  -1  10   7   -0.84    0.95
  -1  10   7    0.32    0.80
   0 -10  -7    1.49    0.85
   0  10   7    2.55    0.91
   0  10   7    2.29    0.87
  -1 -10  -7    1.95    0.86
   1  10   7    1.80    0.92
   1  10   7    1.11    0.81
  -2 -10  -7    1.52    0.76
   2  10   7    0.80    0.72
   2  10   7    1.15    0.80
  -3 -10  -7    1.47    0.80
  -3 -10  -7    3.07    1.03
   3  10   7    2.47    0.77
  -4 -10  -7    0.22    0.67
  -4 -10  -7   -0.49    0.51
  -5 -10  -7    0.39    0.60
  -5 -10  -7    0.01    0.49
  -6 -10  -7   -0.56    0.71
  -6 -10  -7   -0.51    0.61
  -6 -10  -7   -1.27    0.65
  -7 -10  -7   11.31    1.39
  -7 -10  -7   12.26    1.84
  -8 -10  -7    5.72    1.09
  -8 -10  -7    7.71    1.73
  -9 -10  -7    2.58    0.88
  -9 -10  -7    1.95    1.51
 -10 -10  -7    0.48    1.16
 -10 -10  -7   -0.22    0.85
 -11 -10  -7   -3.19    1.40
 -11 -10  -7    0.75    1.05
 -12 -10  -7    0.52    1.14
 -12 -10  -7   -2.58    1.58
   3 -11  -7    0.75    1.23
  -3  11   7   -0.72    0.94
  -3  11   7   -2.32    1.14
   2 -11  -7    7.62    1.66
  -2  11   7    5.63    1.54
  -2  11   7    6.69    1.29
   1 -11  -7    9.48    1.54
  -1  11   7    7.95    1.39
  -1  11   7    6.80    1.53
   0 -11  -7   -0.21    1.03
   0  11   7    2.00    0.97
   0  11   7    0.67    1.10
  -1 -11  -7   -0.79    0.87
   1  11   7   -0.48    0.49
   1  11   7   -2.33    0.73
  -2 -11  -7    1.04    0.78
   2  11   7    2.16    0.78
   2  11   7    3.13    1.05
  -3 -11  -7    0.31    0.56
  -3 -11  -7    0.32    0.93
  -4 -11  -7    7.13    1.23
  -4 -11  -7    6.25    1.17
  -5 -11  -7    0.16    0.51
  -5 -11  -7    0.13    0.88
  -6 -11  -7    7.58    1.30
  -6 -11  -7    5.22    1.08
  -7 -11  -7   -0.61    1.15
  -7 -11  -7    0.16    0.62
  -8 -11  -7    9.48    1.88
  -8 -11  -7    7.51    1.29
  -9 -11  -7    0.30    1.47
  -9 -11  -7    3.06    1.10
 -10 -11  -7   -0.14    0.69
 -10 -11  -7   -1.12    1.06
 -11 -11  -7   -0.35    1.27
 -11 -11  -7   -0.31    1.04
   2 -12  -7   -0.90    1.14
  -2  12   7    0.02    1.25
  -2  12   7   -0.48    0.75
   1 -12  -7    1.71    1.04
  -1  12   7    0.90    1.04
  -1  12   7   -0.05    0.90
   0 -12  -7    0.87    1.19
   0  12   7    0.33    0.68
   0  12   7    0.09    1.17
  -1 -12  -7    1.97    0.99
   1  12   7    1.19    0.76
  -2 -12  -7   -0.10    0.77
   2  12   7   -0.89    0.72
  -3 -12  -7    0.68    0.82
   3  12   7    1.27    0.74
  -4 -12  -7    3.83    1.29
  -4 -12  -7    3.81    0.99
  -5 -12  -7    4.61    1.06
  -5 -12  -7    3.98    1.12
  -6 -12  -7    2.48    1.05
  -7 -12  -7    1.42    0.98
  -8 -12  -7    1.94    1.04
  -9 -12  -7    0.32    0.74
  -9 -12  -7   -2.05    1.46
 -10 -12  -7   -1.70    1.60
 -10 -12  -7   -0.25    1.03
   0 -13  -7    1.07    1.09
   0  13   7    1.18    0.91
  -1 -13  -7   -0.39    0.78
   1  13   7   -0.35    0.94
  -2 -13  -7    0.50    1.20
   2  13   7    2.11    0.90
  -3 -13  -7    0.90    1.20
   3  13   7    1.90    1.08
  -4 -13  -7   -0.26    0.75
  -4 -13  -7    0.95    0.81
  -5 -13  -7    5.92    1.37
  -5 -13  -7    4.04    1.33
  -6 -13  -7    6.88    1.46
  -7 -13  -7   -0.32    0.98
  -8 -13  -7   -0.46    1.00
  -9 -13  -7    0.97    0.93
  -2 -14  -7   -1.75    1.24
   2  14   7    0.40    1.15
  -3 -14  -7   -1.34    1.28
   3  14   7    0.86    1.21
  -4 -14  -7    1.32    0.95
  -4 -14  -7    1.78    1.12
  -5 -14  -7   -0.49    1.07
  -5 -14  -7   -0.33    1.19
  -6 -14  -7   -1.81    1.01
  -7 -14  -7   -0.36    1.11
  -2  -9   8    2.01    1.21
  -2  -9   8    1.45    1.12
  -1  -9   8    1.03    1.07
  -1  -9   8    0.89    1.15
   0  -9   8    0.77    0.84
   0  -9   8    0.50    1.00
   1  -9   8    0.59    0.84
   1  -9   8    0.92    1.49
   2  -9   8    2.54    1.53
   2  -9   8    0.85    1.13
  -4  -8   8    1.40    1.21
  -3  -8   8    5.14    1.35
  -3  -8   8    3.11    1.22
  -2  -8   8    0.61    0.73
  -2  -8   8    1.10    0.93
  -1  -8   8    4.08    1.48
  -1  -8   8    1.49    1.04
   0  -8   8    5.74    1.29
   0  -8   8    3.23    1.38
   1  -8   8    2.62    1.14
   1  -8   8   -0.27    1.09
   2  -8   8   -0.03    0.86
   2  -8   8    0.51    0.99
   3  -8   8    1.62    1.32
   3  -8   8    0.16    0.70
   4  -8   8    1.17    1.33
   4  -8   8    2.00    0.93
  -5   8  -8   -0.21    0.80
   5  -8   8    1.57    1.47
   5  -8   8    2.71    1.29
  -5  -7   8    1.79    1.25
  -5  -7   8    0.81    1.16
  -4  -7   8    2.22    1.22
  -3  -7   8   -0.42    0.80
  -3  -7   8    0.94    1.08
  -2  -7   8    0.14    0.66
  -2  -7   8    1.11    0.91
  -1  -7   8    0.40    0.97
  -1  -7   8    1.82    0.77
   0  -7   8   -0.01    0.82
   0  -7   8    0.65    1.04
   1  -7   8    1.78    0.89
   1  -7   8    1.46    1.14
   2  -7   8    0.74    1.08
   2  -7   8    2.36    1.04
   3  -7   8    0.34    0.86
   3  -7   8    0.58    1.11
  -4   7  -8   -0.54    0.80
   4  -7   8    1.56    1.21
   4  -7   8    0.24    0.66
  -5   7  -8    3.36    1.20
   5  -7   8    2.06    1.07
   5  -7   8    2.66    1.37
  -6   7  -8    0.77    1.10
   6  -7   8   -0.32    1.20
   6  -7   8    0.52    0.77
  -6  -6   8    2.03    1.39
  -6  -6   8    0.56    0.90
  -5  -6   8    1.62    1.15
  -5  -6   8    0.16    0.72
  -4  -6   8    1.31    1.07
  -4  -6   8    0.50    0.87
  -3  -6   8    5.03    1.29
  -3  -6   8    4.84    1.20
  -2  -6   8    2.46    0.98
  -2  -6   8    2.19    1.08
  -1  -6   8    0.33    0.93
  -1  -6   8    0.04    0.73
   0  -6   8    0.62    0.91
   0  -6   8    1.91    0.75
   1  -6   8   -0.17    0.51
   1  -6   8   -0.37    0.63
  -2   6  -8   -0.12    0.65
   2  -6   8    0.58    0.59
   2  -6   8    0.38    0.98
  -3   6  -8    0.79    0.73
   3  -6   8    1.95    0.93
   3  -6   8    2.17    1.15
  -4   6  -8    2.97    0.89
   4  -6   8    3.63    1.23
   4  -6   8    2.81    0.91
  -5   6  -8    1.86    1.04
   5  -6   8    0.15    0.80
   5  -6   8    2.11    1.16
  -6   6  -8    1.31    1.01
   6  -6   8   -0.30    0.85
   6  -6   8    1.23    1.14
  -7   6  -8   -0.58    0.96
   7  -6   8    1.14    1.02
   7  -6   8    0.55    1.21
  -8   6  -8    1.94    1.01
   8  -6   8    1.84    1.41
   8  -6   8    1.43    1.16
  -7  -5   8    2.76    1.14
  -7  -5   8    0.26    1.64
  -6  -5   8    1.06    1.02
  -6  -5   8    0.31    0.80
  -5  -5   8    0.95    0.95
  -5  -5   8    2.33    1.13
  -4  -5   8    1.97    1.04
  -4  -5   8    1.62    0.94
  -4  -5   8    0.75    0.88
  -3  -5   8   -0.18    0.48
  -3  -5   8    0.93    0.78
  -3  -5   8    0.07    0.85
  -2  -5   8    2.65    1.07
  -2  -5   8    1.65    0.72
  -1  -5   8   -0.14    0.64
  -1  -5   8    0.97    0.85
   0  -5   8    0.64    0.56
   0  -5   8    0.54    0.65
  -1   5  -8   10.31    1.25
   1  -5   8    8.85    1.26
   1  -5   8    8.01    1.46
  -2   5  -8    0.12    0.60
   2  -5   8   -0.29    0.60
   2  -5   8    0.53    0.67
  -3   5  -8    6.12    1.13
   3  -5   8    6.23    1.33
   3  -5   8    4.90    1.02
  -4   5  -8    0.89    0.79
   4  -5   8    0.76    0.77
   4  -5   8    0.52    0.92
  -5   5  -8    2.97    1.00
   5  -5   8    3.01    1.04
   5  -5   8    3.39    1.05
  -6   5  -8    2.48    1.05
   6  -5   8    1.24    0.86
   6  -5   8    1.52    1.10
  -7   5  -8    0.08    0.88
   7  -5   8    0.75    0.83
   7  -5   8   -0.11    1.05
  -8   5  -8    0.68    1.01
   8  -5   8    0.35    0.95
   8  -5   8    0.80    1.23
  -9   5  -8    0.07    1.15
   9  -5   8    1.35    1.42
  -7  -4   8   -2.28    0.89
  -7  -4   8   -0.97    1.42
  -6  -4   8    0.37    0.97
  -6  -4   8    1.58    1.22
  -5  -4   8   -0.80    0.76
  -5  -4   8    2.41    1.09
  -4  -4   8    0.03    0.72
  -4  -4   8    1.18    0.75
  -4  -4   8   -0.05    0.82
  -3  -4   8    0.77    0.81
  -3  -4   8    0.36    0.65
  -3  -4   8    0.06    0.63
  -2  -4   8    5.59    0.93
  -2  -4   8    4.34    1.00
  -2  -4   8    3.26    0.93
  -1  -4   8    0.82    0.65
  -1  -4   8    0.87    0.72
   0   4  -8    1.15    0.61
   0  -4   8   -0.15    0.44
   0  -4   8    0.13    0.56
  -1   4  -8    0.73    0.63
   1  -4   8    1.07    0.71
   1  -4   8    0.42    0.65
  -2   4  -8    8.70    1.10
   2  -4   8    5.39    1.22
   2  -4   8    7.84    1.22
  -3   4  -8    6.46    1.01
   3  -4   8    7.32    1.14
   3  -4   8    7.18    1.23
  -4   4  -8   -0.30    0.62
   4  -4   8    0.91    0.85
   4  -4   8    0.48    0.52
  -5   4  -8    2.07    0.74
   5  -4   8    2.20    0.75
   5  -4   8    1.92    0.96
  -6   4  -8    3.03    0.99
   6  -4   8    1.31    0.65
   6  -4   8    3.93    1.15
  -7   4  -8    0.00    0.87
   7  -4   8    0.29    0.90
   7  -4   8   -0.12    0.74
  -8   4  -8    0.27    0.91
   8  -4   8   -0.02    0.97
   8  -4   8    0.43    0.78
  -9   4  -8    0.92    1.11
   9  -4   8    1.10    1.21
  10  -4   8    0.40    1.34
  -8  -3   8   -1.03    0.79
  -7  -3   8    0.12    1.11
  -7  -3   8   -1.17    1.34
  -6  -3   8   -0.20    0.91
  -6  -3   8    0.53    1.15
  -5  -3   8   -0.54    0.79
  -5  -3   8    0.02    0.85
  -4  -3   8    0.66    0.70
  -4  -3   8    0.74    0.85
  -4  -3   8   -0.02    0.67
  -3  -3   8   10.90    1.29
  -3  -3   8   13.40    1.70
  -3  -3   8   12.92    1.46
  -2  -3   8    6.01    0.96
  -2  -3   8    6.04    0.92
  -2  -3   8    5.69    1.19
   1   3  -8    5.62    0.90
  -1  -3   8    4.20    0.75
  -1  -3   8    2.35    0.93
  -1  -3   8    3.77    0.83
   0   3  -8    1.53    0.67
   0  -3   8    0.64    0.56
   0  -3   8    1.91    0.78
  -1   3  -8    1.84    0.58
   1  -3   8    1.28    0.62
   1  -3   8    2.35    0.90
  -2   3  -8    5.23    0.92
   2  -3   8    3.16    0.98
   2  -3   8    5.19    1.02
  -3   3  -8   10.22    1.19
   3  -3   8    8.55    1.19
   3  -3   8    7.30    1.22
  -4   3  -8    2.56    0.85
   4  -3   8    3.24    0.77
   4  -3   8    3.26    1.01
  -5   3  -8    2.72    0.87
   5  -3   8    2.60    0.84
   5  -3   8    1.19    0.85
  -6   3  -8   11.54    1.44
   6  -3   8   10.96    1.61
   6  -3   8   10.75    1.38
  -7   3  -8    3.93    1.04
   7  -3   8    2.83    1.14
   7  -3   8    5.89    1.15
  -8   3  -8    0.10    0.60
   8  -3   8   -0.49    0.89
   8  -3   8    0.16    0.53
  -9   3  -8    1.35    1.01
   9  -3   8    0.68    1.15
 -10   3  -8    0.27    1.06
  10  -3   8    1.66    1.28
  -8  -2   8    0.42    0.88
  -7  -2   8    0.08    0.72
  -6  -2   8    0.17    1.13
  -6  -2   8    0.18    0.90
  -5  -2   8    4.36    1.14
  -5  -2   8    3.63    1.15
  -4  -2   8   12.35    1.33
  -4  -2   8    8.79    1.28
  -4  -2   8   14.00    1.70
  -3  -2   8    0.97    0.68
  -3  -2   8    0.03    0.43
  -3  -2   8   -0.25    0.65
   2   2  -8   14.12    1.32
  -2  -2   8   11.47    1.33
  -2  -2   8   13.11    1.55
  -2  -2   8   13.57    1.29
   1   2  -8   10.33    1.11
  -1  -2   8    9.17    1.01
  -1  -2   8    8.17    1.27
  -1  -2   8    8.51    1.09
   0   2  -8    0.84    0.53
   0  -2   8   -0.06    0.37
   0  -2   8   -0.34    0.38
   0  -2   8    0.28    0.47
  -1   2  -8    0.37    0.50
   1  -2   8   -0.19    0.52
   1  -2   8   -0.31    0.55
  -2   2  -8   -0.35    0.46
   2  -2   8   -0.30    0.40
   2  -2   8    0.25    0.38
  -3   2  -8   19.76    1.43
   3  -2   8   18.92    1.53
   3  -2   8   16.96    1.30
  -4   2  -8   29.76    1.82
   4  -2   8   25.86    1.93
   4  -2   8   25.89    1.64
  -5   2  -8    2.22    0.83
   5  -2   8    2.61    0.79
   5  -2   8    1.77    0.76
  -6   2  -8    4.92    1.04
   6  -2   8    3.72    0.81
   6  -2   8    2.61    0.99
  -7   2  -8   -0.17    0.71
   7  -2   8    0.53    0.83
   7  -2   8    0.06    0.45
  -8   2  -8    2.11    0.97
   8  -2   8    1.74    0.77
   8  -2   8    0.15    0.86
  -9   2  -8   -0.03    0.61
   9  -2   8    0.99    0.85
 -10   2  -8   -0.30    0.89
  10  -2   8    1.50    1.17
 -11   2  -8    0.63    1.16
  11  -2   8    1.12    1.37
  -8  -1   8    2.64    1.34
  -7  -1   8   -1.41    0.86
  -6  -1   8   -0.51    0.54
  -5  -1   8    6.64    1.28
  -5  -1   8    7.75    1.34
  -4  -1   8    1.17    0.74
  -4  -1   8    0.69    0.55
  -4  -1   8   -0.08    0.41
  -4  -1   8    0.47    0.52
  -3  -1   8    6.55    0.96
  -3  -1   8    2.96    0.73
  -3  -1   8    5.92    0.94
  -3  -1   8    7.28    1.20
  -2  -1   8    4.65    0.97
  -2  -1   8    3.12    0.81
  -2  -1   8    6.19    0.84
   1   1  -8    0.64    0.53
  -1  -1   8    1.58    0.53
  -1  -1   8    0.82    0.46
  -1  -1   8    0.67    0.67
   0   1  -8    2.62    0.70
   0  -1   8    1.88    0.57
   0  -1   8    3.07    0.56
   0  -1   8    2.40    0.70
  -1   1  -8    0.79    0.51
   1  -1   8    1.26    0.58
   1  -1   8    0.79    0.34
   1  -1   8    0.53    0.50
  -2   1  -8    0.34    0.51
   2  -1   8    0.90    0.54
   2  -1   8    0.67    0.51
  -3   1  -8    2.37    0.61
   3  -1   8    1.97    0.78
   3  -1   8    2.43    0.72
  -4   1  -8   16.59    1.26
   4  -1   8   16.50    1.38
   4  -1   8   15.87    1.26
  -5   1  -8   -0.08    0.57
   5  -1   8    0.60    0.69
   5  -1   8    0.38    0.54
  -6   1  -8    5.48    1.04
   6  -1   8    6.68    1.26
   6  -1   8    7.22    1.05
  -7   1  -8   21.99    1.64
   7  -1   8   20.08    1.50
   7  -1   8   19.62    2.06
  -8   1  -8    2.29    0.76
   8  -1   8    0.14    0.59
   8  -1   8    1.63    0.78
  -9   1  -8   -0.01    0.87
   9  -1   8    1.53    1.06
 -10   1  -8    1.45    0.84
  10  -1   8   -0.27    0.73
 -11   1  -8    0.60    0.80
  11  -1   8   -0.91    1.08
  -8   0   8    0.58    1.18
  -7   0   8    0.25    0.96
  -6   0   8    2.73    1.06
  -5   0   8    0.74    0.82
  -5   0   8    0.83    0.75
  -4   0   8    0.55    0.65
  -4   0   8    0.87    0.71
  -4   0   8   -0.03    0.49
  -3   0   8    2.32    0.67
  -3   0   8    2.02    0.82
  -3   0   8    2.02    0.63
  -2   0   8    0.88    0.62
  -2   0   8    0.97    0.63
  -2   0   8    1.16    0.57
   1   0  -8   -0.10    0.44
  -1   0   8    0.16    0.44
  -1   0   8    0.42    0.55
   0   0  -8    0.30    0.39
   0   0   8    0.33    0.55
   0   0   8    0.60    0.39
  -1   0  -8    2.07    0.60
   1   0   8    1.92    0.67
   1   0   8    2.80    0.71
   1   0   8    2.65    0.46
  -2   0  -8    5.28    0.79
   2   0   8    5.94    0.82
   2   0   8    5.40    0.95
  -3   0  -8   10.74    1.10
   3   0   8   11.14    1.31
   3   0   8   10.30    1.13
  -4   0  -8   54.27    2.37
   4   0   8   56.48    2.37
   4   0   8   51.30    2.62
  -5   0  -8    1.99    0.63
   5   0   8    0.50    0.48
   5   0   8    1.15    0.58
  -6   0  -8    6.67    1.01
   6   0   8    7.06    0.91
   6   0   8    5.66    1.06
  -7   0  -8   -0.33    0.61
   7   0   8    1.36    0.60
   7   0   8    1.12    0.85
  -8   0  -8    1.58    0.71
   8   0   8    0.52    0.84
  -9   0  -8    0.06    0.78
   9   0   8    1.86    1.02
 -10   0  -8    1.45    0.92
  10   0   8    1.56    1.18
 -11   0  -8   -0.60    0.91
  11   0   8   -0.12    1.11
 -12   0  -8    0.11    1.09
  12   0   8   -0.69    1.26
  -8   1   8    0.20    1.15
  -7   1   8   -1.05    0.83
  -6   1   8   -1.41    0.81
  -6   1   8   -0.24    0.63
  -5   1   8    1.82    0.78
  -5   1   8    1.89    0.87
  -4   1   8    2.97    0.94
  -4   1   8    3.37    0.91
  -3   1   8   11.35    1.26
  -3   1   8   11.19    1.28
  -3   1   8   10.76    1.27
  -2   1   8   10.00    1.19
  -2   1   8   12.15    1.30
  -2   1   8   10.40    1.16
   1  -1  -8   25.32    1.51
  -1   1   8   26.13    1.46
  -1   1   8   29.28    1.64
   0  -1  -8    6.39    0.90
   0   1   8    5.24    0.71
   0   1   8    4.52    0.81
  -1  -1  -8    5.50    0.78
   1   1   8    5.60    0.86
   1   1   8    5.78    0.67
  -2  -1  -8    1.99    0.61
   2   1   8    0.98    0.59
   2   1   8    1.51    0.38
  -3  -1  -8    7.04    0.95
   3   1   8    8.87    1.12
   3   1   8    7.57    0.91
  -4  -1  -8   26.71    1.51
   4   1   8   25.32    1.47
   4   1   8   25.59    1.62
  -5  -1  -8   60.41    2.50
   5   1   8   54.74    2.70
   5   1   8   52.63    2.31
  -6  -1  -8    1.96    0.71
   6   1   8    3.26    0.67
   6   1   8    4.30    1.01
  -7  -1  -8    2.70    0.73
   7   1   8    1.93    0.62
   7   1   8    2.87    0.83
  -8  -1  -8   15.96    1.67
   8   1   8   16.73    1.89
  -9  -1  -8   -0.06    0.72
   9   1   8   -0.04    0.80
 -10  -1  -8    0.52    0.65
  10   1   8    1.04    0.84
 -11  -1  -8    0.06    0.91
  11   1   8   -0.37    0.75
 -12  -1  -8    0.19    1.07
  12   1   8   -0.41    0.89
  -8   2   8    2.60    1.32
  -7   2   8   -0.12    0.91
  -7   2   8   -2.18    1.13
  -6   2   8    0.99    0.74
  -6   2   8    2.22    1.17
  -5   2   8    0.90    0.84
  -5   2   8    0.85    0.88
  -4   2   8    2.40    0.73
  -4   2   8    1.34    0.78
  -3   2   8    0.63    0.66
  -3   2   8    1.39    0.72
  -2   2   8    1.38    0.58
  -2   2   8    0.14    0.39
  -2   2   8    2.13    0.75
  -1   2   8   10.83    1.11
  -1   2   8   12.31    1.26
  -1   2   8   11.01    1.11
   0  -2  -8   -0.23    0.46
   0   2   8    0.43    0.46
   0   2   8    0.56    0.44
  -1  -2  -8    9.01    0.98
   1   2   8    8.83    0.84
   1   2   8    9.98    1.04
  -2  -2  -8    2.20    0.62
   2   2   8    2.10    0.62
   2   2   8    2.81    0.47
  -3  -2  -8    0.35    0.47
   3   2   8    0.14    0.47
   3   2   8   -0.38    0.22
  -4  -2  -8    9.52    1.04
   4   2   8   10.94    1.21
  -5  -2  -8   20.42    1.41
   5   2   8   19.96    1.52
   5   2   8   20.40    1.27
  -6  -2  -8    2.29    0.62
   6   2   8    0.97    0.72
   6   2   8    1.54    0.52
  -7  -2  -8   36.86    1.99
   7   2   8   37.96    1.80
   7   2   8   38.87    2.27
  -8  -2  -8    1.06    0.74
   8   2   8    1.55    0.92
  -9  -2  -8    2.20    0.78
   9   2   8    0.71    0.92
 -10  -2  -8    0.27    0.76
  10   2   8   -0.56    0.84
 -11  -2  -8   -0.58    0.80
  11   2   8    0.02    1.02
 -12  -2  -8    0.51    1.03
  12   2   8   -0.52    1.21
 -13  -2  -8    0.59    1.18
  13   2   8   -0.18    1.36
  -8   3   8   -0.07    0.82
  -8   3   8   -1.25    0.96
  -7   3   8    3.83    1.27
  -7   3   8   -0.47    1.33
  -6   3   8   -1.13    0.99
  -6   3   8    0.49    0.75
  -5   3   8    1.11    0.69
  -5   3   8    1.19    0.92
   4  -3  -8   10.64    1.29
  -4   3   8    9.57    1.33
  -4   3   8   11.55    1.45
   3  -3  -8    2.28    0.79
  -3   3   8    2.43    0.81
  -3   3   8    1.99    0.87
   2  -3  -8    1.85    0.57
  -2   3   8    1.00    0.57
  -2   3   8    1.86    0.78
   1  -3  -8    1.75    0.66
  -1   3   8   -0.15    0.54
  -1   3   8    1.28    0.63
   0  -3  -8    0.08    0.37
   0   3   8    0.07    0.37
   0   3   8    0.79    0.49
   0   3   8    0.36    0.53
  -1  -3  -8    3.83    0.68
   1   3   8    3.91    0.61
   1   3   8    4.98    0.71
  -2  -3  -8   13.01    1.00
   2   3   8    9.77    0.76
   2   3   8   12.51    0.97
  -3  -3  -8    0.26    0.36
   3   3   8    0.09    0.42
   3   3   8   -0.13    0.25
  -4  -3  -8    0.78    0.44
   4   3   8   -0.08    0.49
   4   3   8    0.98    0.33
  -5  -3  -8    1.19    0.57
   5   3   8    0.54    0.59
  -6  -3  -8   12.25    1.25
   6   3   8   10.85    1.42
   6   3   8   12.50    1.12
  -7  -3  -8    9.81    1.19
   7   3   8   10.39    0.99
   7   3   8   11.38    1.52
  -8  -3  -8    5.75    1.03
  -9  -3  -8   28.55    1.82
 -10  -3  -8    2.23    0.78
 -10  -3  -8    0.54    0.87
 -11  -3  -8    3.16    1.13
 -12  -3  -8   -0.82    0.61
  13   3   8    1.10    1.19
  -7   4   8    1.08    0.84
  -7   4   8   -1.07    1.32
  -6   4   8   -0.42    1.16
  -6   4   8    0.72    0.72
   5  -4  -8    2.98    0.92
  -5   4   8    1.48    1.08
  -5   4   8    0.54    0.69
   4  -4  -8   -0.73    0.59
  -4   4   8    0.03    0.64
  -4   4   8   -0.64    0.72
   3  -4  -8    3.06    0.77
  -3   4   8    3.12    0.85
  -3   4   8    2.79    0.91
   2  -4  -8    1.39    0.60
  -2   4   8    1.28    0.62
  -2   4   8    1.04    0.60
   1  -4  -8    1.19    0.55
  -1   4   8    1.11    0.53
  -1   4   8    0.75    0.60
   0  -4  -8   -0.28    0.52
   0   4   8   -0.05    0.42
   0   4   8    0.22    0.46
  -1  -4  -8   10.00    1.10
   1   4   8   10.22    0.99
   1   4   8   11.80    0.84
  -2  -4  -8    7.92    0.97
  -2  -4  -8    7.99    1.01
   2   4   8    8.31    0.90
   2   4   8    9.04    0.88
  -3  -4  -8   20.15    1.29
  -3  -4  -8   20.27    1.34
   3   4   8   21.92    1.11
   3   4   8   20.91    1.29
  -4  -4  -8    9.72    1.05
   4   4   8   12.12    1.23
   4   4   8    7.85    0.74
  -5  -4  -8   32.02    1.34
  -5  -4  -8   28.13    1.55
   5   4   8   28.17    1.77
  -6  -4  -8   -0.40    0.35
  -6  -4  -8    0.69    0.67
  -6  -4  -8    0.00    0.47
  -7  -4  -8    0.72    0.89
  -7  -4  -8    0.66    0.60
  -8  -4  -8    5.17    0.87
  -8  -4  -8    3.06    1.05
  -9  -4  -8    1.32    0.76
  -9  -4  -8    1.13    0.83
 -10  -4  -8    6.17    1.18
 -10  -4  -8    7.22    1.42
 -11  -4  -8   -0.29    0.82
 -11  -4  -8   -0.67    0.75
 -12  -4  -8    0.10    1.36
 -13  -4  -8    0.36    1.20
  -7   5   8   -1.47    1.37
  -7   5   8    0.00    1.09
  -6   5   8   -0.12    0.91
  -6   5   8    0.08    0.97
   5  -5  -8    0.17    0.81
  -5   5   8    0.47    1.01
  -5   5   8   -1.14    0.98
   4  -5  -8    1.15    0.66
  -4   5   8    0.72    0.70
  -4   5   8    0.76    0.70
   3  -5  -8   -0.18    0.65
  -3   5   8   -0.05    0.54
  -3   5   8    0.26    0.75
   2  -5  -8   10.82    1.29
  -2   5   8    9.93    1.26
  -2   5   8   12.70    1.46
   1  -5  -8    1.08    0.58
  -1   5   8    0.90    0.47
  -1   5   8    2.95    0.83
   0  -5  -8   11.34    1.24
   0   5   8   11.20    1.13
   0   5   8    9.61    1.12
  -1  -5  -8    0.75    0.59
   1   5   8    0.01    0.55
   1   5   8    0.75    0.40
  -2  -5  -8    6.90    0.92
  -2  -5  -8    8.19    1.09
   2   5   8    6.87    0.84
   2   5   8    8.79    0.86
  -3  -5  -8   27.39    1.55
  -3  -5  -8   28.05    1.51
   3   5   8   24.95    1.32
   3   5   8   27.53    1.46
  -4  -5  -8    8.80    0.98
  -4  -5  -8    9.31    1.03
   4   5   8    8.49    1.07
  -5  -5  -8    3.72    0.75
  -5  -5  -8    1.64    0.81
  -5  -5  -8    2.92    0.57
  -6  -5  -8    0.96    0.56
  -6  -5  -8    1.14    0.84
  -6  -5  -8    0.04    0.44
  -7  -5  -8    0.00    0.51
  -7  -5  -8   -0.11    0.47
  -7  -5  -8   -0.30    0.87
  -8  -5  -8    1.04    0.65
  -8  -5  -8    0.70    0.79
  -9  -5  -8   -0.25    0.60
  -9  -5  -8   -0.14    0.98
 -10  -5  -8    0.08    0.70
 -10  -5  -8    1.05    1.19
 -11  -5  -8   -0.49    0.82
 -12  -5  -8    1.61    1.47
 -13  -5  -8   -0.29    1.48
  -7   6   8    1.26    0.99
  -7   6   8    1.16    1.64
  -6   6   8   -1.01    1.25
  -6   6   8    0.59    0.89
   5  -6  -8    2.04    1.08
  -5   6   8   -0.27    0.74
  -5   6   8   -0.69    0.75
   4  -6  -8   -0.13    0.82
  -4   6   8   -0.58    0.89
  -4   6   8   -0.13    0.91
   3  -6  -8    0.68    0.59
  -3   6   8    0.06    0.77
  -3   6   8   -0.24    0.56
   2  -6  -8    0.75    0.75
  -2   6   8   -0.30    0.69
  -2   6   8    0.03    0.62
   1  -6  -8   19.60    1.48
  -1   6   8   15.94    1.55
  -1   6   8   19.66    1.39
   0  -6  -8    0.26    0.46
   0   6   8   -0.22    0.41
   0   6   8    0.37    0.42
  -1  -6  -8    2.27    0.78
   1   6   8    2.81    0.75
   1   6   8    3.30    0.65
  -2  -6  -8   17.49    1.38
   2   6   8   17.87    1.36
   2   6   8   17.80    1.23
  -3  -6  -8    2.90    0.77
  -3  -6  -8    2.83    0.64
   3   6   8    3.45    0.66
   3   6   8    3.80    0.69
  -4  -6  -8    1.73    0.72
  -4  -6  -8    2.07    0.67
  -4  -6  -8    1.46    0.60
  -4  -6  -8    2.59    0.64
  -5  -6  -8   -0.10    0.40
  -5  -6  -8    0.52    0.71
  -5  -6  -8    0.52    0.50
  -5  -6  -8   -0.16    0.43
  -6  -6  -8    2.24    0.98
  -6  -6  -8    1.01    0.53
  -6  -6  -8    1.60    0.63
  -6  -6  -8    1.57    0.58
  -7  -6  -8    0.08    0.50
  -7  -6  -8    0.54    0.55
  -7  -6  -8    1.93    0.88
  -8  -6  -8   -0.81    0.97
  -8  -6  -8    1.16    0.62
  -8  -6  -8    0.19    0.47
  -9  -6  -8   -0.40    1.10
 -10  -6  -8    0.72    0.96
 -11  -6  -8   -0.08    1.26
 -12  -6  -8    1.04    1.11
 -13  -6  -8   -0.48    1.52
  -6   7   8   -0.64    0.89
  -6   7   8   -2.83    1.24
   5  -7  -8    2.50    1.13
  -5   7   8   -0.97    1.09
  -5   7   8    1.90    1.40
   4  -7  -8    1.23    0.79
  -4   7   8    0.17    0.98
  -4   7   8    1.42    1.18
   3  -7  -8   -0.03    0.58
  -3   7   8    0.38    0.59
  -3   7   8    0.68    0.73
   2  -7  -8    3.18    1.04
  -2   7   8    0.88    0.85
  -2   7   8    2.68    0.85
   1  -7  -8    2.04    0.72
  -1   7   8    1.32    0.67
  -1   7   8    1.23    0.71
   0  -7  -8    7.66    1.14
   0   7   8    6.92    1.14
   0   7   8    5.79    1.02
  -1  -7  -8    5.45    0.96
   1   7   8    5.50    0.99
   1   7   8    5.07    0.92
  -2  -7  -8    9.04    1.20
   2   7   8    9.68    1.14
   2   7   8   10.27    1.07
  -3  -7  -8   14.87    1.44
   3   7   8   12.20    1.24
   3   7   8   13.00    1.24
  -4  -7  -8   15.10    1.11
  -4  -7  -8   16.14    1.23
  -5  -7  -8   15.27    1.30
  -5  -7  -8   16.59    1.24
  -5  -7  -8   14.11    1.33
  -6  -7  -8   -0.48    0.32
  -6  -7  -8    0.10    0.57
  -6  -7  -8   -0.01    0.34
  -6  -7  -8   -0.74    0.85
  -7  -7  -8   32.93    1.79
  -7  -7  -8   33.45    2.19
  -7  -7  -8   34.08    1.84
  -8  -7  -8   23.40    1.57
  -8  -7  -8   25.50    2.18
  -9  -7  -8    7.35    1.69
  -9  -7  -8    5.70    1.03
 -10  -7  -8    0.97    1.04
 -11  -7  -8    1.65    1.51
 -12  -7  -8    0.81    1.57
 -13  -7  -8   -1.01    1.14
   5  -8  -8   -1.01    0.97
  -5   8   8   -0.98    0.92
  -5   8   8   -1.85    1.08
   4  -8  -8    1.26    1.06
  -4   8   8    0.35    1.06
  -4   8   8    0.72    0.93
   3  -8  -8    1.24    0.99
  -3   8   8    1.15    0.69
  -3   8   8    0.05    0.74
   2  -8  -8    3.93    1.02
  -2   8   8    3.14    0.87
  -2   8   8    4.14    1.19
   1  -8  -8    0.69    0.88
  -1   8   8    0.09    0.81
  -1   8   8    0.10    0.65
   0  -8  -8    0.41    0.58
   0   8   8    1.13    0.75
   0   8   8    0.36    0.62
  -1  -8  -8   -0.42    0.49
   1   8   8    0.82    0.66
   1   8   8    1.08    0.68
  -2  -8  -8    7.38    1.23
   2   8   8    6.04    1.00
   2   8   8    5.67    0.90
  -3  -8  -8   16.36    1.55
   3   8   8   15.47    1.20
   3   8   8   15.65    1.43
  -4  -8  -8    7.81    1.17
  -4  -8  -8    7.81    1.06
   4   8   8    8.78    1.08
  -5  -8  -8    7.88    1.05
  -5  -8  -8    5.04    0.87
  -5  -8  -8    5.72    1.15
   5   8   8    5.23    0.88
  -6  -8  -8   27.96    2.04
  -6  -8  -8   29.67    1.71
  -6  -8  -8   28.24    1.72
  -6  -8  -8   25.68    1.60
  -7  -8  -8    1.08    0.70
  -7  -8  -8   -1.65    0.90
  -8  -8  -8   21.87    1.51
  -8  -8  -8   20.94    2.18
  -9  -8  -8    9.76    1.34
  -9  -8  -8    6.50    1.72
 -10  -8  -8   -0.68    0.68
 -10  -8  -8   -0.66    1.36
 -11  -8  -8   -0.66    1.01
 -12  -8  -8    1.56    1.63
 -13  -8  -8   -1.53    1.74
   5  -9  -8    0.52    1.15
  -5   9   8   -2.07    1.29
  -5   9   8   -0.70    0.98
   4  -9  -8    0.47    1.11
  -4   9   8   -1.94    1.20
  -4   9   8   -1.27    0.90
   3  -9  -8    1.45    1.16
  -3   9   8   -0.53    1.16
  -3   9   8    1.79    0.78
   2  -9  -8    1.26    1.04
  -2   9   8    0.03    1.00
  -2   9   8   -0.01    0.78
   1  -9  -8   -0.71    0.56
  -1   9   8   -0.14    0.62
  -1   9   8    0.42    0.77
   0  -9  -8    0.22    0.66
   0   9   8    0.55    0.59
   0   9   8    0.28    0.80
  -1  -9  -8    1.88    0.96
   1   9   8    0.89    0.75
   1   9   8    1.16    0.60
  -2  -9  -8    0.60    0.64
   2   9   8    0.98    0.69
   2   9   8    0.54    0.51
  -3  -9  -8    1.47    0.90
   3   9   8    3.20    0.80
   3   9   8    3.83    0.79
  -4  -9  -8    5.23    0.99
  -4  -9  -8    6.19    1.12
   4   9   8    5.14    0.93
  -5  -9  -8   13.11    1.39
  -5  -9  -8   11.23    1.36
   5   9   8   11.56    1.21
  -6  -9  -8   -1.46    0.58
  -6  -9  -8    0.19    0.49
  -6  -9  -8    0.62    0.69
  -7  -9  -8    6.89    1.52
  -7  -9  -8    7.20    1.17
  -8  -9  -8   -0.44    0.48
  -8  -9  -8   -1.21    1.16
  -9  -9  -8    0.42    0.62
  -9  -9  -8   -0.75    1.23
 -10  -9  -8   -1.77    1.31
 -10  -9  -8    0.36    0.85
 -11  -9  -8    0.04    0.68
 -11  -9  -8   -0.99    1.46
 -12  -9  -8   -1.04    1.61
   4 -10  -8    0.61    1.24
  -4  10   8   -1.31    1.30
  -4  10   8   -0.80    0.77
   3 -10  -8    0.40    1.10
  -3  10   8   -0.84    1.26
  -3  10   8    0.17    0.92
   2 -10  -8    0.88    1.15
  -2  10   8    0.56    0.71
  -2  10   8    0.95    0.92
   1 -10  -8    0.19    0.73
  -1  10   8    0.39    0.63
  -1  10   8    0.54    0.81
   0 -10  -8    1.20    1.02
   0  10   8    2.03    1.03
   0  10   8    2.64    0.98
  -1 -10  -8    2.30    1.07
   1  10   8    2.63    0.99
   1  10   8    2.84    0.95
  -2 -10  -8    1.15    0.98
   2  10   8   -0.12    0.68
   2  10   8    0.11    0.69
  -3 -10  -8   -0.02    0.60
   3  10   8   -0.35    0.63
   3  10   8   -0.03    0.45
  -4 -10  -8    1.42    0.65
  -4 -10  -8    1.95    0.96
   4  10   8    0.69    0.64
  -5 -10  -8   -0.42    0.75
  -5 -10  -8    0.90    0.60
  -6 -10  -8   -0.15    0.70
  -6 -10  -8    1.79    0.86
  -7 -10  -8    3.41    1.34
  -7 -10  -8    4.72    0.94
  -8 -10  -8    3.38    0.87
  -8 -10  -8    4.45    1.53
  -9 -10  -8    3.98    1.07
  -9 -10  -8    3.19    1.58
 -10 -10  -8    0.18    0.99
 -10 -10  -8   -0.11    1.12
 -11 -10  -8   -3.47    1.41
 -11 -10  -8    0.42    1.00
 -12 -10  -8   -1.64    1.79
   3 -11  -8   -0.11    0.90
  -3  11   8   -0.13    0.79
  -3  11   8   -1.10    1.31
   2 -11  -8    1.44    0.99
  -2  11   8   -0.18    1.36
  -2  11   8    1.29    1.10
   1 -11  -8    0.96    1.19
  -1  11   8   -1.71    1.11
  -1  11   8    0.01    0.67
   0 -11  -8    0.06    0.74
   0  11   8    0.31    0.63
   0  11   8   -0.08    1.14
  -1 -11  -8   -0.35    0.95
   1  11   8    0.49    0.82
   1  11   8   -0.48    0.89
  -2 -11  -8   -0.65    0.93
   2  11   8    0.78    0.64
   2  11   8    0.57    0.90
  -3 -11  -8   -0.71    0.58
   3  11   8    0.18    0.56
  -4 -11  -8   -0.23    0.88
  -4 -11  -8   -0.18    0.73
  -5 -11  -8    0.44    0.91
  -5 -11  -8   -0.13    0.55
  -6 -11  -8    0.10    0.86
  -6 -11  -8   -0.27    0.69
  -7 -11  -8    6.66    1.18
  -8 -11  -8    2.27    1.45
  -8 -11  -8    2.94    0.90
  -9 -11  -8   -0.49    1.35
  -9 -11  -8   -0.58    0.81
 -10 -11  -8    0.59    1.01
 -10 -11  -8   -2.06    1.40
 -11 -11  -8   -0.60    1.08
 -11 -11  -8   -0.97    1.64
   2 -12  -8    0.59    1.36
  -2  12   8    0.50    1.15
  -2  12   8   -1.13    1.33
   1 -12  -8   -0.10    0.86
  -1  12   8    0.41    0.83
  -1  12   8   -1.84    1.25
   0 -12  -8    0.10    1.13
   0  12   8   -0.93    1.11
   0  12   8    2.45    1.12
  -1 -12  -8    1.23    0.94
   1  12   8    1.33    0.97
   1  12   8   -1.56    1.08
  -2 -12  -8    2.30    1.00
   2  12   8    3.49    0.99
  -3 -12  -8   -0.73    0.95
   3  12   8   -0.60    0.84
  -4 -12  -8    0.49    0.67
  -4 -12  -8    0.06    0.97
  -5 -12  -8   -0.59    0.95
  -5 -12  -8    1.28    0.90
  -6 -12  -8    2.61    1.05
  -7 -12  -8    0.29    0.69
  -8 -12  -8    0.35    0.90
  -9 -12  -8    1.65    1.11
  -9 -12  -8   -1.56    1.36
 -10 -12  -8   -0.39    0.70
 -10 -12  -8   -1.67    1.61
   0 -13  -8   -0.64    0.86
   0  13   8    1.56    1.21
  -1 -13  -8    0.07    0.87
   1  13   8    0.36    0.80
  -2 -13  -8    0.32    0.90
   2  13   8    1.60    1.11
  -3 -13  -8    1.55    0.98
   3  13   8    0.24    0.79
  -4 -13  -8   -0.70    1.03
  -5 -13  -8   -0.54    1.03
  -5 -13  -8    1.37    1.01
  -6 -13  -8    6.71    1.31
  -8 -13  -8    0.22    1.08
  -9 -13  -8    2.38    1.27
  -3 -14  -8   -0.89    1.22
   3  14   8    1.51    1.20
  -4 -14  -8   -0.22    0.92
   4  14   8    0.22    1.14
  -5 -14  -8   -0.48    1.23
  -5 -14  -8    0.49    0.88
  -6 -14  -8    0.85    0.90
  -7 -14  -8    3.53    1.38
  -2  -8   9    2.89    1.49
  -2  -8   9   -0.64    0.98
  -1  -8   9    2.52    1.36
  -1  -8   9    1.66    0.94
   0  -8   9    0.14    1.14
   0  -8   9    5.56    1.50
   1  -8   9    3.75    1.57
   1  -8   9    1.67    0.97
   2  -8   9    0.16    0.73
   2  -8   9    2.19    1.49
   3  -8   9    0.43    0.76
   3  -8   9    1.60    1.19
  -4  -7   9    0.68    1.00
  -3  -7   9    1.13    1.19
  -3  -7   9    0.46    0.76
  -2  -7   9    1.41    1.20
  -2  -7   9    0.63    0.75
  -1  -7   9    0.98    0.92
  -1  -7   9    2.84    1.16
   0  -7   9    0.31    0.72
   0  -7   9    0.14    0.83
   1  -7   9    0.64    0.71
   1  -7   9    0.75    0.92
   2  -7   9    1.32    0.97
   2  -7   9    1.64    0.84
   3  -7   9   -0.32    0.55
   3  -7   9    0.14    1.18
   4  -7   9   -0.03    1.25
   4  -7   9    0.43    0.69
  -5   7  -9    0.40    1.02
   5  -7   9    1.86    1.14
   5  -7   9    1.84    1.42
  -5  -6   9    1.79    1.22
  -4  -6   9    1.33    1.19
  -3  -6   9    1.92    1.02
  -3  -6   9    0.18    0.76
  -2  -6   9    0.72    0.90
  -2  -6   9   -0.09    0.96
  -1  -6   9    0.88    0.84
  -1  -6   9    0.17    0.62
   0  -6   9   -0.78    0.72
   0  -6   9    1.48    1.06
   1  -6   9   -1.15    0.87
   1  -6   9    2.25    1.02
   2  -6   9    0.62    1.07
   2  -6   9   -0.49    0.72
  -3   6  -9    1.18    0.89
   3  -6   9    1.66    0.92
   3  -6   9    0.45    1.06
  -4   6  -9    0.62    0.94
   4  -6   9    0.71    1.07
   4  -6   9    0.78    0.67
  -5   6  -9    0.13    0.70
   5  -6   9    0.37    0.89
   5  -6   9   -0.37    1.01
  -6   6  -9   -0.03    1.03
   6  -6   9   -0.19    0.92
   6  -6   9    1.06    1.17
  -7   6  -9    0.45    1.09
   7  -6   9    0.41    0.75
   7  -6   9    0.87    1.33
  -6  -5   9    3.02    1.39
  -6  -5   9    1.89    1.23
  -5  -5   9    2.56    1.24
  -5  -5   9    0.83    1.03
  -4  -5   9    3.83    1.01
  -4  -5   9    4.74    1.45
  -3  -5   9    2.36    1.12
  -3  -5   9    2.47    1.02
  -2  -5   9   -0.48    0.72
  -2  -5   9   -0.10    0.66
  -1  -5   9   -0.33    0.84
  -1  -5   9    0.10    0.55
   0  -5   9   -0.84    0.80
   0  -5   9    0.30    0.56
   1  -5   9    1.29    0.71
   1  -5   9    0.64    0.92
  -2   5  -9    0.53    0.71
   2  -5   9   -0.43    0.42
   2  -5   9    0.11    0.66
  -3   5  -9    0.19    0.72
   3  -5   9    1.26    0.96
   3  -5   9    0.93    0.65
  -4   5  -9    1.67    0.89
   4  -5   9    1.61    0.88
   4  -5   9    0.38    0.70
  -5   5  -9    2.36    0.88
   5  -5   9    0.59    0.82
   5  -5   9    2.06    1.08
  -6   5  -9    5.91    1.36
   6  -5   9    4.48    1.39
   6  -5   9    5.16    1.15
  -7   5  -9    1.78    1.08
   7  -5   9    1.16    1.21
   7  -5   9    0.35    0.88
  -8   5  -9    0.72    0.84
   8  -5   9    0.11    1.00
   8  -5   9   -0.67    1.22
  -6  -4   9   -0.26    1.05
  -6  -4   9    0.67    1.29
  -5  -4   9    2.66    1.25
  -5  -4   9    2.14    1.10
  -4  -4   9    1.64    1.04
  -4  -4   9   -0.92    0.73
  -3  -4   9    0.10    0.71
  -3  -4   9    1.19    1.01
  -3  -4   9    1.65    0.87
  -2  -4   9    5.63    1.31
  -2  -4   9    5.09    1.13
  -1  -4   9    8.47    1.50
  -1  -4   9   11.32    1.42
   0  -4   9    9.30    1.28
   0  -4   9    7.66    1.40
  -1   4  -9    0.38    0.62
   1  -4   9    0.41    0.64
   1  -4   9   -0.01    0.50
  -2   4  -9    1.89    0.82
   2  -4   9    1.89    0.70
   2  -4   9    2.86    1.03
  -3   4  -9    2.25    0.84
   3  -4   9    2.84    0.96
   3  -4   9    3.19    0.98
  -4   4  -9    1.77    0.86
   4  -4   9    2.83    0.84
   4  -4   9    1.27    0.80
  -5   4  -9    7.84    1.36
   5  -4   9    6.92    1.33
   5  -4   9    6.43    1.15
  -6   4  -9    0.24    0.63
   6  -4   9   -0.30    0.47
   6  -4   9   -0.19    0.91
  -7   4  -9    0.75    0.89
   7  -4   9    1.16    0.73
   7  -4   9   -0.55    0.91
  -8   4  -9    1.23    0.88
   8  -4   9    0.45    1.10
   8  -4   9    2.98    1.16
  -9   4  -9    0.35    1.05
   9  -4   9    1.44    1.33
  -7  -3   9    0.92    1.25
  -6  -3   9    0.00    0.76
  -6  -3   9    0.28    1.15
  -5  -3   9    0.72    0.78
  -5  -3   9    1.31    0.97
  -4  -3   9    5.49    1.22
  -4  -3   9    6.59    1.42
  -4  -3   9    4.53    0.98
  -3  -3   9    7.60    1.46
  -3  -3   9    3.87    0.94
  -3  -3   9    4.59    0.95
  -2  -3   9    1.86    0.82
  -2  -3   9    1.40    0.73
  -2  -3   9    1.35    0.67
   1   3  -9    1.71    0.73
  -1  -3   9    1.89    0.70
  -1  -3   9    1.32    0.87
   0   3  -9    2.06    0.75
   0  -3   9    3.30    0.81
   0  -3   9    2.39    1.01
  -1   3  -9   -0.04    0.54
   1  -3   9    0.12    0.76
   1  -3   9   -0.15    0.43
  -2   3  -9    1.27    0.71
   2  -3   9    0.47    0.47
   2  -3   9    1.57    0.88
  -3   3  -9    3.23    0.91
   3  -3   9    3.06    0.79
   3  -3   9    3.03    0.98
  -4   3  -9    3.51    0.84
   4  -3   9    4.17    1.00
   4  -3   9    3.79    0.99
  -5   3  -9    1.59    0.69
   5  -3   9   -0.03    0.55
   5  -3   9    1.11    0.80
  -6   3  -9    9.92    1.49
   6  -3   9    6.11    1.14
   6  -3   9    7.31    1.40
  -7   3  -9    6.32    1.20
   7  -3   9    5.47    1.26
   7  -3   9    5.95    1.12
  -8   3  -9   -0.76    0.74
   8  -3   9    0.98    1.08
   8  -3   9    0.21    0.78
  -9   3  -9    0.34    1.01
   9  -3   9    0.07    0.83
 -10   3  -9    0.75    1.13
  10  -3   9   -0.15    1.24
  -7  -2   9   -1.07    0.71
  -6  -2   9   -0.11    1.00
  -5  -2   9    1.73    1.04
  -5  -2   9    0.54    0.67
  -4  -2   9    2.05    0.87
  -4  -2   9    3.42    1.08
  -4  -2   9    1.48    0.74
  -3  -2   9   -0.53    0.63
  -3  -2   9    1.03    0.73
  -3  -2   9    1.02    0.89
   2   2  -9    1.92    0.75
  -2  -2   9    3.52    0.75
  -2  -2   9    2.97    0.78
  -2  -2   9    1.58    0.75
   1   2  -9   16.25    1.46
  -1  -2   9   17.11    1.26
  -1  -2   9   18.43    1.75
  -1  -2   9   14.97    1.73
   0   2  -9    0.56    0.47
   0  -2   9    0.60    0.68
   0  -2   9   -0.22    0.72
  -1   2  -9    0.00    0.58
   1  -2   9    0.53    0.70
   1  -2   9    0.84    0.83
  -2   2  -9    1.56    0.60
   2  -2   9    2.13    0.91
   2  -2   9    0.76    0.53
  -3   2  -9    0.22    0.62
   3  -2   9    1.97    0.87
   3  -2   9    0.09    0.60
  -4   2  -9   11.19    1.31
   4  -2   9    9.62    1.40
   4  -2   9   11.47    1.39
  -5   2  -9    5.01    0.95
   5  -2   9    2.34    0.93
   5  -2   9    1.71    0.76
  -6   2  -9    1.31    0.69
   6  -2   9    2.72    0.76
   6  -2   9    0.88    0.68
  -7   2  -9   -0.01    0.73
   7  -2   9    1.17    0.77
   7  -2   9    0.46    0.91
  -8   2  -9    1.88    0.96
   8  -2   9    1.25    1.03
   8  -2   9    2.07    0.87
  -9   2  -9    0.06    0.61
   9  -2   9   -0.89    0.90
 -10   2  -9   -0.50    0.92
  10  -2   9    0.25    0.90
  11  -2   9    1.38    1.44
  -7  -1   9    1.56    1.22
  -6  -1   9    1.93    0.95
  -5  -1   9    1.87    0.99
  -4  -1   9    4.38    0.95
  -4  -1   9    4.28    0.87
  -4  -1   9    5.73    1.25
  -3  -1   9    2.99    0.86
  -3  -1   9    4.29    0.87
  -3  -1   9    5.94    1.07
  -3  -1   9    5.64    1.18
  -2  -1   9    1.65    0.73
  -2  -1   9    0.95    0.62
  -2  -1   9    0.74    0.58
   1   1  -9    9.61    1.18
  -1  -1   9   10.44    1.10
  -1  -1   9    9.34    1.18
  -1  -1   9    6.75    1.05
   0   1  -9    1.22    0.63
   0  -1   9    1.82    0.54
   0  -1   9    1.06    0.61
   0  -1   9    2.40    0.66
  -1   1  -9    0.45    0.58
   1  -1   9   -0.26    0.63
   1  -1   9    0.43    0.47
  -2   1  -9    3.61    0.83
   2  -1   9    2.95    0.80
   2  -1   9    1.91    0.83
  -3   1  -9   -0.50    0.50
   3  -1   9   -0.57    0.61
   3  -1   9   -0.10    0.38
  -4   1  -9   13.61    1.43
   4  -1   9   14.06    1.41
   4  -1   9   11.40    1.48
  -5   1  -9   41.03    2.19
   5  -1   9   41.16    2.19
   5  -1   9   39.77    2.47
  -6   1  -9    6.96    1.13
   6  -1   9    9.74    1.21
   6  -1   9    8.57    1.43
  -7   1  -9   -0.02    0.73
   7  -1   9    0.59    0.51
   7  -1   9   -0.31    0.52
  -8   1  -9    0.98    0.87
   8  -1   9    2.54    0.94
   8  -1   9    1.70    0.77
  -9   1  -9    0.27    0.88
   9  -1   9    0.47    0.98
 -10   1  -9    0.43    0.72
  10  -1   9    0.69    1.20
 -11   1  -9   -0.35    1.04
  11  -1   9    0.63    1.28
  -7   0   9   -0.02    1.07
  -6   0   9   -0.14    0.95
  -5   0   9   -0.73    0.85
  -4   0   9    0.42    0.72
  -4   0   9    1.00    0.86
  -3   0   9    9.85    1.28
  -3   0   9   11.11    1.34
  -3   0   9   12.19    1.49
  -2   0   9    2.52    0.74
  -2   0   9    2.14    0.78
  -2   0   9    2.66    0.85
   1   0  -9   15.16    1.44
  -1   0   9   15.41    1.19
  -1   0   9   13.24    1.45
   0   0  -9    1.09    0.52
   0   0   9    0.65    0.64
   0   0   9    1.61    0.56
   0   0   9    0.80    0.50
  -1   0  -9   -0.63    0.46
   1   0   9    0.19    0.44
   1   0   9    0.76    0.49
  -2   0  -9   13.16    1.31
   2   0   9   12.51    1.39
   2   0   9   11.10    1.23
  -3   0  -9    2.37    0.63
   3   0   9    2.67    0.83
   3   0   9    1.05    0.63
  -4   0  -9    9.88    1.16
   4   0   9    8.31    1.27
   4   0   9   12.24    1.32
  -5   0  -9    0.09    0.59
   5   0   9    0.82    0.47
   5   0   9    0.39    0.53
  -6   0  -9   15.85    1.62
   6   0   9   18.18    1.92
   6   0   9   14.29    1.38
  -7   0  -9    0.77    0.75
   7   0   9   -0.28    0.33
   7   0   9    1.50    0.86
  -8   0  -9   -0.24    0.73
   8   0   9    0.40    0.61
   8   0   9   -0.02    0.81
  -9   0  -9    0.69    0.87
   9   0   9    2.94    1.17
 -10   0  -9   -0.56    0.79
  10   0   9    0.28    1.02
 -11   0  -9    0.26    1.00
  11   0   9   -0.93    0.77
 -12   0  -9    0.08    1.10
  12   0   9   -0.80    0.87
  -7   1   9    1.04    0.89
  -6   1   9    0.28    0.76
  -5   1   9    3.13    0.92
  -5   1   9    2.17    0.97
  -4   1   9    1.03    0.60
  -4   1   9    1.21    0.78
  -3   1   9    2.29    0.70
  -3   1   9    1.38    0.76
  -2   1   9    3.90    0.94
  -2   1   9    6.25    0.93
  -2   1   9    5.98    1.06
  -1   1   9    4.69    0.94
  -1   1   9    2.92    0.74
   0  -1  -9   31.80    1.80
   0   1   9   31.71    1.58
  -1  -1  -9    0.71    0.45
   1   1   9    1.04    0.43
   1   1   9    0.85    0.56
  -2  -1  -9    0.18    0.38
   2   1   9    0.57    0.62
  -3  -1  -9    6.38    0.97
   3   1   9    6.01    1.04
   3   1   9    5.03    0.90
  -4  -1  -9    3.54    0.74
   4   1   9    2.32    0.84
   4   1   9    3.03    0.66
  -5  -1  -9   76.95    3.16
   5   1   9   76.10    3.05
   5   1   9   78.01    3.44
  -6  -1  -9    9.60    1.19
   6   1   9   11.34    1.55
   6   1   9   12.59    1.26
  -7  -1  -9    3.42    0.83
   7   1   9    5.75    1.26
   7   1   9    4.25    0.84
  -8  -1  -9    2.39    0.90
   8   1   9    4.35    1.10
  -9  -1  -9   -0.95    0.70
   9   1   9   -0.77    0.75
 -10  -1  -9    0.92    0.90
  10   1   9    1.81    0.96
 -11  -1  -9   -0.64    0.93
  11   1   9   -0.36    1.02
 -12  -1  -9    0.57    1.10
  12   1   9    0.96    1.33
  -7   2   9    0.04    0.82
  -6   2   9    0.75    0.74
  -6   2   9   -0.75    0.72
  -5   2   9    0.15    0.65
  -5   2   9    0.79    0.93
  -4   2   9    1.17    0.69
  -4   2   9    0.76    0.83
  -3   2   9    0.74    0.74
  -3   2   9    0.60    0.56
  -2   2   9   12.21    1.39
  -2   2   9   15.31    1.46
  -1   2   9    1.02    0.67
  -1   2   9    0.58    0.56
  -1   2   9    0.41    0.39
   0  -2  -9   42.47    2.14
   0   2   9   40.33    2.03
   0   2   9   43.89    1.93
  -1  -2  -9   24.08    1.52
   1   2   9   20.17    1.38
   1   2   9   20.57    1.21
  -2  -2  -9    0.51    0.55
   2   2   9    0.59    0.47
   2   2   9    0.84    0.54
  -3  -2  -9    7.24    0.96
   3   2   9    5.45    0.96
  -4  -2  -9    0.87    0.65
   4   2   9    2.00    0.64
  -5  -2  -9   10.25    1.23
   5   2   9   11.79    1.45
   5   2   9   10.94    1.18
  -6  -2  -9    0.86    0.53
   6   2   9   -0.17    0.68
   6   2   9    0.29    0.47
  -7  -2  -9   12.09    1.36
   7   2   9   12.09    1.64
   7   2   9   14.98    1.34
  -8  -2  -9    0.36    0.69
   8   2   9    0.58    0.80
  -9  -2  -9    0.60    0.65
   9   2   9    0.97    0.78
 -10  -2  -9    6.07    1.14
  10   2   9    6.94    1.52
 -11  -2  -9   -0.47    0.90
  11   2   9    0.32    1.06
 -12  -2  -9   -0.69    0.96
  12   2   9    0.25    1.24
  -7   3   9   -2.94    1.24
  -7   3   9    2.39    1.34
  -6   3   9    2.37    1.07
  -6   3   9    2.75    1.01
  -5   3   9    1.26    1.02
  -5   3   9    0.42    0.90
  -4   3   9    3.73    1.07
  -4   3   9    1.90    0.78
  -3   3   9    7.63    1.13
  -3   3   9    7.79    1.14
  -2   3   9    0.29    0.74
  -2   3   9   -0.81    0.59
  -1   3   9   -0.16    0.64
  -1   3   9   -0.29    0.40
   0   3   9    5.51    0.81
   0   3   9    4.48    0.84
   0   3   9    4.33    0.82
  -1  -3  -9    1.69    0.66
   1   3   9    1.77    0.55
   1   3   9    0.81    0.55
  -2  -3  -9    0.84    0.60
   2   3   9    1.26    0.55
   2   3   9    2.46    0.51
  -3  -3  -9   42.49    2.03
   3   3   9   40.96    2.07
   3   3   9   40.76    1.60
  -4  -3  -9    6.32    0.99
   4   3   9    7.81    1.11
  -5  -3  -9    4.80    0.83
   5   3   9    6.23    1.01
  -6  -3  -9    2.16    0.77
   6   3   9    6.68    1.18
   6   3   9    5.68    0.87
  -7  -3  -9    2.16    0.68
   7   3   9    3.64    0.69
   7   3   9    2.74    0.94
  -8  -3  -9    8.48    1.27
   8   3   9   10.08    1.56
  -9  -3  -9    6.51    1.18
   9   3   9    6.34    1.43
 -10  -3  -9    2.38    1.00
  10   3   9    2.73    1.17
 -11  -3  -9    1.20    0.79
  11   3   9    2.33    1.27
 -12  -3  -9    1.49    1.12
  12   3   9   -1.02    1.06
  13   3   9   -0.34    1.40
  -7   4   9    0.47    1.10
  -7   4   9   -4.02    1.28
  -6   4   9    3.00    1.10
  -6   4   9    3.20    1.21
   5  -4  -9    1.89    0.86
  -5   4   9    2.21    1.21
  -5   4   9    2.89    1.11
   4  -4  -9    0.45    0.56
  -4   4   9    0.71    0.91
  -4   4   9    1.18    0.93
   3  -4  -9    3.64    0.93
  -3   4   9    2.53    1.01
  -3   4   9    2.12    0.92
   2  -4  -9   14.62    1.54
  -2   4   9   11.10    1.42
  -2   4   9   13.71    1.51
   1  -4  -9    1.34    0.76
  -1   4   9    2.50    0.81
  -1   4   9    1.88    0.75
   0  -4  -9    6.01    0.94
   0   4   9    5.39    0.92
   0   4   9    6.73    0.95
  -1  -4  -9    7.13    1.09
  -1  -4  -9    6.37    0.95
   1   4   9    6.77    0.88
   1   4   9    7.56    0.88
  -2  -4  -9    5.49    0.93
   2   4   9    4.44    0.74
   2   4   9    5.88    0.77
  -3  -4  -9    0.43    0.42
   3   4   9    0.95    0.43
   3   4   9    0.90    0.54
  -4  -4  -9    2.25    0.70
   4   4   9    1.76    0.45
   4   4   9    1.59    0.67
  -5  -4  -9    3.33    0.72
   5   4   9    4.60    0.98
  -6  -4  -9    0.13    0.57
   6   4   9   -0.30    0.64
  -7  -4  -9    2.15    0.78
   7   4   9    1.30    0.74
  -8  -4  -9   -0.81    0.55
   8   4   9   -0.07    0.56
  -9  -4  -9    2.26    0.75
 -10  -4  -9    2.50    0.94
 -10  -4  -9    4.10    1.26
 -11  -4  -9    0.23    0.85
  -6   5   9    0.79    1.11
  -6   5   9   -2.51    1.20
   5  -5  -9    0.39    0.81
  -5   5   9   -0.98    1.10
  -5   5   9   -1.06    0.97
   4  -5  -9   -1.03    0.68
  -4   5   9   -1.71    0.89
  -4   5   9   -0.64    0.63
   3  -5  -9    0.45    0.58
  -3   5   9   -0.70    0.70
  -3   5   9   -1.37    0.83
   2  -5  -9    0.77    0.74
  -2   5   9    1.81    0.89
  -2   5   9    1.70    0.85
   1  -5  -9    2.72    0.87
  -1   5   9    1.75    0.64
  -1   5   9    2.60    0.88
   0  -5  -9    4.63    0.90
   0   5   9    3.37    0.83
   0   5   9    2.58    0.82
  -1  -5  -9    5.59    1.04
   1   5   9    5.99    0.94
   1   5   9    5.53    0.87
  -2  -5  -9   -0.01    0.40
  -2  -5  -9   -0.61    0.54
   2   5   9    0.26    0.48
   2   5   9    0.33    0.47
  -3  -5  -9   40.34    2.01
  -3  -5  -9   41.97    2.12
   3   5   9   43.45    1.83
   3   5   9   41.89    2.00
  -4  -5  -9   36.42    1.92
   4   5   9   35.82    1.60
   4   5   9   36.53    1.92
  -5  -5  -9    0.00    0.53
   5   5   9   -0.15    0.56
   5   5   9   -0.07    0.35
  -6  -5  -9   28.32    1.71
   6   5   9   26.71    1.78
  -7  -5  -9    0.07    0.58
  -7  -5  -9   -1.02    0.85
  -8  -5  -9    0.92    1.05
  -8  -5  -9    1.35    0.72
  -9  -5  -9   -0.60    0.62
  -9  -5  -9    0.88    1.05
 -10  -5  -9    0.85    0.84
 -10  -5  -9    0.68    0.86
 -11  -5  -9    1.96    1.39
 -12  -5  -9    1.06    1.42
 -13  -5  -9    0.81    1.18
  -6   6   9    0.70    0.89
  -6   6   9   -1.85    1.36
   5  -6  -9    0.85    0.98
  -5   6   9   -1.65    0.73
  -5   6   9   -0.48    0.83
   4  -6  -9    0.41    0.85
  -4   6   9    1.23    1.08
  -4   6   9   -0.59    0.75
   3  -6  -9    0.29    0.80
  -3   6   9   -0.71    0.59
  -3   6   9   -0.68    0.73
   2  -6  -9    0.05    0.55
  -2   6   9    0.03    0.71
  -2   6   9   -1.25    0.63
   1  -6  -9   -0.35    0.49
  -1   6   9    0.10    0.49
  -1   6   9    0.55    0.48
   0  -6  -9    3.80    0.89
   0   6   9    6.68    1.06
   0   6   9    7.90    1.11
  -1  -6  -9    0.34    0.67
   1   6   9   -0.54    0.54
   1   6   9   -0.14    0.43
  -2  -6  -9   16.83    1.36
   2   6   9   17.17    1.55
   2   6   9   18.49    1.30
  -3  -6  -9    4.54    0.83
  -3  -6  -9    5.89    0.99
   3   6   9    4.45    0.76
   3   6   9    4.85    0.73
  -4  -6  -9    5.67    0.89
  -4  -6  -9    5.50    0.92
   4   6   9    6.76    1.00
   4   6   9    5.69    0.81
  -5  -6  -9    9.11    1.09
  -5  -6  -9    9.96    1.09
  -5  -6  -9    8.43    0.95
  -6  -6  -9   -0.40    0.50
  -6  -6  -9   -0.05    0.54
  -6  -6  -9    0.46    0.90
  -7  -6  -9    2.59    0.70
  -7  -6  -9    3.60    0.86
  -7  -6  -9    3.34    1.21
  -8  -6  -9   -0.58    0.53
  -8  -6  -9    0.63    1.08
  -9  -6  -9   -0.45    0.60
  -9  -6  -9   -1.22    0.96
 -10  -6  -9    0.53    1.15
 -11  -6  -9    1.38    1.37
 -12  -6  -9    1.04    1.50
 -13  -6  -9    0.32    1.61
   5  -7  -9    0.50    1.07
  -5   7   9   -0.88    1.32
  -5   7   9    0.57    1.01
   4  -7  -9   -0.45    0.83
  -4   7   9   -1.37    0.99
  -4   7   9    0.78    1.18
   3  -7  -9    0.92    0.94
  -3   7   9   -0.01    0.93
  -3   7   9   -1.14    0.58
   2  -7  -9   -0.59    0.48
  -2   7   9    0.25    0.54
  -2   7   9   -0.22    0.79
   1  -7  -9    2.59    0.81
  -1   7   9    2.92    0.85
  -1   7   9    2.61    0.88
   0  -7  -9   -0.15    0.49
   0   7   9   -0.71    0.54
   0   7   9    1.06    0.77
  -1  -7  -9    4.93    0.96
   1   7   9    6.03    1.11
   1   7   9    6.23    0.97
  -2  -7  -9    4.34    1.05
   2   7   9    5.23    0.92
   2   7   9    6.18    0.92
  -3  -7  -9    1.28    0.78
   3   7   9    1.14    0.56
   3   7   9    1.57    0.66
  -4  -7  -9   22.82    1.50
  -4  -7  -9   23.01    1.65
   4   7   9   22.02    1.42
  -5  -7  -9   -0.11    0.82
  -5  -7  -9    0.09    0.54
  -5  -7  -9    0.13    0.64
  -5  -7  -9    0.26    0.57
  -6  -7  -9    0.54    0.92
  -6  -7  -9    1.50    0.63
  -6  -7  -9    2.04    0.73
  -6  -7  -9    1.84    0.63
  -7  -7  -9   -0.33    0.53
  -7  -7  -9   -0.35    0.58
  -7  -7  -9    0.65    1.02
  -8  -7  -9    0.54    1.09
  -8  -7  -9   -0.04    0.59
  -8  -7  -9   -0.02    0.44
  -9  -7  -9   -0.84    1.08
 -10  -7  -9    0.37    1.27
 -11  -7  -9    1.07    1.43
 -12  -7  -9   -1.06    1.37
 -13  -7  -9   -0.40    1.55
   5  -8  -9    0.10    0.83
  -5   8   9   -0.74    0.97
  -5   8   9    0.56    1.14
   4  -8  -9   -0.77    0.61
  -4   8   9   -0.60    0.90
  -4   8   9    0.11    1.23
   3  -8  -9    0.05    0.74
  -3   8   9    0.84    1.03
  -3   8   9   -1.15    0.63
   2  -8  -9    0.52    0.89
  -2   8   9   -0.07    0.58
  -2   8   9   -1.50    0.79
   1  -8  -9    4.46    0.99
  -1   8   9    9.99    1.43
  -1   8   9    5.45    1.07
   0  -8  -9    3.90    0.91
   0   8   9    4.74    1.06
   0   8   9    3.49    0.86
  -1  -8  -9    1.35    0.70
   1   8   9   -0.87    0.55
   1   8   9    0.67    0.72
  -2  -8  -9   -0.61    0.63
   2   8   9    0.07    0.63
   2   8   9   -0.43    0.40
  -3  -8  -9    0.46    0.55
   3   8   9    1.49    0.70
   3   8   9    0.74    0.65
  -4  -8  -9    4.39    0.92
   4   8   9    2.31    0.74
   4   8   9    3.40    0.85
  -5  -8  -9    3.17    0.91
  -5  -8  -9    5.12    0.94
  -6  -8  -9    2.98    1.06
  -6  -8  -9    5.14    0.96
  -6  -8  -9    4.51    0.92
  -6  -8  -9    4.34    0.97
  -7  -8  -9    9.71    1.23
  -7  -8  -9    7.65    1.48
  -7  -8  -9   11.83    1.29
  -8  -8  -9    3.62    0.78
  -8  -8  -9    3.61    1.16
  -9  -8  -9    9.12    1.83
  -9  -8  -9    8.25    1.26
 -10  -8  -9    1.77    1.22
 -11  -8  -9   -2.20    1.30
 -12  -8  -9    0.66    1.59
 -13  -8  -9    0.67    1.80
   4  -9  -9    0.06    1.11
  -4   9   9   -1.16    1.15
  -4   9   9   -2.95    1.21
   3  -9  -9    1.84    1.18
  -3   9   9    0.49    1.04
  -3   9   9   -1.71    1.11
   2  -9  -9    0.86    0.80
  -2   9   9   -0.05    1.04
  -2   9   9    0.51    0.68
   1  -9  -9   -0.19    0.90
  -1   9   9    0.12    0.81
  -1   9   9    0.15    0.91
   0  -9  -9    0.23    0.84
   0   9   9    0.89    0.83
   0   9   9    1.99    0.96
  -1  -9  -9    0.16    0.81
   1   9   9    0.18    0.71
   1   9   9    0.71    0.59
  -2  -9  -9    6.74    1.26
   2   9   9    7.75    1.07
   2   9   9    8.13    1.15
  -3  -9  -9    6.66    1.10
   3   9   9    5.68    1.02
   3   9   9    6.85    1.05
  -4  -9  -9    4.54    0.96
   4   9   9    6.11    1.07
   4   9   9    6.61    1.06
  -5  -9  -9   -0.45    0.64
  -5  -9  -9    0.13    0.65
   5   9   9    0.45    0.61
  -6  -9  -9    0.21    0.52
  -6  -9  -9    0.07    0.67
  -7  -9  -9    3.75    1.36
  -7  -9  -9    4.43    0.89
  -8  -9  -9    6.55    1.66
  -8  -9  -9    6.07    1.14
  -9  -9  -9    0.16    1.39
  -9  -9  -9    0.22    0.83
 -10  -9  -9   -0.05    1.49
 -10  -9  -9    0.06    0.87
 -11  -9  -9   -0.25    1.22
 -12  -9  -9    0.37    1.79
   3 -10  -9   -0.22    1.09
  -3  10   9   -2.20    1.28
  -3  10   9    2.49    1.22
   2 -10  -9   -0.82    0.64
  -2  10   9    0.22    0.92
  -2  10   9   -1.52    1.08
   1 -10  -9    2.13    1.22
  -1  10   9    0.35    0.91
  -1  10   9    1.36    1.14
   0 -10  -9    1.22    0.84
   0  10   9    2.54    0.90
   0  10   9    1.92    0.88
  -1 -10  -9    2.76    0.95
   1  10   9    3.09    0.89
   1  10   9    3.25    1.05
  -2 -10  -9    0.57    0.69
   2  10   9    0.56    0.59
   2  10   9    0.51    0.57
  -3 -10  -9    5.73    1.29
   3  10   9    5.02    0.96
   3  10   9    6.87    1.13
  -4 -10  -9    1.72    0.95
   4  10   9    1.01    0.73
   4  10   9    0.67    0.77
  -5 -10  -9    3.27    1.00
  -5 -10  -9    1.63    0.84
  -6 -10  -9    4.87    0.95
  -6 -10  -9    4.79    1.09
  -7 -10  -9    1.75    0.88
  -8 -10  -9   -0.71    0.72
  -8 -10  -9    0.28    1.36
  -9 -10  -9    1.07    0.92
  -9 -10  -9   -1.58    1.36
 -10 -10  -9    0.32    0.90
 -10 -10  -9   -1.16    1.47
 -11 -10  -9   -0.06    1.71
 -12 -10  -9    0.70    1.96
   2 -11  -9   -1.38    0.99
  -2  11   9   -1.93    1.34
  -2  11   9   -0.31    0.78
   1 -11  -9    0.23    1.08
  -1  11   9    0.50    1.04
  -1  11   9   -1.22    0.83
   0 -11  -9   -1.15    0.91
   0  11   9   -0.75    0.57
   0  11   9   -1.19    1.03
  -1 -11  -9    0.65    0.81
   1  11   9    0.56    0.85
   1  11   9   -1.07    0.87
  -2 -11  -9    2.25    0.93
   2  11   9    1.54    0.96
   2  11   9    0.55    0.85
  -3 -11  -9   -0.90    0.87
   3  11   9    1.07    0.69
   3  11   9    0.27    0.76
  -4 -11  -9    1.62    0.84
   4  11   9    2.04    0.97
  -5 -11  -9    6.67    1.23
  -5 -11  -9    5.15    1.02
  -6 -11  -9    0.28    0.82
  -6 -11  -9   -0.24    0.61
  -7 -11  -9    2.94    1.01
  -8 -11  -9   -0.62    0.74
  -9 -11  -9   -1.99    1.43
  -9 -11  -9    0.16    0.93
 -10 -11  -9    0.02    1.03
 -10 -11  -9   -1.22    1.65
 -11 -11  -9    0.22    1.06
 -11 -11  -9   -0.71    1.42
   1 -12  -9    0.06    0.91
  -1  12   9    2.29    1.30
  -1  12   9   -0.49    1.04
   0 -12  -9   -0.54    1.12
   0  12   9   -1.09    0.93
   0  12   9   -2.42    1.20
  -1 -12  -9   -0.92    1.00
   1  12   9   -0.31    1.11
   1  12   9   -0.44    0.91
  -2 -12  -9   -0.10    1.08
   2  12   9   -0.40    1.04
   2  12   9   -0.63    0.57
  -3 -12  -9   -0.13    1.08
   3  12   9   -0.51    0.86
  -4 -12  -9    1.16    0.90
   4  12   9   -0.21    0.67
  -5 -12  -9    2.24    1.17
  -5 -12  -9   -0.57    0.76
  -6 -12  -9    0.59    0.68
  -6 -12  -9    0.64    1.00
  -7 -12  -9    1.93    0.86
  -8 -12  -9    5.18    1.16
  -9 -12  -9    1.96    1.16
 -10 -12  -9   -1.22    1.80
 -10 -12  -9    0.62    1.10
  -1 -13  -9   -0.46    0.84
   1  13   9    1.88    1.25
  -2 -13  -9   -0.97    0.79
   2  13   9    1.18    0.89
  -3 -13  -9    0.80    0.96
   3  13   9    1.40    1.16
  -4 -13  -9   -0.42    1.08
   4  13   9   -0.60    0.96
  -5 -13  -9    0.54    0.75
  -5 -13  -9    0.99    0.87
  -6 -13  -9    0.82    0.81
  -7 -13  -9    0.09    0.68
  -8 -13  -9    0.27    0.81
  -9 -13  -9   -0.69    1.08
  -3 -14  -9   -0.73    1.24
   3  14   9   -0.82    0.76
  -4 -14  -9    0.89    1.03
   4  14   9    0.03    0.84
  -5 -14  -9   -0.21    1.27
   5  14   9   -0.19    0.82
  -6 -14  -9    0.76    1.18
  -7 -14  -9    1.19    0.96
  -2  -7  10   -0.17    0.74
  -2  -7  10    1.12    1.30
  -1  -7  10    4.19    1.34
  -1  -7  10    5.08    1.61
   0  -7  10    1.30    1.30
   0  -7  10    0.10    1.00
   1  -7  10    0.15    0.99
   1  -7  10    0.94    1.27
   2  -7  10    2.91    1.42
   2  -7  10    5.07    1.41
   3  -7  10    2.86    1.25
   3  -7  10    1.65    1.07
   4  -7  10    0.15    1.35
   4  -7  10    0.08    1.03
  -4  -6  10    0.93    0.95
  -3  -6  10    1.39    1.14
  -3  -6  10    1.20    1.22
  -2  -6  10    0.60    0.87
  -2  -6  10    1.37    1.13
  -1  -6  10    1.03    0.99
  -1  -6  10    1.00    1.12
   0  -6  10    3.11    1.27
   0  -6  10    2.87    1.16
   1  -6  10    2.76    0.92
   1  -6  10    1.43    1.24
   2  -6  10    1.95    1.27
   2  -6  10    1.47    0.84
   3  -6  10    2.18    1.29
   3  -6  10    0.10    0.62
  -4   6 -10    5.44    1.34
   4  -6  10    2.06    1.31
   4  -6  10    4.28    1.29
  -5   6 -10    0.93    1.10
   5  -6  10    1.56    1.35
   5  -6  10    1.20    0.86
  -6   6 -10    3.15    1.13
   6  -6  10    4.01    1.32
   6  -6  10    3.10    1.32
  -5  -5  10    1.44    1.34
  -4  -5  10    1.04    1.22
  -3  -5  10    1.97    1.08
  -3  -5  10    0.72    0.82
  -2  -5  10    0.36    0.86
  -2  -5  10    1.90    1.18
  -1  -5  10    0.85    0.86
  -1  -5  10    0.42    0.61
   0  -5  10    0.22    0.78
   0  -5  10    1.23    1.05
   1  -5  10    0.86    0.87
   1  -5  10    0.08    0.69
   2  -5  10    0.57    0.99
   2  -5  10   -0.32    0.79
  -3   5 -10   -0.72    0.72
   3  -5  10    0.39    0.79
   3  -5  10    0.60    1.05
  -4   5 -10    0.25    0.85
   4  -5  10    0.57    0.85
   4  -5  10   -0.65    0.42
  -5   5 -10    1.02    0.98
   5  -5  10    0.76    0.90
   5  -5  10    2.94    1.27
  -6   5 -10    1.60    0.87
   6  -5  10    2.14    1.11
   6  -5  10    2.52    1.09
  -7   5 -10    0.97    0.91
   7  -5  10    0.59    1.27
   7  -5  10   -0.04    0.93
  -5  -4  10    3.22    1.32
  -5  -4  10    0.40    1.14
  -4  -4  10    1.01    1.11
  -3  -4  10    3.18    1.27
  -3  -4  10    2.78    1.05
  -2  -4  10    2.68    0.99
  -2  -4  10    0.99    0.78
  -1  -4  10    0.67    0.65
  -1  -4  10    0.26    0.71
   0  -4  10    1.91    0.78
   0  -4  10    3.18    1.18
  -1   4 -10    0.96    0.79
   1  -4  10    0.73    0.90
   1  -4  10    1.19    0.64
  -2   4 -10    0.63    0.62
   2  -4  10    2.06    1.02
   2  -4  10    1.18    0.66
  -3   4 -10    0.61    0.77
   3  -4  10   -0.06    0.61
   3  -4  10    0.25    0.54
  -4   4 -10    1.15    0.84
   4  -4  10    0.86    0.72
   4  -4  10    1.08    0.83
  -5   4 -10    1.97    1.00
   5  -4  10    3.86    1.28
   5  -4  10    5.31    1.19
  -6   4 -10    0.61    0.94
   6  -4  10    1.52    0.75
   6  -4  10    0.45    0.99
  -7   4 -10    0.09    0.71
   7  -4  10    0.41    0.65
   7  -4  10    1.54    1.21
  -8   4 -10    0.06    0.79
   8  -4  10    1.23    1.33
   8  -4  10    1.32    1.01
  -6  -3  10   -0.59    1.18
  -5  -3  10    1.15    1.11
  -5  -3  10    3.38    1.25
  -4  -3  10    0.00    0.85
  -4  -3  10    0.29    0.96
  -3  -3  10    2.63    1.16
  -3  -3  10    1.80    1.29
  -2  -3  10    1.57    0.82
  -2  -3  10    1.86    1.06
  -1  -3  10    4.10    0.93
  -1  -3  10    4.65    1.23
   0   3 -10    1.14    0.74
   0  -3  10    1.45    0.67
   0  -3  10    0.75    0.95
  -1   3 -10   12.35    1.42
   1  -3  10   10.14    1.35
   1  -3  10    6.42    1.29
  -2   3 -10    8.28    1.20
   2  -3  10    4.27    1.07
   2  -3  10    7.23    1.14
  -3   3 -10    2.76    0.79
   3  -3  10    2.75    1.06
   3  -3  10    3.19    0.94
  -4   3 -10    6.19    1.21
   4  -3  10    3.67    0.93
   4  -3  10    4.36    1.18
  -5   3 -10   -1.10    0.63
   5  -3  10    0.15    0.50
   5  -3  10   -0.21    0.86
  -6   3 -10   -0.10    0.79
   6  -3  10    0.49    0.81
   6  -3  10    0.43    0.90
  -7   3 -10    0.60    0.89
   7  -3  10    0.51    0.60
   7  -3  10    0.65    1.00
  -8   3 -10   -1.25    0.84
   8  -3  10    1.20    1.14
   8  -3  10    1.06    0.90
  -9   3 -10   -0.21    0.96
   9  -3  10    1.38    1.34
  -6  -2  10    0.64    1.17
  -5  -2  10   -0.17    0.73
  -4  -2  10    3.34    1.13
  -4  -2  10    4.35    1.11
  -4  -2  10    4.48    1.03
  -3  -2  10    0.97    0.77
  -3  -2  10    2.62    1.06
  -3  -2  10    0.67    0.80
  -2  -2  10    1.21    0.80
  -2  -2  10    0.43    0.88
   1   2 -10   10.58    1.31
  -1  -2  10    9.22    1.27
  -1  -2  10    7.55    1.24
   0   2 -10    6.57    1.07
   0  -2  10    6.04    1.04
   0  -2  10    4.64    1.17
  -1   2 -10    2.06    0.81
   1  -2  10    0.64    0.58
   1  -2  10    1.95    0.95
  -2   2 -10    3.58    0.93
   2  -2  10    1.73    0.94
   2  -2  10    2.33    0.71
  -3   2 -10   11.83    1.40
   3  -2  10   12.84    1.51
   3  -2  10   11.01    1.51
  -4   2 -10   -0.70    0.59
   4  -2  10   -0.52    0.72
   4  -2  10    0.49    0.51
  -5   2 -10    8.37    1.23
   5  -2  10    6.40    1.08
   5  -2  10    4.69    1.19
  -6   2 -10    0.00    0.75
   6  -2  10    0.08    0.83
   6  -2  10    0.72    0.56
  -7   2 -10    0.38    0.64
   7  -2  10    0.73    0.93
   7  -2  10   -0.58    0.65
  -8   2 -10    0.49    0.69
   8  -2  10    1.19    0.68
   8  -2  10   -0.38    0.66
  -9   2 -10   -0.58    0.59
   9  -2  10    0.76    1.14
 -10   2 -10   -0.42    1.04
  10  -2  10    0.94    1.30
  -6  -1  10    0.48    1.15
  -5  -1  10    1.69    0.89
  -4  -1  10    1.03    0.88
  -4  -1  10    1.08    1.30
  -3  -1  10    1.08    0.80
  -3  -1  10    0.37    0.69
  -3  -1  10    1.83    0.70
  -2  -1  10   25.58    1.99
  -2  -1  10   24.15    1.69
  -2  -1  10   26.25    1.86
   1   1 -10    3.82    0.92
  -1  -1  10    3.91    1.04
  -1  -1  10    3.14    0.99
   0   1 -10    8.40    1.18
   0  -1  10    9.62    1.32
   0  -1  10    5.92    1.05
  -1   1 -10    8.88    1.18
   1  -1  10    6.48    1.14
   1  -1  10    8.52    1.35
  -2   1 -10    7.04    1.13
   2  -1  10    5.13    0.95
   2  -1  10    4.21    1.05
  -3   1 -10    0.45    0.69
   3  -1  10    0.92    0.58
   3  -1  10    0.27    0.76
  -4   1 -10    2.51    0.85
   4  -1  10    1.69    0.85
   4  -1  10    1.51    0.60
  -5   1 -10    7.15    1.19
   5  -1  10    5.23    1.19
   5  -1  10    5.83    1.00
  -6   1 -10    0.61    0.75
   6  -1  10   -0.20    0.75
   6  -1  10   -1.08    0.50
  -7   1 -10    7.64    1.34
   7  -1  10    5.05    0.95
   7  -1  10    6.43    1.25
  -8   1 -10    8.67    1.45
   8  -1  10    9.27    1.35
   8  -1  10    7.54    1.52
  -9   1 -10    0.85    0.99
   9  -1  10    0.91    0.84
 -10   1 -10   -0.35    0.71
  10  -1  10    0.18    1.15
 -11   1 -10    1.17    1.21
  11  -1  10    0.32    0.96
  -6   0  10    1.05    1.15
  -5   0  10    5.78    1.35
  -4   0  10    3.14    1.07
  -3   0  10    1.95    0.90
  -3   0  10    2.58    0.93
  -2   0  10    0.51    0.53
  -2   0  10    1.47    0.63
  -2   0  10    0.92    0.56
  -2   0  10    1.72    0.87
   1   0 -10    8.24    1.14
  -1   0  10    8.90    1.34
  -1   0  10    8.30    1.06
  -1   0  10    7.02    1.06
   0   0 -10    1.23    0.57
   0   0  10    0.77    0.76
   0   0  10    0.84    0.56
  -1   0 -10    0.36    0.47
   1   0  10    1.82    0.65
   1   0  10    2.98    0.94
  -2   0 -10   15.39    1.54
   2   0  10   16.51    1.33
   2   0  10   14.35    1.61
  -3   0 -10   19.32    1.45
   3   0  10   18.46    1.42
   3   0  10   19.97    1.70
  -4   0 -10    7.70    1.09
   4   0  10    4.74    1.08
   4   0  10    7.24    1.05
  -5   0 -10   -0.30    0.63
   5   0  10    0.55    0.76
   5   0  10    0.23    0.43
  -6   0 -10   40.94    2.33
   6   0  10   39.04    2.51
   6   0  10   34.89    2.07
  -7   0 -10   11.66    1.42
   7   0  10   11.56    1.33
   7   0  10   13.36    1.74
  -8   0 -10   -0.22    0.78
   8   0  10    0.06    0.87
   8   0  10   -0.36    0.40
  -9   0 -10    6.46    1.36
   9   0  10    4.46    1.36
 -10   0 -10    1.03    0.96
  10   0  10    0.24    0.81
 -11   0 -10   -0.64    0.99
  11   0  10   -0.36    1.19
  -7   1  10    1.03    1.04
  -6   1  10   -0.35    0.77
  -5   1  10    1.84    1.01
  -5   1  10    0.07    0.67
  -4   1  10    0.08    0.61
  -4   1  10    0.13    0.62
  -3   1  10    0.06    0.50
  -3   1  10    0.89    0.80
  -2   1  10    0.55    0.66
  -2   1  10    2.55    0.89
  -1   1  10    0.17    0.55
  -1   1  10    0.43    0.66
   0  -1 -10    2.06    0.67
   0   1  10    1.92    0.84
   0   1  10    2.14    0.65
  -1  -1 -10    6.45    0.98
   1   1  10    7.75    1.14
  -2  -1 -10   -0.02    0.59
   2   1  10   -0.35    0.60
  -3  -1 -10    1.54    0.61
   3   1  10    2.61    0.75
   3   1  10    0.55    0.70
  -4  -1 -10    1.24    0.59
   4   1  10    0.99    0.50
   4   1  10    0.40    0.68
  -5  -1 -10    3.76    0.94
   5   1  10    3.95    1.04
   5   1  10    1.76    0.73
  -6  -1 -10    5.45    0.99
   6   1  10    4.54    0.83
   6   1  10    4.34    0.99
  -7  -1 -10   24.18    1.75
   7   1  10   27.21    1.64
   7   1  10   24.87    2.05
  -8  -1 -10   10.45    1.49
   8   1  10   11.03    1.67
   8   1  10   12.66    1.37
  -9  -1 -10   -0.57    0.77
   9   1  10    0.17    0.89
 -10  -1 -10    5.00    1.29
  10   1  10    4.66    1.25
 -11  -1 -10    0.35    0.80
  11   1  10    1.40    1.27
 -12  -1 -10    0.39    1.13
  12   1  10    0.32    1.38
  -6   2  10   -1.39    1.08
  -6   2  10   -0.39    0.77
  -5   2  10    1.44    1.08
  -5   2  10    0.08    0.95
  -4   2  10    0.13    0.84
  -4   2  10    0.39    0.86
  -3   2  10    0.70    0.61
  -3   2  10    0.73    0.79
  -2   2  10    0.72    0.81
  -2   2  10    1.32    0.62
  -1   2  10    3.27    0.90
  -1   2  10    4.26    0.79
   0  -2 -10    9.23    1.16
   0   2  10    6.90    1.08
   0   2  10   12.99    1.22
  -1  -2 -10    1.52    0.73
   1   2  10    1.90    0.59
   1   2  10    1.40    0.68
  -2  -2 -10    0.97    0.63
   2   2  10    0.73    0.61
  -3  -2 -10   10.41    1.27
   3   2  10   10.34    1.30
  -4  -2 -10   22.74    1.55
   4   2  10   21.93    1.68
  -5  -2 -10    0.92    0.68
   5   2  10   -0.41    0.44
   5   2  10    1.01    0.50
  -6  -2 -10    2.46    0.74
   6   2  10    3.86    0.82
   6   2  10    1.09    0.68
  -7  -2 -10   -0.15    0.49
   7   2  10    0.82    0.82
   7   2  10    1.57    0.66
  -8  -2 -10    0.03    0.74
   8   2  10    0.82    0.75
   8   2  10    1.09    0.56
  -9  -2 -10    5.76    1.11
   9   2  10    3.87    1.08
 -10  -2 -10   -0.11    0.60
  10   2  10   -0.30    0.99
 -11  -2 -10    0.20    1.02
  11   2  10    0.01    1.04
 -12  -2 -10    0.28    0.86
  12   2  10    0.67    1.27
  -6   3  10   -0.48    0.75
  -6   3  10   -2.30    1.12
  -5   3  10    0.94    1.01
  -5   3  10    0.38    1.04
  -4   3  10    2.50    0.87
  -4   3  10    2.56    1.05
  -3   3  10    1.95    0.91
  -3   3  10    2.52    1.00
  -2   3  10    4.59    1.05
  -2   3  10    3.47    0.83
  -1   3  10   -0.65    0.62
  -1   3  10    0.37    0.52
   0   3  10   11.54    1.38
   0   3  10   10.86    1.22
  -1  -3 -10    0.50    0.48
   1   3  10   -0.77    0.49
   1   3  10   -0.39    0.54
  -2  -3 -10    1.20    0.65
   2   3  10    0.44    0.50
   2   3  10    0.20    0.54
  -3  -3 -10   -0.23    0.39
   3   3  10   -0.28    0.53
  -4  -3 -10    1.18    0.68
   4   3  10    0.99    0.73
  -5  -3 -10   -0.92    0.51
   5   3  10   -0.09    0.50
  -6  -3 -10   -0.22    0.41
   6   3  10   -0.18    0.74
   6   3  10    0.71    0.58
  -7  -3 -10    1.03    0.62
   7   3  10    0.64    0.64
   7   3  10    1.78    0.64
  -8  -3 -10    5.20    1.03
   8   3  10    7.94    1.47
  -9  -3 -10   -0.30    0.74
   9   3  10    0.43    0.67
 -10  -3 -10   -0.46    0.80
  10   3  10    1.24    1.01
 -11  -3 -10    0.79    0.99
  11   3  10   -0.53    0.98
 -12  -3 -10    0.94    1.13
  12   3  10   -0.22    1.12
  -6   4  10    1.98    1.07
  -6   4  10   -1.79    1.26
  -5   4  10    4.37    1.18
  -5   4  10    5.88    1.50
  -4   4  10    1.94    0.86
  -4   4  10    0.82    0.80
  -3   4  10    0.45    0.60
  -3   4  10    0.26    0.66
  -2   4  10    1.81    0.73
  -2   4  10    0.26    0.87
  -1   4  10   32.43    1.97
  -1   4  10   27.95    1.90
   0   4  10    1.07    0.76
   0   4  10    0.96    0.73
   1   4  10    1.73    0.63
  -2  -4 -10   11.13    1.23
   2   4  10   13.41    1.17
   2   4  10   12.13    1.08
  -3  -4 -10    0.75    0.64
   3   4  10    0.15    0.41
   3   4  10   -0.27    0.53
  -4  -4 -10    8.35    1.14
   4   4  10    7.92    1.14
  -5  -4 -10   24.08    1.71
   5   4  10   21.64    1.66
  -6  -4 -10    4.06    0.96
   6   4  10    3.87    1.05
  -7  -4 -10    5.62    1.07
   7   4  10    5.74    0.89
   7   4  10    4.47    1.16
  -8  -4 -10    7.03    1.23
   8   4  10    5.76    1.32
  -9  -4 -10    4.13    1.06
   9   4  10    3.70    1.09
 -10  -4 -10    0.87    0.91
  10   4  10   -0.25    0.95
 -11  -4 -10   -0.06    0.87
  11   4  10   -1.20    0.92
 -12  -4 -10    0.59    1.04
  12   4  10   -1.02    1.04
  13   4  10   -0.36    1.35
  -6   5  10   -0.01    1.49
  -6   5  10    3.10    1.45
   5  -5 -10    1.37    0.93
  -5   5  10   -0.68    0.80
  -5   5  10   -0.70    0.68
   4  -5 -10    2.32    0.85
  -4   5  10    2.10    1.00
  -4   5  10    1.95    1.13
   3  -5 -10    3.35    1.01
  -3   5  10    1.53    0.78
  -3   5  10    1.48    0.86
   2  -5 -10    0.55    0.58
  -2   5  10    1.24    0.73
  -2   5  10    1.79    0.82
   1  -5 -10    6.48    1.08
  -1   5  10    4.50    0.98
  -1   5  10    6.13    1.06
   0  -5 -10   16.49    1.61
   0   5  10   16.07    1.60
   0   5  10   19.80    1.48
  -1  -5 -10    2.51    0.82
   1   5  10    0.98    0.59
   1   5  10    1.43    0.65
  -2  -5 -10    2.84    0.87
  -2  -5 -10    3.09    0.90
   2   5  10    2.61    0.69
  -3  -5 -10   22.59    1.62
   3   5  10   21.29    1.31
   3   5  10   22.84    1.50
  -4  -5 -10    9.29    1.21
   4   5  10   11.39    1.02
   4   5  10   11.31    1.27
  -5  -5 -10    1.28    0.69
   5   5  10    0.89    0.78
  -6  -5 -10    1.96    0.80
   6   5  10    1.78    0.88
  -7  -5 -10   11.26    1.29
   7   5  10    9.61    1.52
  -8  -5 -10    1.73    0.69
   8   5  10    2.66    1.13
  -9  -5 -10   10.01    1.41
   9   5  10   10.54    1.62
 -10  -5 -10    0.25    0.81
 -11  -5 -10    1.54    0.99
   5  -6 -10    1.24    1.09
  -5   6  10   -2.26    1.14
  -5   6  10    0.55    1.24
   4  -6 -10    2.61    1.07
  -4   6  10   -0.23    1.20
  -4   6  10   -0.24    0.81
   3  -6 -10    0.16    0.62
  -3   6  10   -0.91    1.02
  -3   6  10   -1.15    0.76
   2  -6 -10    0.92    0.82
  -2   6  10    1.12    0.98
  -2   6  10    0.59    0.65
   1  -6 -10   -0.53    0.67
  -1   6  10    0.41    0.59
  -1   6  10   -0.18    0.48
   0  -6 -10    1.61    0.85
   0   6  10    2.24    0.78
   0   6  10    1.01    0.74
  -1  -6 -10    2.11    0.74
   1   6  10    2.68    0.91
   1   6  10    3.67    0.78
  -2  -6 -10   19.25    1.80
   2   6  10   22.42    1.69
   2   6  10   20.94    1.46
  -3  -6 -10   29.34    1.91
  -3  -6 -10   29.36    1.90
   3   6  10   30.24    1.65
  -4  -6 -10   15.44    1.51
  -4  -6 -10   14.35    1.44
   4   6  10   16.00    1.17
   4   6  10   13.73    1.38
  -5  -6 -10   30.00    1.84
   5   6  10   28.75    1.84
   5   6  10   27.07    1.49
  -6  -6 -10   10.43    1.28
   6   6  10   16.86    1.77
  -7  -6 -10    7.53    1.17
  -8  -6 -10    8.48    1.62
  -8  -6 -10    8.16    1.11
  -9  -6 -10   -0.42    0.49
  -9  -6 -10   -0.30    0.82
 -10  -6 -10    0.26    0.77
 -10  -6 -10    0.02    1.31
 -11  -6 -10    2.12    1.47
 -12  -6 -10    0.34    1.48
 -13  -6 -10    1.11    1.62
   5  -7 -10    1.05    1.17
  -5   7  10   -0.82    0.99
  -5   7  10   -1.68    0.92
   4  -7 -10   -0.82    0.86
  -4   7  10    0.08    0.99
  -4   7  10   -1.13    1.13
   3  -7 -10    1.59    0.82
  -3   7  10    1.39    0.97
  -3   7  10    2.96    1.22
   2  -7 -10    1.20    0.93
  -2   7  10    0.26    0.66
  -2   7  10   -0.18    0.88
   1  -7 -10    2.17    0.94
  -1   7  10    1.83    0.91
  -1   7  10    3.61    1.06
   0  -7 -10   -0.31    0.72
   0   7  10    0.06    0.75
   0   7  10   -0.15    0.48
  -1  -7 -10    0.49    0.78
   1   7  10    0.00    0.47
   1   7  10    1.10    0.71
  -2  -7 -10    2.38    0.77
   2   7  10    2.23    0.86
   2   7  10    0.92    0.71
  -3  -7 -10   -0.54    0.43
   3   7  10   -0.64    0.56
   3   7  10   -0.73    0.49
  -4  -7 -10   12.20    1.41
  -4  -7 -10   10.66    1.27
   4   7  10   11.91    1.21
  -5  -7 -10    2.19    0.83
  -5  -7 -10    2.75    0.86
   5   7  10    1.71    0.65
   5   7  10    3.15    0.94
  -6  -7 -10    3.71    0.89
  -6  -7 -10    3.50    0.81
  -6  -7 -10    3.42    0.75
  -7  -7 -10    1.05    0.77
  -7  -7 -10    0.91    1.06
  -8  -7 -10   10.93    1.33
  -8  -7 -10   10.86    1.71
  -9  -7 -10    4.41    1.43
 -10  -7 -10    1.44    1.02
 -11  -7 -10    1.76    1.13
 -12  -7 -10    0.73    1.44
 -13  -7 -10   -0.99    1.54
   4  -8 -10    0.58    1.05
  -4   8  10   -0.19    1.00
  -4   8  10   -0.93    0.90
   3  -8 -10    0.30    0.94
  -3   8  10    0.00    1.09
  -3   8  10   -0.43    0.78
   2  -8 -10    1.06    0.75
  -2   8  10   -0.44    0.86
  -2   8  10    0.00    0.94
   1  -8 -10    0.59    0.90
  -1   8  10   -0.51    0.77
  -1   8  10    0.92    0.73
   0  -8 -10    1.41    0.97
   0   8  10    0.69    0.82
   0   8  10    0.82    0.68
  -1  -8 -10   -0.53    0.71
   1   8  10   -1.32    0.58
   1   8  10    0.64    0.58
  -2  -8 -10    3.24    0.89
   2   8  10    2.60    0.84
   2   8  10    1.24    0.63
  -3  -8 -10   -0.31    0.73
   3   8  10   -1.15    0.58
   3   8  10   -0.24    0.57
  -4  -8 -10    1.38    0.81
   4   8  10    2.03    0.69
   4   8  10    1.13    0.68
  -5  -8 -10    3.75    0.87
   5   8  10    2.90    0.81
  -6  -8 -10    1.27    0.79
  -6  -8 -10    0.08    0.66
  -6  -8 -10    1.44    0.63
  -6  -8 -10    2.23    0.85
  -7  -8 -10    0.83    0.67
  -7  -8 -10    1.65    1.07
  -7  -8 -10    0.71    0.75
  -8  -8 -10    1.04    0.95
  -9  -8 -10   -0.26    1.21
 -10  -8 -10    1.64    1.46
 -11  -8 -10    1.14    1.54
 -12  -8 -10   -0.18    1.58
   4  -9 -10    0.85    0.99
  -4   9  10    0.10    1.09
   3  -9 -10    0.67    0.84
  -3   9  10   -1.84    1.19
  -3   9  10   -1.02    0.78
   2  -9 -10    1.01    1.04
  -2   9  10    0.67    0.98
  -2   9  10   -1.06    1.01
   1  -9 -10    0.50    0.71
  -1   9  10   -0.81    0.82
  -1   9  10    0.08    0.63
   0  -9 -10    0.10    0.63
   0   9  10    0.70    0.89
   0   9  10   -0.99    0.74
  -1  -9 -10    0.10    0.60
   1   9  10   -0.95    0.40
   1   9  10    0.30    0.77
  -2  -9 -10   -0.02    0.55
   2   9  10    0.78    0.64
   2   9  10    0.59    0.77
  -3  -9 -10    0.03    0.79
   3   9  10    0.52    0.72
   3   9  10   -1.09    0.57
  -4  -9 -10    1.68    0.89
   4   9  10    0.36    0.52
   4   9  10    1.23    0.77
  -5  -9 -10    0.38    0.80
   5   9  10   -0.73    0.51
   5   9  10    1.04    0.74
  -6  -9 -10    1.88    0.87
  -6  -9 -10    1.42    0.78
   6   9  10    0.94    0.72
  -7  -9 -10    3.58    0.94
  -7  -9 -10    1.43    1.18
  -8  -9 -10    6.95    1.15
  -8  -9 -10    4.45    1.49
  -9  -9 -10    0.37    1.32
 -10  -9 -10    0.17    1.10
 -11  -9 -10   -0.80    1.45
 -12  -9 -10    0.77    1.74
   3 -10 -10    0.55    0.92
  -3  10  10   -1.56    1.44
  -3  10  10    0.87    0.95
   2 -10 -10    1.95    1.20
  -2  10  10    0.88    1.35
  -2  10  10    1.25    0.92
   1 -10 -10    0.93    0.82
  -1  10  10   -0.32    0.92
  -1  10  10    1.30    1.17
   0 -10 -10    1.68    1.04
   0  10  10    1.42    0.85
   0  10  10    2.77    1.12
  -1 -10 -10    4.90    1.30
   1  10  10    5.90    1.27
   1  10  10    4.75    1.27
  -2 -10 -10    1.75    1.05
   2  10  10    1.42    0.73
   2  10  10    0.28    0.85
  -3 -10 -10    3.46    0.97
   3  10  10    4.69    1.12
   3  10  10    2.96    1.00
  -4 -10 -10    6.39    1.27
   4  10  10    7.00    1.18
   4  10  10    7.21    1.25
  -5 -10 -10    2.31    0.98
   5  10  10    2.87    0.87
   5  10  10    4.04    0.93
  -6 -10 -10    0.74    0.83
  -6 -10 -10   -0.69    0.69
  -7 -10 -10   -0.25    0.52
  -8 -10 -10    0.61    0.70
  -9 -10 -10    0.42    0.88
  -9 -10 -10   -2.60    1.28
 -10 -10 -10    0.68    1.61
 -11 -10 -10   -1.35    1.25
 -12 -10 -10   -0.29    1.87
   2 -11 -10    0.07    1.24
  -2  11  10   -0.23    1.13
  -2  11  10   -3.05    1.28
   1 -11 -10    1.85    1.01
  -1  11  10    1.75    0.97
  -1  11  10   -0.23    1.28
   0 -11 -10    1.35    1.12
   0  11  10   -0.35    0.77
   0  11  10    2.15    1.18
  -1 -11 -10   -0.29    0.98
   1  11  10   -0.23    0.63
   1  11  10    0.52    1.06
  -2 -11 -10    1.01    1.10
   2  11  10    3.99    1.18
   2  11  10    2.26    1.05
  -3 -11 -10    1.58    0.87
   3  11  10    3.03    0.93
   3  11  10    2.38    0.98
  -4 -11 -10    0.05    0.97
   4  11  10    0.89    0.91
   4  11  10    0.64    0.80
  -5 -11 -10    5.76    1.31
   5  11  10    2.69    0.91
  -6 -11 -10    0.99    0.87
  -6 -11 -10    0.85    0.97
  -7 -11 -10    2.69    1.02
  -8 -11 -10    1.41    0.97
  -9 -11 -10   -0.57    0.92
 -10 -11 -10   -1.26    1.65
 -10 -11 -10    0.56    0.80
 -11 -11 -10   -1.67    1.71
   0 -12 -10    0.21    0.80
   0  12  10    0.14    1.12
   0  12  10   -1.93    1.27
  -1 -12 -10    3.65    1.40
   1  12  10    2.50    1.03
   1  12  10    1.25    1.28
  -2 -12 -10    1.58    1.19
   2  12  10    1.53    1.21
   2  12  10    1.37    1.11
  -3 -12 -10    0.75    0.84
   3  12  10    0.26    0.72
  -4 -12 -10    1.69    1.11
   4  12  10    0.33    0.95
  -5 -12 -10    0.31    0.78
   5  12  10    0.04    0.93
  -6 -12 -10    0.35    0.67
  -6 -12 -10   -0.06    0.70
  -7 -12 -10   -0.07    0.63
  -8 -12 -10    0.50    0.69
  -9 -12 -10   -0.27    0.96
 -10 -12 -10    0.86    1.16
  -1 -13 -10    2.70    1.20
   1  13  10   -0.29    0.86
   1  13  10   -3.78    1.21
  -2 -13 -10    0.39    0.92
   2  13  10    1.20    1.20
  -3 -13 -10    0.22    0.92
   3  13  10    0.27    1.17
  -4 -13 -10    1.07    1.22
   4  13  10   -0.70    0.66
  -5 -13 -10    0.51    0.86
   5  13  10    0.79    0.86
  -6 -13 -10    0.83    0.90
  -6 -13 -10   -0.03    0.99
  -7 -13 -10    0.83    1.07
  -8 -13 -10   -0.26    0.68
  -9 -13 -10    0.54    1.12
  -5 -14 -10    0.63    1.36
   5  14  10   -0.29    1.18
  -1  -6  11    1.06    1.10
  -1  -6  11    1.80    1.39
   0  -6  11    0.60    0.92
   0  -6  11    2.96    1.06
   1  -6  11    7.38    1.46
   1  -6  11    4.35    1.33
   2  -6  11    1.26    1.13
   2  -6  11    0.75    1.00
   3  -6  11    1.40    1.35
   3  -6  11    0.43    0.77
   4  -6  11    4.19    1.11
   4  -6  11    3.31    1.55
  -3  -5  11    0.28    1.23
  -3  -5  11    0.52    1.02
  -2  -5  11    0.53    1.02
  -2  -5  11    0.49    0.91
  -1  -5  11    0.21    0.70
  -1  -5  11    1.93    1.27
   0  -5  11    0.51    0.80
   0  -5  11    1.79    1.06
   1  -5  11    0.17    0.79
   1  -5  11    1.58    1.01
   2  -5  11    1.31    0.97
   2  -5  11    0.14    1.04
  -3   5 -11    1.69    0.85
   3  -5  11    1.53    1.05
   3  -5  11    2.07    1.28
  -4   5 -11   -0.72    0.85
   4  -5  11    0.42    0.89
   4  -5  11    0.42    0.90
  -5   5 -11    1.55    1.09
   5  -5  11    0.15    1.15
   5  -5  11    0.67    0.75
  -6   5 -11    0.93    1.13
   6  -5  11    0.53    0.98
   6  -5  11    0.02    0.86
  -4  -4  11    2.30    1.09
  -3  -4  11    1.03    0.79
  -3  -4  11    0.33    1.11
  -2  -4  11    1.78    1.25
  -2  -4  11    1.45    1.06
  -1  -4  11    0.68    0.89
  -1  -4  11    0.03    1.03
   0  -4  11    1.62    1.08
   0  -4  11    2.29    0.84
   1  -4  11    0.49    1.02
   1  -4  11    1.43    0.75
  -2   4 -11    1.18    0.91
   2  -4  11    0.14    0.94
   2  -4  11    0.68    0.65
  -3   4 -11   -0.01    0.82
   3  -4  11    1.37    0.75
   3  -4  11    0.27    0.90
  -4   4 -11    2.84    0.94
   4  -4  11    1.42    0.90
   4  -4  11   -0.39    0.96
  -5   4 -11    2.28    0.89
   5  -4  11    2.74    0.95
   5  -4  11    1.46    1.10
  -6   4 -11    1.98    1.12
   6  -4  11    1.89    1.06
   6  -4  11    0.52    0.88
  -7   4 -11    2.54    1.21
   7  -4  11    0.33    1.16
   7  -4  11    2.27    1.17
   8  -4  11    1.75    1.43
  -5  -3  11   -0.60    1.18
  -4  -3  11    1.79    1.20
  -3  -3  11    4.45    1.34
  -3  -3  11    2.50    0.89
  -2  -3  11    0.54    0.99
  -2  -3  11    0.15    0.76
  -1  -3  11    0.61    0.80
  -1  -3  11    1.02    1.04
   0  -3  11    0.02    0.50
   0  -3  11    1.04    0.98
  -1   3 -11    0.39    0.79
   1  -3  11    0.96    1.01
   1  -3  11    0.50    0.60
  -2   3 -11    1.16    0.84
   2  -3  11    0.44    0.65
   2  -3  11    2.11    0.80
  -3   3 -11    0.48    0.76
   3  -3  11    0.36    0.92
   3  -3  11   -0.36    0.45
  -4   3 -11    2.77    1.00
   4  -3  11    2.03    1.02
   4  -3  11    1.76    0.92
  -5   3 -11   -0.09    0.83
   5  -3  11    0.05    0.76
   5  -3  11    0.81    1.02
  -6   3 -11    3.71    1.00
   6  -3  11    2.34    0.84
   6  -3  11    2.89    1.22
  -7   3 -11    2.92    1.22
   7  -3  11    2.51    0.89
   7  -3  11    1.13    1.08
  -8   3 -11    1.15    1.13
   8  -3  11    0.63    1.19
   8  -3  11    0.67    0.98
  -9   3 -11   -0.73    1.06
   9  -3  11   -0.01    1.22
  -5  -2  11    0.21    1.14
  -4  -2  11    0.55    1.05
  -4  -2  11    3.18    1.24
  -3  -2  11    2.11    0.82
  -3  -2  11    2.28    1.10
  -2  -2  11    1.22    0.80
  -2  -2  11    1.23    0.87
  -1  -2  11    1.59    1.07
  -1  -2  11    1.92    0.89
   0   2 -11    7.95    1.25
   0  -2  11    7.88    1.22
   0  -2  11    3.44    1.17
  -1   2 -11    3.39    0.99
   1  -2  11    1.62    1.04
   1  -2  11    3.24    0.84
  -2   2 -11    0.54    0.72
   2  -2  11    0.09    0.49
   2  -2  11    0.24    0.63
  -3   2 -11    4.93    1.14
   3  -2  11    4.72    1.23
   3  -2  11    2.73    0.89
  -4   2 -11    0.41    0.77
   4  -2  11   -0.46    0.43
   4  -2  11   -0.09    0.58
  -5   2 -11    7.92    1.32
   5  -2  11    8.37    1.37
   5  -2  11    4.83    1.14
  -6   2 -11    4.27    1.18
   6  -2  11    3.08    1.09
   6  -2  11    6.14    1.26
  -7   2 -11    0.66    0.69
   7  -2  11    1.71    1.07
   7  -2  11    2.29    0.96
  -8   2 -11    0.31    0.70
   8  -2  11    1.85    1.19
   8  -2  11    1.76    0.79
  -9   2 -11    0.29    0.81
   9  -2  11    0.62    1.21
  10  -2  11   -0.45    0.94
  -5  -1  11    0.11    0.84
  -4  -1  11    0.66    0.97
  -3  -1  11    1.62    0.94
  -3  -1  11    1.88    0.73
  -3  -1  11    2.90    1.09
  -2  -1  11    6.24    1.18
  -2  -1  11    5.44    1.07
  -2  -1  11    7.87    1.45
   1   1 -11   10.72    1.40
  -1  -1  11    9.82    1.49
  -1  -1  11    9.49    1.40
   0   1 -11    3.75    0.98
   0  -1  11    2.63    0.90
   0  -1  11    3.19    0.86
  -1   1 -11   11.15    1.39
   1  -1  11    9.74    1.37
  -2   1 -11    0.87    0.72
   2  -1  11    0.26    0.83
   2  -1  11    1.57    0.70
  -3   1 -11    2.46    0.90
   3  -1  11    2.64    0.89
   3  -1  11    2.29    0.97
  -4   1 -11    0.58    0.73
   4  -1  11    0.77    0.88
   4  -1  11    0.04    0.47
  -5   1 -11    0.00    0.73
   5  -1  11    0.73    0.67
   5  -1  11    0.68    0.58
  -6   1 -11    2.86    1.02
   6  -1  11    2.37    0.98
   6  -1  11    2.87    0.82
  -7   1 -11    0.21    0.64
   7  -1  11    0.66    0.75
   7  -1  11    0.66    0.94
  -8   1 -11   -1.05    0.68
   8  -1  11    0.66    0.99
   8  -1  11   -0.25    0.73
  -9   1 -11   -0.03    0.90
   9  -1  11   -0.24    0.99
 -10   1 -11   -0.23    0.73
  10  -1  11    0.53    0.96
  -6   0  11    1.48    1.30
  -5   0  11    1.01    1.17
  -4   0  11    0.40    0.61
  -4   0  11    0.99    0.79
  -3   0  11   -0.05    0.49
  -3   0  11    0.09    0.82
  -3   0  11   -0.16    0.79
  -2   0  11    0.12    0.68
  -2   0  11   -0.52    0.75
  -2   0  11    1.63    0.88
  -2   0  11    1.03    0.61
   1   0 -11    2.46    0.93
  -1   0  11    1.33    0.81
  -1   0  11    3.65    1.00
   0   0 -11   18.85    1.50
   0   0  11   19.41    1.56
  -1   0 -11    6.17    1.10
   1   0  11    4.16    0.91
   1   0  11    3.61    1.03
  -2   0 -11    2.70    0.76
   2   0  11    2.16    0.95
   2   0  11    2.84    0.77
  -3   0 -11    6.61    1.07
   3   0  11    7.16    1.19
   3   0  11    7.29    1.34
  -4   0 -11    9.94    1.29
   4   0  11    6.16    1.27
   4   0  11    9.38    1.25
  -5   0 -11    0.36    0.74
   5   0  11    0.42    0.47
   5   0  11    0.08    0.74
  -6   0 -11    2.70    0.98
   6   0  11    2.80    1.02
   6   0  11    3.06    0.79
  -7   0 -11    6.14    1.15
   7   0  11    5.90    1.13
   7   0  11    6.18    1.34
  -8   0 -11    2.69    1.06
   8   0  11    2.05    1.08
   8   0  11    2.30    0.83
  -9   0 -11    0.65    0.97
   9   0  11   -0.14    0.94
 -10   0 -11    0.60    1.06
  10   0  11   -0.16    1.06
 -11   0 -11    1.09    0.94
  11   0  11    1.28    1.40
  -6   1  11    0.49    1.00
  -5   1  11    2.06    1.00
  -4   1  11    0.21    0.68
  -4   1  11    0.55    0.95
  -3   1  11    0.90    0.87
  -3   1  11   -0.13    0.83
  -2   1  11   -0.94    0.47
  -2   1  11    0.69    0.74
  -1   1  11    0.98    0.79
  -1   1  11    0.63    0.67
  -1   1  11    0.53    0.73
   0  -1 -11    2.19    0.83
   0   1  11    3.49    0.93
  -1  -1 -11    7.33    1.17
   1   1  11    6.20    1.10
  -2  -1 -11    0.56    0.54
   2   1  11    1.53    0.77
   2   1  11    0.81    0.74
  -3  -1 -11    0.31    0.66
   3   1  11   -0.52    0.31
   3   1  11   -0.32    0.73
  -4  -1 -11    8.64    1.23
   4   1  11    7.22    1.17
   4   1  11    9.07    1.26
  -5  -1 -11    7.96    1.27
   5   1  11    7.51    1.19
   5   1  11    7.09    1.33
  -6  -1 -11    4.65    0.99
   6   1  11    4.23    0.84
   6   1  11    3.22    1.07
  -7  -1 -11    4.01    0.96
   7   1  11    3.37    0.90
   7   1  11    4.41    1.20
  -8  -1 -11    4.59    1.18
   8   1  11    3.33    1.14
   8   1  11    4.00    0.93
  -9  -1 -11    1.11    0.97
   9   1  11    1.67    1.09
 -10  -1 -11    0.94    1.01
  10   1  11    0.39    1.13
 -11  -1 -11    1.27    0.91
  11   1  11    0.46    1.19
  -6   2  11    0.04    0.92
  -5   2  11    1.60    1.19
  -5   2  11    0.53    1.08
  -4   2  11    0.16    0.87
  -4   2  11   -0.18    0.93
  -3   2  11    0.72    0.68
  -3   2  11    0.34    0.88
  -2   2  11    4.44    1.13
  -2   2  11    6.25    1.16
  -1   2  11   -0.24    0.48
  -1   2  11    0.33    0.65
   0  -2 -11   -0.59    0.60
   0   2  11    0.19    0.54
   0   2  11    0.20    0.62
  -1  -2 -11    0.27    0.52
   1   2  11    0.39    0.69
  -2  -2 -11   -0.28    0.44
   2   2  11    1.41    0.74
  -3  -2 -11    6.11    1.10
   3   2  11    8.58    1.28
  -4  -2 -11   32.52    2.03
   4   2  11   29.30    1.92
   4   2  11   34.37    2.16
  -5  -2 -11    5.00    0.99
   5   2  11    4.80    1.14
   5   2  11    6.51    1.09
  -6  -2 -11   -0.47    0.63
   6   2  11    0.01    0.78
   6   2  11    0.28    0.59
  -7  -2 -11    3.75    1.03
   7   2  11    4.49    1.25
   7   2  11    5.31    1.00
  -8  -2 -11    9.59    1.35
   8   2  11    8.03    1.15
   8   2  11    6.73    1.40
  -9  -2 -11    9.13    1.46
   9   2  11    5.03    1.34
 -10  -2 -11    3.11    1.20
  10   2  11    2.50    1.24
 -11  -2 -11    1.38    0.88
  11   2  11   -0.40    1.06
 -12  -2 -11   -0.46    1.16
  12   2  11   -0.55    0.91
  -5   3  11    0.87    1.18
  -5   3  11    1.47    1.20
  -4   3  11    1.38    1.12
  -4   3  11    0.97    1.03
  -3   3  11    2.14    0.87
  -3   3  11    3.59    1.13
  -2   3  11    1.05    0.79
  -2   3  11   -0.45    0.72
  -1   3  11   -0.08    0.48
  -1   3  11    1.02    0.74
   0   3  11   -0.78    0.63
   0   3  11   -0.54    0.41
  -1  -3 -11    0.52    0.71
   1   3  11    2.63    0.84
   1   3  11    2.26    0.76
  -2  -3 -11    3.61    0.82
   2   3  11    4.24    0.92
  -3  -3 -11   -0.19    0.43
   3   3  11    0.58    0.64
  -4  -3 -11   20.67    1.53
   4   3  11   17.44    1.58
  -5  -3 -11   19.76    1.53
   5   3  11   19.46    1.70
  -6  -3 -11   19.84    1.86
   6   3  11   20.60    1.53
   6   3  11   20.68    2.08
  -7  -3 -11    1.76    0.87
   7   3  11    1.29    0.95
   7   3  11    1.11    0.53
  -8  -3 -11    0.03    0.57
   8   3  11   -0.38    0.81
   8   3  11    0.37    0.60
  -9  -3 -11   -0.67    0.74
   9   3  11   -0.54    0.82
 -10  -3 -11    0.59    0.95
  10   3  11    1.77    1.11
 -11  -3 -11    0.07    0.97
  11   3  11    0.43    1.05
 -12  -3 -11    1.97    1.21
  12   3  11    1.22    1.05
  -5   4  11    0.81    1.23
  -5   4  11    1.35    1.25
  -4   4  11    0.73    1.06
  -4   4  11    1.71    1.11
  -3   4  11   -0.12    0.89
  -3   4  11   -0.06    0.61
  -2   4  11   -0.12    0.59
  -2   4  11    0.16    0.64
  -1   4  11    0.40    0.58
  -1   4  11   -0.45    0.80
   0   4  11    2.33    0.91
   0   4  11    1.64    0.82
   1   4  11    0.20    0.48
  -2  -4 -11    9.00    1.29
   2   4  11   12.50    1.20
  -3  -4 -11    0.74    0.68
   3   4  11   -0.54    0.57
  -4  -4 -11    0.15    0.64
   4   4  11    0.93    0.76
  -5  -4 -11    0.08    0.70
   5   4  11    0.29    0.75
  -6  -4 -11   17.36    1.66
   6   4  11   18.39    1.98
  -7  -4 -11    2.21    0.86
   7   4  11    2.62    1.13
   7   4  11    2.07    0.74
  -8  -4 -11    1.34    0.70
   8   4  11   -0.34    0.82
  -9  -4 -11   -0.32    0.77
   9   4  11    0.53    0.89
 -10  -4 -11    0.29    0.69
  10   4  11   -0.11    0.92
 -11  -4 -11    0.26    0.73
  11   4  11   -0.18    1.06
 -12  -4 -11    0.94    1.18
  12   4  11    0.10    1.19
  -5   5  11   -1.31    1.19
  -5   5  11    1.33    1.01
  -4   5  11    2.20    0.98
  -4   5  11    3.27    1.33
  -3   5  11    1.11    1.16
  -3   5  11    2.46    1.14
  -2   5  11    1.16    0.92
  -2   5  11   -0.83    0.66
   1  -5 -11    1.04    0.62
  -1   5  11    0.80    0.75
  -1   5  11    1.62    0.74
   0   5  11    2.83    0.83
   0   5  11    1.81    0.73
   1   5  11   10.43    1.34
   1   5  11   10.16    1.16
  -2  -5 -11    1.44    0.67
   2   5  11    3.33    0.77
  -3  -5 -11    1.17    0.61
   3   5  11    0.62    0.58
  -4  -5 -11    8.79    1.18
   4   5  11    9.83    1.26
  -5  -5 -11    0.42    0.54
   5   5  11    0.17    0.75
  -6  -5 -11    1.72    0.82
   6   5  11    1.11    0.85
  -7  -5 -11    0.86    0.78
   7   5  11   -0.19    0.84
  -8  -5 -11    0.05    0.73
   8   5  11    0.48    0.92
  -9  -5 -11    1.53    0.93
   9   5  11    1.08    1.08
 -10  -5 -11    1.56    0.97
  10   5  11    0.72    1.16
 -11  -5 -11    0.00    0.70
  11   5  11   -0.01    1.12
  12   5  11    1.24    1.34
   5  -6 -11    0.81    1.13
  -5   6  11   -0.17    1.03
  -5   6  11    0.11    1.30
   4  -6 -11    3.06    1.00
  -4   6  11   -1.15    1.23
  -4   6  11    0.35    1.17
   3  -6 -11   -0.27    0.77
  -3   6  11    0.33    0.74
  -3   6  11   -1.22    0.82
   2  -6 -11    0.08    0.57
  -2   6  11   -0.12    0.79
  -2   6  11    0.66    0.93
   1  -6 -11   -0.21    0.51
  -1   6  11   -0.21    0.77
  -1   6  11    1.18    0.76
   0  -6 -11   -0.25    0.46
   0   6  11   -0.30    0.50
   0   6  11   -0.30    0.67
  -1  -6 -11    3.58    0.85
   1   6  11    5.04    1.01
   1   6  11    4.03    0.91
  -2  -6 -11    7.60    1.18
   2   6  11    8.95    1.36
   2   6  11   11.11    1.24
  -3  -6 -11   29.86    2.02
  -3  -6 -11   28.35    1.86
   3   6  11   29.25    1.70
  -4  -6 -11    3.82    1.02
   4   6  11    4.15    0.79
  -5  -6 -11    5.24    0.95
   5   6  11    6.73    1.22
  -6  -6 -11    2.57    0.92
   6   6  11    2.21    0.97
  -7  -6 -11   -0.77    0.42
   7   6  11   -0.09    0.88
  -8  -6 -11   -0.09    0.56
   8   6  11   -0.35    0.96
  -9  -6 -11   -0.45    0.73
   9   6  11    0.06    1.06
 -10  -6 -11    0.13    0.83
  10   6  11   -0.32    0.80
   4  -7 -11    0.88    0.85
  -4   7  11   -2.80    1.25
  -4   7  11   -1.48    0.76
   3  -7 -11    1.11    1.03
  -3   7  11    0.09    1.07
  -3   7  11   -2.24    1.19
   2  -7 -11    3.31    1.01
  -2   7  11    4.51    1.45
  -2   7  11    4.21    1.25
   1  -7 -11    1.61    1.00
  -1   7  11    2.03    1.05
  -1   7  11    1.09    0.92
   0  -7 -11    0.48    0.80
   0   7  11    0.44    0.79
   0   7  11    0.81    0.65
  -1  -7 -11    3.07    0.93
   1   7  11    2.32    0.89
   1   7  11    0.84    0.81
  -2  -7 -11    0.66    0.79
   2   7  11   -0.65    0.58
   2   7  11   -0.22    0.49
  -3  -7 -11    3.12    0.85
   3   7  11    3.61    0.98
   3   7  11    2.43    0.78
  -4  -7 -11    8.17    1.27
  -4  -7 -11   10.91    1.42
   4   7  11   10.05    1.18
  -5  -7 -11    6.75    1.06
  -5  -7 -11    9.92    1.26
   5   7  11    9.34    1.10
  -6  -7 -11    0.25    0.72
   6   7  11    0.58    0.82
  -7  -7 -11    3.71    0.88
   7   7  11    4.36    1.28
  -8  -7 -11    4.32    1.03
  -9  -7 -11   -0.07    1.13
  -9  -7 -11    0.35    0.62
 -10  -7 -11    0.36    1.32
 -11  -7 -11    0.95    1.44
 -12  -7 -11    1.33    1.62
   3  -8 -11   -0.31    0.99
  -3   8  11   -1.98    1.19
  -3   8  11   -0.86    1.11
   2  -8 -11   -0.99    0.76
  -2   8  11    0.22    0.78
  -2   8  11   -0.64    0.73
   1  -8 -11    3.72    1.06
  -1   8  11    1.98    0.89
  -1   8  11    3.39    1.02
   0  -8 -11    0.22    0.58
   0   8  11    1.21    0.93
   0   8  11    1.64    0.95
  -1  -8 -11    1.05    0.70
   1   8  11    0.25    0.61
   1   8  11   -1.36    0.63
  -2  -8 -11    5.38    1.21
   2   8  11    7.29    1.22
   2   8  11    3.99    1.10
  -3  -8 -11    4.62    1.04
   3   8  11    5.69    1.03
   3   8  11    4.76    0.90
  -4  -8 -11    0.10    0.60
   4   8  11    1.66    0.74
   4   8  11    0.41    0.74
  -5  -8 -11    0.97    0.67
  -5  -8 -11    2.77    0.94
   5   8  11    1.85    0.73
  -6  -8 -11    6.80    1.22
  -6  -8 -11    6.05    1.04
   6   8  11    5.20    0.88
  -7  -8 -11    2.18    0.92
  -8  -8 -11   -0.71    0.70
  -8  -8 -11   -0.53    0.77
  -9  -8 -11    1.88    1.36
 -10  -8 -11    0.86    1.36
 -11  -8 -11    1.39    1.52
 -12  -8 -11   -0.15    1.53
   3  -9 -11    1.33    1.23
  -3   9  11   -1.61    0.85
  -3   9  11   -2.25    1.27
   2  -9 -11    0.23    0.77
  -2   9  11   -1.56    0.68
  -2   9  11   -0.47    0.77
   1  -9 -11   -1.69    0.81
  -1   9  11   -0.48    0.68
  -1   9  11   -0.25    0.67
   0  -9 -11   -0.18    0.67
   0   9  11    0.84    1.02
   0   9  11   -0.24    0.87
  -1  -9 -11    0.59    0.72
   1   9  11    0.23    0.86
   1   9  11    1.01    0.76
  -2  -9 -11    0.42    0.84
   2   9  11    1.98    0.93
   2   9  11    0.86    0.85
  -3  -9 -11    4.73    1.09
   3   9  11    3.40    0.87
   3   9  11    3.47    0.86
  -4  -9 -11    3.73    0.96
   4   9  11    2.69    0.96
   4   9  11    3.56    0.98
  -5  -9 -11    0.55    0.64
   5   9  11   -0.40    0.66
   5   9  11    0.35    0.52
  -6  -9 -11    0.20    0.80
   6   9  11    0.96    0.59
   6   9  11   -0.40    0.62
  -7  -9 -11    6.40    1.23
  -7  -9 -11    5.58    1.11
  -7  -9 -11    6.63    1.21
  -8  -9 -11    3.55    1.43
  -9  -9 -11    2.76    1.49
 -10  -9 -11    0.03    1.45
 -11  -9 -11    4.25    1.81
 -12  -9 -11    1.70    1.79
   2 -10 -11   -1.20    1.04
  -2  10  11   -0.99    1.09
  -2  10  11   -2.82    1.11
   1 -10 -11   -0.88    0.62
  -1  10  11   -0.08    0.85
  -1  10  11   -0.66    0.69
   0 -10 -11    1.31    0.83
   0  10  11   -0.34    0.68
   0  10  11    0.84    1.11
  -1 -10 -11    0.22    0.73
   1  10  11    0.25    0.98
   1  10  11    1.26    0.78
  -2 -10 -11    1.19    0.83
   2  10  11    1.02    0.90
   2  10  11    0.07    0.68
  -3 -10 -11   -0.20    0.92
   3  10  11   -0.25    0.76
   3  10  11   -1.05    0.70
  -4 -10 -11   -0.66    0.56
   4  10  11    0.10    0.77
   4  10  11    0.01    0.58
  -5 -10 -11   -0.35    0.58
   5  10  11   -0.51    0.72
   5  10  11   -1.66    0.60
  -6 -10 -11    3.06    1.08
   6  10  11    1.57    0.73
  -7 -10 -11   -0.02    0.81
  -8 -10 -11    1.16    0.89
  -9 -10 -11    1.26    1.52
 -10 -10 -11    1.25    1.62
 -11 -10 -11    0.02    1.67
   1 -11 -11    1.05    0.95
  -1  11  11    0.62    1.25
  -1  11  11   -1.85    0.78
   0 -11 -11    1.58    0.97
   0  11  11   -0.47    0.82
   0  11  11    1.87    0.97
  -1 -11 -11   -0.95    0.94
   1  11  11    0.38    1.04
   1  11  11   -0.80    0.69
  -2 -11 -11    2.84    1.04
   2  11  11    2.71    1.17
   2  11  11    0.96    1.02
  -3 -11 -11    0.70    0.82
   3  11  11    2.17    0.89
   3  11  11    1.21    0.95
  -4 -11 -11    1.08    1.00
   4  11  11    0.53    0.96
   4  11  11    1.77    0.97
  -5 -11 -11   -0.77    0.89
   5  11  11   -0.95    0.81
  -6 -11 -11    0.91    1.01
   6  11  11    1.18    0.77
  -7 -11 -11    0.59    0.71
  -8 -11 -11   -0.28    0.83
  -9 -11 -11    0.87    0.76
 -11 -11 -11    0.58    1.90
  -1 -12 -11   -0.10    0.80
   1  12  11    0.81    1.22
   1  12  11   -1.63    1.17
  -2 -12 -11    0.32    0.83
   2  12  11    2.24    1.26
   2  12  11    0.55    0.86
  -3 -12 -11   -0.15    0.72
   3  12  11   -0.79    0.92
   3  12  11    0.38    0.81
  -4 -12 -11    1.20    1.09
   4  12  11    0.39    1.04
  -5 -12 -11   -0.15    1.02
   5  12  11    1.49    1.10
  -6 -12 -11   -0.02    1.05
   6  12  11   -0.22    0.98
  -7 -12 -11    0.32    0.95
  -8 -12 -11    0.72    0.98
  -9 -12 -11   -0.24    0.98
  -2 -13 -11   -0.96    0.74
   2  13  11    1.15    1.29
  -3 -13 -11    3.16    1.45
   3  13  11    3.00    1.18
  -4 -13 -11    1.74    1.35
   4  13  11    0.82    0.95
  -5 -13 -11    0.54    1.20
   5  13  11   -0.25    1.08
  -6 -13 -11    0.38    1.12
   6  13  11    0.62    1.17
  -7 -13 -11    2.42    1.20
  -8 -13 -11    0.28    1.06
  -1  -5  12    0.65    1.28
  -1  -5  12    0.77    1.11
   0  -5  12    1.97    1.12
   0  -5  12    3.27    1.13
   1  -5  12    0.44    1.30
   1  -5  12    2.17    1.19
   2  -5  12    3.56    1.56
   2  -5  12    2.52    1.22
   3  -5  12    9.19    1.70
   3  -5  12    2.70    1.40
  -4   5 -12    1.52    0.95
   4  -5  12    0.67    1.01
   4  -5  12    2.33    1.17
  -2  -4  12    2.33    1.22
  -2  -4  12    2.27    1.33
  -1  -4  12    1.44    1.25
  -1  -4  12    2.92    1.23
   0  -4  12    0.84    0.92
   0  -4  12    0.02    0.90
   1  -4  12    1.98    1.30
   1  -4  12    2.09    0.91
   2  -4  12    1.73    1.24
   2  -4  12    0.41    0.74
  -3   4 -12   -0.90    0.87
   3  -4  12    0.39    1.13
   3  -4  12    0.31    0.65
  -4   4 -12    2.52    1.16
   4  -4  12   -0.73    1.02
   4  -4  12    0.88    0.74
  -5   4 -12    0.42    1.07
   5  -4  12    0.65    0.97
   5  -4  12   -0.34    0.77
  -6   4 -12    0.55    1.14
   6  -4  12   -0.35    1.20
   6  -4  12    0.02    0.70
  -3  -3  12    4.64    1.48
  -3  -3  12    2.97    1.22
  -2  -3  12    2.29    1.10
  -2  -3  12    2.04    1.25
  -1  -3  12    0.22    0.81
  -1  -3  12    0.11    0.58
   0  -3  12    1.91    1.13
   0  -3  12    5.82    1.32
   1  -3  12    0.81    0.84
   1  -3  12    2.20    1.30
  -2   3 -12    0.81    0.90
   2  -3  12    1.34    1.09
   2  -3  12    0.52    0.64
  -3   3 -12   -0.28    0.81
   3  -3  12   -0.55    0.72
   3  -3  12    0.26    0.77
  -4   3 -12    1.44    0.79
   4  -3  12    3.09    1.08
   4  -3  12    1.92    0.93
  -5   3 -12    0.55    0.95
   5  -3  12    0.46    0.60
   5  -3  12    0.74    1.09
  -6   3 -12    4.79    1.22
   6  -3  12    5.04    1.31
   6  -3  12    1.52    1.14
  -7   3 -12    3.29    1.31
   7  -3  12    0.21    1.11
   7  -3  12    1.37    1.02
  -8   3 -12   -0.18    1.11
   8  -3  12    0.52    1.04
   8  -3  12    0.85    1.27
  -3  -2  12    1.81    1.18
  -3  -2  12    1.10    0.80
  -2  -2  12    2.12    1.21
  -2  -2  12   -0.10    0.65
  -1  -2  12    2.75    1.23
  -1  -2  12    3.34    1.09
   0   2 -12    0.37    0.85
   0  -2  12    0.83    1.03
   0  -2  12    0.11    0.73
  -1   2 -12   -0.59    0.74
   1  -2  12    0.44    1.06
   1  -2  12   -0.09    0.77
  -2   2 -12   -0.18    0.61
   2  -2  12    0.18    0.78
   2  -2  12    0.15    0.77
  -3   2 -12   -0.08    0.76
   3  -2  12   -0.34    0.92
   3  -2  12    0.01    0.73
  -4   2 -12    0.46    0.84
   4  -2  12    1.14    1.08
   4  -2  12    0.51    0.61
  -5   2 -12    1.81    1.00
   5  -2  12    0.22    0.97
   5  -2  12    2.32    1.00
  -6   2 -12    2.45    1.06
   6  -2  12    0.25    0.96
   6  -2  12    2.41    1.03
  -7   2 -12    0.67    0.77
   7  -2  12    1.04    1.14
   7  -2  12    1.75    0.97
  -8   2 -12    2.62    0.98
   8  -2  12    1.53    1.04
   8  -2  12    1.65    1.27
  -9   2 -12    0.32    0.88
   9  -2  12   -0.04    1.22
  -3  -1  12    0.50    0.73
  -2  -1  12    2.89    0.87
  -2  -1  12    4.58    1.31
   1   1 -12    0.87    0.94
  -1  -1  12    2.40    1.01
  -1  -1  12    1.33    1.04
   0   1 -12    0.74    0.87
   0  -1  12    0.73    0.63
   0  -1  12    1.38    0.84
  -1   1 -12   -0.48    0.68
   1  -1  12    1.78    0.90
   1  -1  12   -0.85    0.53
  -2   1 -12    9.86    1.41
   2  -1  12    3.35    1.01
   2  -1  12    8.54    1.36
  -3   1 -12   -0.59    0.70
   3  -1  12    0.52    0.92
   3  -1  12    0.30    0.56
  -4   1 -12    2.93    1.00
   4  -1  12    0.63    0.57
   4  -1  12    1.49    0.79
  -5   1 -12    0.65    0.85
   5  -1  12    1.36    0.81
   5  -1  12    1.03    0.61
  -6   1 -12    0.77    0.94
   6  -1  12   -0.07    0.66
   6  -1  12    0.80    0.81
  -7   1 -12    2.13    0.87
   7  -1  12    1.07    1.05
   7  -1  12    3.31    1.05
  -8   1 -12    1.79    1.09
   8  -1  12    1.10    0.74
   8  -1  12    0.35    1.02
  -9   1 -12    2.78    1.25
   9  -1  12    1.67    1.29
  10  -1  12    1.24    1.43
  -4   0  12    0.46    0.82
  -3   0  12    1.64    0.77
  -3   0  12    2.18    1.09
  -2   0  12    0.34    0.82
  -2   0  12    1.04    0.67
  -1   0  12    1.36    0.94
  -1   0  12    2.11    0.93
   0   0 -12    2.67    0.98
   0   0  12    1.89    0.75
   0   0  12    2.25    1.10
  -1   0 -12   10.22    1.46
   1   0  12   13.09    1.62
  -2   0 -12    0.03    0.71
   2   0  12    0.65    0.74
   2   0  12    0.09    0.66
  -3   0 -12   -0.55    0.69
   3   0  12    1.11    0.76
   3   0  12   -0.10    0.48
  -4   0 -12    0.11    0.52
   4   0  12    1.02    0.75
   4   0  12    0.35    0.93
  -5   0 -12    1.32    0.86
   5   0  12    0.62    0.57
   5   0  12    1.00    0.72
  -6   0 -12    0.07    0.79
   6   0  12   -0.15    0.81
   6   0  12    0.16    0.52
  -7   0 -12    0.20    0.59
   7   0  12   -0.10    0.87
   7   0  12    0.38    0.55
  -8   0 -12    0.43    0.92
   8   0  12    2.20    0.97
   8   0  12    1.06    1.05
  -9   0 -12    2.61    1.19
   9   0  12    0.62    1.12
 -10   0 -12    0.45    1.14
  10   0  12    0.60    1.23
  -5   1  12    1.16    1.36
  -4   1  12    2.29    1.27
  -3   1  12    0.54    0.97
  -3   1  12    0.60    1.00
  -2   1  12    0.76    0.93
  -2   1  12    1.14    0.89
  -1   1  12   -0.14    0.56
   0  -1 -12    3.09    1.00
   0   1  12    2.37    0.78
   0   1  12    2.63    0.99
  -1  -1 -12    4.90    1.09
   1   1  12    2.74    0.98
   1   1  12    5.91    1.15
  -2  -1 -12   14.63    1.58
   2   1  12   12.96    1.59
  -3  -1 -12    7.37    1.18
   3   1  12    4.61    1.17
   3   1  12    8.15    1.22
  -4  -1 -12    0.73    0.82
   4   1  12    0.50    0.64
   4   1  12    1.10    0.72
  -5  -1 -12    7.74    1.24
   5   1  12   11.04    1.38
   5   1  12    8.78    1.49
  -6  -1 -12    1.46    0.70
   6   1  12    2.23    0.73
   6   1  12    1.94    1.10
  -7  -1 -12    0.00    0.62
   7   1  12    0.22    0.69
   7   1  12   -0.37    0.80
  -8  -1 -12   -0.12    0.82
   8   1  12    1.66    1.12
   8   1  12    1.68    0.68
  -9  -1 -12    6.46    1.45
   9   1  12    5.67    1.46
 -10  -1 -12    1.78    1.14
  10   1  12    1.65    1.28
 -11  -1 -12   -1.07    1.08
  11   1  12    0.55    1.02
  -5   2  12    1.27    1.05
  -4   2  12    1.85    0.93
  -4   2  12    1.00    1.09
  -3   2  12    1.51    0.79
  -3   2  12    0.84    0.80
  -2   2  12    1.40    0.92
  -2   2  12    1.97    1.06
  -1   2  12    2.72    1.01
  -1   2  12    3.83    1.00
  -1  -2 -12   -0.97    0.39
   1   2  12   -0.03    0.68
  -2  -2 -12    1.99    0.71
   2   2  12    1.56    0.82
  -3  -2 -12    5.15    1.00
   3   2  12    8.39    1.38
  -4  -2 -12    2.54    0.81
   4   2  12    1.96    0.95
   4   2  12    3.40    0.84
  -5  -2 -12   -0.40    0.66
   5   2  12   -0.30    0.81
   5   2  12    0.40    0.49
  -6  -2 -12    2.12    0.96
   6   2  12    2.30    0.70
   6   2  12    4.19    1.22
  -7  -2 -12    5.56    1.20
   7   2  12    5.53    1.07
   7   2  12    4.44    1.10
  -8  -2 -12    4.09    1.01
   8   2  12    7.08    1.54
   8   2  12    5.11    0.98
  -9  -2 -12   -0.66    0.78
   9   2  12    0.75    1.03
 -10  -2 -12    0.99    1.08
  10   2  12    1.72    1.22
 -11  -2 -12    1.56    1.18
  11   2  12    0.48    0.99
  -5   3  12    0.23    1.25
  -5   3  12    0.80    0.96
  -4   3  12    0.71    1.09
  -4   3  12   -0.17    1.11
  -3   3  12    0.81    1.06
  -3   3  12    0.85    1.00
  -2   3  12    0.34    0.87
  -2   3  12    0.81    0.87
  -1   3  12    1.85    0.86
  -1   3  12    3.51    1.07
   0   3  12   11.21    1.31
   0   3  12   10.37    1.39
  -1  -3 -12    0.66    0.65
  -2  -3 -12    4.23    0.94
   2   3  12    4.37    0.98
  -3  -3 -12   20.61    1.61
  -4  -3 -12    3.05    0.83
   4   3  12    1.69    0.74
  -5  -3 -12    9.86    1.37
   5   3  12    9.41    1.26
   5   3  12    9.60    1.43
  -6  -3 -12    6.87    1.26
   6   3  12    7.31    1.39
   6   3  12   10.84    1.32
  -7  -3 -12    0.16    0.58
   7   3  12    1.18    0.70
   7   3  12    0.44    0.74
  -8  -3 -12    1.18    0.93
   8   3  12    1.54    1.11
   8   3  12    1.90    0.78
  -9  -3 -12   -0.54    0.57
   9   3  12    0.51    1.08
 -10  -3 -12   -0.02    0.68
  10   3  12    1.68    1.16
 -11  -3 -12   -0.18    0.74
  11   3  12    0.60    1.18
  12   3  12    0.44    1.01
  -4   4  12    1.60    1.18
  -4   4  12    0.02    1.19
  -3   4  12    0.05    1.00
  -3   4  12    0.39    0.97
  -2   4  12   -0.24    0.87
  -2   4  12    0.88    0.73
  -1   4  12    0.16    0.63
  -1   4  12   -0.41    0.85
   0   4  12   -1.01    0.52
   0   4  12    0.61    0.64
   1   4  12   -1.22    0.68
   1   4  12    0.16    0.55
  -2  -4 -12   -0.27    0.47
  -3  -4 -12    4.73    0.96
   3   4  12    4.88    1.04
  -4  -4 -12    9.24    1.35
   4   4  12    7.05    1.19
  -5  -4 -12    0.89    0.80
   5   4  12    0.26    0.86
  -6  -4 -12    7.42    1.31
   6   4  12    6.46    1.31
  -7  -4 -12    7.11    1.21
   7   4  12    7.92    1.17
   7   4  12    6.98    1.46
  -8  -4 -12    4.35    1.13
   8   4  12    3.17    0.77
   8   4  12    3.34    1.27
  -9  -4 -12    1.28    0.94
   9   4  12   -0.07    0.99
 -10  -4 -12   -0.51    0.90
  10   4  12   -0.60    0.68
 -11  -4 -12    0.35    1.11
  11   4  12    1.34    1.24
 -12  -4 -12   -0.07    1.08
  12   4  12   -0.75    1.12
  -4   5  12   -0.22    1.09
  -4   5  12   -0.05    0.85
  -3   5  12    2.24    1.13
  -3   5  12    1.97    1.20
  -2   5  12    1.66    1.00
  -2   5  12    2.63    1.32
  -1   5  12   -1.51    0.59
  -1   5  12   -0.73    0.77
   0   5  12   -0.07    0.55
   0   5  12   -0.79    0.80
   1   5  12    1.59    0.86
   1   5  12    1.34    0.69
  -2  -5 -12   -0.36    0.47
   2   5  12   -0.16    0.60
  -3  -5 -12    1.55    0.86
  -4  -5 -12   11.16    1.46
   4   5  12   13.26    1.44
  -5  -5 -12   -0.33    0.49
   5   5  12    0.30    0.80
  -6  -5 -12   -0.04    0.73
   6   5  12    0.41    0.90
  -7  -5 -12    0.24    0.82
   7   5  12    0.65    0.96
  -8  -5 -12    0.97    0.88
   8   5  12    0.68    0.83
  -9  -5 -12    0.98    0.94
   9   5  12    1.96    1.21
 -10  -5 -12    2.59    1.17
  10   5  12    1.54    0.98
 -11  -5 -12    1.00    1.07
  11   5  12   -0.63    1.09
 -12  -5 -12    3.75    1.41
  12   5  12    2.25    1.52
  -4   6  12    0.17    1.23
  -4   6  12   -0.90    1.20
  -3   6  12   -1.64    1.21
  -3   6  12    1.04    1.08
   2  -6 -12    1.75    0.77
  -2   6  12   -0.94    1.19
  -2   6  12    0.26    0.71
   1  -6 -12    1.06    0.70
  -1   6  12   -1.43    0.64
  -1   6  12    1.24    0.98
   0  -6 -12    0.40    0.59
   0   6  12   -0.56    0.61
   0   6  12    0.23    0.62
   1   6  12   -0.55    0.50
   1   6  12   -0.57    0.45
   2   6  12    0.80    0.77
   2   6  12    0.36    0.62
  -3  -6 -12   -0.74    0.67
   3   6  12   -0.53    0.55
  -4  -6 -12   -0.15    0.50
  -5  -6 -12    3.80    1.05
   5   6  12    4.58    1.09
  -6  -6 -12    9.28    1.32
   6   6  12    9.45    1.47
  -7  -6 -12    1.88    0.77
   7   6  12    0.71    0.99
  -8  -6 -12    0.82    0.70
   8   6  12    1.19    1.04
  -9  -6 -12    0.80    0.95
   9   6  12   -0.27    0.96
 -10  -6 -12    0.95    0.97
  10   6  12   -0.14    1.09
 -11  -6 -12    0.28    1.00
  11   6  12    0.45    0.95
  12   6  12    0.26    1.02
   3  -7 -12    0.14    0.98
  -3   7  12   -1.68    0.92
  -3   7  12    1.11    1.21
   2  -7 -12    0.78    0.77
  -2   7  12   -1.02    0.88
  -2   7  12    0.39    0.78
   1  -7 -12    0.93    0.74
  -1   7  12    0.37    0.86
  -1   7  12   -0.28    0.86
   0  -7 -12    0.20    0.59
   0   7  12    0.54    0.70
   0   7  12    0.57    0.66
  -1  -7 -12    3.97    0.96
   1   7  12    3.93    0.92
   1   7  12    4.49    1.13
  -2  -7 -12    1.34    0.88
   2   7  12    0.18    0.59
   2   7  12    0.47    0.73
  -3  -7 -12    2.25    0.89
   3   7  12    0.70    0.80
   3   7  12    0.86    0.72
  -4  -7 -12    5.41    1.20
   4   7  12    3.79    0.78
  -5  -7 -12    9.25    1.43
  -6  -7 -12   -1.01    0.69
   6   7  12    0.54    0.87
  -7  -7 -12   -0.31    0.76
   7   7  12    0.09    0.83
  -8  -7 -12    0.63    0.92
   8   7  12    0.65    1.09
  -9  -7 -12   -0.81    0.78
   9   7  12   -0.85    1.04
 -10  -7 -12    1.55    1.04
  10   7  12   -0.20    1.23
  11   7  12   -1.91    1.11
  12   7  12   -0.06    1.46
   3  -8 -12    1.35    0.93
  -3   8  12    1.49    1.67
  -3   8  12    0.66    1.09
   2  -8 -12    0.69    1.07
  -2   8  12    0.02    1.07
  -2   8  12   -2.01    1.19
   1  -8 -12    1.80    0.92
  -1   8  12    0.82    1.20
  -1   8  12    0.90    1.02
   0  -8 -12    1.19    0.74
   0   8  12    1.19    0.77
   0   8  12    1.90    1.04
  -1  -8 -12    0.31    0.68
   1   8  12   -0.42    0.79
   1   8  12   -0.41    0.82
  -2  -8 -12    4.01    1.12
   2   8  12    2.99    1.03
   2   8  12    3.30    0.88
  -3  -8 -12    3.68    0.96
   3   8  12    4.65    1.05
   3   8  12    4.39    1.12
  -4  -8 -12    0.24    0.60
   4   8  12    0.44    0.73
   4   8  12   -0.03    0.73
  -5  -8 -12    1.86    0.88
  -5  -8 -12    1.85    0.83
   5   8  12    0.73    0.71
  -6  -8 -12    0.72    0.86
  -7  -8 -12    0.22    0.85
   7   8  12   -0.15    0.99
  -8  -8 -12    0.83    0.92
   8   8  12    1.00    1.13
  -9  -8 -12    1.93    1.05
   9   8  12    2.66    1.33
 -11  -8 -12    1.19    1.23
 -12  -8 -12    0.32    1.22
   2  -9 -12   -0.34    0.75
  -2   9  12   -0.58    1.37
  -2   9  12    0.15    1.21
   1  -9 -12    0.29    1.03
  -1   9  12   -0.39    1.11
  -1   9  12    0.51    1.06
   0  -9 -12    0.73    1.05
   0   9  12   -0.17    0.68
   0   9  12    1.11    1.07
  -1  -9 -12    2.05    1.06
   1   9  12    0.46    0.96
   1   9  12    1.04    0.74
  -2  -9 -12    2.70    1.09
   2   9  12    1.78    0.85
   2   9  12    2.69    1.06
  -3  -9 -12    0.63    0.80
   3   9  12   -0.81    0.74
   3   9  12   -0.45    0.81
  -4  -9 -12    8.73    1.36
   4   9  12    7.19    1.34
   4   9  12   11.03    1.49
  -5  -9 -12    1.41    0.75
   5   9  12    2.52    0.92
   5   9  12    2.05    0.79
  -6  -9 -12    1.42    0.88
   6   9  12   -0.89    0.65
  -7  -9 -12   -0.91    0.84
  -9  -9 -12   -0.29    1.34
 -10  -9 -12    1.30    1.21
 -11  -9 -12    1.28    1.67
   1 -10 -12   -1.08    1.06
  -1  10  12   -0.55    1.12
  -1  10  12   -0.97    1.11
   0 -10 -12   -0.48    0.71
   0  10  12    0.46    1.06
   0  10  12   -0.12    1.04
  -1 -10 -12    1.40    0.93
   1  10  12    0.45    0.73
   1  10  12    1.21    1.14
  -2 -10 -12    0.17    0.72
   2  10  12    0.53    0.72
   2  10  12    0.47    0.77
  -3 -10 -12    0.76    1.03
   3  10  12    1.22    0.78
   3  10  12    1.48    1.01
  -4 -10 -12   -1.07    0.80
   4  10  12   -0.11    0.62
   4  10  12   -0.17    0.84
  -5 -10 -12    1.73    1.00
   5  10  12    0.73    0.67
   5  10  12    1.71    0.85
  -6 -10 -12    2.13    1.04
   6  10  12    4.93    1.17
   6  10  12    3.16    1.04
   7  10  12    0.63    0.85
 -10 -10 -12    1.14    1.56
 -11 -10 -12    1.93    1.88
   0 -11 -12    1.02    0.94
   0  11  12    2.62    1.16
   0  11  12    1.91    1.41
  -1 -11 -12   -0.53    0.68
   1  11  12    0.51    1.16
   1  11  12    0.72    1.17
  -2 -11 -12    4.34    1.22
   2  11  12    3.80    1.25
   2  11  12    5.10    1.47
  -3 -11 -12    1.29    1.13
   3  11  12    2.26    1.15
   3  11  12    3.06    1.19
  -4 -11 -12   -1.10    0.61
   4  11  12    0.17    0.89
   4  11  12    0.01    0.72
  -5 -11 -12    0.09    0.96
   5  11  12   -0.11    0.84
   5  11  12    0.22    0.96
  -6 -11 -12    1.47    1.08
   6  11  12    0.40    0.92
   7  11  12   -0.41    0.90
  -2 -12 -12   -0.07    0.84
   2  12  12   -0.63    0.75
   2  12  12    0.29    0.90
  -3 -12 -12    0.23    0.82
   3  12  12    0.33    1.07
   3  12  12    1.00    0.93
  -4 -12 -12    1.26    1.23
   4  12  12    0.67    1.11
  -5 -12 -12   -0.33    1.05
   5  12  12   -0.66    1.01
  -6 -12 -12   -0.10    1.05
   6  12  12   -0.10    1.01
   7  12  12    0.61    1.14
  -8 -12 -12    1.27    1.06
  -4 -13 -12    1.51    1.38
   4  13  12   -1.07    1.15
  -5 -13 -12    1.01    1.28
   5  13  12   -0.61    1.16
  -6 -13 -12    1.40    1.25
   6  13  12   -0.75    1.14
   7  13  12    0.12    1.25
   0  -4  13   -0.26    0.95
   0  -4  13    0.29    1.08
   1  -4  13    1.82    1.43
   1  -4  13    0.18    0.76
   2  -4  13    1.96    1.40
   2  -4  13    1.76    0.97
   3  -4  13    0.10    1.30
   3  -4  13    0.55    0.81
  -4   4 -13    2.39    1.33
   4  -4  13    3.18    1.11
   4  -4  13    2.38    1.42
  -1  -3  13    2.15    1.14
  -1  -3  13    1.13    1.27
   0  -3  13    5.02    1.55
   1  -3  13    2.50    1.15
   1  -3  13    2.76    1.37
  -2   3 -13    1.02    0.88
   2  -3  13    1.34    1.00
   2  -3  13   -0.02    1.17
  -3   3 -13    0.47    1.01
   3  -3  13    0.26    1.16
   3  -3  13    2.32    1.13
  -4   3 -13   -0.25    0.72
   4  -3  13   -0.61    0.81
   4  -3  13    0.61    1.18
  -5   3 -13    1.44    0.93
   5  -3  13    0.36    1.15
   5  -3  13    0.60    0.69
  -6   3 -13   -0.47    0.76
   6  -3  13    0.80    0.97
   6  -3  13   -0.57    0.92
  -2  -2  13    1.01    1.07
  -2  -2  13    1.87    1.34
  -1  -2  13    1.01    1.22
  -1  -2  13    0.34    0.71
   0  -2  13    2.78    1.11
   0  -2  13    1.25    1.21
  -1   2 -13   -0.75    0.85
   1  -2  13    0.20    0.61
   1  -2  13   -0.66    0.66
  -2   2 -13    3.05    1.12
   2  -2  13    0.69    0.72
   2  -2  13    1.24    1.19
  -3   2 -13    0.24    0.71
   3  -2  13    0.26    0.80
   3  -2  13    0.11    0.57
  -4   2 -13    0.54    1.00
   4  -2  13    0.16    0.60
   4  -2  13    0.03    0.77
  -5   2 -13    2.49    1.20
   5  -2  13    1.74    0.96
   5  -2  13    0.27    0.89
  -6   2 -13    2.18    1.13
   6  -2  13    0.53    0.68
   6  -2  13   -0.09    1.11
  -7   2 -13    1.25    0.92
   7  -2  13    0.22    0.84
   7  -2  13    0.32    0.70
  -8   2 -13   -0.63    0.76
   8  -2  13    0.98    0.86
   8  -2  13    0.59    1.25
  -3  -1  13    1.39    0.88
  -2  -1  13    1.19    0.85
  -1  -1  13    4.26    1.21
  -1  -1  13    3.38    1.25
   0   1 -13   -0.15    0.68
   0  -1  13    0.25    0.86
   0  -1  13    1.72    1.12
  -1   1 -13    2.78    1.09
   1  -1  13    2.88    1.08
   1  -1  13    1.85    1.14
  -2   1 -13    1.61    0.97
   2  -1  13    1.31    0.75
   2  -1  13    1.96    1.21
  -3   1 -13    0.59    0.73
   3  -1  13    0.28    1.03
   3  -1  13    0.24    0.61
  -4   1 -13    4.45    1.22
   4  -1  13    4.03    1.12
   4  -1  13    2.82    1.16
  -5   1 -13    1.32    1.05
   5  -1  13    3.17    1.34
   5  -1  13    1.75    0.75
  -6   1 -13    0.15    0.97
   6  -1  13   -0.82    0.91
   6  -1  13    0.46    0.85
  -7   1 -13    0.66    0.75
   7  -1  13    1.65    1.00
   7  -1  13    1.78    1.15
  -8   1 -13    1.66    1.20
   8  -1  13    4.48    1.26
   8  -1  13    2.52    1.07
  -9   1 -13    0.40    1.14
   9  -1  13   -0.19    0.80
  -3   0  13    1.17    0.99
  -2   0  13    1.13    0.96
  -1   0  13    1.51    1.06
  -1   0  13    1.88    0.99
   0   0 -13    2.40    1.11
   0   0  13    2.66    1.15
   0   0  13    4.31    1.08
  -1   0 -13    1.56    0.81
   1   0  13    2.74    1.03
   1   0  13    1.83    1.03
  -2   0 -13   -0.29    0.58
   2   0  13    0.51    0.78
   2   0  13   -0.68    0.88
  -3   0 -13    3.62    1.14
   3   0  13    1.77    1.10
   3   0  13    2.11    0.96
  -4   0 -13    0.60    0.87
   4   0  13    0.07    0.93
   4   0  13    0.18    0.53
  -5   0 -13    8.15    1.50
   5   0  13   10.22    1.53
  -6   0 -13    2.03    1.06
   6   0  13    0.60    0.78
   6   0  13    2.23    0.80
  -7   0 -13    0.64    0.99
   7   0  13    0.48    1.00
   7   0  13    0.02    0.54
  -8   0 -13   -0.49    0.93
   8   0  13    0.78    0.91
   8   0  13   -0.12    0.74
  -9   0 -13    1.50    0.99
   9   0  13   -0.54    0.74
  -3   1  13    1.08    0.99
  -2   1  13    3.38    1.05
  -2   1  13    4.23    1.19
  -1   1  13    4.42    1.20
  -1   1  13    3.47    1.21
   0  -1 -13   -0.12    0.90
   0   1  13    0.58    0.62
  -1  -1 -13    2.27    1.00
   1   1  13    0.99    0.92
   1   1  13    1.67    0.88
  -2  -1 -13    1.93    1.01
   2   1  13    3.05    1.05
   2   1  13    2.45    1.07
  -3  -1 -13    0.30    0.82
   3   1  13    0.50    0.93
   3   1  13    0.50    0.71
  -4  -1 -13    1.71    0.79
   4   1  13    2.28    0.79
   4   1  13    1.43    1.04
  -5  -1 -13    0.92    0.91
   5   1  13    1.26    0.84
   5   1  13    1.62    1.10
  -6  -1 -13   -0.47    0.79
   6   1  13    0.64    0.78
   6   1  13    1.34    1.06
  -7  -1 -13    0.57    0.71
   7   1  13    0.01    0.90
   7   1  13    0.77    0.79
  -8  -1 -13    0.69    0.97
   8   1  13    0.14    1.02
   8   1  13    0.80    0.84
  -9  -1 -13    0.55    0.81
   9   1  13    0.86    1.10
 -10  -1 -13    0.31    0.88
  10   1  13    0.30    1.22
  -3   2  13   -0.23    1.02
  -3   2  13   -0.78    0.99
  -2   2  13   -0.53    0.88
  -1   2  13    0.11    0.67
   0   2  13    0.14    0.60
  -1  -2 -13    0.21    0.63
  -2  -2 -13   -0.33    0.56
   2   2  13    0.79    0.90
  -3  -2 -13    7.20    1.31
   3   2  13    7.64    1.25
  -4  -2 -13    1.89    0.93
   4   2  13    1.14    1.01
   4   2  13    2.41    0.80
  -5  -2 -13   -0.08    0.52
   5   2  13   -0.30    0.64
   5   2  13    0.37    0.68
  -6  -2 -13    0.16    0.63
   6   2  13    2.06    0.87
   6   2  13    1.95    1.08
  -7  -2 -13    0.33    0.65
   7   2  13    0.41    0.73
   7   2  13    0.36    0.75
  -8  -2 -13   -1.22    0.80
   8   2  13    1.12    1.07
   8   2  13    0.25    0.52
  -9  -2 -13   -0.39    0.91
   9   2  13    2.05    1.22
 -10  -2 -13    1.30    0.89
  10   2  13    3.03    1.38
  11   2  13    0.68    1.04
  -3   3  13    0.22    0.88
  -3   3  13    1.92    1.23
  -2   3  13    0.30    0.99
  -2   3  13    0.13    0.72
  -1   3  13    0.28    0.62
  -1   3  13   -0.31    0.91
   0   3  13    1.13    0.96
  -1  -3 -13    0.81    0.91
  -2  -3 -13   -0.76    0.68
  -3  -3 -13    2.51    0.87
   3   3  13    2.15    0.98
  -4  -3 -13    0.51    0.83
   4   3  13    2.22    1.03
  -5  -3 -13    0.06    0.55
   5   3  13   -0.07    0.89
   5   3  13    1.01    0.78
  -6  -3 -13    1.10    0.85
   6   3  13    1.34    1.03
   6   3  13    2.10    0.82
  -7  -3 -13   -0.32    0.78
   7   3  13    0.66    1.03
   7   3  13    1.20    0.76
  -8  -3 -13    0.58    0.73
   8   3  13    0.71    1.06
   8   3  13    0.93    0.74
  -9  -3 -13    0.93    1.01
   9   3  13    0.30    1.07
 -10  -3 -13   -0.27    1.04
  10   3  13   -0.33    1.09
 -11  -3 -13    0.61    1.19
  11   3  13    0.14    1.18
  -3   4  13   -0.07    1.06
  -3   4  13    0.89    1.17
  -2   4  13   -0.12    0.98
  -2   4  13    0.98    0.81
  -1   4  13   -0.54    0.80
  -1   4  13    0.48    0.69
   0   4  13   -0.59    0.81
   0   4  13    0.16    0.55
   1   4  13    2.55    1.03
  -2  -4 -13    2.67    1.04
  -3  -4 -13    0.03    0.56
  -4  -4 -13   18.60    1.91
  -5  -4 -13   17.61    1.84
  -6  -4 -13    0.05    0.82
   6   4  13    0.31    0.97
  -7  -4 -13   -0.35    0.79
   7   4  13    1.34    0.80
   7   4  13    1.69    1.17
  -8  -4 -13    1.20    0.99
   8   4  13    1.57    0.76
   8   4  13    0.09    0.80
  -9  -4 -13    0.88    1.05
   9   4  13    0.94    0.94
 -10  -4 -13    1.85    0.92
  10   4  13    2.57    1.15
 -11  -4 -13    1.22    0.94
  11   4  13   -0.38    1.24
  -3   5  13    0.82    1.10
  -3   5  13    3.43    1.41
  -2   5  13    2.06    1.23
  -2   5  13    1.31    1.12
  -1   5  13   -0.56    0.90
  -1   5  13   -1.77    0.92
   0   5  13    0.16    0.65
   0   5  13   -0.61    0.96
   1   5  13   -0.09    0.85
   1   5  13    0.36    0.83
  -3  -5 -13    0.22    0.62
  -4  -5 -13    0.69    0.83
  -5  -5 -13    0.65    0.68
   5   5  13    1.50    0.97
  -6  -5 -13    4.69    1.16
   6   5  13    1.39    1.02
  -7  -5 -13    1.51    0.95
   7   5  13    0.67    0.98
  -8  -5 -13   -0.24    0.86
   8   5  13    1.51    0.76
   8   5  13   -0.62    1.01
  -9  -5 -13    1.68    0.87
   9   5  13    1.42    1.18
 -10  -5 -13    1.16    1.06
  10   5  13    0.07    1.19
 -11  -5 -13    1.55    1.20
  11   5  13   -0.36    1.21
  -3   6  13    1.49    1.30
  -3   6  13   -0.42    0.89
  -2   6  13    1.10    1.46
  -2   6  13    0.43    0.80
  -1   6  13    1.48    1.36
  -1   6  13    2.04    1.15
   0   6  13    1.92    0.84
   0   6  13    3.84    1.11
   1   6  13    1.39    0.97
   1   6  13   -0.66    0.84
   2   6  13    3.47    1.00
   2   6  13    4.21    1.13
  -3  -6 -13    0.59    0.67
  -4  -6 -13    2.62    1.00
  -5  -6 -13    0.83    0.69
  -6  -6 -13   -0.44    0.58
   6   6  13    0.06    0.90
  -7  -6 -13   -0.44    0.74
   7   6  13    0.19    0.95
  -8  -6 -13    0.28    0.71
   8   6  13   -0.36    1.05
  -9  -6 -13   -0.28    0.95
   9   6  13    0.09    1.22
 -10  -6 -13   -0.23    0.94
  10   6  13    0.59    1.28
 -11  -6 -13   -0.27    1.09
  11   6  13    0.80    1.34
  -2   7  13   -1.08    1.40
  -2   7  13    0.53    1.16
   1  -7 -13    0.30    0.61
  -1   7  13   -0.15    0.89
  -1   7  13    0.18    0.99
   0  -7 -13    3.43    1.00
   0   7  13    2.24    1.03
   0   7  13    3.21    1.02
  -1  -7 -13    4.00    1.01
   1   7  13    1.22    0.94
   1   7  13    3.39    1.18
   2   7  13    1.70    0.80
   2   7  13    1.96    0.87
   3   7  13    0.85    0.74
   3   7  13    0.76    0.85
  -4  -7 -13    0.20    0.69
  -5  -7 -13   -0.11    0.83
  -6  -7 -13    0.28    0.86
  -7  -7 -13    1.12    0.95
   7   7  13    0.58    1.02
  -8  -7 -13   -0.01    0.91
   8   7  13    0.10    1.08
  -9  -7 -13   -0.04    0.97
   9   7  13    0.30    1.10
 -10  -7 -13    2.57    1.22
  10   7  13    4.17    1.54
  11   7  13    0.62    1.47
   2  -8 -13    3.17    1.28
  -2   8  13    0.50    1.18
  -2   8  13   -1.94    1.48
   1  -8 -13   -0.03    0.90
  -1   8  13   -0.07    1.35
  -1   8  13   -0.14    0.71
   0  -8 -13    0.52    0.71
   0   8  13    0.47    0.97
   0   8  13    0.32    1.14
  -1  -8 -13    1.84    1.02
   1   8  13    0.89    1.01
   1   8  13    1.24    1.05
  -2  -8 -13    7.73    1.43
   2   8  13    9.00    1.43
   2   8  13    7.25    1.30
  -3  -8 -13    4.72    1.06
   3   8  13    5.69    1.21
   3   8  13    3.17    1.11
  -4  -8 -13    0.70    0.59
   4   8  13    1.77    0.96
   4   8  13    0.29    0.75
  -6  -8 -13    0.51    0.75
  -7  -8 -13    0.19    0.72
  -8  -8 -13    0.10    0.69
   8   8  13    0.08    1.17
  -9  -8 -13    0.15    1.03
   9   8  13    1.85    1.33
  10   8  13   -0.24    0.96
  11   8  13   -0.45    1.52
   1  -9 -13    3.21    1.16
  -1   9  13    0.36    1.42
  -1   9  13    1.42    1.02
   0  -9 -13    0.75    1.04
   0   9  13    0.54    1.15
   0   9  13    0.36    1.07
  -1  -9 -13    2.21    1.12
   1   9  13    0.61    1.02
   1   9  13    2.26    1.14
  -2  -9 -13    0.46    0.68
   2   9  13    0.77    1.00
   2   9  13    0.47    0.93
  -3  -9 -13    1.47    1.00
   3   9  13   -0.36    0.61
   3   9  13   -0.32    0.63
  -4  -9 -13    0.98    0.74
   4   9  13    2.32    1.01
   4   9  13    3.53    0.98
  -5  -9 -13    2.30    0.84
   5   9  13    1.94    0.93
   5   9  13    2.32    1.00
  -7  -9 -13    0.71    1.00
  -8  -9 -13   -0.46    0.85
   9   9  13   -1.28    1.21
  10   9  13   -0.29    1.41
  11   9  13   -0.84    1.48
   0 -10 -13    1.05    0.95
   0  10  13    1.17    1.26
   0  10  13    0.61    1.20
  -1 -10 -13    0.82    0.82
   1  10  13   -0.13    1.09
   1  10  13   -0.86    0.91
  -2 -10 -13   -0.61    0.91
   2  10  13   -0.50    0.95
   2  10  13    0.97    0.87
  -3 -10 -13    1.95    1.12
   3  10  13    0.48    0.97
   3  10  13    0.71    0.77
  -4 -10 -13    1.03    1.00
   4  10  13    1.13    0.98
   4  10  13    1.07    1.05
  -5 -10 -13    0.09    0.90
   5  10  13    0.27    0.89
   5  10  13   -0.31    0.88
  -6 -10 -13    2.75    1.09
   6  10  13    2.57    1.07
   6  10  13    3.26    1.16
  -7 -10 -13    6.54    1.19
  -1 -11 -13    1.05    0.94
   1  11  13   -0.20    1.21
   1  11  13    0.01    1.10
  -2 -11 -13   -0.47    0.73
   2  11  13   -0.70    1.10
   2  11  13    0.69    0.87
  -3 -11 -13    2.08    1.28
   3  11  13    0.55    0.80
   3  11  13    0.53    1.14
  -4 -11 -13   -0.30    0.69
   4  11  13   -0.33    0.97
   4  11  13   -0.62    0.92
  -5 -11 -13    0.04    1.00
   5  11  13   -0.40    0.70
   5  11  13    0.70    1.00
  -6 -11 -13    1.45    1.07
   6  11  13   -0.34    0.71
  -3 -12 -13   -0.38    0.83
   3  12  13    0.06    0.94
   3  12  13    2.31    1.26
  -4 -12 -13    2.01    1.32
   4  12  13   -0.08    1.13
   4  12  13    1.77    1.16
  -5 -12 -13   -0.25    1.11
   5  12  13   -0.77    1.07
  -6 -12 -13    1.51    1.25
   6  12  13    0.79    1.20
   7  12  13    0.28    1.14
   0  -2  14    0.71    0.84
   0  -2  14    0.77    1.32
   1  -2  14    1.59    1.38
   1  -2  14    0.51    0.97
  -2   2 -14   -0.56    1.04
   2  -2  14    0.99    1.03
   2  -2  14    0.29    1.28
  -3   2 -14    1.83    1.17
   3  -2  14    1.84    1.40
   3  -2  14    1.15    0.95
  -4   2 -14   -0.05    1.02
   4  -2  14    0.92    1.27
   4  -2  14   -0.64    0.79
  -5   2 -14   -0.16    1.13
   5  -2  14    0.71    0.99
   5  -2  14    1.01    1.33
  -6   2 -14   -0.81    1.07
   6  -2  14   -0.15    0.69
   6  -2  14    0.91    1.32
  -1  -1  14    1.11    0.93
   0  -1  14    0.79    1.14
   0  -1  14    1.39    1.08
  -1   1 -14    2.10    1.20
   1  -1  14    0.78    0.72
   1  -1  14    1.69    1.32
  -2   1 -14    0.39    1.08
   2  -1  14    0.37    1.16
   2  -1  14    1.45    0.78
  -3   1 -14    1.53    1.08
   3  -1  14    1.53    0.99
   3  -1  14   -0.28    1.12
  -4   1 -14    0.21    1.02
   4  -1  14    0.31    0.89
   4  -1  14    0.35    0.60
  -5   1 -14    0.17    0.97
   5  -1  14    0.18    0.84
   5  -1  14    0.00    0.64
  -6   1 -14    0.35    1.04
   6  -1  14   -0.01    1.18
   6  -1  14    0.35    0.88
  -7   1 -14    1.92    1.24
   7  -1  14    0.47    1.27
   7  -1  14    2.57    1.20
  -2   0  14    1.41    1.06
  -1   0  14    1.17    1.03
   0   0 -14    0.45    1.08
   0   0  14    2.01    0.84
  -1   0 -14    1.68    1.13
   1   0  14    1.93    1.19
   1   0  14    2.20    1.01
  -2   0 -14   -0.91    0.85
   2   0  14    0.89    1.18
   2   0  14   -0.06    0.63
  -3   0 -14    0.67    0.99
   3   0  14    0.87    1.11
   3   0  14    0.98    0.69
  -4   0 -14    2.66    1.17
   4   0  14    1.52    1.26
   4   0  14    1.39    0.94
  -5   0 -14    1.58    0.89
   5   0  14    0.04    1.13
   5   0  14    0.51    0.83
  -6   0 -14    1.71    1.12
   6   0  14    0.81    1.21
   6   0  14    0.99    0.92
  -7   0 -14   -0.50    0.94
   7   0  14    1.30    1.18
   7   0  14    0.90    0.72
  -8   0 -14    1.60    0.97
   8   0  14    1.02    1.24
   8   0  14    0.46    0.75
  -2   1  14    2.16    1.26
  -2   1  14    0.93    0.80
  -1   1  14    1.70    0.85
  -1   1  14    2.65    1.26
   0   1  14    1.18    0.93
  -1  -1 -14    0.15    0.95
   1   1  14    0.82    0.70
  -2  -1 -14    2.45    1.09
   2   1  14    1.70    1.12
   2   1  14    2.41    0.98
  -3  -1 -14    0.22    0.69
   3   1  14    0.19    1.00
   3   1  14    0.17    0.79
  -4  -1 -14    2.67    1.08
   4   1  14    2.89    1.22
   4   1  14    2.94    1.06
  -5  -1 -14    0.45    1.02
   5   1  14    1.13    0.77
   5   1  14    2.31    1.28
  -6  -1 -14   -0.07    0.90
   6   1  14    0.11    0.80
   6   1  14   -0.03    1.03
  -7  -1 -14    0.04    0.98
   7   1  14    0.55    0.82
   7   1  14    0.81    1.19
  -8  -1 -14    1.78    0.92
   8   1  14    1.10    1.21
   8   1  14    2.30    1.12
  -9  -1 -14   -0.67    1.00
   9   1  14    0.55    1.03
  -2   2  14    0.04    1.08
  -1   2  14   -0.06    1.06
   0   2  14    0.75    1.02
  -1  -2 -14    1.61    0.89
   1   2  14    2.94    0.91
  -2  -2 -14    0.14    0.67
   2   2  14    0.88    0.69
  -3  -2 -14    1.73    0.99
   3   2  14    2.00    1.12
   3   2  14    3.09    0.92
  -4  -2 -14    2.25    0.86
   4   2  14    3.90    1.29
   4   2  14    4.24    1.00
  -5  -2 -14    1.86    1.05
   5   2  14    1.58    0.93
   5   2  14    0.98    0.78
  -6  -2 -14    1.01    0.95
   6   2  14    2.29    0.78
   6   2  14    0.74    1.07
  -7  -2 -14    2.09    1.08
   7   2  14    1.27    0.72
   7   2  14    0.53    0.84
  -8  -2 -14    1.76    1.11
   8   2  14    1.83    1.33
   8   2  14    2.54    0.91
  -9  -2 -14   -0.26    0.73
   9   2  14    1.04    1.21
 -10  -2 -14    0.18    1.17
  10   2  14    1.35    1.45
  -2   3  14    0.64    0.87
  -1   3  14    0.90    0.84
   0   3  14    0.94    0.99
  -2  -3 -14    4.64    1.28
  -3  -3 -14    1.49    0.80
  -4  -3 -14    1.11    0.91
   4   3  14   -0.12    0.53
   4   3  14    0.73    1.00
  -5  -3 -14    3.39    1.10
   5   3  14    3.37    1.22
   5   3  14    3.60    1.06
  -6  -3 -14   -0.03    0.67
   6   3  14    0.69    0.74
   6   3  14    0.48    1.09
  -7  -3 -14    0.21    0.90
   7   3  14   -0.30    1.10
   7   3  14    0.85    0.84
  -8  -3 -14    1.15    1.03
   8   3  14    0.34    0.82
   8   3  14   -0.92    0.70
  -9  -3 -14    2.24    0.98
   9   3  14    2.52    1.38
 -10  -3 -14    3.06    1.14
  10   3  14    1.92    1.41
  -2   4  14    1.92    1.27
  -2   4  14    2.58    1.31
  -1   4  14    1.28    1.12
   0   4  14   -0.61    0.89
   1   4  14   -0.14    0.64
  -2  -4 -14   -0.58    0.81
  -3  -4 -14   -0.01    0.90
  -4  -4 -14   -0.22    0.81
  -5  -4 -14    3.94    1.07
   5   4  14    4.25    1.26
  -6  -4 -14   -0.40    0.57
   6   4  14    0.73    0.80
   6   4  14   -0.64    0.88
  -7  -4 -14    0.87    0.79
   7   4  14    0.73    0.88
   7   4  14    1.18    0.84
  -8  -4 -14    1.50    0.86
   8   4  14    1.69    1.28
   8   4  14    2.91    1.00
  -9  -4 -14    0.74    1.11
   9   4  14    0.54    1.16
 -10  -4 -14    1.09    1.20
  10   4  14    2.32    1.45
  -2   5  14    4.04    1.23
  -2   5  14    2.22    1.29
  -1   5  14    0.07    0.80
  -1   5  14   -0.12    1.05
   0   5  14    0.67    0.99
   1   5  14    1.14    1.04
   2   5  14    2.75    0.89
  -3  -5 -14    0.44    0.88
  -4  -5 -14   -0.45    0.57
  -5  -5 -14    1.41    0.80
  -6  -5 -14    4.23    1.24
   6   5  14    2.06    1.11
  -7  -5 -14    3.35    1.20
   7   5  14    2.29    1.19
  -8  -5 -14    0.72    0.75
   8   5  14   -0.49    0.80
   8   5  14    0.64    0.57
  -9  -5 -14    2.80    1.22
   9   5  14    1.49    1.39
 -10  -5 -14    0.39    0.86
  10   5  14    0.44    1.41
 -11  -5 -14    2.91    1.18
  11   5  14    0.14    1.05
  -2   6  14    2.07    1.04
  -2   6  14    1.02    1.05
  -1   6  14    1.16    1.17
  -1   6  14    1.65    1.48
   0   6  14   -1.84    1.11
   0   6  14   -0.10    0.70
   1   6  14    0.88    0.97
   2   6  14   -1.20    0.46
  -4  -6 -14   -0.38    0.64
  -5  -6 -14    0.71    0.73
  -6  -6 -14   -0.40    0.85
  -7  -6 -14    0.58    0.96
   7   6  14    0.23    1.02
  -8  -6 -14   -0.19    0.72
   8   6  14    0.44    1.22
  -9  -6 -14    0.12    1.03
   9   6  14    0.19    1.19
 -10  -6 -14    0.02    0.85
  10   6  14    0.01    1.26
 -11  -6 -14    0.29    1.17
  11   6  14    1.02    1.58
  -1   7  14    0.64    1.10
  -1   7  14   -2.32    1.36
   0   7  14   -0.07    0.73
   0   7  14   -2.01    1.18
   1   7  14    1.07    1.07
   1   7  14   -0.80    1.10
   2   7  14    0.19    0.68
   3   7  14    0.81    0.99
  -5  -7 -14    1.60    0.84
  -6  -7 -14   -0.28    0.62
  -7  -7 -14    0.24    0.70
  -8  -7 -14   -1.69    0.87
   8   7  14    0.14    1.13
  -9  -7 -14   -0.03    0.99
   9   7  14    0.99    1.39
 -10  -7 -14    0.16    1.10
  10   7  14    0.95    1.51
 -11  -7 -14   -1.28    1.09
  11   7  14    0.08    1.11
   0   8  14    1.12    1.44
   0   8  14    0.40    1.02
   1   8  14    0.65    1.02
   1   8  14   -0.49    1.09
   2   8  14    0.76    0.95
   2   8  14    1.47    0.87
   3   8  14    2.21    0.92
   4   8  14    1.71    1.06
  -6  -8 -14    0.65    1.02
  -7  -8 -14   -0.70    0.92
  -8  -8 -14   -0.08    0.97
  -9  -8 -14   -0.62    0.72
   9   8  14    0.50    1.27
 -10  -8 -14   -0.75    1.04
  10   8  14    0.46    1.42
   0  -9 -14    1.80    1.17
   0   9  14   -0.63    1.38
   0   9  14    1.36    1.22
  -1  -9 -14    3.85    1.33
   1   9  14    3.32    1.30
   1   9  14    1.55    1.23
  -2  -9 -14    3.51    1.06
   2   9  14    4.00    1.35
   2   9  14    1.86    1.17
  -3  -9 -14    2.85    1.09
   3   9  14    1.72    1.10
   3   9  14    2.17    0.93
  -4  -9 -14    4.72    1.11
   4   9  14    6.01    1.29
   5   9  14    0.89    0.77
   6   9  14    1.18    0.76
  -7  -9 -14   -0.04    0.76
  -8  -9 -14   -1.37    0.99
  10   9  14   -0.65    1.33
  -1 -10 -14    0.06    0.72
   1  10  14    0.11    1.26
   1  10  14    0.53    1.19
  -2 -10 -14    0.70    1.04
   2  10  14   -0.38    1.03
   2  10  14    0.91    1.16
  -3 -10 -14    2.57    1.23
   3  10  14    1.81    1.21
   3  10  14    2.63    1.30
  -4 -10 -14    0.74    1.00
   4  10  14    1.04    1.09
   4  10  14   -0.13    1.04
  -5 -10 -14    0.43    0.69
   5  10  14   -0.39    0.97
   6  10  14   -0.12    0.95
   7  10  14    1.57    1.05
  -3 -11 -14    0.39    1.12
   3  11  14    1.79    1.24
   3  11  14   -1.05    1.20
  -4 -11 -14    0.25    0.74
   4  11  14    1.08    1.31
   4  11  14    0.78    1.16
  -5 -11 -14    0.50    1.06
   5  11  14    0.73    1.14
   5  11  14    0.42    0.85
  -6 -11 -14    0.90    1.05
   6  11  14   -0.53    0.96
  -7 -11 -14    0.92    0.78
  -2   1 -15    0.66    1.17
   2  -1  15    1.02    1.29
   2  -1  15    0.20    0.99
  -3   1 -15   -1.17    1.06
   3  -1  15    1.47    1.44
   3  -1  15    1.24    1.04
  -4   1 -15    0.99    0.97
   4  -1  15    1.15    1.43
   4  -1  15    1.27    1.09
  -5   1 -15   -1.05    0.73
   5  -1  15    0.52    1.40
   5  -1  15    0.91    1.01
  -1   0 -15   -1.16    1.08
   1   0  15    2.68    1.23
  -2   0 -15   -0.86    0.98
   2   0  15    0.47    0.75
   2   0  15    0.43    1.21
  -3   0 -15    0.70    1.18
   3   0  15    1.52    0.86
   3   0  15    0.94    1.29
  -4   0 -15    0.11    0.77
   4   0  15   -0.04    0.67
   4   0  15   -0.34    1.27
  -5   0 -15   -0.24    0.79
   5   0  15    0.63    0.70
   5   0  15    0.14    1.23
  -6   0 -15    0.50    0.88
   6   0  15    1.25    1.37
   6   0  15   -0.20    0.91
   0   1  15    3.23    1.23
   0   1  15    1.61    1.22
  -1  -1 -15   -0.97    1.06
   1   1  15    0.88    0.75
  -2  -1 -15   -0.24    0.75
   2   1  15    0.88    0.98
   2   1  15    0.63    1.20
  -3  -1 -15   -0.33    0.99
   3   1  15   -0.06    1.12
   3   1  15    0.87    0.90
  -4  -1 -15    2.63    1.05
   4   1  15    1.95    1.31
   4   1  15    2.00    1.03
  -5  -1 -15    2.07    0.90
   5   1  15    1.43    1.25
   5   1  15    2.24    1.06
  -6  -1 -15    2.19    1.04
   6   1  15    2.40    0.92
   6   1  15    3.06    1.42
  -7  -1 -15   -1.13    0.95
   7   1  15    0.49    0.70
   7   1  15    1.26    1.33
  -8  -1 -15    1.07    1.22
   8   1  15   -0.02    0.97
   8   1  15    2.11    1.12
   0   2  15    2.53    0.96
   0   2  15    2.25    1.27
  -1  -2 -15    1.66    0.99
   1   2  15    2.23    1.07
  -2  -2 -15    1.12    1.09
   2   2  15    0.54    0.71
  -3  -2 -15   -0.69    0.92
   3   2  15   -0.12    0.58
   3   2  15   -0.01    1.11
  -4  -2 -15   -0.94    0.91
   4   2  15    1.53    1.18
   4   2  15    1.60    0.81
  -5  -2 -15    0.46    0.76
   5   2  15   -0.15    0.84
   5   2  15    0.06    0.57
  -6  -2 -15    1.45    0.92
   6   2  15    2.17    1.07
   6   2  15    0.07    1.18
  -7  -2 -15    1.90    1.19
   7   2  15    1.77    1.00
   7   2  15    0.38    0.99
  -8  -2 -15    3.85    1.47
   8   2  15    1.58    1.09
   8   2  15    1.73    1.43
  -1   3  15    0.58    1.23
   0   3  15    0.46    0.85
   1   3  15    1.15    1.03
  -2  -3 -15    0.08    1.05
  -3  -3 -15    1.18    0.85
   3   3  15    3.43    1.11
  -4  -3 -15    0.15    0.95
   4   3  15    0.12    0.77
   4   3  15    1.19    1.20
  -5  -3 -15    4.64    1.38
   5   3  15    0.13    1.03
   5   3  15    2.70    1.04
  -6  -3 -15    0.77    1.07
   6   3  15    2.11    0.82
   6   3  15    1.90    1.31
  -7  -3 -15    0.12    1.03
   7   3  15    0.87    0.74
   7   3  15    1.09    1.30
  -8  -3 -15    2.75    1.08
   8   3  15    2.30    1.17
   8   3  15    3.93    1.18
  -9  -3 -15    2.17    1.38
   9   3  15    1.59    1.46
  -1   4  15    1.04    0.94
   0   4  15    1.65    1.21
   1   4  15   -0.82    0.93
  -2  -4 -15    0.55    0.81
  -3  -4 -15   -0.38    0.95
  -4  -4 -15   -0.46    0.89
  -5  -4 -15   -0.60    0.57
   5   4  15    0.28    1.12
   5   4  15    0.11    0.54
  -6  -4 -15    0.11    0.72
   6   4  15   -0.19    1.05
   6   4  15    0.55    0.85
  -7  -4 -15    0.74    0.81
   7   4  15    0.67    1.26
   7   4  15    1.89    0.94
  -8  -4 -15    0.18    1.05
   8   4  15    0.69    1.37
   8   4  15    1.73    0.99
  -9  -4 -15    0.37    0.92
   9   4  15   -0.23    1.35
   0   5  15    0.63    1.17
   1   5  15    0.86    1.07
   2   5  15    1.45    1.10
  -3  -5 -15    3.58    1.34
  -4  -5 -15    0.54    0.75
  -5  -5 -15   -0.79    0.59
  -6  -5 -15    0.01    0.98
  -7  -5 -15   -0.22    0.69
   7   5  15    1.46    0.87
   7   5  15    0.69    1.13
  -8  -5 -15   -0.02    0.73
   8   5  15    1.63    0.88
   8   5  15    0.69    1.28
  -9  -5 -15    0.52    1.19
   9   5  15    1.31    1.48
 -10  -5 -15    1.76    1.35
  10   5  15    1.76    1.60
   0   6  15    1.08    1.17
   1   6  15    0.73    0.83
   2   6  15    0.09    0.95
   3   6  15    0.71    0.76
  -4  -6 -15   -0.22    0.71
  -5  -6 -15   -0.05    0.94
  -6  -6 -15    0.89    1.03
  -7  -6 -15    0.80    1.10
  -8  -6 -15    0.54    0.83
   8   6  15    0.97    0.95
   8   6  15    1.50    0.92
  -9  -6 -15    1.41    1.24
   9   6  15    1.45    1.49
 -10  -6 -15    1.33    1.04
  10   6  15    0.57    1.58
   0   7  15   -3.00    1.38
   0   7  15    0.49    0.92
   1   7  15    0.83    1.12
   2   7  15   -0.43    0.98
   3   7  15    0.12    0.76
   4   7  15    0.57    0.76
  -5  -7 -15    0.42    1.03
  -6  -7 -15   -0.36    1.02
  -7  -7 -15   -0.20    1.01
  -8  -7 -15   -0.89    0.70
  -9  -7 -15   -0.98    1.09
   9   7  15   -0.28    1.35
 -10  -7 -15    1.75    1.10
  10   7  15    0.49    1.46
   1   8  15    0.90    1.19
   1   8  15   -4.11    1.18
   2   8  15    1.53    1.11
   3   8  15   -0.77    0.67
   4   8  15    0.31    0.77
   5   8  15    1.26    0.88
  -6  -8 -15    2.64    1.10
  -7  -8 -15    1.22    0.94
  -8  -8 -15   -0.13    1.15
  -9  -8 -15    0.59    1.22
   2   9  15    1.73    1.36
   2   9  15    1.96    1.19
   3   9  15    2.35    1.03
   4   9  15    0.32    0.79
   5   9  15   -0.12    0.70
   6   9  15   -0.03    0.94
  -7  -9 -15   -0.55    1.18
  -8  -9 -15   -0.87    1.15
  -9  -9 -15    0.71    0.96
  -3 -10 -15    0.73    1.05
   3  10  15    3.44    1.37
   3  10  15    3.63    1.43
   4  10  15    1.53    1.18
   5  10  15    0.30    1.13
   6  10  15    0.58    1.13
   7  10  15   -0.74    0.97
  -4  -1 -16    0.82    1.29
   4   1  16    1.70    0.92
  -2  -2 -16   -1.17    1.13
   2   2  16   -0.02    0.71
  -3  -2 -16    0.56    0.89
   3   2  16    1.25    0.83
  -4  -2 -16    0.79    1.20
   4   2  16    1.75    1.34
   4   2  16    1.13    0.87
  -5  -2 -16    0.08    1.13
   5   2  16    0.60    0.77
   5   2  16    0.18    1.34
  -6  -2 -16    0.72    1.20
   6   2  16    0.90    1.48
   6   2  16    2.12    1.14
  -2  -3 -16   -0.91    1.13
   2   3  16    1.18    0.84
  -3  -3 -16    0.14    1.09
   3   3  16    1.67    1.02
  -4  -3 -16   -0.73    0.75
   4   3  16    0.80    0.93
  -5  -3 -16    0.23    1.11
   5   3  16    1.18    0.96
   5   3  16    1.20    1.37
  -6  -3 -16   -0.03    0.81
   6   3  16    1.81    0.88
   6   3  16    1.54    1.45
  -7  -3 -16    0.90    0.91
   7   3  16    2.69    1.54
   7   3  16    0.08    0.93
   2   4  16    1.07    0.88
  -3  -4 -16    0.94    1.21
  -4  -4 -16    1.79    1.21
   4   4  16    0.76    0.67
  -5  -4 -16   -1.17    1.00
   5   4  16    0.93    0.72
  -6  -4 -16    1.50    1.13
   6   4  16    1.25    0.95
   6   4  16    0.17    1.30
  -7  -4 -16    1.50    1.26
   7   4  16    1.42    1.42
   7   4  16    1.22    0.83
  -8  -4 -16    2.39    1.13
   8   4  16    1.41    1.52
   8   4  16    1.82    0.90
   2   5  16    0.57    1.14
  -3  -5 -16   -0.14    0.85
  -4  -5 -16    0.03    0.80
  -5  -5 -16   -1.17    0.95
  -6  -5 -16    1.22    0.96
   6   5  16    1.47    0.81
  -7  -5 -16    0.98    0.93
   7   5  16    2.37    1.03
   7   5  16    3.14    1.52
  -8  -5 -16    0.65    1.26
   8   5  16   -0.02    1.44
   8   5  16    2.64    1.14
   2   6  16    0.15    0.81
   3   6  16    1.05    1.12
  -4  -6 -16    0.93    1.19
  -5  -6 -16    0.71    1.12
  -6  -6 -16    1.73    1.24
  -7  -6 -16    0.63    1.17
  -8  -6 -16   -0.54    0.82
   8   6  16    2.01    0.96
   2   7  16    0.63    1.19
   3   7  16    0.73    1.16
   4   7  16    0.53    1.05
  -5  -7 -16   -0.90    1.07
  -6  -7 -16   -1.75    1.02
  -7  -7 -16    0.08    1.16
  -8  -7 -16    1.19    1.00
   3   8  16    1.15    1.22
   4   8  16    0.26    1.13
   5   8  16   -0.17    1.02
  -6  -8 -16   -0.24    1.25
  -7  -8 -16   -0.04    1.22
  -8  -8 -16    0.63    0.99
   5   9  16    1.27    1.19
   6   9  16   -0.28    1.11
   0   0   0    0.00    0.00
;
_shelx_hkl_checksum              9636
loop_
_space_group_symop_operation_xyz
'x, y, z'
'-x, -y, -z'
loop_
_atom_site_label
_atom_site_type_symbol
_atom_site_fract_x
_atom_site_fract_y
_atom_site_fract_z
_atom_site_U_iso_or_equiv
_atom_site_adp_type
_atom_site_occupancy
_atom_site_site_symmetry_order
_atom_site_calc_flag
_atom_site_refinement_flags_posn
_atom_site_refinement_flags_adp
S1 S 0.15944(12) 0.19213(10) 0.50112(9) 0.0507(4) Uani 1 1 d . .
N1 N 0.0560(4) 0.6836(3) 0.1511(3) 0.0482(9) Uani 1 1 d . .
O4 O 0.0322(3) 0.1455(3) 0.5654(2) 0.0630(8) Uani 1 1 d . .
N2 N 0.1092(3) 0.3436(3) 0.4215(2) 0.0422(8) Uani 1 1 d . .
O3 O 0.2423(3) 0.2054(3) 0.5612(3) 0.0666(9) Uani 1 1 d . .
O1 O 0.2563(3) 0.7096(3) 0.1705(3) 0.0647(9) Uani 1 1 d . .
O2 O -0.1503(3) 0.6238(3) 0.1849(3) 0.0683(9) Uani 1 1 d . .
C14 C 0.1382(4) 0.3629(3) 0.2272(3) 0.0381(9) Uani 1 1 d . .
C12 C 0.0225(4) 0.3796(4) 0.3390(3) 0.0402(9) Uani 1 1 d . .
C13 C 0.2174(4) 0.4245(3) 0.3419(3) 0.0412(9) Uani 1 1 d . .
H13 H 0.2956 0.4150 0.3707 0.049 Uiso 1 1 calc R U
C19 C 0.2586(4) 0.3878(3) 0.2300(3) 0.0398(9) Uani 1 1 d . .
C7 C 0.1544(5) 0.6597(4) 0.2098(4) 0.0476(10) Uani 1 1 d . .
C15 C 0.1388(5) 0.3362(4) 0.1316(3) 0.0519(11) Uani 1 1 d . .
H15 H 0.0575 0.3228 0.1278 0.062 Uiso 1 1 calc R U
C8 C -0.0516(5) 0.6157(4) 0.2164(4) 0.0473(10) Uani 1 1 d . .
C18 C 0.3820(4) 0.3828(4) 0.1400(3) 0.0509(11) Uani 1 1 d . .
H18 H 0.4621 0.3997 0.1425 0.061 Uiso 1 1 calc R U
C10 C 0.1121(4) 0.5625(4) 0.3260(3) 0.0442(10) Uani 1 1 d . .
H10 H 0.0929 0.6001 0.3893 0.053 Uiso 1 1 calc R U
C9 C -0.0217(4) 0.5318(4) 0.3288(3) 0.0437(10) Uani 1 1 d . .
H9 H -0.1018 0.5513 0.3954 0.052 Uiso 1 1 calc R U
C3 C 0.0704(6) 0.7597(4) 0.0322(4) 0.0698(12) Uani 1 1 d . U
C20 C 0.2702(4) 0.0904(4) 0.4105(3) 0.0472(10) Uani 1 1 d . .
C16 C 0.2631(6) 0.3299(4) 0.0410(4) 0.0637(13) Uani 1 1 d . .
H16 H 0.2657 0.3105 -0.0238 0.076 Uiso 1 1 calc R U
C23 C 0.4407(6) -0.0504(4) 0.2494(4) 0.0663(13) Uani 1 1 d . .
C17 C 0.3837(5) 0.3518(5) 0.0450(4) 0.0644(13) Uani 1 1 d . .
H17 H 0.4667 0.3456 -0.0164 0.077 Uiso 1 1 calc R U
C11 C -0.1008(5) 0.3155(5) 0.3770(4) 0.0665(13) Uani 1 1 d . .
H11A H -0.0656 0.2227 0.3823 0.100 Uiso 1 1 calc R U
H11B H -0.1535 0.3567 0.3211 0.100 Uiso 1 1 calc R U
H11C H -0.1617 0.3262 0.4517 0.100 Uiso 1 1 calc R U
C21 C 0.2128(5) 0.0237(4) 0.3749(4) 0.0614(12) Uani 1 1 d . .
H21 H 0.1161 0.0251 0.4048 0.074 Uiso 1 1 calc R U
C22 C 0.2983(6) -0.0455(5) 0.2950(4) 0.0679(13) Uani 1 1 d . .
H22 H 0.2580 -0.0902 0.2714 0.081 Uiso 1 1 calc R U
C26 C 0.4161(5) 0.0819(5) 0.3697(5) 0.0713(14) Uani 1 1 d . .
H26 H 0.4572 0.1237 0.3952 0.086 Uiso 1 1 calc R U
C2 C -0.0371(7) 0.8649(5) 0.0031(5) 0.0832(13) Uani 1 1 d . U
H2 H -0.1194 0.8895 0.0597 0.100 Uiso 1 1 calc R U
C25 C 0.4988(5) 0.0103(5) 0.2904(5) 0.0778(15) Uani 1 1 d . .
H25 H 0.5966 0.0030 0.2641 0.093 Uiso 1 1 calc R U
C4 C 0.1919(7) 0.7231(6) -0.0516(5) 0.0883(14) Uani 1 1 d . U
H4 H 0.2631 0.6514 -0.0299 0.106 Uiso 1 1 calc R U
C24 C 0.5324(6) -0.1205(6) 0.1577(5) 0.102(2) Uani 1 1 d . .
H24A H 0.6012 -0.1940 0.1880 0.153 Uiso 1 1 calc R U
H24B H 0.5806 -0.0599 0.0906 0.153 Uiso 1 1 calc R U
H24C H 0.4740 -0.1524 0.1361 0.153 Uiso 1 1 calc R U
C1 C -0.0174(8) 0.9350(5) -0.1175(5) 0.0962(14) Uani 1 1 d . U
H1 H -0.0875 1.0061 -0.1419 0.115 Uiso 1 1 calc R U
C6 C 0.1054(8) 0.8955(6) -0.1951(6) 0.1021(15) Uani 1 1 d . U
H6 H 0.1185 0.9438 -0.2730 0.122 Uiso 1 1 calc R U
C5 C 0.2091(8) 0.7922(6) -0.1680(5) 0.1055(16) Uani 1 1 d . U
H5 H 0.2904 0.7674 -0.2254 0.127 Uiso 1 1 calc R U
O5 O 0.3976(5) 0.4757(4) 0.4702(4) 0.1108(14) Uani 1 1 d . .
C28 C 0.4855(7) 0.5655(7) 0.3900(5) 0.107(2) Uani 1 1 d . .
H28A H 0.4344 0.6348 0.3382 0.128 Uiso 1 1 calc R U
H28B H 0.5699 0.5185 0.3431 0.128 Uiso 1 1 calc R U
C27 C 0.4733(7) 0.3753(7) 0.5463(6) 0.114(2) Uani 1 1 d . .
H27A H 0.5577 0.3260 0.5015 0.137 Uiso 1 1 calc R U
H27B H 0.4141 0.3139 0.6012 0.137 Uiso 1 1 calc R U
loop_
_atom_site_aniso_label
_atom_site_aniso_U_11
_atom_site_aniso_U_22
_atom_site_aniso_U_33
_atom_site_aniso_U_23
_atom_site_aniso_U_13
_atom_site_aniso_U_12
S1 0.0667(8) 0.0431(6) 0.0404(6) -0.0041(4) -0.0202(6) -0.0133(5)
N1 0.063(2) 0.0411(19) 0.0452(19) -0.0041(15) -0.0271(18) -0.0129(17)
O4 0.070(2) 0.0602(18) 0.0434(16) -0.0023(14) 0.0006(15) -0.0287(16)
N2 0.050(2) 0.0445(18) 0.0331(17) -0.0078(14) -0.0160(15) -0.0115(16)
O3 0.097(2) 0.0558(18) 0.0595(19) -0.0066(15) -0.0482(18) -0.0139(17)
O1 0.077(2) 0.0599(19) 0.067(2) -0.0020(15) -0.0330(18) -0.0315(18)
O2 0.067(2) 0.072(2) 0.076(2) -0.0061(17) -0.0435(18) -0.0169(17)
C14 0.049(2) 0.034(2) 0.036(2) -0.0113(16) -0.0165(19) -0.0091(18)
C12 0.043(2) 0.043(2) 0.039(2) -0.0098(17) -0.0154(19) -0.0129(18)
C13 0.049(2) 0.041(2) 0.039(2) -0.0059(17) -0.0218(19) -0.0132(19)
C19 0.045(2) 0.037(2) 0.038(2) -0.0095(16) -0.0150(19) -0.0082(18)
C7 0.060(3) 0.038(2) 0.051(3) -0.0109(19) -0.025(2) -0.010(2)
C15 0.065(3) 0.053(3) 0.047(3) -0.018(2) -0.022(2) -0.014(2)
C8 0.047(3) 0.044(2) 0.052(2) -0.0144(19) -0.017(2) -0.008(2)
C18 0.045(3) 0.053(3) 0.050(3) -0.010(2) -0.012(2) -0.013(2)
C10 0.059(3) 0.039(2) 0.040(2) -0.0146(17) -0.019(2) -0.0071(19)
C9 0.047(2) 0.044(2) 0.039(2) -0.0163(18) -0.0128(19) -0.0036(19)
C3 0.115(3) 0.050(2) 0.070(2) 0.0076(19) -0.060(2) -0.038(2)
C20 0.048(3) 0.038(2) 0.052(2) -0.0055(18) -0.017(2) -0.0094(19)
C16 0.089(4) 0.063(3) 0.045(3) -0.022(2) -0.021(3) -0.016(3)
C23 0.064(4) 0.050(3) 0.073(3) -0.016(2) -0.020(3) -0.001(2)
C17 0.065(3) 0.068(3) 0.043(3) -0.020(2) 0.001(2) -0.008(3)
C11 0.064(3) 0.070(3) 0.068(3) -0.016(2) -0.017(3) -0.023(3)
C21 0.056(3) 0.058(3) 0.077(3) -0.023(2) -0.020(3) -0.016(2)
C22 0.073(4) 0.061(3) 0.080(3) -0.031(3) -0.033(3) -0.002(3)
C26 0.060(3) 0.058(3) 0.105(4) -0.023(3) -0.035(3) -0.011(3)
C2 0.132(3) 0.051(2) 0.093(3) 0.003(2) -0.076(2) -0.030(2)
C25 0.048(3) 0.061(3) 0.107(4) -0.024(3) -0.012(3) -0.003(3)
C4 0.122(3) 0.082(3) 0.066(2) 0.018(2) -0.048(2) -0.048(2)
C24 0.099(5) 0.084(4) 0.091(4) -0.037(3) -0.008(4) 0.010(3)
C1 0.147(3) 0.064(2) 0.105(3) 0.013(2) -0.084(3) -0.041(3)
C6 0.151(4) 0.082(3) 0.090(3) 0.026(2) -0.067(3) -0.067(3)
C5 0.141(3) 0.099(3) 0.079(3) 0.021(2) -0.051(3) -0.060(3)
O5 0.115(3) 0.112(3) 0.126(3) 0.000(3) -0.071(3) -0.048(3)
C28 0.119(5) 0.112(5) 0.101(5) 0.014(4) -0.059(4) -0.057(4)
C27 0.123(5) 0.109(5) 0.132(6) 0.017(4) -0.089(5) -0.050(4)
loop_
_atom_type_symbol
_atom_type_description
_atom_type_scat_dispersion_real
_atom_type_scat_dispersion_imag
_atom_type_scat_source
C C 0.0033 0.0016 'International Tables Vol C Tables 4.2.6.8 and 6.1.1.4'
H H 0.0000 0.0000 'International Tables Vol C Tables 4.2.6.8 and 6.1.1.4'
N N 0.0061 0.0033 'International Tables Vol C Tables 4.2.6.8 and 6.1.1.4'
O O 0.0106 0.0060 'International Tables Vol C Tables 4.2.6.8 and 6.1.1.4'
S S 0.1246 0.1234 'International Tables Vol C Tables 4.2.6.8 and 6.1.1.4'
loop_
_geom_angle_atom_site_label_1
_geom_angle_atom_site_label_2
_geom_angle_atom_site_label_3
_geom_angle
_geom_angle_site_symmetry_3
O4 S1 O3 119.88(19) .
O4 S1 N2 105.31(17) .
O3 S1 N2 104.87(17) .
O4 S1 C20 108.41(19) .
O3 S1 C20 108.2(2) .
N2 S1 C20 109.89(17) .
C8 N1 C7 113.1(3) .
C8 N1 C3 122.4(3) .
C7 N1 C3 124.2(4) .
C13 N2 C12 97.5(3) .
C13 N2 S1 120.1(2) .
C12 N2 S1 124.6(2) .
C15 C14 C19 120.4(4) .
C15 C14 C12 132.4(4) .
C19 C14 C12 107.1(3) .
C11 C12 N2 118.9(3) .
C11 C12 C14 117.5(3) .
N2 C12 C14 101.5(3) .
C11 C12 C9 114.3(3) .
N2 C12 C9 95.0(3) .
C14 C12 C9 106.6(3) .
N2 C13 C19 101.9(3) .
N2 C13 C10 97.1(3) .
C19 C13 C10 106.3(3) .
C18 C19 C14 121.5(4) .
C18 C19 C13 132.0(4) .
C14 C19 C13 106.4(3) .
O1 C7 N1 124.8(4) .
O1 C7 C10 127.1(4) .
N1 C7 C10 108.1(4) .
C14 C15 C16 118.3(4) .
O2 C8 N1 124.8(4) .
O2 C8 C9 127.3(4) .
N1 C8 C9 107.9(3) .
C19 C18 C17 118.0(4) .
C7 C10 C9 104.9(3) .
C7 C10 C13 114.6(3) .
C9 C10 C13 103.4(3) .
C8 C9 C10 106.0(3) .
C8 C9 C12 112.8(3) .
C10 C9 C12 103.8(3) .
C2 C3 C4 121.3(5) .
C2 C3 N1 120.2(5) .
C4 C3 N1 118.5(4) .
C21 C20 C26 119.4(4) .
C21 C20 S1 120.2(3) .
C26 C20 S1 120.3(4) .
C17 C16 C15 121.2(4) .
C22 C23 C25 117.9(5) .
C22 C23 C24 121.5(5) .
C25 C23 C24 120.6(5) .
C16 C17 C18 120.5(4) .
C20 C21 C22 120.0(4) .
C23 C22 C21 121.8(5) .
C25 C26 C20 118.9(5) .
C3 C2 C1 117.4(6) .
C23 C25 C26 121.9(5) .
C3 C4 C5 120.5(6) .
C6 C1 C2 118.4(6) .
C5 C6 C1 124.7(6) .
C6 C5 C4 117.7(7) .
C27 O5 C28 109.1(4) .
O5 C28 C27 109.8(5) 2_666
O5 C27 C28 110.5(5) 2_666
loop_
_geom_bond_atom_site_label_1
_geom_bond_atom_site_label_2
_geom_bond_distance
_geom_bond_site_symmetry_2
S1 O4 1.423(3) .
S1 O3 1.432(3) .
S1 N2 1.646(3) .
S1 C20 1.756(4) .
N1 C8 1.384(5) .
N1 C7 1.400(5) .
N1 C3 1.431(5) .
N2 C13 1.500(5) .
N2 C12 1.514(5) .
O1 C7 1.212(5) .
O2 C8 1.209(5) .
C14 C15 1.373(5) .
C14 C19 1.389(5) .
C14 C12 1.520(5) .
C12 C11 1.509(6) .
C12 C9 1.569(5) .
C13 C19 1.515(5) .
C13 C10 1.557(5) .
C19 C18 1.372(5) .
C7 C10 1.494(6) .
C15 C16 1.382(6) .
C8 C9 1.491(5) .
C18 C17 1.387(6) .
C10 C9 1.528(5) .
C3 C2 1.375(7) .
C3 C4 1.375(8) .
C20 C21 1.372(6) .
C20 C26 1.392(6) .
C16 C17 1.381(6) .
C23 C22 1.365(6) .
C23 C25 1.375(7) .
C23 C24 1.504(7) .
C21 C22 1.377(6) .
C26 C25 1.382(7) .
C2 C1 1.430(7) .
C4 C5 1.385(7) .
C1 C6 1.349(9) .
C6 C5 1.334(9) .
O5 C27 1.424(6) .
O5 C28 1.426(7) .
C28 C27 1.469(8) 2_666
C27 C28 1.469(8) 2_666
