#------------------------------------------------------------------------------
#$Date: 2017-05-05 00:20:26 +0300 (Fri, 05 May 2017) $
#$Revision: 196069 $
#$URL: file:///home/coder/svn-repositories/cod/cif/1/54/59/1545935.cif $
#------------------------------------------------------------------------------
#
# This file is available in the Crystallography Open Database (COD),
# http://www.crystallography.net/
#
# All data on this site have been placed in the public domain by the
# contributors.
#
data_1545935
loop_
_publ_author_name
'Rajkumar, Sundaram'
'Clarkson, Guy J.'
'Shipman, Michael'
_publ_section_title
;
 Regio- and Stereocontrolled Synthesis of 3-Substituted 1,2-Diazetidines
 by Asymmetric Allylic Amination of Vinyl Epoxide.
;
_journal_issue                   8
_journal_name_full               'Organic letters'
_journal_page_first              2058
_journal_page_last               2061
_journal_paper_doi               10.1021/acs.orglett.7b00653
_journal_volume                  19
_journal_year                    2017
_chemical_absolute_configuration ad
_chemical_formula_moiety         'C21 H22 N2 O6 S'
_chemical_formula_sum            'C21 H22 N2 O6 S'
_chemical_formula_weight         430.46
_space_group_crystal_system      monoclinic
_space_group_IT_number           9
_space_group_name_Hall           'C -2yc'
_space_group_name_H-M_alt        'C 1 c 1'
_symmetry_space_group_name_Hall  'C -2yc'
_symmetry_space_group_name_H-M   'C 1 c 1'
_atom_sites_solution_hydrogens   geom
_audit_creation_date             2015-11-29
_audit_creation_method
;
Olex2 1.2
(compiled 2015.09.30 svn.r3233 for OlexSys, GUI svn.r5103)
;
_cell_angle_alpha                90
_cell_angle_beta                 123.5490(10)
_cell_angle_gamma                90
_cell_formula_units_Z            4
_cell_length_a                   26.0091(5)
_cell_length_b                   6.21570(10)
_cell_length_c                   15.4618(2)
_cell_measurement_reflns_used    7091
_cell_measurement_temperature    175(2)
_cell_measurement_theta_max      76.8230
_cell_measurement_theta_min      5.7130
_cell_volume                     2083.22(6)
_computing_cell_refinement       'CrysAlisPro 1.171.38.41 (Rigaku OD, 2015)'
_computing_data_collection       'CrysAlisPro 1.171.38.41 (Rigaku OD, 2015)'
_computing_data_reduction        'CrysAlisPro 1.171.38.41 (Rigaku OD, 2015)'
_computing_molecular_graphics    'Olex2 (Dolomanov et al., 2009)'
_computing_publication_material  'Olex2 (Dolomanov et al., 2009)'
_computing_structure_refinement  'ShelXL (Sheldrick, 2015)'
_computing_structure_solution    'ShelXT (Sheldrick, 2015)'
_diffrn_ambient_environment      N~2~
_diffrn_ambient_temperature      175(2)
_diffrn_detector                 'CCD plate'
_diffrn_detector_area_resol_mean 10.2833
_diffrn_detector_type            Ruby
_diffrn_measured_fraction_theta_full 1.000
_diffrn_measured_fraction_theta_max 0.995
_diffrn_measurement_details
;
List of Runs (angles in degrees, time in seconds):

  # Type    Start    End  Width  t~exp~   \w     \q     \k     \f   Frames
--------------------------------------------------------------------------
  1  \w    -87.00 -61.00   1.00   25.00    --  -41.71 128.00   0.00   26
  2  \w    -69.00  31.00   1.00   25.00    --  -41.71  57.00-120.00  100
  3  \w    -65.00  29.00   1.00   25.00    --  -41.71  57.00 150.00   94
  4  \w     10.00  46.00   1.00   25.00    --   41.71  77.00 -90.00   36
  5  \w     49.00  77.00   1.00   25.00    --   41.71  38.00 -60.00   28
  6  \w     12.00  70.00   1.00   25.00    --   41.71  77.00 -30.00   58
  7  \w      8.00  36.00   1.00   25.00    --   41.71  19.00 -60.00   28
  8  \w     25.00  68.00   1.00   25.00    --   41.71  57.00  60.00   43
  9  \w     15.00  58.00   1.00   25.00    --   41.71  57.00  30.00   43
 10  \w     19.00  70.00   1.00   25.00    --   41.71  38.00-120.00   51
 11  \w     14.00  89.00   1.00   25.00    --   41.71  57.00 -60.00   75
 12  \w     85.00 111.00   1.00  100.00    --  114.00  61.00   0.00   26
 13  \w     85.00 111.00   1.00  100.00    --  114.00  61.00 -60.00   26
 14  \w     81.00 107.00   1.00  100.00    --  114.00  77.00 -30.00   26
 15  \w    119.00 145.00   1.00  100.00    --  114.00  61.00 -90.00   26
 16  \w     32.00 107.00   1.00  100.00    --  114.00 -95.00-150.00   75
 17  \w     85.00 110.00   1.00  100.00    --  114.00  61.00 -90.00   25
 18  \w    119.00 146.00   1.00  100.00    --  114.00 -77.00 -60.00   27
 19  \w     81.00 107.00   1.00  100.00    --  114.00  77.00-120.00   26
 20  \w    130.00 158.00   1.00  100.00    --  114.00  77.00 -60.00   28
 21  \w     92.00 117.00   1.00  100.00    --  114.00  45.00-150.00   25
 22  \w    128.00 175.00   1.00  100.00    --  114.00  77.00-120.00   47
 23  \w     81.00 107.00   1.00  100.00    --  114.00  77.00 150.00   26
 24  \w     85.00 112.00   1.00  100.00    --  114.00  61.00-150.00   27
 25  \w    126.00 153.00   1.00  100.00    --  114.00  61.00-150.00   27
 26  \w     85.00 111.00   1.00  100.00    --  114.00  61.00 -30.00   26
 27  \w    130.00 178.00   1.00  100.00    --  114.00  77.00 -90.00   48
 28  \w     81.00 107.00   1.00  100.00    --  114.00  77.00 -60.00   26
 29  \w    119.00 145.00   1.00  100.00    --  114.00  61.00-120.00   26
 30  \w     82.00 107.00   1.00  100.00    --  114.00  77.00 -90.00   25
 31  \w    128.00 178.00   1.00  100.00    --  114.00  77.00-150.00   50
 32  \w     59.00 107.00   1.00  100.00    --  114.00-111.00 120.00   48
 33  \w     92.00 162.00   1.00  100.00    --  114.00  45.00   0.00   70
 34  \w     88.00 114.00   1.00  100.00    --  114.00  45.00 -30.00   26
 35  \w     81.00 171.00   1.00  100.00    --  114.00  77.00   0.00   90
 36  \w     88.00 115.00   1.00  100.00    --  114.00  45.00 -60.00   27
 37  \w     86.00 111.00   1.00  100.00    --  114.00  61.00-180.00   25
 38  \w     81.00 107.00   1.00  100.00    --  114.00  77.00-150.00   26
 39  \w     88.00 115.00   1.00  100.00    --  114.00  45.00-120.00   27
 40  \w     87.00 112.00   1.00  100.00    --  114.00  30.00 -30.00   25
 41  \w     88.00 115.00   1.00  100.00    --  114.00  45.00 -90.00   27
 42  \w     89.00 114.00   1.00  100.00    --  114.00  45.00  30.00   25
 43  \w     89.00 116.00   1.00  100.00    --  114.00  30.00 -90.00   27
 44  \w     88.00 115.00   1.00  100.00    --  114.00  30.00 -60.00   27
 45  \w     88.00 157.00   1.00  100.00    --  114.00  30.00   0.00   69
 46  \w     85.00 112.00   1.00  100.00    --  114.00  61.00  30.00   27
 47  \w     39.00  67.00   1.00  100.00    --  114.00 -95.00-180.00   28
 48  \w    141.00 172.00   1.00  100.00    --  114.00  77.00 -30.00   31
 49  \w     81.00 108.00   1.00  100.00    --  114.00  77.00-180.00   27
 50  \w     86.00 111.00   1.00  100.00    --  114.00  61.00-120.00   25
 51  \w     39.00 101.00   1.00  100.00    --  114.00 -77.00 -60.00   62
;
_diffrn_measurement_device       'four-circle diffractometer'
_diffrn_measurement_device_type  'Xcalibur, Ruby, Gemini'
_diffrn_measurement_method       '\w scans'
_diffrn_orient_matrix_type
'CrysAlisPro convention (1999,Acta A55,543-557)'
_diffrn_orient_matrix_UB_11      0.0572949000
_diffrn_orient_matrix_UB_12      -0.0031699000
_diffrn_orient_matrix_UB_13      0.0629635000
_diffrn_orient_matrix_UB_21      -0.0419069000
_diffrn_orient_matrix_UB_22      0.0168788000
_diffrn_orient_matrix_UB_23      0.0772575000
_diffrn_orient_matrix_UB_31      -0.0036013000
_diffrn_orient_matrix_UB_32      -0.2472345000
_diffrn_orient_matrix_UB_33      0.0044035000
_diffrn_radiation_monochromator  graphite
_diffrn_radiation_probe          x-ray
_diffrn_radiation_type           CuK\a
_diffrn_radiation_wavelength     1.54178
_diffrn_reflns_av_R_equivalents  0.0281
_diffrn_reflns_av_unetI/netI     0.0269
_diffrn_reflns_Laue_measured_fraction_full 1.000
_diffrn_reflns_Laue_measured_fraction_max 0.995
_diffrn_reflns_limit_h_max       32
_diffrn_reflns_limit_h_min       -31
_diffrn_reflns_limit_k_max       7
_diffrn_reflns_limit_k_min       -6
_diffrn_reflns_limit_l_max       19
_diffrn_reflns_limit_l_min       -18
_diffrn_reflns_number            11575
_diffrn_reflns_point_group_measured_fraction_full 0.829
_diffrn_reflns_point_group_measured_fraction_max 0.805
_diffrn_reflns_theta_full        67.679
_diffrn_reflns_theta_max         77.796
_diffrn_reflns_theta_min         4.079
_diffrn_source                   'fine-focus sealed X-ray tube'
_diffrn_source_type              'Enhance (Cu) X-ray Source'
_exptl_absorpt_coefficient_mu    1.736
_exptl_absorpt_correction_T_max  1.00000
_exptl_absorpt_correction_T_min  0.26368
_exptl_absorpt_correction_type   multi-scan
_exptl_absorpt_process_details
;
CrysAlisPro 1.171.38.41 (Rigaku Oxford Diffraction, 2015)
Empirical absorption correction using spherical harmonics,
 implemented in SCALE3 ABSPACK scaling algorithm.
;
_exptl_crystal_colour            colourless
_exptl_crystal_colour_primary    colourless
_exptl_crystal_density_diffrn    1.372
_exptl_crystal_description       block
_exptl_crystal_F_000             904
_exptl_crystal_size_max          0.2
_exptl_crystal_size_mid          0.1
_exptl_crystal_size_min          0.08
_refine_diff_density_max         0.188
_refine_diff_density_min         -0.151
_refine_diff_density_rms         0.038
_refine_ls_abs_structure_details
;
 Flack x determined using 1263 quotients [(I+)-(I-)]/[(I+)+(I-)]
 (Parsons, Flack and Wagner, Acta Cryst. B69 (2013) 249-259).

Flack x: 0.031(10) (Shelxl 2014)
Hooft y: 0.032(8) (Olex2)
;
_refine_ls_abs_structure_Flack   0.031(10)
_refine_ls_extinction_method     none
_refine_ls_goodness_of_fit_ref   1.066
_refine_ls_hydrogen_treatment    constr
_refine_ls_matrix_type           full
_refine_ls_number_parameters     273
_refine_ls_number_reflns         3572
_refine_ls_number_restraints     2
_refine_ls_restrained_S_all      1.065
_refine_ls_R_factor_all          0.0297
_refine_ls_R_factor_gt           0.0289
_refine_ls_shift/su_max          0.000
_refine_ls_shift/su_mean         0.000
_refine_ls_structure_factor_coef Fsqd
_refine_ls_weighting_details
'w=1/[\s^2^(Fo^2^)+(0.0515P)^2^+0.3489P] where P=(Fo^2^+2Fc^2^)/3'
_refine_ls_weighting_scheme      calc
_refine_ls_wR_factor_gt          0.0811
_refine_ls_wR_factor_ref         0.0819
_reflns_Friedel_coverage         0.618
_reflns_Friedel_fraction_full    0.658
_reflns_Friedel_fraction_max     0.616
_reflns_number_gt                3488
_reflns_number_total             3572
_reflns_threshold_expression     'I > 2\s(I)'
_iucr_refine_instructions_details
;

    rs1.res created by SHELXL-2014/7

TITL rs1_a.res in Cc
REM Old TITL rs1 in Cc #9
REM SHELXT solution in Cc
REM R1 0.245, Rweak 0.027, Alpha 0.001, Orientation as input
REM Flack x = -0.419 ( 0.168 ) from Parsons' quotients
REM Formula found by SHELXT: C22 N2 O6
CELL 1.54178 26.0091 6.2157 15.4618 90 123.549 90
ZERR 4 0.0005 0.0001 0.0002 0 0.001 0
LATT -7
SYMM +X,-Y,0.5+Z
SFAC C H N O S
UNIT 84 88 8 24 4
 
L.S. 8 0 0
PLAN  20
TEMP -98(2)
BOND $H
LIST 6
MORE -1
CONF
fmap 2 53
acta
REM <olex2.extras>
REM <HklSrc "%./rs1.hkl">
REM </olex2.extras>
 
WGHT    0.051500    0.348900
FVAR       0.41176
C1    1    0.418312    0.928060    0.685587    11.00000    0.04199    0.05251 =
         0.04209    0.00207    0.02264    0.00702
AFIX  43
H1    2    0.444470    0.807877    0.719705    11.00000   -1.20000
AFIX   0
C2    1    0.356484    0.915774    0.650230    11.00000    0.04650    0.06010 =
         0.05362   -0.00141    0.03035   -0.00476
AFIX  43
H2    2    0.340331    0.786846    0.659213    11.00000   -1.20000
AFIX   0
C3    1    0.318251    1.091015    0.601866    11.00000    0.03528    0.07941 =
         0.04734   -0.00243    0.02124    0.00463
AFIX  43
H3    2    0.275820    1.082836    0.577451    11.00000   -1.20000
AFIX   0
C4    1    0.342200    1.278626    0.589227    11.00000    0.04557    0.06120 =
         0.04806    0.00368    0.02231    0.01585
AFIX  43
H4    2    0.316163    1.399837    0.556756    11.00000   -1.20000
AFIX   0
C5    1    0.403686    1.290377    0.623558    11.00000    0.04619    0.04779 =
         0.04247   -0.00177    0.02492    0.00458
AFIX  43
H5    2    0.419691    1.419399    0.614326    11.00000   -1.20000
AFIX   0
C6    1    0.442409    1.113792    0.671718    11.00000    0.03693    0.05017 =
         0.03161   -0.00800    0.01921    0.00237
C7    1    0.508822    1.128437    0.707091    11.00000    0.03982    0.05115 =
         0.04348   -0.01369    0.02295   -0.00040
AFIX  23
H7A   2    0.522447    1.280343    0.722144    11.00000   -1.20000
H7B   2    0.534492    1.044613    0.771809    11.00000   -1.20000
AFIX   0
O8    4    0.517300    1.045530    0.627648    11.00000    0.03979    0.03885 =
         0.04374   -0.00241    0.02660    0.00294
C9    1    0.533174    0.836991    0.635732    11.00000    0.02520    0.04145 =
         0.03236    0.00027    0.01413    0.00205
O9    4    0.540678    0.712115    0.700454    11.00000    0.04983    0.05365 =
         0.03831    0.00926    0.02660    0.00965
N10   3    0.543200    0.795894    0.557741    11.00000    0.02923    0.03011 =
         0.03347    0.00184    0.01710    0.00175
C11   1    0.500469    0.871301    0.449084    11.00000    0.03345    0.03244 =
         0.03261    0.00254    0.01604   -0.00103
AFIX  23
H11A  2    0.520218    0.964330    0.423461    11.00000   -1.20000
H11B  2    0.461961    0.936882    0.435428    11.00000   -1.20000
AFIX   0
C12   1    0.493427    0.634522    0.414460    11.00000    0.02897    0.03047 =
         0.03292    0.00153    0.01734   -0.00058
AFIX  13
H12   2    0.510412    0.606733    0.371165    11.00000   -1.20000
AFIX   0
N12   3    0.537605    0.571929    0.526358    11.00000    0.02696    0.02973 =
         0.03638    0.00125    0.01751    0.00116
C13   1    0.430579    0.541556    0.368320    11.00000    0.03011    0.03788 =
         0.03214   -0.00051    0.01568   -0.00130
AFIX  43
H13   2    0.397516    0.604796    0.306274    11.00000   -1.20000
AFIX   0
C14   1    0.417570    0.377640    0.407495    11.00000    0.03027    0.03363 =
         0.03785   -0.00083    0.01859   -0.00064
AFIX  43
H14   2    0.449419    0.314445    0.470809    11.00000   -1.20000
AFIX   0
C15   1    0.353954    0.290897    0.354031    11.00000    0.03366    0.04157 =
         0.04300   -0.00354    0.02248   -0.00381
O15   4    0.307879    0.386002    0.291912    11.00000    0.03141    0.05646 =
         0.06780    0.00627    0.01884   -0.00055
O16   4    0.355122    0.086870    0.383220    11.00000    0.03677    0.04343 =
         0.05626   -0.00057    0.02446   -0.01059
C17   1    0.296122   -0.019658    0.334387    11.00000    0.04738    0.06092 =
         0.07203   -0.00657    0.03274   -0.02038
AFIX 137
H17A  2    0.273914   -0.003784    0.258904    11.00000   -1.50000
H17B  2    0.271905    0.045250    0.358605    11.00000   -1.50000
H17C  2    0.302482   -0.172780    0.352494    11.00000   -1.50000
AFIX   0
O18A  4    0.644428    0.475742    0.669499    11.00000    0.03449    0.07132 =
         0.05382    0.02806    0.02259    0.01152
S18   5    0.606130    0.467878    0.558920    11.00000    0.03083    0.03105 =
         0.05021    0.00824    0.02346    0.00520
O18B  4    0.589096    0.268767    0.503540    11.00000    0.05418    0.02786 =
         0.10609   -0.00412    0.05196    0.00021
C19   1    0.638139    0.637683    0.509359    11.00000    0.02600    0.03433 =
         0.03701    0.00117    0.01853    0.00364
C20   1    0.667860    0.825656    0.561829    11.00000    0.03317    0.03699 =
         0.04233   -0.00597    0.02458   -0.00097
AFIX  43
H20   2    0.672984    0.859396    0.626086    11.00000   -1.20000
AFIX   0
C21   1    0.689995    0.963662    0.518873    11.00000    0.03749    0.03472 =
         0.06287   -0.00200    0.03293    0.00035
AFIX  43
H21   2    0.710491    1.092282    0.554540    11.00000   -1.20000
AFIX   0
C22   1    0.682781    0.917488    0.425052    11.00000    0.03216    0.05229 =
         0.05495    0.01766    0.02805    0.01150
C23   1    0.655032    0.723671    0.376274    11.00000    0.03163    0.08093 =
         0.03482    0.00220    0.01979    0.00935
AFIX  43
H23   2    0.651759    0.686723    0.313789    11.00000   -1.20000
AFIX   0
C24   1    0.632053    0.583268    0.416784    11.00000    0.02995    0.04869 =
         0.03816   -0.00790    0.01732    0.00204
AFIX  43
H24   2    0.612574    0.452732    0.382073    11.00000   -1.20000
AFIX   0
C25   1    0.704363    1.075124    0.377013    11.00000    0.05051    0.08195 =
         0.07982    0.03868    0.04462    0.01603
AFIX 137
H25A  2    0.720706    0.995939    0.342416    11.00000   -1.50000
H25B  2    0.736798    1.166973    0.431379    11.00000   -1.50000
H25C  2    0.669568    1.164599    0.326118    11.00000   -1.50000
AFIX   0
HKLF 4
 
REM  rs1_a.res in Cc
REM R1 =  0.0289 for    3488 Fo > 4sig(Fo)  and  0.0297 for all    3572 data
REM    273 parameters refined using      2 restraints
 
END  
     
WGHT      0.0515      0.3517 

REM Highest difference peak  0.188,  deepest hole -0.151,  1-sigma level  0.038
Q1    1   0.5649  0.5200  0.5342  11.00000  0.05    0.19
Q2    1   0.6258  0.5608  0.5305  11.00000  0.05    0.17
Q3    1   0.6664  0.9389  0.4539  11.00000  0.05    0.17
Q4    1   0.4618  0.6060  0.3980  11.00000  0.05    0.14
Q5    1   0.5263  0.8374  0.5109  11.00000  0.05    0.14
Q6    1   0.6013  0.1612  0.5533  11.00000  0.05    0.14
Q7    1   0.6594  0.5843  0.5024  11.00000  0.05    0.13
Q8    1   0.7012  1.2774  0.5433  11.00000  0.05    0.13
Q9    1   0.5019  0.2291  0.4551  11.00000  0.05    0.13
Q10   1   0.5379  0.6569  0.5497  11.00000  0.05    0.13
Q11   1   0.6624  0.6682  0.5434  11.00000  0.05    0.13
Q12   1   0.2528 -0.2408  0.1796  11.00000  0.05    0.13
Q13   1   0.3755  1.2663  0.5823  11.00000  0.05    0.13
Q14   1   0.5299  0.8063  0.5760  11.00000  0.05    0.12
Q15   1   0.5181  0.5727  0.4741  11.00000  0.05    0.12
Q16   1   0.4666  1.0435  0.5565  11.00000  0.05    0.12
Q17   1   0.4994  0.2420  0.5149  11.00000  0.05    0.12
Q18   1   0.3210 -0.2080  0.4788  11.00000  0.05    0.11
Q19   1   0.5398  0.5114  0.5734  11.00000  0.05    0.11
Q20   1   0.4185  0.8176  0.5825  11.00000  0.05    0.11

  REM The information below was added by Olex2.
  REM
  REM R1 = 0.0289 for 3488 Fo > 4sig(Fo) and 0.0297 for all 12257 data
  REM n/a parameters refined using n/a restraints
  REM Highest difference peak 0.19, deepest hole -0.15
  REM Mean Shift 0, Max Shift 0.000.
  
  REM +++ Tabular Listing of Refinement Information +++
  REM R1_all = 0.0297
  REM R1_gt = 0.0289
  REM wR_ref = 0.0819
  REM GOOF = 1.066
  REM Shift_max = 0.000
  REM Shift_mean = 0
  REM Reflections_all = 12257
  REM Reflections_gt = 3488
  REM Parameters = n/a
  REM Hole = -0.15
  REM Peak = 0.19
  REM Flack = 0.031(10)
  
  
;
_cod_data_source_file            ol7b00653_si_004.cif
_cod_data_source_block           rs1
_cod_database_code               1545935
_shelx_space_group_comment
;
The symmetry employed for this shelxl refinement is uniquely defined
by the following loop, which should always be used as a source of
symmetry information in preference to the above space-group names.
They are only intended as comments.
;
_reflns_odcompleteness_completeness 99.96
_reflns_odcompleteness_iscentric 1
_reflns_odcompleteness_theta     74.59
_olex2_refinement_description
;
1. Fixed Uiso
 At 1.2 times of:
  All C(H) groups, All C(H,H) groups
 At 1.5 times of:
  All C(H,H,H) groups
2.a Ternary CH refined with riding coordinates:
 C12(H12)
2.b Secondary CH2 refined with riding coordinates:
 C7(H7A,H7B), C11(H11A,H11B)
2.c Aromatic/amide H refined with riding coordinates:
 C1(H1), C2(H2), C3(H3), C4(H4), C5(H5), C13(H13), C14(H14), C20(H20),
 C21(H21), C23(H23), C24(H24)
2.d Idealised Me refined as rotating group:
 C17(H17A,H17B,H17C), C25(H25A,H25B,H25C)
;
_shelx_shelxl_version_number     2014/7
_olex2_submission_special_instructions 'No special instructions were received'
_oxdiff_exptl_absorpt_empirical_details
;
Empirical correction (ABSPACK) includes:
- Absorption correction using spherical harmonics
- Frame scaling
;
_oxdiff_exptl_absorpt_empirical_full_max 3.094
_oxdiff_exptl_absorpt_empirical_full_min 0.755
loop_
_space_group_symop_operation_xyz
'x, y, z'
'x, -y, z+1/2'
'x+1/2, y+1/2, z'
'x+1/2, -y+1/2, z+1/2'
loop_
_atom_site_label
_atom_site_type_symbol
_atom_site_fract_x
_atom_site_fract_y
_atom_site_fract_z
_atom_site_U_iso_or_equiv
_atom_site_adp_type
_atom_site_occupancy
_atom_site_site_symmetry_order
_atom_site_calc_flag
_atom_site_refinement_flags_posn
C1 C 0.41831(14) 0.9281(5) 0.6856(2) 0.0458(6) Uani 1 1 d .
H1 H 0.4445 0.8079 0.7197 0.055 Uiso 1 1 calc R
C2 C 0.35648(14) 0.9158(6) 0.6502(2) 0.0520(7) Uani 1 1 d .
H2 H 0.3403 0.7868 0.6592 0.062 Uiso 1 1 calc R
C3 C 0.31825(14) 1.0910(6) 0.6019(3) 0.0549(7) Uani 1 1 d .
H3 H 0.2758 1.0828 0.5775 0.066 Uiso 1 1 calc R
C4 C 0.34220(15) 1.2786(6) 0.5892(2) 0.0535(7) Uani 1 1 d .
H4 H 0.3162 1.3998 0.5568 0.064 Uiso 1 1 calc R
C5 C 0.40369(14) 1.2904(5) 0.6236(2) 0.0453(6) Uani 1 1 d .
H5 H 0.4197 1.4194 0.6143 0.054 Uiso 1 1 calc R
C6 C 0.44241(12) 1.1138(5) 0.67172(19) 0.0394(5) Uani 1 1 d .
C7 C 0.50882(13) 1.1284(5) 0.7071(2) 0.0448(6) Uani 1 1 d .
H7A H 0.5224 1.2803 0.7221 0.054 Uiso 1 1 calc R
H7B H 0.5345 1.0446 0.7718 0.054 Uiso 1 1 calc R
O8 O 0.51730(8) 1.0455(3) 0.62765(15) 0.0389(4) Uani 1 1 d .
C9 C 0.53317(10) 0.8370(4) 0.63573(18) 0.0339(5) Uani 1 1 d .
O9 O 0.54068(10) 0.7121(4) 0.70045(15) 0.0461(4) Uani 1 1 d .
N10 N 0.54320(9) 0.7959(3) 0.55774(15) 0.0311(4) Uani 1 1 d .
C11 C 0.50047(11) 0.8713(4) 0.44908(18) 0.0340(5) Uani 1 1 d .
H11A H 0.5202 0.9643 0.4235 0.041 Uiso 1 1 calc R
H11B H 0.4620 0.9369 0.4354 0.041 Uiso 1 1 calc R
C12 C 0.49343(10) 0.6345(4) 0.41446(17) 0.0307(4) Uani 1 1 d .
H12 H 0.5104 0.6067 0.3712 0.037 Uiso 1 1 calc R
N12 N 0.53761(9) 0.5719(3) 0.52636(15) 0.0310(4) Uani 1 1 d .
C13 C 0.43058(11) 0.5416(4) 0.36832(18) 0.0342(5) Uani 1 1 d .
H13 H 0.3975 0.6048 0.3063 0.041 Uiso 1 1 calc R
C14 C 0.41757(10) 0.3776(4) 0.40750(18) 0.0340(5) Uani 1 1 d .
H14 H 0.4494 0.3144 0.4708 0.041 Uiso 1 1 calc R
C15 C 0.35395(11) 0.2909(4) 0.3540(2) 0.0387(5) Uani 1 1 d .
O15 O 0.30788(9) 0.3860(4) 0.2919(2) 0.0564(5) Uani 1 1 d .
O16 O 0.35512(9) 0.0869(3) 0.38322(17) 0.0461(4) Uani 1 1 d .
C17 C 0.29612(16) -0.0197(6) 0.3344(3) 0.0602(8) Uani 1 1 d .
H17A H 0.2739 -0.0038 0.2589 0.090 Uiso 1 1 calc GR
H17B H 0.2719 0.0453 0.3586 0.090 Uiso 1 1 calc GR
H17C H 0.3025 -0.1728 0.3525 0.090 Uiso 1 1 calc GR
O18A O 0.64443(10) 0.4757(4) 0.66950(18) 0.0542(6) Uani 1 1 d .
S18 S 0.60613(2) 0.46788(9) 0.55892(4) 0.03680(15) Uani 1 1 d .
O18B O 0.58910(11) 0.2688(3) 0.5035(2) 0.0586(6) Uani 1 1 d .
C19 C 0.63814(10) 0.6377(4) 0.50936(18) 0.0319(4) Uani 1 1 d .
C20 C 0.66786(11) 0.8257(4) 0.5618(2) 0.0355(5) Uani 1 1 d .
H20 H 0.6730 0.8594 0.6261 0.043 Uiso 1 1 calc R
C21 C 0.69000(13) 0.9637(4) 0.5189(2) 0.0423(6) Uani 1 1 d .
H21 H 0.7105 1.0923 0.5545 0.051 Uiso 1 1 calc R
C22 C 0.68278(12) 0.9175(5) 0.4251(2) 0.0444(6) Uani 1 1 d .
C23 C 0.65503(12) 0.7237(6) 0.3763(2) 0.0484(7) Uani 1 1 d .
H23 H 0.6518 0.6867 0.3138 0.058 Uiso 1 1 calc R
C24 C 0.63205(11) 0.5833(5) 0.4168(2) 0.0397(5) Uani 1 1 d .
H24 H 0.6126 0.4527 0.3821 0.048 Uiso 1 1 calc R
C25 C 0.70436(17) 1.0751(7) 0.3770(3) 0.0662(11) Uani 1 1 d .
H25A H 0.7207 0.9959 0.3424 0.099 Uiso 1 1 calc GR
H25B H 0.7368 1.1670 0.4314 0.099 Uiso 1 1 calc GR
H25C H 0.6696 1.1646 0.3261 0.099 Uiso 1 1 calc GR
loop_
_atom_site_aniso_label
_atom_site_aniso_U_11
_atom_site_aniso_U_22
_atom_site_aniso_U_33
_atom_site_aniso_U_23
_atom_site_aniso_U_13
_atom_site_aniso_U_12
C1 0.0420(14) 0.0525(16) 0.0421(13) 0.0021(11) 0.0226(12) 0.0070(11)
C2 0.0465(15) 0.0601(18) 0.0536(17) -0.0014(13) 0.0304(14) -0.0048(12)
C3 0.0353(13) 0.079(2) 0.0473(14) -0.0024(14) 0.0212(12) 0.0046(13)
C4 0.0456(15) 0.0612(19) 0.0481(15) 0.0037(13) 0.0223(12) 0.0158(13)
C5 0.0462(14) 0.0478(15) 0.0425(13) -0.0018(11) 0.0249(12) 0.0046(12)
C6 0.0369(12) 0.0502(15) 0.0316(11) -0.0080(10) 0.0192(10) 0.0024(10)
C7 0.0398(13) 0.0511(16) 0.0435(13) -0.0137(12) 0.0230(11) -0.0004(11)
O8 0.0398(9) 0.0389(10) 0.0437(9) -0.0024(7) 0.0266(8) 0.0029(7)
C9 0.0252(10) 0.0415(12) 0.0324(10) 0.0003(9) 0.0141(9) 0.0021(8)
O9 0.0498(10) 0.0537(12) 0.0383(9) 0.0093(8) 0.0266(9) 0.0096(9)
N10 0.0292(8) 0.0301(10) 0.0335(9) 0.0018(7) 0.0171(8) 0.0017(7)
C11 0.0334(11) 0.0324(12) 0.0326(11) 0.0025(8) 0.0160(9) -0.0010(8)
C12 0.0290(10) 0.0305(11) 0.0329(10) 0.0015(9) 0.0173(9) -0.0006(8)
N12 0.0270(8) 0.0297(9) 0.0364(10) 0.0012(7) 0.0175(8) 0.0012(7)
C13 0.0301(11) 0.0379(13) 0.0321(11) -0.0005(9) 0.0157(9) -0.0013(9)
C14 0.0303(10) 0.0336(12) 0.0378(11) -0.0008(9) 0.0186(9) -0.0006(8)
C15 0.0337(11) 0.0416(14) 0.0430(13) -0.0035(10) 0.0225(11) -0.0038(9)
O15 0.0314(9) 0.0565(13) 0.0678(13) 0.0063(11) 0.0188(9) -0.0005(8)
O16 0.0368(9) 0.0434(10) 0.0563(11) -0.0006(8) 0.0245(9) -0.0106(8)
C17 0.0474(17) 0.061(2) 0.072(2) -0.0066(16) 0.0327(17) -0.0204(14)
O18A 0.0345(9) 0.0713(15) 0.0538(11) 0.0281(10) 0.0226(9) 0.0115(9)
S18 0.0308(2) 0.0310(3) 0.0502(3) 0.0082(3) 0.0235(2) 0.0052(2)
O18B 0.0542(12) 0.0279(9) 0.1061(19) -0.0041(10) 0.0520(13) 0.0002(9)
C19 0.0260(9) 0.0343(12) 0.0370(11) 0.0012(9) 0.0185(9) 0.0036(8)
C20 0.0332(11) 0.0370(13) 0.0423(12) -0.0060(10) 0.0246(10) -0.0010(9)
C21 0.0375(12) 0.0347(13) 0.0629(17) -0.0020(11) 0.0329(13) 0.0003(9)
C22 0.0322(12) 0.0523(16) 0.0549(15) 0.0177(12) 0.0280(12) 0.0115(10)
C23 0.0316(11) 0.081(2) 0.0348(12) 0.0022(13) 0.0198(10) 0.0093(12)
C24 0.0300(11) 0.0487(14) 0.0382(12) -0.0079(10) 0.0173(10) 0.0020(9)
C25 0.0505(18) 0.082(3) 0.080(2) 0.039(2) 0.0446(18) 0.0160(16)
loop_
_atom_type_symbol
_atom_type_description
_atom_type_scat_dispersion_real
_atom_type_scat_dispersion_imag
_atom_type_scat_source
C C 0.0181 0.0091 'International Tables Vol C Tables 4.2.6.8 and 6.1.1.4'
H H 0.0000 0.0000 'International Tables Vol C Tables 4.2.6.8 and 6.1.1.4'
N N 0.0311 0.0180 'International Tables Vol C Tables 4.2.6.8 and 6.1.1.4'
O O 0.0492 0.0322 'International Tables Vol C Tables 4.2.6.8 and 6.1.1.4'
S S 0.3331 0.5567 'International Tables Vol C Tables 4.2.6.8 and 6.1.1.4'
loop_
_geom_angle_atom_site_label_1
_geom_angle_atom_site_label_2
_geom_angle_atom_site_label_3
_geom_angle
C2 C1 H1 119.7
C2 C1 C6 120.7(3)
C6 C1 H1 119.7
C1 C2 H2 120.0
C3 C2 C1 120.1(3)
C3 C2 H2 120.0
C2 C3 H3 120.2
C2 C3 C4 119.6(3)
C4 C3 H3 120.2
C3 C4 H4 119.8
C5 C4 C3 120.4(3)
C5 C4 H4 119.8
C4 C5 H5 119.8
C4 C5 C6 120.3(3)
C6 C5 H5 119.8
C1 C6 C5 118.9(3)
C1 C6 C7 121.5(3)
C5 C6 C7 119.6(3)
C6 C7 H7A 109.5
C6 C7 H7B 109.5
H7A C7 H7B 108.1
O8 C7 C6 110.6(2)
O8 C7 H7A 109.5
O8 C7 H7B 109.5
C9 O8 C7 116.4(2)
O8 C9 N10 106.9(2)
O9 C9 O8 127.1(2)
O9 C9 N10 125.8(2)
C9 N10 C11 122.69(19)
C9 N10 N12 115.64(19)
N12 N10 C11 92.88(17)
N10 C11 H11A 114.0
N10 C11 H11B 114.0
N10 C11 C12 87.86(17)
H11A C11 H11B 111.2
C12 C11 H11A 114.0
C12 C11 H11B 114.0
C11 C12 H12 112.7
N12 C12 C11 88.79(16)
N12 C12 H12 112.7
C13 C12 C11 115.10(18)
C13 C12 H12 112.7
C13 C12 N12 112.83(18)
N10 N12 C12 90.47(16)
N10 N12 S18 111.85(14)
C12 N12 S18 116.78(14)
C12 C13 H13 117.6
C14 C13 C12 124.7(2)
C14 C13 H13 117.6
C13 C14 H14 119.5
C13 C14 C15 120.9(2)
C15 C14 H14 119.5
O15 C15 C14 125.5(3)
O15 C15 O16 124.3(2)
O16 C15 C14 110.2(2)
C15 O16 C17 116.0(3)
O16 C17 H17A 109.5
O16 C17 H17B 109.5
O16 C17 H17C 109.5
H17A C17 H17B 109.5
H17A C17 H17C 109.5
H17B C17 H17C 109.5
N12 S18 C19 108.39(10)
O18A S18 N12 105.47(11)
O18A S18 O18B 121.85(16)
O18A S18 C19 108.43(12)
O18B S18 N12 103.08(12)
O18B S18 C19 108.84(13)
C20 C19 S18 119.65(17)
C20 C19 C24 121.0(2)
C24 C19 S18 119.3(2)
C19 C20 H20 120.5
C19 C20 C21 119.0(2)
C21 C20 H20 120.5
C20 C21 H21 119.3
C22 C21 C20 121.3(3)
C22 C21 H21 119.3
C21 C22 C23 118.4(2)
C21 C22 C25 120.5(3)
C23 C22 C25 121.1(3)
C22 C23 H23 119.2
C24 C23 C22 121.6(2)
C24 C23 H23 119.2
C19 C24 H24 120.7
C23 C24 C19 118.6(3)
C23 C24 H24 120.7
C22 C25 H25A 109.5
C22 C25 H25B 109.5
C22 C25 H25C 109.5
H25A C25 H25B 109.5
H25A C25 H25C 109.5
H25B C25 H25C 109.5
loop_
_geom_bond_atom_site_label_1
_geom_bond_atom_site_label_2
_geom_bond_distance
C1 H1 0.9500
C1 C2 1.385(4)
C1 C6 1.386(4)
C2 H2 0.9500
C2 C3 1.383(5)
C3 H3 0.9500
C3 C4 1.386(5)
C4 H4 0.9500
C4 C5 1.381(4)
C5 H5 0.9500
C5 C6 1.395(4)
C6 C7 1.499(3)
C7 H7A 0.9900
C7 H7B 0.9900
C7 O8 1.457(3)
O8 C9 1.345(3)
C9 O9 1.194(3)
C9 N10 1.391(3)
N10 C11 1.488(3)
N10 N12 1.455(3)
C11 H11A 0.9900
C11 H11B 0.9900
C11 C12 1.542(3)
C12 H12 1.0000
C12 N12 1.506(3)
C12 C13 1.492(3)
N12 S18 1.6901(19)
C13 H13 0.9500
C13 C14 1.321(4)
C14 H14 0.9500
C14 C15 1.483(3)
C15 O15 1.198(4)
C15 O16 1.341(4)
O16 C17 1.443(3)
C17 H17A 0.9800
C17 H17B 0.9800
C17 H17C 0.9800
O18A S18 1.427(2)
S18 O18B 1.429(2)
S18 C19 1.761(2)
C19 C20 1.388(4)
C19 C24 1.392(3)
C20 H20 0.9500
C20 C21 1.390(4)
C21 H21 0.9500
C21 C22 1.386(4)
C22 C23 1.393(5)
C22 C25 1.512(4)
C23 H23 0.9500
C23 C24 1.387(4)
C24 H24 0.9500
C25 H25A 0.9800
C25 H25B 0.9800
C25 H25C 0.9800
loop_
_geom_torsion_atom_site_label_1
_geom_torsion_atom_site_label_2
_geom_torsion_atom_site_label_3
_geom_torsion_atom_site_label_4
_geom_torsion
C1 C2 C3 C4 -0.1(5)
C1 C6 C7 O8 86.0(3)
C2 C1 C6 C5 1.4(4)
C2 C1 C6 C7 -178.5(3)
C2 C3 C4 C5 0.7(5)
C3 C4 C5 C6 -0.3(4)
C4 C5 C6 C1 -0.8(4)
C4 C5 C6 C7 179.1(3)
C5 C6 C7 O8 -93.9(3)
C6 C1 C2 C3 -1.0(5)
C6 C7 O8 C9 -93.5(3)
C7 O8 C9 O9 0.5(4)
C7 O8 C9 N10 -175.8(2)
O8 C9 N10 C11 -45.4(3)
O8 C9 N10 N12 -157.38(18)
C9 N10 C11 C12 -122.6(2)
C9 N10 N12 C12 128.04(19)
C9 N10 N12 S18 -112.71(18)
O9 C9 N10 C11 138.2(3)
O9 C9 N10 N12 26.3(3)
N10 C11 C12 N12 -0.54(15)
N10 C11 C12 C13 114.2(2)
N10 N12 S18 O18A 62.96(17)
N10 N12 S18 O18B -168.25(17)
N10 N12 S18 C19 -53.00(17)
C11 N10 N12 C12 -0.57(16)
C11 N10 N12 S18 118.68(15)
C11 C12 N12 N10 0.55(15)
C11 C12 N12 S18 -114.35(16)
C11 C12 C13 C14 -117.7(3)
C12 N12 S18 O18A 165.21(17)
C12 N12 S18 O18B -66.0(2)
C12 N12 S18 C19 49.25(19)
C12 C13 C14 C15 -177.7(2)
N12 N10 C11 C12 0.56(15)
N12 C12 C13 C14 -17.8(3)
N12 S18 C19 C20 79.6(2)
N12 S18 C19 C24 -99.06(19)
C13 C12 N12 N10 -116.29(19)
C13 C12 N12 S18 128.81(18)
C13 C14 C15 O15 -21.3(4)
C13 C14 C15 O16 157.2(2)
C14 C15 O16 C17 -178.2(2)
O15 C15 O16 C17 0.4(4)
O18A S18 C19 C20 -34.4(2)
O18A S18 C19 C24 146.91(19)
S18 C19 C20 C21 -176.61(19)
S18 C19 C24 C23 177.07(19)
O18B S18 C19 C20 -169.0(2)
O18B S18 C19 C24 12.4(2)
C19 C20 C21 C22 0.2(4)
C20 C19 C24 C23 -1.6(4)
C20 C21 C22 C23 -2.8(4)
C20 C21 C22 C25 176.9(3)
C21 C22 C23 C24 3.3(4)
C22 C23 C24 C19 -1.1(4)
C24 C19 C20 C21 2.0(4)
C25 C22 C23 C24 -176.4(3)
loop_
_refln_index_h
_refln_index_k
_refln_index_l
_refln_F_squared_meas
_refln_F_squared_sigma
28 0 -1 0.9 0.4
26 0 1 0.2 0.3
27 1 0 69.39 1.9
27 -1 0 75.69 2.1
30 0 -4 60.49 1.9
28 0 -2 51.39 1.8
28 0 -2 81.49 2.5
26 0 0 41.9 1.8
24 0 2 33.6 1.5
22 0 4 20.5 1.1
22 0 4 24.2 1.3
20 0 6 2.3 0.5
29 1 -3 0.3 0.3
29 -1 -3 0.2 0.3
29 -1 -3 0.1 0.3
27 -1 -1 7.8 0.7
27 1 -1 7.7 0.8
25 1 1 3 0.5
25 -1 1 3.5 0.6
25 1 1 3.1 0.5
23 1 3 2.4 0.4
23 -1 3 1.7 0.4
23 -1 3 2.8 0.5
23 1 3 1.9 0.4
21 -1 5 4.7 0.6
21 1 5 -0.4 0.3
28 -2 -2 10 0.7
28 2 -2 11.4 0.7
28 -2 -2 11.6 0.7
26 -2 0 29.7 1.3
26 2 0 27.6 1.1
26 2 0 26.6 1.1
24 2 2 79.09 2.2
24 -2 2 79.59 2.4
22 2 4 24.2 1.1
22 -2 4 18.4 0.9
30 0 -5 0 0.3
30 0 -5 -0.2 0.3
28 0 -3 -0.4 0.5
28 0 -3 0.3 0.4
26 0 -1 -0.3 0.4
24 0 1 0.4 0.4
24 0 1 -0.5 0.4
22 0 3 -1.1 0.5
20 0 5 -0.2 0.4
18 0 7 1.2 0.5
16 0 9 0 0.2
31 -1 -6 2.3 0.4
31 1 -6 1.8 0.4
29 1 -4 57.29 2.1
29 -1 -4 57.69 2.1
29 -1 -4 50.19 1.8
29 -1 -4 58.69 2.2
27 -1 -2 48.7 1.9
27 1 -2 49.99 2.1
27 -1 -2 48.4 2.1
25 -1 0 12.1 1.1
25 1 0 13.8 1.1
25 1 0 12.7 1
23 -1 2 12.5 1.1
23 1 2 12.5 1
23 1 2 13 1.1
23 -1 2 12.4 1
21 -1 4 8.5 0.9
21 1 4 7 0.7
21 -1 4 8.4 0.9
21 1 4 6.8 0.8
19 -1 6 1.4 0.4
19 -1 6 -0.1 0.3
19 1 6 1.4 0.5
17 -1 8 9.9 0.7
17 1 8 10.1 0.7
30 2 -5 21.2 1.1
30 -2 -5 20.4 0.9
30 -2 -5 19.3 1
28 -2 -3 16.8 1.1
28 -2 -3 15.2 1
28 2 -3 13.6 1
26 -2 -1 12.8 1.1
26 2 -1 13.9 0.9
26 2 -1 15 1
26 -2 -1 14.1 1
24 -2 1 12.6 1
24 -2 1 13.7 1.2
24 -2 1 6.4 0.7
24 2 1 7.8 0.7
24 2 1 8.1 0.9
22 2 3 3.5 0.6
22 -2 3 3.7 0.5
22 -2 3 3.4 0.7
22 -2 3 3.7 0.7
20 -2 5 8 0.7
20 -2 5 9.4 0.8
20 2 5 10 0.8
20 -2 5 10.6 0.8
18 2 7 0.6 0.3
27 -3 -2 9.5 0.6
27 -3 -2 8.4 0.6
27 3 -2 11.2 0.8
25 -3 0 2.3 0.4
25 3 0 2.8 0.4
25 -3 0 1.8 0.4
25 3 0 2.2 0.4
23 3 2 8.6 0.7
23 -3 2 9.9 0.7
23 -3 2 8.3 0.7
23 -3 2 6.6 0.6
21 -3 4 4.7 0.5
21 3 4 5.3 0.5
32 0 -8 35.7 1.4
30 0 -6 18.9 1.2
30 0 -6 17.7 1.2
28 0 -4 6.7 0.9
28 0 -4 6 0.8
26 0 -2 15.6 1.3
24 0 0 31.9 1.9
24 0 0 31.9 1.8
22 0 2 6.2 0.9
22 0 2 5.2 0.9
20 0 4 27.4 1.7
18 0 6 8.8 1
16 0 8 50.49 2.1
14 0 10 42.7 1.5
31 -1 -7 4.1 0.6
31 -1 -7 4.1 0.5
31 1 -7 3.6 0.5
29 -1 -5 38.1 1.7
29 -1 -5 37.3 1.7
29 -1 -5 39.4 1.9
29 1 -5 37.5 1.8
27 1 -3 5.2 0.8
27 -1 -3 5.4 0.8
27 -1 -3 5.9 0.9
25 -1 -1 64.99 2.5
25 -1 -1 61.19 2.7
25 1 -1 58.09 2.6
25 1 -1 61.69 2.5
23 1 1 70.69 2.8
23 -1 1 70.59 2.6
23 -1 1 70.49 2.9
23 -1 1 75.09 2.8
23 -1 1 70.19 2.9
21 -1 3 33.1 1.9
21 -1 3 32.4 1.7
21 -1 3 32.1 1.9
19 -1 5 0.9 0.5
19 1 5 0.2 0.5
19 -1 5 0.5 0.4
17 1 7 0.9 0.5
17 -1 7 1.3 0.6
17 -1 7 0.3 0.4
15 -1 9 9.3 0.7
15 -1 9 9.5 0.8
15 1 9 8.8 0.7
30 -2 -6 38.6 1.6
30 -2 -6 36.7 1.6
30 2 -6 32.6 1.5
28 2 -4 12.7 1
28 -2 -4 12.8 1
28 -2 -4 12.7 1.1
26 -2 -2 28.5 1.6
26 -2 -2 24.4 1.5
26 2 -2 25.8 1.5
26 -2 -2 28.2 1.5
26 -2 -2 24.1 1.6
26 2 -2 23.8 1.4
24 -2 0 106.99 3
24 -2 0 95.79 3.4
24 2 0 95.09 3.2
24 -2 0 97.99 3.3
24 -2 0 99.09 3.2
24 2 0 96.59 3.1
22 -2 2 48.2 2.3
22 -2 2 47.9 2.1
22 -2 2 46.1 2.2
22 2 2 45.9 2.1
22 2 2 44.4 1.9
20 2 4 7.1 0.9
20 -2 4 7.8 0.9
20 -2 4 6.1 0.7
18 -2 6 2 0.6
18 2 6 1.9 0.5
18 -2 6 1.2 0.5
16 2 8 6.3 0.6
16 -2 8 7.9 0.7
29 -3 -5 0.4 0.2
29 3 -5 0.3 0.2
27 -3 -3 18.1 1.1
27 -3 -3 19.4 1.1
27 -3 -3 20.7 1.1
27 3 -3 20.5 1.2
25 -3 -1 8.5 0.8
25 -3 -1 7.6 0.7
25 -3 -1 8.1 0.8
25 3 -1 6.8 0.7
25 -3 -1 7 0.8
25 3 -1 7.1 0.8
23 -3 1 57.39 2.1
23 -3 1 52.89 2.1
23 -3 1 48.2 2
23 3 1 46 1.9
23 -3 1 47.5 1.6
23 3 1 50.89 2
21 3 3 19.5 1.2
21 -3 3 20.5 1.3
21 -3 3 21.7 1.2
21 -3 3 20.4 1.2
19 -3 5 14.7 1
19 3 5 14.3 0.9
32 0 -9 -0.1 0.3
32 0 -9 0 0.2
30 0 -7 -0.2 0.4
30 0 -7 -0.5 0.4
30 0 -7 0.1 0.3
28 0 -5 0 0.5
28 0 -5 0.2 0.4
28 0 -5 -0.3 0.4
26 0 -3 0.3 0.6
24 0 -1 -0.2 0.6
24 0 -1 -1.1 0.6
22 0 1 0.3 0.5
22 0 1 0.8 0.6
20 0 3 0.7 0.6
20 0 3 -0.7 0.7
20 0 3 0.6 0.6
18 0 5 1.1 0.7
16 0 7 -0.2 0.5
16 0 7 -0.9 0.5
14 0 9 0.8 0.5
12 0 11 -0.4 0.3
31 -1 -8 65.79 2.3
31 1 -8 54.19 1.8
31 -1 -8 64.19 2.2
29 -1 -6 27.7 1.7
29 -1 -6 28.2 1.5
29 1 -6 27.9 1.5
29 1 -6 28.8 1.6
29 -1 -6 28.1 1.6
27 1 -4 78.69 3.1
27 1 -4 81.19 2.9
27 -1 -4 79.59 3
27 -1 -4 79.39 3.2
25 -1 -2 66.49 2.9
25 1 -2 67.69 2.9
25 -1 -2 65.39 2.8
25 -1 -2 69.39 2.7
25 -1 -2 68.59 3.1
25 1 -2 69.39 2.8
23 -1 0 26.4 1.8
23 -1 0 27.2 1.8
23 -1 0 25.6 1.9
23 1 0 29.9 1.9
21 1 2 56.89 2.7
21 -1 2 57.09 2.7
21 -1 2 61.29 2.6
19 1 4 77.79 3.2
19 -1 4 81.89 3.2
19 -1 4 71.39 3.1
19 -1 4 82.59 3
17 -1 6 23.6 1.7
17 -1 6 24.7 1.6
17 1 6 26.5 1.7
17 1 6 22.7 1.4
17 -1 6 25.1 1.6
15 -1 8 5.5 0.8
15 -1 8 5.8 0.8
15 1 8 4 0.6
15 1 8 6.1 0.8
13 -1 10 30.3 1.4
13 1 10 23.5 1.1
13 -1 10 25.5 1.2
13 1 10 29.6 1.3
30 2 -7 0.9 0.4
30 -2 -7 0.5 0.4
30 -2 -7 0.8 0.3
30 -2 -7 0.1 0.4
30 -2 -7 -0.1 0.3
28 -2 -5 8.1 1
28 2 -5 6.8 0.8
28 -2 -5 9.2 0.9
28 -2 -5 7.5 0.9
26 -2 -3 16.7 1.2
26 -2 -3 14.8 1.3
26 -2 -3 14.9 1.2
26 2 -3 14.1 1.3
26 2 -3 14.5 1.1
26 -2 -3 15.1 1.3
26 -2 -3 14.4 1.3
24 -2 -1 8.1 1.2
24 2 -1 7 0.9
24 -2 -1 5.9 0.9
24 -2 -1 5.2 0.9
24 2 -1 5.9 0.9
24 -2 -1 6.7 1
22 -2 1 4.9 0.9
22 -2 1 5.2 0.8
22 2 1 2.8 0.6
22 2 1 5.3 0.9
22 -2 1 4.6 0.9
22 -2 1 4 0.8
20 -2 3 48 2.4
20 -2 3 46.6 2.4
20 -2 3 49.3 2.2
20 -2 3 47.9 2.4
20 2 3 50.79 2.4
20 2 3 50.49 2.1
18 -2 5 18.3 1.4
18 -2 5 17.1 1.2
18 -2 5 20.2 1.3
18 2 5 16.8 1.2
18 -2 5 17.9 1.5
18 -2 5 17.5 1.4
18 2 5 18.7 1.4
16 -2 7 3.2 0.5
16 2 7 2.2 0.5
16 -2 7 2.8 0.6
16 -2 7 3 0.7
16 2 7 2.5 0.6
14 -2 9 12.1 1
14 2 9 9.4 0.7
14 -2 9 11.4 0.8
14 2 9 11.4 0.8
29 3 -6 3.4 0.5
29 -3 -6 3.1 0.4
29 -3 -6 3.3 0.5
29 -3 -6 2.7 0.4
27 -3 -4 22.9 1.2
27 3 -4 19.2 1.4
27 -3 -4 20.6 1.3
27 -3 -4 21.4 1.2
27 -3 -4 18.3 1.2
25 -3 -2 14.4 1
25 -3 -2 12.6 1.1
25 -3 -2 12.2 1.1
25 3 -2 11.8 1
25 3 -2 11.4 1
25 -3 -2 14 1.1
23 3 0 4.4 0.8
23 -3 0 4.2 0.8
23 -3 0 4.1 0.8
23 -3 0 4.1 0.7
23 3 0 3.3 0.6
23 -3 0 3.9 0.7
21 -3 2 27.3 1.6
21 3 2 26.6 1.6
21 -3 2 26.9 1.6
21 -3 2 28.2 1.4
21 -3 2 26.9 1.6
19 3 4 61.49 2.4
19 -3 4 67.19 2.4
19 -3 4 62.19 2.4
19 -3 4 64.39 2.5
17 -3 6 18.9 1.2
17 3 6 17.2 1.1
17 -3 6 16.1 1.2
17 -3 6 16.9 1
17 -3 6 18 1.2
15 -3 8 11.6 0.7
15 -3 8 11.2 0.8
26 -4 -3 9.6 0.6
26 -4 -3 9.6 0.6
26 4 -3 10.2 0.7
24 -4 -1 22.9 1.1
24 -4 -1 19.9 1.1
24 -4 -1 18.9 0.9
24 -4 -1 23.2 1.1
24 4 -1 20.7 1.1
22 -4 1 67.29 1.9
22 4 1 70.09 2.1
22 -4 1 77.29 2.2
20 -4 3 15.1 0.9
20 -4 3 17.6 1
20 -4 3 21.3 1
20 4 3 19.4 1
32 0 -10 69.59 2.2
32 0 -10 63.89 2
30 0 -8 142.09 3.7
30 0 -8 150.08 4
30 0 -8 147.19 4.2
28 0 -6 6.3 0.9
28 0 -6 6.1 0.9
28 0 -6 7.5 1
26 0 -4 26.8 2
26 0 -4 28.9 1.9
24 0 -2 21.5 1.8
22 0 0 48.9 2.5
22 0 0 50.29 2.7
22 0 0 52.69 2.8
22 0 0 48.5 2.6
20 0 2 13.4 1.4
18 0 4 58.89 2.8
18 0 4 56.69 2.9
18 0 4 60.79 2.8
16 0 6 58.19 2.7
16 0 6 55.49 2.7
14 0 8 60.19 2.3
14 0 8 59.19 2.5
14 0 8 58.89 2.6
12 0 10 85.89 2.6
12 0 10 88.69 2.9
10 0 12 21 1
31 1 -9 2 0.5
31 -1 -9 2.5 0.5
31 -1 -9 2.1 0.6
29 1 -7 10.4 1.1
29 -1 -7 8.6 1.1
29 -1 -7 9.8 1.1
29 1 -7 9 1
29 -1 -7 9.1 0.9
29 -1 -7 8.5 0.9
27 -1 -5 35 2.2
27 1 -5 36 2.1
27 1 -5 35.3 2
27 -1 -5 43.1 2
27 -1 -5 36.4 2.1
25 -1 -3 4.1 1
25 1 -3 3.3 0.7
25 1 -3 3.1 0.7
25 -1 -3 3.3 0.8
25 -1 -3 4.6 1.2
25 -1 -3 5.3 1
23 -1 -1 8.5 1.1
23 -1 -1 11.1 1.2
23 -1 -1 10.4 1.2
23 1 -1 9.7 1.2
23 -1 -1 10.3 1.4
21 -1 1 20.1 1.7
21 -1 1 21.1 1.7
21 -1 1 18.3 1.7
21 1 1 19 1.7
19 -1 3 1.8 0.6
19 -1 3 1.4 0.7
19 -1 3 2.1 0.7
19 1 3 1.4 0.6
19 -1 3 1.4 0.6
19 -1 3 2.3 0.8
17 -1 5 11.5 1.2
17 -1 5 12 1.2
17 1 5 11.8 1.2
17 -1 5 12.5 1.4
17 1 5 12.6 1.2
17 1 5 10.7 1.2
17 -1 5 12.4 1.3
15 -1 7 2.9 0.7
15 -1 7 2.5 0.6
15 1 7 1.3 0.5
15 -1 7 3.6 0.8
15 1 7 2.4 0.7
15 1 7 2.6 0.7
13 -1 9 1.8 0.6
13 1 9 0.9 0.5
13 -1 9 0.8 0.5
13 1 9 1.9 0.6
13 1 9 0.8 0.5
11 -1 11 5.9 0.6
11 1 11 5.4 0.6
11 1 11 4.9 0.6
11 -1 11 5.8 0.7
30 2 -8 3.2 0.5
30 -2 -8 3.2 0.5
30 2 -8 2.7 0.5
30 -2 -8 4.5 0.7
30 -2 -8 4.8 0.6
30 -2 -8 4.1 0.6
28 -2 -6 29.2 1.8
28 -2 -6 32.9 1.9
28 2 -6 24.7 1.6
28 -2 -6 35.4 1.8
28 -2 -6 31.6 2
26 -2 -4 40.5 2.2
26 -2 -4 44.1 2.1
26 2 -4 42.3 2
26 -2 -4 38.6 2.2
26 -2 -4 40.3 2.1
26 2 -4 39.3 2.1
26 -2 -4 38.7 2.2
24 2 -2 119.59 4
24 2 -2 115.69 4
24 -2 -2 110.69 4
24 -2 -2 111.59 3.9
24 -2 -2 108.49 4.2
24 -2 -2 118.59 3.9
22 -2 0 123.19 4.3
22 -2 0 135.09 4.3
22 2 0 132.79 4.3
22 -2 0 126.59 4.4
22 -2 0 144.39 4.3
22 2 0 135.19 4.5
20 2 2 68.99 2.8
20 -2 2 61.89 3
20 2 2 65.39 3
20 -2 2 63.89 3
20 -2 2 63.79 3
20 -2 2 70.09 3
20 -2 2 78.49 2.9
18 -2 4 71.99 2.7
18 2 4 65.49 3
18 -2 4 74.39 2.9
18 -2 4 67.19 3.1
18 -2 4 67.69 3
18 -2 4 68.59 2.9
18 -2 4 67.99 3
18 2 4 67.19 2.7
16 -2 6 7 0.9
16 -2 6 8.2 0.9
16 2 6 6.1 0.9
16 -2 6 7.3 0.9
16 -2 6 6.5 1
16 -2 6 6.9 1
16 2 6 7.2 0.9
16 -2 6 7.5 1
14 2 8 18.7 1.3
14 -2 8 17.6 1.4
14 2 8 20 1.3
14 -2 8 19.3 1.3
14 -2 8 20.1 1.3
14 -2 8 19 1.3
14 -2 8 18.4 1.2
12 -2 10 9 0.8
12 -2 10 10 0.8
12 2 10 5.4 0.5
12 2 10 7.6 0.7
29 -3 -7 8.5 0.7
29 -3 -7 11.3 0.9
29 3 -7 8.6 0.8
29 3 -7 8.1 0.6
29 -3 -7 11.4 0.8
27 -3 -5 17.5 1.3
27 -3 -5 16.6 1.2
27 3 -5 16.6 1.3
27 -3 -5 20.6 1.3
27 -3 -5 18.3 1.2
25 -3 -3 9.7 1
25 3 -3 9.5 0.9
25 -3 -3 9.2 1
25 -3 -3 11 1.1
25 3 -3 8.7 1
23 3 -1 11.6 1.2
23 -3 -1 11.2 1.1
23 -3 -1 10.2 1.1
23 -3 -1 10 1.1
23 3 -1 11.7 1.1
23 -3 -1 12.7 1.2
23 -3 -1 10.8 1.2
21 3 1 114.89 3.5
21 -3 1 108.69 3.7
21 -3 1 110.39 3.7
21 -3 1 120.59 3.6
21 -3 1 110.99 3.7
21 3 1 109.59 3.7
19 -3 3 9.9 1.1
19 -3 3 9.4 1
19 -3 3 8.2 1
19 -3 3 8.2 1
19 -3 3 8.2 0.8
19 3 3 9.3 1
19 -3 3 9.4 1.1
17 -3 5 76.89 2.9
17 -3 5 86.19 2.9
17 -3 5 80.89 3
17 3 5 78.49 2.8
17 -3 5 80.09 2.9
17 -3 5 79.59 2.9
15 -3 7 11.7 1
15 3 7 9.8 0.9
15 3 7 12 0.9
15 -3 7 12.3 1
15 -3 7 11.8 1
15 -3 7 11.1 0.8
15 -3 7 12 1.1
13 -3 9 13.9 0.9
13 -3 9 15.1 0.9
13 3 9 14 0.9
26 -4 -4 12.3 0.8
26 4 -4 12.2 0.9
26 -4 -4 14.7 0.9
26 -4 -4 11.3 0.8
24 -4 -2 7.6 0.8
24 -4 -2 7.7 0.8
24 -4 -2 6.4 0.7
24 4 -2 6.5 0.8
22 -4 0 102.19 3
22 -4 0 91.49 2.7
22 -4 0 89.19 2.8
22 4 0 89.49 2.9
22 4 0 96.49 2.9
22 -4 0 104.69 2.9
20 -4 2 38.1 1.7
20 4 2 34.3 1.6
20 -4 2 32.3 1.6
20 -4 2 34.4 1.6
20 4 2 24.8 1.3
20 -4 2 36.6 1.5
20 -4 2 36.8 1.7
18 4 4 15.4 1
18 -4 4 16.9 1.1
18 -4 4 18.5 1.1
18 -4 4 17.3 1.1
16 -4 6 25 1.1
16 -4 6 25.2 1.2
16 -4 6 25.8 1.2
32 0 -11 0.2 0.3
32 0 -11 0.4 0.3
30 0 -9 0.4 0.5
30 0 -9 -0.5 0.5
28 0 -7 -0.2 0.5
28 0 -7 1.1 0.5
28 0 -7 -0.3 0.5
26 0 -5 0.2 0.6
26 0 -5 0.5 0.6
24 0 -3 0 0.5
24 0 -3 -0.5 0.7
22 0 -1 -0.9 0.7
22 0 -1 -1 0.8
22 0 -1 -0.3 0.7
22 0 -1 0.1 0.6
22 0 -1 -0.8 0.6
20 0 1 0.8 0.7
20 0 1 0.2 0.7
20 0 1 0 0.7
18 0 3 0.2 0.7
18 0 3 0.3 0.5
18 0 3 0.5 0.7
16 0 5 -0.8 0.8
16 0 5 1 0.7
16 0 5 0.6 0.6
14 0 7 -0.5 0.6
14 0 7 0.5 0.6
14 0 7 0.4 0.7
12 0 9 0.1 0.5
12 0 9 0.5 0.5
12 0 9 -1.1 0.6
10 0 11 0 0.5
10 0 11 0.2 0.4
8 0 13 0.1 0.2
31 1 -10 65.09 2.1
31 1 -10 72.79 2.4
31 -1 -10 73.99 2.6
31 -1 -10 74.49 2.5
29 -1 -8 11 1
29 -1 -8 9.9 1
29 -1 -8 9.9 1.1
29 1 -8 10.2 1
29 1 -8 9.5 1
29 1 -8 10.7 1.1
29 -1 -8 9.8 1.1
27 -1 -6 17.7 1.6
27 -1 -6 17.4 1.4
27 -1 -6 16.6 1.5
27 1 -6 15.9 1.4
27 1 -6 16.1 1.4
25 -1 -4 70.89 3.1
25 1 -4 68.59 3.2
25 -1 -4 69.89 3.2
25 -1 -4 73.49 3.5
25 -1 -4 83.59 3.2
25 -1 -4 72.19 3.4
25 1 -4 72.19 3.2
23 -1 -2 39.2 2.2
23 -1 -2 35.8 2.3
23 1 -2 40.5 2.4
23 -1 -2 36 2.3
23 -1 -2 33.8 2.4
23 1 -2 38.1 2.3
21 -1 0 5.7 1.1
21 -1 0 5.3 1
21 1 0 6 1.1
21 -1 0 5.5 1.1
21 -1 0 6.9 1
19 -1 2 113.79 4.2
19 -1 2 106.89 4.2
19 -1 2 111.69 4.2
19 -1 2 122.49 4.2
19 -1 2 117.69 4
19 1 2 115.19 4.3
17 -1 4 13.2 1.3
17 -1 4 13.4 1.5
17 -1 4 12.2 1.4
17 1 4 11.5 1.3
17 -1 4 13.2 1.4
17 1 4 14.6 1.3
17 -1 4 10.2 1.3
17 -1 4 13 1.3
15 -1 6 1.3 0.6
15 -1 6 1 0.6
15 1 6 0.6 0.6
15 -1 6 1.2 0.7
15 -1 6 1.3 0.7
15 -1 6 0.3 0.6
15 -1 6 1.5 0.6
15 1 6 1.5 0.7
13 -1 8 124.29 3.8
13 -1 8 114.49 3.7
13 -1 8 109.79 3.9
13 -1 8 119.69 3.9
13 1 8 112.49 3.8
13 -1 8 105.39 3.9
13 1 8 113.59 3.8
11 1 10 61.29 2.4
11 -1 10 58.69 2.1
11 -1 10 58.49 2.4
11 1 10 61.59 2.4
11 1 10 59.29 2.4
11 -1 10 55.19 2.4
9 -1 12 11.7 0.9
9 -1 12 9 0.7
9 1 12 10.6 0.8
30 -2 -9 1.3 0.5
30 -2 -9 1.6 0.5
30 -2 -9 1 0.4
30 2 -9 1.1 0.5
30 -2 -9 0 0.4
28 2 -7 11.8 1.1
28 -2 -7 14.6 1.2
28 -2 -7 15.4 1.4
28 -2 -7 13.2 1.2
28 -2 -7 13.6 1.3
26 -2 -5 61.09 3
26 2 -5 63.79 2.9
26 -2 -5 66.59 2.9
26 -2 -5 72.09 2.9
26 -2 -5 65.59 3
26 2 -5 68.59 2.7
26 -2 -5 66.79 2.9
24 -2 -3 2.4 0.8
24 2 -3 3.7 0.9
24 2 -3 2.6 0.8
24 -2 -3 2.9 0.8
24 -2 -3 3 0.8
24 -2 -3 3.3 0.8
22 2 -1 23.8 1.8
22 -2 -1 23.3 1.7
22 -2 -1 27.1 1.8
22 2 -1 26.2 1.9
22 -2 -1 23.8 1.9
22 -2 -1 24.4 1.9
20 -2 1 36.9 2.3
20 2 1 40.7 2.3
20 -2 1 41.6 2.4
20 2 1 38.6 2.4
20 -2 1 43.6 2.3
20 -2 1 36.5 2.2
20 -2 1 39.9 2.5
20 -2 1 39.1 2.3
18 2 3 129.79 4.2
18 2 3 127.99 4.5
18 -2 3 125.49 4.5
18 -2 3 124.89 4.5
18 -2 3 120.99 4.3
18 -2 3 123.79 4.3
18 2 3 135.79 4.2
16 -2 5 29.1 1.9
16 -2 5 28 2
16 2 5 30.3 2
16 2 5 29.8 1.9
16 -2 5 26.7 1.9
16 -2 5 27.9 2
16 -2 5 29 1.8
14 -2 7 37.5 2
14 2 7 36.8 2
14 2 7 37.1 2.1
14 -2 7 37.7 2.1
14 -2 7 36.3 2.2
14 -2 7 37.8 2.2
14 -2 7 39.3 2
12 2 9 10.3 1
12 -2 9 11.9 1
12 2 9 10 1
12 -2 9 12.1 1.2
12 -2 9 12.4 1.2
12 -2 9 12.6 1.1
12 -2 9 13.3 1.1
12 -2 9 14 1.1
10 -2 11 7.6 0.7
10 -2 11 9.6 0.8
10 2 11 8.9 0.8
29 3 -8 35.5 1.5
29 3 -8 27.4 1.3
29 -3 -8 27.3 1.3
29 -3 -8 27.3 1.2
29 -3 -8 33.9 1.5
29 -3 -8 39.8 1.6
27 3 -6 0.5 0.4
27 -3 -6 0 0.4
27 -3 -6 0.4 0.4
27 -3 -6 -0.3 0.5
27 -3 -6 0.5 0.5
27 -3 -6 0 0.4
27 3 -6 0.3 0.5
25 3 -4 5.7 0.9
25 -3 -4 5.4 0.9
25 -3 -4 5.5 0.9
25 -3 -4 6 0.9
25 3 -4 5.7 0.8
23 -3 -2 15.9 1.4
23 -3 -2 14 1.3
23 -3 -2 14.5 1.3
23 3 -2 14.6 1.3
23 -3 -2 14.1 1.4
23 -3 -2 13.5 1.3
23 3 -2 12.9 1.3
21 -3 0 33.6 2
21 -3 0 34.5 2.1
21 3 0 33.3 2
21 3 0 34.1 2
21 -3 0 34.5 2.1
21 -3 0 35.7 2
19 3 2 96.59 3.2
19 -3 2 86.19 3.4
19 3 2 87.19 3.4
19 -3 2 88.79 3.5
19 -3 2 86.09 3.4
19 -3 2 91.59 3.3
17 -3 4 89.49 3.4
17 -3 4 91.19 3.3
17 -3 4 89.09 3.4
17 3 4 90.79 3.3
17 -3 4 86.99 3.4
17 3 4 88.99 3.4
15 -3 6 8.4 0.8
15 3 6 6.4 0.8
15 -3 6 7.6 1
15 -3 6 6.9 1
15 -3 6 7.4 0.9
15 -3 6 6.6 0.9
15 3 6 6.6 0.9
13 -3 8 12.7 1
13 -3 8 12.9 1.1
13 3 8 11.1 1
13 -3 8 12.4 1.1
13 -3 8 13.4 1.1
13 -3 8 13.2 0.9
13 3 8 11.2 0.9
11 -3 10 13.3 0.8
11 3 10 13.2 0.9
11 -3 10 15.1 0.9
11 -3 10 13.5 0.9
11 -3 10 14.2 1
28 -4 -7 18.2 0.9
26 -4 -5 74.79 2.4
26 4 -5 80.49 2.7
26 -4 -5 89.69 2.5
26 -4 -5 66.89 2.1
26 -4 -5 81.19 2.4
24 -4 -3 66.49 2.3
24 -4 -3 58.69 2.2
24 4 -3 63.69 2.6
24 -4 -3 72.49 2.5
22 -4 -1 70.19 2.4
22 -4 -1 71.89 2.5
22 4 -1 69.49 2.6
22 -4 -1 67.39 2.6
22 4 -1 68.59 2.8
22 -4 -1 70.09 2.6
22 -4 -1 72.79 2.6
20 4 1 18.6 1.3
20 -4 1 18.3 1.3
20 -4 1 18.4 1.3
20 -4 1 16.8 1.3
20 -4 1 19.3 1.3
20 4 1 15.8 1.3
18 -4 3 13.4 1.1
18 -4 3 15.2 1.2
18 4 3 13.1 1.1
18 -4 3 14.1 1.2
16 -4 5 3.2 0.6
16 -4 5 2.8 0.6
16 4 5 2.9 0.5
16 -4 5 3.5 0.7
16 -4 5 2.2 0.5
14 -4 7 15.6 1
14 -4 7 15.9 1
14 -4 7 16.4 1
14 -4 7 17.8 1.1
14 -4 7 13.3 0.9
21 -5 0 17.4 0.8
19 -5 2 9.8 0.6
32 0 -12 76.69 2.4
32 0 -12 76.79 2.3
30 0 -10 111.69 3.7
30 0 -10 114.79 3.6
28 0 -8 98.79 3.7
28 0 -8 96.29 3.4
28 0 -8 92.89 3.7
26 0 -6 6.5 1
26 0 -6 5.9 1
24 0 -4 151.08 5.3
24 0 -4 154.78 5
24 0 -4 163.28 5.3
22 0 -2 121.69 4.7
22 0 -2 116.89 4.5
22 0 -2 128.79 4.3
22 0 -2 119.59 4.4
20 0 0 240.18 6.5
20 0 0 237.98 6.7
18 0 2 92.69 3.7
18 0 2 90.29 3.8
18 0 2 86.99 3.8
18 0 2 87.39 3.7
16 0 4 214.38 6.3
16 0 4 230.48 6.2
16 0 4 215.78 6.1
16 0 4 208.78 6
14 0 6 157.78 5.1
14 0 6 169.08 4.9
14 0 6 158.48 5
14 0 6 160.68 4.9
12 0 8 31 2
12 0 8 30 1.9
12 0 8 31.4 2
10 0 10 59.49 2.6
10 0 10 56.79 2.5
10 0 10 61.29 2.5
8 0 12 47.7 2
8 0 12 46.5 2
31 -1 -11 0.1 0.3
31 -1 -11 0.4 0.4
31 1 -11 0.6 0.4
31 1 -11 0.8 0.4
31 -1 -11 0.9 0.4
29 -1 -9 6.4 1
29 1 -9 5.4 0.8
29 1 -9 6.8 0.9
29 -1 -9 6.3 0.8
29 -1 -9 7 1
29 -1 -9 6.6 0.9
29 1 -9 6.7 0.8
27 1 -7 48.1 2.4
27 -1 -7 45.9 2.6
27 -1 -7 49 2.4
27 1 -7 46.4 2.5
27 1 -7 41.8 2.3
27 -1 -7 42.4 2.5
25 1 -5 17.2 1.6
25 -1 -5 19 1.9
25 1 -5 15.6 1.5
25 -1 -5 21.5 1.7
25 -1 -5 17.6 1.6
25 -1 -5 17.7 1.8
25 -1 -5 18.3 1.7
23 -1 -3 15.3 1.7
23 -1 -3 19 1.6
23 -1 -3 17.8 1.7
23 1 -3 20.7 1.7
23 -1 -3 18.6 1.8
23 1 -3 17.8 1.6
21 1 -1 68.99 3.3
21 -1 -1 67.39 3
21 -1 -1 64.29 3.2
21 -1 -1 64.69 3.2
21 -1 -1 65.29 3.1
19 -1 1 107.89 4
19 -1 1 100.49 4.1
19 1 1 107.69 4.3
19 -1 1 99.99 3.9
19 -1 1 103.99 4.1
19 -1 1 111.19 3.9
19 -1 1 98.09 4
19 -1 1 119.19 4
17 -1 3 12.1 1.4
17 -1 3 12.2 1.3
17 1 3 11 1.3
17 -1 3 12.8 1.4
17 -1 3 13.1 1.5
17 -1 3 12.6 1.4
17 -1 3 11.5 1.3
15 1 5 121.39 4.2
15 1 5 106.59 4
15 -1 5 109.19 4
15 1 5 111.39 4
15 -1 5 117.89 4.2
15 -1 5 102.39 4.2
15 -1 5 108.19 4.3
15 -1 5 105.49 4
13 -1 7 12.5 1.3
13 -1 7 10.7 1.2
13 1 7 11.9 1.3
13 -1 7 11.3 1.2
13 1 7 10.3 1.2
13 -1 7 12.1 1.4
13 -1 7 10.1 1.3
11 -1 9 74.19 2.9
11 -1 9 71.29 3
11 1 9 69.09 2.9
11 -1 9 69.89 3
11 1 9 71.39 3
11 -1 9 77.89 2.9
11 -1 9 70.69 3.1
9 1 11 14.8 1.2
9 1 11 15.1 1.2
9 -1 11 15.3 1.2
9 -1 11 15.4 1.3
9 -1 11 14.8 1.3
9 1 11 15.9 1.3
9 -1 11 15.6 1.2
7 -1 13 1.1 0.4
7 -1 13 1 0.3
7 1 13 2.3 0.5
30 -2 -10 34.2 1.6
30 -2 -10 30.3 1.6
30 -2 -10 32.6 1.6
30 2 -10 29.2 1.7
30 -2 -10 30.2 1.6
30 -2 -10 28.3 1.4
28 -2 -8 19.3 1.6
28 -2 -8 20.2 1.4
28 -2 -8 21 1.5
28 2 -8 15.9 1.3
28 -2 -8 19.2 1.6
26 -2 -6 30.7 1.9
26 -2 -6 27.7 1.9
26 -2 -6 27.6 1.9
26 -2 -6 26.3 1.8
26 -2 -6 25.8 1.9
26 2 -6 25.2 1.8
26 -2 -6 27.8 2
24 2 -4 36.1 2.1
24 -2 -4 36.7 2.3
24 2 -4 36.2 2.3
24 -2 -4 37.2 2.3
24 -2 -4 35.9 2.5
22 2 -2 66.49 3.2
22 -2 -2 69.29 3.1
22 -2 -2 67.09 3.1
22 -2 -2 67.99 3.2
22 2 -2 70.19 3.3
22 -2 -2 66.49 3.1
20 -2 0 30.2 2.1
20 -2 0 31.5 2.1
20 2 0 30.5 2.2
20 2 0 30.4 2.1
20 -2 0 31.4 2.1
20 -2 0 31.7 2.2
20 -2 0 29.5 2.1
18 -2 2 39.9 2.5
18 -2 2 35.4 2.4
18 2 2 37 2.4
18 2 2 41.1 2.3
18 -2 2 37.6 2.3
18 -2 2 37.7 2.4
16 -2 4 8.4 1.2
16 -2 4 7.5 1.2
16 -2 4 5.3 1
16 -2 4 7.9 1
16 2 4 7.4 1.2
16 2 4 8.9 1.2
16 -2 4 9 1.2
14 -2 6 67.19 2.9
14 -2 6 61.49 3.1
14 -2 6 66.99 3
14 -2 6 65.59 3.1
14 2 6 66.09 2.9
14 -2 6 63.99 3.1
14 2 6 67.29 3.1
14 -2 6 70.09 3.2
12 -2 8 14.5 1.5
12 -2 8 13.9 1.3
12 2 8 14.5 1.4
12 2 8 14.6 1.3
12 -2 8 15.3 1.5
12 -2 8 14.6 1.4
10 2 10 13.3 1.1
10 2 10 14.5 1.2
10 -2 10 14.8 1.2
10 -2 10 13 1.2
10 -2 10 14.7 1.2
10 -2 10 13.4 1.3
8 -2 12 32.8 1.5
8 2 12 34.8 1.6
8 -2 12 34.6 1.5
8 -2 12 33.3 1.6
29 -3 -9 18.4 1.2
29 -3 -9 12.7 0.9
29 -3 -9 19.8 1.2
29 -3 -9 16.2 1
29 3 -9 15.4 1
29 3 -9 17.8 1.1
29 -3 -9 18.1 1.1
27 3 -7 16.8 1.3
27 -3 -7 16.6 1.3
27 -3 -7 19.6 1.4
27 3 -7 16.5 1.4
27 -3 -7 17 1.2
27 3 -7 17.1 1.3
27 -3 -7 16.3 1.3
27 -3 -7 17.5 1.4
25 -3 -5 12.5 1.2
25 3 -5 11.8 1.1
25 -3 -5 11.6 1.3
25 3 -5 11.9 1.2
25 -3 -5 10.4 1.1
23 -3 -3 2.7 0.7
23 -3 -3 2.4 0.7
23 3 -3 3 0.8
23 3 -3 2.5 0.7
23 -3 -3 3.5 0.8
23 -3 -3 2.4 0.7
23 -3 -3 2.3 0.6
21 -3 -1 171.48 5.2
21 3 -1 176.68 5.2
21 -3 -1 168.18 5.1
21 3 -1 168.28 5.2
21 -3 -1 167.28 5.1
19 -3 1 97.99 3.8
19 3 1 103.59 3.7
19 -3 1 98.89 3.8
19 3 1 103.89 3.9
19 -3 1 99.29 3.6
19 -3 1 99.69 3.8
17 -3 3 27.1 1.9
17 -3 3 26.8 1.9
17 3 3 29.1 2
17 -3 3 30.4 1.9
17 3 3 28.9 1.9
15 -3 5 57.99 2.7
15 3 5 56.89 2.6
15 3 5 60.39 2.8
15 -3 5 57.49 2.8
15 -3 5 57.09 2.8
15 -3 5 56.69 2.7
13 3 7 6.8 0.9
13 -3 7 5.4 0.7
13 -3 7 4.8 0.8
13 3 7 4.9 0.8
13 -3 7 6 0.9
13 -3 7 4.7 0.8
13 -3 7 5.6 0.9
13 -3 7 5.6 1
11 -3 9 2.9 0.7
11 -3 9 3.5 0.7
11 -3 9 2.1 0.6
11 3 9 1.8 0.4
11 -3 9 3 0.6
11 3 9 2.9 0.6
11 -3 9 2.6 0.7
9 -3 11 3.1 0.5
9 -3 11 2.4 0.4
9 3 11 3 0.5
9 -3 11 3.2 0.5
9 -3 11 2.8 0.5
9 -3 11 2.5 0.4
28 -4 -8 8.7 0.7
28 -4 -8 9.3 0.7
26 4 -6 12.9 1.1
26 -4 -6 12.1 1
26 -4 -6 12.8 1
26 4 -6 10.5 0.8
26 -4 -6 14.6 1.1
26 -4 -6 11.1 0.9
24 -4 -4 9.2 1
24 -4 -4 9.6 1
24 -4 -4 7.9 0.8
24 4 -4 8.5 1
22 4 -2 2.1 0.7
22 4 -2 0.9 0.5
22 -4 -2 1.1 0.5
22 -4 -2 1.6 0.6
22 -4 -2 0.4 0.5
22 -4 -2 2.4 0.6
22 -4 -2 0 0.4
20 -4 0 9.8 1.1
20 -4 0 8.9 1
20 4 0 8.8 1.1
20 -4 0 9.4 1.1
20 -4 0 9.8 1.1
20 4 0 9.4 1.1
18 4 2 4.4 0.8
18 -4 2 4.8 0.8
18 -4 2 5.3 0.7
18 4 2 2.9 0.7
18 -4 2 3.9 0.7
16 -4 4 23.7 1.6
16 -4 4 22.6 1.5
16 -4 4 25.2 1.5
16 -4 4 22.1 1.5
16 4 4 22.9 1.5
14 4 6 23.7 1.3
14 -4 6 24 1.4
14 -4 6 26.1 1.5
14 -4 6 27.6 1.6
12 -4 8 38.2 1.6
12 -4 8 36.9 1.6
12 -4 8 32.1 1.5
23 5 -3 63.39 2.1
23 -5 -3 65.59 1.9
21 -5 -1 30.7 1.4
21 -5 -1 29.8 1.3
21 5 -1 27 1.3
19 -5 1 33.4 1.4
19 -5 1 32.8 1.4
17 -5 3 26.7 1.3
17 -5 3 28.1 1.3
17 -5 3 21.9 1
15 -5 5 18.1 0.9
15 -5 5 17.6 0.9
32 0 -13 0.2 0.3
32 0 -13 0.5 0.3
32 0 -13 0.3 0.3
30 0 -11 -0.2 0.5
30 0 -11 0.2 0.4
28 0 -9 -0.8 0.6
28 0 -9 -0.2 0.5
28 0 -9 -0.4 0.5
26 0 -7 0.7 0.6
26 0 -7 0.1 0.6
26 0 -7 0.4 0.5
26 0 -7 -0.4 0.5
24 0 -5 -0.1 0.6
24 0 -5 -1 0.8
24 0 -5 0 0.6
22 0 -3 -0.3 0.7
22 0 -3 0.2 0.6
22 0 -3 -0.2 0.6
20 0 -1 1 0.8
20 0 -1 0.6 0.6
20 0 -1 -0.9 0.8
20 0 -1 -0.6 0.7
18 0 1 1 0.6
18 0 1 0.3 0.5
18 0 1 0.6 0.7
18 0 1 -0.4 0.6
18 0 1 0.6 0.6
16 0 3 0.3 0.6
16 0 3 0.2 0.6
16 0 3 0.6 0.6
16 0 3 -0.8 0.7
16 0 3 -0.2 0.8
14 0 5 -0.6 0.7
14 0 5 0.9 0.8
14 0 5 0.2 0.6
14 0 5 -0.2 0.6
14 0 5 -0.3 0.6
14 0 5 0.2 0.5
12 0 7 1.2 0.8
12 0 7 0.9 0.6
12 0 7 2.1 0.8
12 0 7 1.5 0.7
12 0 7 1.2 0.8
10 0 9 -0.2 0.6
10 0 9 -0.2 0.6
10 0 9 -0.2 0.5
10 0 9 1 0.6
10 0 9 0.5 0.5
8 0 11 0.1 0.5
8 0 11 -1.2 0.6
8 0 11 0.2 0.5
6 0 13 0.7 0.5
6 0 13 0.1 0.4
31 -1 -12 14.1 0.9
31 -1 -12 17.2 1.2
31 -1 -12 15 1
31 -1 -12 17.8 1.2
31 1 -12 16.5 1.2
31 1 -12 17.2 1.1
31 1 -12 16.7 1
29 -1 -10 87.59 3.3
29 -1 -10 90.39 3.1
29 -1 -10 96.09 3.3
29 -1 -10 92.89 3.2
29 -1 -10 86.29 3.3
29 1 -10 92.99 3.2
29 1 -10 88.89 3.3
27 1 -8 101.59 3.7
27 -1 -8 97.39 3.9
27 1 -8 92.69 3.7
27 -1 -8 103.39 3.7
27 -1 -8 93.39 3.8
27 1 -8 93.89 3.6
27 -1 -8 107.19 3.8
25 1 -6 182.08 5.7
25 -1 -6 196.98 6.1
25 -1 -6 194.78 5.8
25 -1 -6 187.98 6.1
25 1 -6 217.28 5.9
25 -1 -6 217.68 6
25 1 -6 197.58 6
23 -1 -4 6.8 1.1
23 -1 -4 6.3 1.2
23 -1 -4 8 1.2
23 -1 -4 6.7 1.2
23 1 -4 7.3 1.2
21 1 -2 4.6 1
21 -1 -2 3.3 0.9
21 -1 -2 3.6 0.8
21 1 -2 3.2 0.8
21 -1 -2 2.8 0.7
21 -1 -2 3.1 0.8
19 -1 0 102.49 3.8
19 -1 0 95.79 4
19 -1 0 96.29 4.1
19 -1 0 105.19 4
19 1 0 100.49 4.1
19 -1 0 94.69 3.8
19 -1 0 96.29 4
17 -1 2 58.09 3
17 1 2 61.79 3.1
17 -1 2 57.19 3
17 -1 2 54.49 2.8
17 1 2 56.09 2.9
17 -1 2 59.69 2.8
17 -1 2 57.69 3
15 -1 4 6.6 1
15 -1 4 7.1 1.3
15 -1 4 5.9 1.1
15 -1 4 7.8 1.2
15 -1 4 7.7 1.2
15 1 4 7.8 1.1
15 1 4 8.1 1.2
15 1 4 6.6 1.1
13 -1 6 55.09 3
13 -1 6 57.09 2.9
13 1 6 51.19 2.7
13 -1 6 52.29 2.7
13 1 6 53.49 2.7
13 -1 6 54.99 3
11 -1 8 21.4 1.7
11 -1 8 21.8 1.7
11 -1 8 17.9 1.7
11 -1 8 22.3 1.7
11 1 8 18.7 1.6
11 1 8 19.1 1.6
11 -1 8 19.5 1.8
9 1 10 1.8 0.6
9 -1 10 2.8 0.7
9 -1 10 3.7 0.9
9 1 10 3.1 0.8
9 -1 10 4.1 0.8
9 -1 10 2.6 0.8
7 -1 12 26.2 1.6
7 1 12 26.6 1.4
7 1 12 25.9 1.6
7 -1 12 26.3 1.5
7 -1 12 26.6 1.6
7 -1 12 24.9 1.5
7 1 12 24.2 1.4
5 -1 14 8.8 0.7
5 -1 14 7.5 0.6
5 1 14 8.7 0.7
30 -2 -11 108.49 3.2
30 2 -11 110.29 3.4
30 -2 -11 110.89 3.3
30 -2 -11 113.19 3.1
30 -2 -11 116.09 3.3
28 -2 -9 21.3 1.6
28 -2 -9 23.9 1.6
28 -2 -9 22.2 1.6
28 2 -9 18 1.4
28 -2 -9 23.1 1.7
28 2 -9 24.4 1.5
26 2 -7 24.2 1.8
26 -2 -7 26.9 1.9
26 -2 -7 24.4 1.8
26 -2 -7 24.1 1.8
26 -2 -7 23.8 1.9
26 -2 -7 22.8 1.8
24 2 -5 10.9 1.2
24 -2 -5 11.1 1.4
24 -2 -5 11.5 1.4
24 2 -5 11.4 1.3
24 -2 -5 11.9 1.4
22 -2 -3 121.79 4.4
22 -2 -3 124.49 4.5
22 -2 -3 128.99 4.9
22 2 -3 131.49 4.5
22 -2 -3 130.19 4.6
22 2 -3 120.79 4.5
22 -2 -3 129.69 4.7
20 -2 -1 17.4 1.6
20 -2 -1 19.7 1.8
20 2 -1 19.1 1.7
20 -2 -1 19.8 1.8
20 -2 -1 17.8 1.6
20 -2 -1 17.6 1.7
18 -2 1 16.3 1.6
18 2 1 18.1 1.7
18 2 1 19.9 1.7
18 -2 1 14.8 1.6
18 -2 1 16.5 1.5
18 -2 1 14.4 1.5
16 -2 3 64.39 3.2
16 2 3 66.59 3.3
16 -2 3 65.89 2.9
16 2 3 66.99 3.1
16 -2 3 60.49 3.1
16 -2 3 61.49 3
16 -2 3 58.59 3
14 2 5 16.5 1.6
14 2 5 14.7 1.5
14 2 5 15.5 1.5
14 -2 5 14.4 1.6
14 -2 5 14.4 1.5
14 -2 5 14.1 1.4
14 -2 5 15.2 1.6
14 -2 5 14.7 1.5
12 -2 7 3.9 0.9
12 2 7 5 1
12 -2 7 4.9 1.1
12 2 7 3.2 0.8
12 -2 7 4.1 0.9
12 -2 7 5.1 0.9
12 -2 7 3.6 0.9
12 2 7 3.4 0.8
10 2 9 1.4 0.6
10 2 9 1.2 0.6
10 -2 9 1.4 0.7
10 -2 9 1.1 0.7
10 2 9 1.6 0.7
10 -2 9 0.5 0.5
10 -2 9 1.1 0.6
10 -2 9 0.3 0.5
8 -2 11 1.2 0.7
8 -2 11 1.3 0.5
8 -2 11 1.3 0.7
8 2 11 1.7 0.6
8 -2 11 0.3 0.4
6 -2 13 69.49 2.2
6 2 13 63.39 2.1
6 -2 13 62.69 2.1
6 -2 13 63.49 2.1
29 -3 -10 27.4 1.3
29 -3 -10 36.5 1.6
29 -3 -10 40.9 1.8
29 3 -10 40 1.8
29 3 -10 39.8 1.8
29 -3 -10 42.8 1.7
29 -3 -10 35.9 1.4
29 -3 -10 40.4 1.7
27 3 -8 0.4 0.5
27 -3 -8 0.2 0.4
27 -3 -8 -0.6 0.6
27 -3 -8 0.1 0.5
27 3 -8 0.2 0.4
27 -3 -8 0.8 0.5
27 -3 -8 -0.2 0.4
27 3 -8 0.7 0.5
25 3 -6 18.9 1.5
25 -3 -6 19.1 1.6
25 -3 -6 19.5 1.5
25 3 -6 18.9 1.5
25 -3 -6 21.7 1.6
25 -3 -6 19.5 1.6
23 3 -4 7.4 1
23 3 -4 6.7 1
23 -3 -4 5.4 1.1
23 -3 -4 7.5 1.1
23 -3 -4 6.4 1.1
23 -3 -4 7 1.1
21 3 -2 -0.5 0.7
21 3 -2 0.4 0.6
21 -3 -2 0.1 0.5
21 -3 -2 0.8 0.6
21 -3 -2 0.2 0.6
19 3 0 72.59 3.2
19 -3 0 67.09 3.1
19 -3 0 71.19 3.2
19 -3 0 68.19 3.2
19 3 0 68.29 3.2
19 -3 0 70.69 3
17 -3 2 203.28 6
17 3 2 217.08 6.2
17 -3 2 209.38 5.9
17 -3 2 203.38 6.1
17 3 2 234.38 6
17 3 2 226.08 6.1
15 -3 4 177.28 5.4
15 -3 4 182.58 5.3
15 3 4 170.08 5.3
15 -3 4 160.88 5.2
15 -3 4 167.98 5.3
15 3 4 173.28 5.2
15 -3 4 175.78 5.3
13 -3 6 31.3 2
13 3 6 25.6 1.8
13 -3 6 31.2 2
13 -3 6 27.3 2
13 3 6 28.4 1.9
13 -3 6 29.5 2.1
13 -3 6 27.6 2
11 -3 8 55.59 2.5
11 3 8 52.09 2.4
11 -3 8 54.19 2.6
11 3 8 56.09 2.5
11 -3 8 52.79 2.6
11 -3 8 58.19 2.6
9 3 10 21.2 1.4
9 -3 10 23.3 1.4
9 3 10 21.5 1.3
9 -3 10 24.3 1.3
9 -3 10 21.8 1.5
9 -3 10 22 1.5
9 -3 10 21.5 1.5
7 -3 12 0.6 0.4
7 -3 12 1.7 0.4
7 -3 12 0.4 0.3
7 3 12 0.8 0.4
7 -3 12 1.5 0.4
28 4 -9 16.1 0.9
28 -4 -9 17.3 0.9
28 -4 -9 15.1 0.9
28 -4 -9 14.6 0.8
26 4 -7 41.5 1.7
26 -4 -7 43.7 1.8
26 -4 -7 42.7 1.9
26 -4 -7 39.6 1.8
26 -4 -7 45.8 1.9
26 4 -7 41.4 2
24 4 -5 55.39 2.6
24 -4 -5 58.89 2.3
24 -4 -5 54.69 2.4
24 -4 -5 56.39 2.4
24 4 -5 59.09 2.3
24 -4 -5 55.49 2.3
22 4 -3 35.1 2
22 -4 -3 33.6 1.9
22 -4 -3 35.6 1.8
22 -4 -3 35.6 2
22 4 -3 32.7 2.2
22 -4 -3 34.2 1.9
20 -4 -1 18.9 1.5
20 -4 -1 19.9 1.5
20 -4 -1 19.2 1.5
20 -4 -1 18.2 1.5
20 4 -1 20 1.7
20 4 -1 20 1.6
18 -4 1 24 1.7
18 4 1 26 1.8
18 4 1 22.9 1.8
18 -4 1 25.5 1.8
18 -4 1 26.5 1.6
16 -4 3 23.4 1.6
16 4 3 22.9 1.6
16 -4 3 22.5 1.7
16 4 3 21.4 1.6
16 -4 3 25.6 1.6
14 4 5 50.29 2.3
14 -4 5 50.59 2.4
14 -4 5 51.69 2.3
14 -4 5 47.4 2.3
14 -4 5 48.9 2.2
14 -4 5 52.59 2.2
14 4 5 49.7 2.4
12 -4 7 15.8 1.2
12 4 7 13 1
12 4 7 12.8 1.1
12 -4 7 14.5 1.2
12 -4 7 14.3 1.2
12 -4 7 14.5 1.2
12 -4 7 15.1 1.2
10 -4 9 5.4 0.7
10 -4 9 6.8 0.7
10 4 9 5.8 0.7
10 -4 9 7.2 0.8
10 -4 9 6 0.7
10 -4 9 5.9 0.7
25 -5 -6 14.8 0.8
23 5 -4 72.59 2.4
23 -5 -4 75.59 2.2
21 5 -2 6.6 0.8
21 -5 -2 7 0.8
21 -5 -2 5.1 0.6
19 -5 0 41.3 1.6
19 -5 0 43.3 1.8
19 5 0 37.6 1.8
17 -5 2 4.3 0.6
17 -5 2 5.3 0.7
15 -5 4 2.5 0.6
15 -5 4 1.2 0.4
15 -5 4 1.4 0.4
13 -5 6 2 0.4
13 -5 6 3 0.5
13 -5 6 1.8 0.4
32 0 -14 77.89 2.1
30 0 -12 49 2.2
30 0 -12 48.9 2.2
30 0 -12 46.7 2
28 0 -10 53.89 2.7
28 0 -10 52.99 2.7
28 0 -10 60.79 2.7
28 0 -10 60.89 2.6
26 0 -8 282.57 7.1
26 0 -8 262.77 7.4
26 0 -8 278.27 7.4
24 0 -6 20.3 1.7
24 0 -6 22.6 1.7
24 0 -6 19 1.7
24 0 -6 19.1 1.9
22 0 -4 314.07 8
22 0 -4 324.57 8.1
22 0 -4 324.27 8.5
22 0 -4 333.37 8.4
20 0 -2 39.2 4.9
20 0 -2 40.9 2.5
20 0 -2 40.8 2.4
20 0 -2 38.5 2.4
18 0 0 152.68 5.1
18 0 0 166.18 5.1
18 0 0 161.98 5.1
18 0 0 163.78 5.4
18 0 0 168.68 10.1
18 0 0 167.98 5.3
16 0 2 304.47 7.8
16 0 2 288.77 7.5
16 0 2 298.07 13.5
16 0 2 295.37 7.6
16 0 2 303.77 7.5
16 0 2 310.97 7.7
14 0 4 508.45 11.3
14 0 4 534.45 18.5
14 0 4 489.35 10.8
14 0 4 520.25 11.3
14 0 4 509.05 11
14 0 4 516.95 10.9
14 0 4 531.25 11.1
12 0 6 325.77 8.2
12 0 6 319.57 8.3
12 0 6 322.97 7.9
12 0 6 311.37 8
12 0 6 347.07 8.1
12 0 6 335.07 8
10 0 8 83.19 3.3
10 0 8 73.59 3.4
10 0 8 72.49 3.3
10 0 8 76.29 3.6
8 0 10 128.19 4.5
8 0 10 134.69 4.5
8 0 10 132.59 4.4
8 0 10 133.19 4.5
8 0 10 127.19 4.7
6 0 12 16.1 1.4
6 0 12 16.7 1.3
4 0 14 4.8 0.6
4 0 14 5.5 0.7
31 1 -13 4.8 0.7
31 -1 -13 5.4 0.7
31 1 -13 5.4 0.6
31 -1 -13 4.3 0.6
31 -1 -13 5.2 0.6
31 1 -13 5.2 0.6
29 -1 -11 27.9 1.7
29 -1 -11 25.4 1.7
29 1 -11 24.9 1.6
29 1 -11 26.7 1.7
29 -1 -11 26.6 1.7
29 -1 -11 25.1 1.7
27 -1 -9 28 2.1
27 1 -9 31 1.9
27 -1 -9 30.5 2.1
27 1 -9 29 2
27 1 -9 31.8 2
27 -1 -9 32.6 2.1
27 -1 -9 31.4 2
25 -1 -7 46.5 2.6
25 -1 -7 43.8 2.6
25 1 -7 47.3 2.7
25 1 -7 51.49 2.7
25 1 -7 43.6 2.6
25 -1 -7 45.5 2.6
25 -1 -7 45.6 2.7
25 -1 -7 42.1 2.7
23 1 -5 2.9 0.9
23 -1 -5 1 0.7
23 1 -5 -1.4 0.7
23 -1 -5 0.6 0.6
23 -1 -5 0.8 0.7
21 -1 -3 25.4 2
21 -1 -3 26 2.1
21 -1 -3 25.6 2
21 1 -3 26 2
21 -1 -3 26.1 1.9
21 1 -3 25.7 1.9
19 -1 -1 2.2 0.9
19 1 -1 2 0.7
19 -1 -1 2.1 0.8
19 -1 -1 0.6 0.8
19 1 -1 1.3 0.7
19 -1 -1 0.9 0.6
19 -1 -1 0.8 1.2
19 1 -1 -0.7 1.6
19 -1 -1 2.2 0.8
19 -1 -1 1.3 0.6
17 1 1 333.67 7.9
17 1 1 326.67 8.1
17 -1 1 299.77 7.9
17 -1 1 333.97 7.7
17 1 1 311.37 7.8
17 -1 1 302.97 7.8
17 -1 1 311.27 8.1
17 -1 1 304.77 8
17 1 1 325.17 14.5
17 -1 1 323.77 13.9
15 -1 3 101.49 4.1
15 -1 3 100.69 4
15 1 3 88.29 3.7
15 -1 3 103.09 3.9
15 -1 3 100.29 4.1
15 1 3 87.59 3.6
15 -1 3 101.59 4
15 1 3 80.79 3.5
15 1 3 81.59 7
13 -1 5 80.19 3.5
13 1 5 80.99 3.5
13 -1 5 76.79 3.6
13 -1 5 83.09 3.6
13 -1 5 77.79 3.7
13 -1 5 80.99 3.7
13 1 5 87.19 3.5
13 1 5 77.99 3.4
11 -1 7 11.1 1.3
11 1 7 8.5 1.2
11 -1 7 10.2 1.3
11 -1 7 8.3 1.3
11 -1 7 7.6 1.2
11 -1 7 8 1.2
11 1 7 10.2 1.3
9 -1 9 17.1 1.5
9 1 9 13.6 1.4
9 1 9 14.3 1.4
9 -1 9 14.9 1.6
9 -1 9 13.2 1.4
9 -1 9 14.6 1.6
9 -1 9 15.6 1.5
7 -1 11 30.5 1.7
7 -1 11 25.7 1.7
7 -1 11 27 1.9
7 1 11 28.2 1.9
7 1 11 26.7 1.7
7 -1 11 24.4 1.9
5 1 13 39.9 1.7
5 -1 13 36.9 1.8
5 -1 13 37 1.8
5 -1 13 35.4 2
5 1 13 35.1 1.8
5 -1 13 38.5 1.8
3 -1 15 0.5 0.3
3 1 15 0.3 0.3
30 2 -12 9.8 0.9
30 2 -12 9.5 1
30 -2 -12 9.4 0.9
30 -2 -12 8.4 0.8
30 -2 -12 8.8 0.8
30 -2 -12 10.3 0.9
28 2 -10 25.5 1.5
28 -2 -10 25.2 1.8
28 -2 -10 23.8 1.7
28 -2 -10 30.1 1.8
28 -2 -10 24.3 1.5
28 2 -10 26.7 1.6
28 -2 -10 26.1 1.8
26 2 -8 73.89 3
26 -2 -8 63.99 3.1
26 -2 -8 70.79 3.2
26 -2 -8 64.29 3
26 -2 -8 67.19 3.1
26 2 -8 63.49 2.9
26 -2 -8 65.49 3.2
24 2 -6 37.9 2.4
24 2 -6 43.5 2.3
24 -2 -6 38.9 2.4
24 -2 -6 37.9 2.5
24 -2 -6 38.5 2.4
22 -2 -4 27.8 2
22 -2 -4 26.1 2
22 -2 -4 27.1 2
22 2 -4 25.2 2
22 -2 -4 27.4 2
22 2 -4 28.8 2
22 -2 -4 28.3 2.2
20 2 -2 128.89 4.7
20 -2 -2 127.49 4.6
20 -2 -2 128.99 4.7
20 -2 -2 134.99 4.8
20 -2 -2 134.29 4.8
18 2 0 3.6 1
18 -2 0 4.8 1
18 -2 0 3 0.7
18 -2 0 2.6 0.8
18 2 0 3.7 0.9
18 -2 0 3.3 0.9
16 -2 2 46.2 2.7
16 -2 2 49.9 2.7
16 2 2 53.09 2.7
16 -2 2 43.9 2.7
16 -2 2 48 2.8
16 2 2 49.1 2.9
16 -2 2 47.1 2.6
14 2 4 271.57 7.1
14 -2 4 256.97 7
14 2 4 268.67 7.3
14 2 4 260.97 7
14 -2 4 257.97 7.2
14 -2 4 268.57 7.2
14 -2 4 263.97 7.2
12 -2 6 49.5 2.7
12 -2 6 47.6 2.8
12 -2 6 42.2 2.7
12 2 6 46.9 2.7
12 2 6 47.5 2.6
12 2 6 45.4 2.6
12 -2 6 45.4 2.8
12 -2 6 50.89 2.8
10 -2 8 64.79 3.2
10 2 8 66.19 3.1
10 2 8 72.69 3.1
10 -2 8 67.69 3.3
10 -2 8 72.79 3.2
10 2 8 68.59 3
10 -2 8 65.49 3.4
10 -2 8 72.09 3.2
10 2 8 70.29 3.2
8 -2 10 23.4 1.8
8 -2 10 22.9 1.8
8 2 10 24.8 1.6
8 -2 10 23.6 1.9
8 2 10 24.2 1.7
8 2 10 25.4 1.7
8 2 10 25.5 1.8
8 -2 10 26.3 1.7
6 2 12 3.5 0.6
6 2 12 5.3 0.8
6 -2 12 3.9 0.8
6 -2 12 5.6 0.7
6 -2 12 5.2 0.8
4 2 14 2.1 0.4
4 -2 14 2.1 0.4
4 -2 14 1.4 0.4
4 -2 14 2.7 0.4
29 -3 -11 3.7 0.6
29 -3 -11 3.8 0.5
29 -3 -11 4.1 0.6
29 3 -11 3.7 0.6
29 -3 -11 4.6 0.6
29 3 -11 4.2 0.6
29 -3 -11 4.7 0.6
27 3 -9 18.1 1.4
27 -3 -9 18.5 1.3
27 3 -9 17.9 1.4
27 -3 -9 20.6 1.4
27 -3 -9 17.4 1.3
27 -3 -9 19.9 1.5
27 3 -9 18.9 1.4
25 -3 -7 10.9 1.2
25 -3 -7 9.1 1.1
25 -3 -7 9.2 1.2
25 -3 -7 9.7 1.2
25 3 -7 7.9 1.1
25 3 -7 8.6 1.1
25 3 -7 7.6 1.1
23 -3 -5 2.5 0.7
23 -3 -5 2.8 0.9
23 3 -5 2.7 0.8
23 3 -5 2.4 0.7
23 -3 -5 1.9 0.7
23 3 -5 3 0.8
21 -3 -3 15 1.5
21 -3 -3 15.3 1.6
21 3 -3 14.6 1.5
21 -3 -3 15.3 1.6
21 3 -3 14.6 1.5
21 -3 -3 14.9 1.5
19 -3 -1 9.2 1.3
19 -3 -1 8 1.2
19 -3 -1 8 1.2
19 3 -1 11.6 1.3
19 -3 -1 8.8 1.1
19 3 -1 8.5 1.2
17 3 1 1.3 0.6
17 3 1 1.1 0.6
17 -3 1 1.1 0.6
17 -3 1 1.5 0.8
17 -3 1 1.1 0.8
17 3 1 1.5 0.8
15 3 3 46.7 2.6
15 3 3 49.6 2.8
15 -3 3 50.19 2.6
15 -3 3 48.4 2.7
15 -3 3 48.7 2.7
15 -3 3 45.4 2.5
13 -3 5 10.9 1.3
13 3 5 10.3 1.3
13 3 5 9.1 1.2
13 -3 5 9.8 1.3
13 -3 5 9.9 1.3
11 -3 7 15.8 1.6
11 3 7 15.8 1.5
11 -3 7 16.4 1.5
11 -3 7 16.7 1.6
11 3 7 15.6 1.5
11 -3 7 15.5 1.5
9 -3 9 3.9 0.9
9 -3 9 5.4 0.9
9 -3 9 3.9 0.8
9 -3 9 3.4 0.9
9 3 9 4.2 0.9
9 -3 9 4.4 0.8
9 3 9 3.7 0.7
7 -3 11 6.4 0.9
7 -3 11 6.1 0.9
7 -3 11 8.3 0.9
7 -3 11 5.6 0.8
7 3 11 6.2 0.8
5 3 13 0.6 0.3
5 -3 13 0.5 0.3
5 -3 13 0.9 0.3
5 -3 13 0.7 0.3
28 4 -10 66.39 1.9
28 -4 -10 59.79 1.9
28 -4 -10 65.89 1.8
28 -4 -10 58.29 1.8
28 -4 -10 61.69 1.9
26 -4 -8 31 1.5
26 4 -8 29.4 1.6
26 4 -8 34.6 1.7
26 -4 -8 35.5 1.6
26 -4 -8 39.1 1.8
26 -4 -8 31.8 1.7
26 4 -8 31.9 1.5
24 -4 -6 24 1.5
24 4 -6 20.8 1.6
24 -4 -6 25.8 1.5
24 -4 -6 22.9 1.6
24 -4 -6 25.1 1.6
24 4 -6 24.5 1.5
22 -4 -4 47.1 2.4
22 -4 -4 47.3 2.3
22 -4 -4 46.1 2.3
22 4 -4 43.4 2.6
22 4 -4 50.09 2.3
20 4 -2 16.1 1.5
20 4 -2 14.2 1.5
20 -4 -2 17.7 1.4
20 -4 -2 15.3 1.4
20 -4 -2 16.5 1.5
20 -4 -2 17 1.4
18 -4 0 20.5 1.5
18 -4 0 18.2 1.5
18 4 0 18.8 1.6
18 4 0 16.2 1.7
18 -4 0 17.3 1.5
16 -4 2 7.6 1
16 4 2 10.3 1.2
16 -4 2 9.7 1.1
16 4 2 8.9 1.2
16 -4 2 9.2 1.1
14 -4 4 1.9 0.6
14 -4 4 2 0.7
14 4 4 1.6 0.7
14 4 4 1.7 0.7
14 -4 4 2.2 0.7
14 -4 4 1.5 0.5
12 4 6 41.4 2
12 -4 6 40.4 2.1
12 -4 6 41.1 2.1
12 4 6 39 2.1
12 -4 6 43.2 2.2
12 -4 6 39.2 2.1
12 4 6 39.1 2
10 4 8 13.4 1.2
10 -4 8 13.7 1.2
10 -4 8 13.1 1.2
10 4 8 13.7 1.1
10 -4 8 14.1 1.2
10 -4 8 14.8 1.2
8 4 10 9.7 0.8
8 -4 10 10.7 0.9
8 -4 10 12.2 0.9
8 4 10 10.3 0.9
8 -4 10 12 1
8 -4 10 12.4 1
8 -4 10 10.8 0.9
25 -5 -7 62.89 1.9
25 -5 -7 60.49 1.8
23 5 -5 32.8 1.7
23 -5 -5 32.5 1.4
21 -5 -3 61.59 2.3
21 -5 -3 61.89 2.1
21 5 -3 60.89 2.5
19 5 -1 41.5 2.1
19 -5 -1 43.6 1.9
19 -5 -1 43.1 1.8
17 -5 1 16.3 1.1
17 -5 1 16.8 1.2
17 5 1 14.3 1.1
15 -5 3 37.2 1.6
15 -5 3 34.2 1.7
15 -5 3 36.6 1.8
13 -5 5 17.3 1.1
13 -5 5 18.7 1.3
13 -5 5 17.4 1.1
11 -5 7 2.5 0.4
11 -5 7 3.7 0.6
30 0 -13 -0.6 0.5
30 0 -13 0.5 0.4
30 0 -13 0.2 0.4
28 0 -11 0.2 0.6
28 0 -11 -0.5 0.5
28 0 -11 0.2 0.6
28 0 -11 0 0.5
26 0 -9 1.3 0.6
26 0 -9 0.4 0.6
26 0 -9 -0.4 0.7
26 0 -9 0.5 0.6
26 0 -9 0.3 0.6
24 0 -7 -0.1 0.6
24 0 -7 0.5 0.6
24 0 -7 0.4 0.7
22 0 -5 1.1 0.5
22 0 -5 0 0.6
22 0 -5 0.3 0.6
22 0 -5 0.4 0.6
22 0 -5 -0.9 0.8
20 0 -3 1.1 0.8
20 0 -3 0.5 0.7
20 0 -3 1.4 1.4
20 0 -3 0 0.6
20 0 -3 1.8 0.7
18 0 -1 0.6 0.6
18 0 -1 0.7 0.7
18 0 -1 0.9 0.7
18 0 -1 0.4 0.7
18 0 -1 -0.7 1
16 0 1 -2.3 1.1
16 0 1 1.9 0.6
16 0 1 0.3 0.6
16 0 1 0.4 0.9
16 0 1 -0.9 1
16 0 1 -1 0.8
14 0 3 -0.4 0.7
14 0 3 1.1 0.8
14 0 3 0 0.6
14 0 3 0.1 0.5
14 0 3 -2 1.5
14 0 3 0.1 0.8
12 0 5 14.6 1.7
12 0 5 18.8 1.8
12 0 5 16.9 1.8
12 0 5 14.9 1.6
12 0 5 14.7 1.6
10 0 7 0.3 0.6
10 0 7 1 0.7
10 0 7 0.2 0.6
10 0 7 -0.3 0.6
8 0 9 0.8 0.7
8 0 9 0.4 0.6
8 0 9 0.4 0.8
6 0 11 0.5 0.7
6 0 11 1.1 0.7
6 0 11 0.6 0.6
4 0 13 -0.4 0.6
4 0 13 0.7 0.5
4 0 13 -0.1 0.6
4 0 13 0 0.5
2 0 15 0 0.4
31 -1 -14 12.2 0.9
31 1 -14 11.1 0.9
31 -1 -14 11.2 0.8
31 1 -14 13.1 0.8
31 1 -14 9 0.7
31 -1 -14 11.9 0.8
29 -1 -12 45.9 2.2
29 -1 -12 44.6 2.2
29 1 -12 46.2 2.2
29 -1 -12 44.6 2.2
29 1 -12 43.7 2.2
29 1 -12 46.4 2
29 -1 -12 45.8 2.2
27 -1 -10 58.69 2.7
27 1 -10 55.69 2.8
27 -1 -10 52.79 2.8
27 1 -10 55.29 2.7
27 1 -10 58.49 2.6
27 -1 -10 59.49 2.9
27 -1 -10 57.69 2.9
27 -1 -10 58.29 2.9
25 -1 -8 36.8 2.5
25 1 -8 38.2 2.4
25 -1 -8 35.4 2.4
25 -1 -8 41.7 2.4
25 1 -8 36.9 2.4
25 -1 -8 38.6 2.5
25 -1 -8 35.4 2.3
25 1 -8 41.4 2.5
23 -1 -6 86.19 3.7
23 1 -6 95.69 3.9
23 -1 -6 94.79 3.8
23 -1 -6 84.79 3.7
23 -1 -6 94.19 4.1
23 1 -6 88.29 3.8
23 1 -6 83.89 3.7
23 -1 -6 86.59 3.9
23 -1 -6 95.19 3.9
21 -1 -4 105.99 4.1
21 1 -4 106.59 4.2
21 -1 -4 106.39 4.1
21 -1 -4 102.09 4.3
21 -1 -4 106.19 4.2
21 1 -4 116.49 8.4
21 -1 -4 109.49 4.2
19 1 -2 209.58 5.9
19 -1 -2 203.08 6.2
19 -1 -2 202.48 11.1
19 1 -2 204.68 6.1
19 1 -2 212.58 11.4
19 -1 -2 209.88 6.1
19 -1 -2 208.38 6
19 -1 -2 206.38 6.2
19 -1 -2 208.88 6.1
19 1 -2 220.18 6.3
17 -1 0 220.98 6.2
17 -1 0 222.08 6.4
17 1 0 214.48 11.4
17 -1 0 220.68 11.2
17 1 0 220.48 6.1
17 -1 0 220.08 6.4
17 -1 0 219.58 6.5
17 1 0 228.38 6.2
15 -1 2 132.79 4.4
15 1 2 116.19 8.3
15 -1 2 136.39 4.8
15 -1 2 129.59 4.6
15 1 2 122.19 4.4
15 1 2 131.39 4.6
15 -1 2 135.59 4.6
15 -1 2 130.89 4.5
15 -1 2 131.29 4.7
13 -1 4 369.56 9.3
13 -1 4 381.36 9.1
13 -1 4 382.76 9.2
13 -1 4 390.86 9.1
13 -1 4 371.76 8.8
13 1 4 379.06 15.6
13 1 4 363.86 8.8
13 1 4 392.96 9
11 -1 6 224.58 6.6
11 -1 6 223.58 6.5
11 1 6 223.08 6.2
11 -1 6 218.88 6.7
11 -1 6 233.48 6.4
11 1 6 224.08 6.3
11 -1 6 220.48 6.2
9 1 8 367.26 8.9
9 -1 8 366.06 9.4
9 1 8 377.46 8.7
9 -1 8 355.06 9
9 -1 8 388.06 8.8
9 -1 8 366.66 9.2
9 -1 8 384.06 8.9
7 -1 10 17.5 1.6
7 -1 10 20.3 1.6
7 1 10 18 1.6
7 -1 10 18.5 1.6
7 -1 10 19.9 1.8
7 -1 10 19.9 1.8
7 1 10 19.6 1.6
5 1 12 14.8 1.4
5 -1 12 14 1.4
5 1 12 15.3 1.3
5 -1 12 14.3 1.4
5 -1 12 13.8 1.3
3 1 14 6.3 0.8
3 -1 14 5.9 0.8
3 -1 14 6.8 0.8
3 -1 14 6.3 0.8
3 -1 14 6 0.7
3 -1 14 5 0.8
30 2 -13 49.2 1.6
30 2 -13 53.59 2.1
30 -2 -13 42.8 1.6
30 -2 -13 54.49 2
30 -2 -13 48.7 1.8
30 2 -13 52.89 1.9
30 -2 -13 55.59 2
28 2 -11 27.1 1.6
28 -2 -11 26.6 1.7
28 -2 -11 27.4 1.7
28 2 -11 28.5 1.6
28 -2 -11 27.6 1.8
28 -2 -11 25.9 1.7
28 2 -11 24.7 1.8
28 -2 -11 26.6 1.6
28 -2 -11 26.3 1.7
26 -2 -9 20.4 1.7
26 -2 -9 22.6 1.7
26 -2 -9 22.1 1.7
26 -2 -9 19.2 1.7
26 2 -9 21.5 1.7
26 2 -9 21.3 1.6
26 2 -9 20.1 1.6
26 -2 -9 20.4 1.7
24 -2 -7 14 1.5
24 -2 -7 15 1.5
24 -2 -7 15.7 1.6
24 2 -7 19.4 1.7
24 2 -7 15.2 1.5
24 -2 -7 15.1 1.5
22 -2 -5 4.9 1
22 -2 -5 4.6 0.9
22 -2 -5 4.6 1
22 -2 -5 3.7 0.8
22 2 -5 5.5 1
22 2 -5 4.1 0.9
20 2 -3 50.89 2.8
20 -2 -3 54.09 2.9
20 -2 -3 54.29 2.9
20 2 -3 48.4 2.8
20 -2 -3 52.29 2.9
20 -2 -3 52.69 5.6
18 2 -1 8.8 1.2
18 2 -1 11.6 1.3
18 -2 -1 9.2 1.2
18 -2 -1 9 2.4
18 -2 -1 10.4 1.3
18 2 -1 6.2 2.3
18 -2 -1 8.9 1.2
18 -2 -1 8.2 1.1
16 2 1 377.66 8.7
16 -2 1 384.26 15.2
16 -2 1 367.36 9
16 2 1 370.56 15.5
16 -2 1 373.96 15.7
16 -2 1 355.76 8.8
16 -2 1 357.46 8.6
16 2 1 366.66 9
16 -2 1 359.16 8.9
14 -2 3 21.8 1.8
14 2 3 21.9 1.8
14 2 3 22.4 1.8
14 -2 3 24.9 2
14 2 3 23 1.9
14 -2 3 20.1 1.7
14 2 3 20.5 3.5
14 -2 3 21.7 3.6
12 -2 5 27.6 2.1
12 -2 5 26.7 2
12 2 5 27.9 2
12 -2 5 25.1 2.1
12 2 5 24.6 1.9
12 -2 5 25 2
10 2 7 8.1 1.2
10 -2 7 9.3 1.4
10 -2 7 9.5 1.3
10 2 7 8.8 1.2
10 2 7 8.4 1.1
10 -2 7 8.7 1.3
10 -2 7 8.7 1.2
8 -2 9 72.99 3.6
8 -2 9 76.99 3.4
8 -2 9 88.39 3.4
8 -2 9 82.19 3.4
8 2 9 81.59 3.4
8 2 9 82.49 3.3
8 2 9 77.69 3.4
8 -2 9 73.19 3.5
8 -2 9 77.69 3.5
8 2 9 81.99 3.4
6 -2 11 32.3 1.9
6 2 11 34.2 1.8
6 2 11 31.5 1.9
6 -2 11 33 1.8
6 -2 11 29.4 2.1
6 2 11 31.1 1.9
6 -2 11 30.2 2.1
6 -2 11 30.2 2
6 -2 11 31.2 2
4 2 13 33.2 1.6
4 -2 13 32.4 1.9
4 -2 13 34.2 1.8
4 -2 13 30.9 1.5
4 2 13 34.9 1.8
2 -2 15 3.9 0.4
2 2 15 1.6 0.3
29 3 -12 56.09 2.1
29 -3 -12 55.49 1.8
29 -3 -12 58.09 2
29 -3 -12 59.09 2.1
29 3 -12 59.09 2
27 3 -10 32.6 1.9
27 -3 -10 33.9 1.8
27 3 -10 31.2 1.8
27 -3 -10 34.7 2
27 -3 -10 31.4 1.8
27 -3 -10 33.5 1.8
25 -3 -8 24.5 1.8
25 3 -8 22.3 1.8
25 -3 -8 24 1.7
25 -3 -8 24 1.8
25 -3 -8 24.5 1.8
25 3 -8 22.1 1.8
23 -3 -6 22.8 1.8
23 3 -6 23.4 1.7
23 -3 -6 23.9 1.9
23 3 -6 23.5 1.9
23 3 -6 22.8 1.9
23 -3 -6 23 1.8
21 -3 -4 119.09 4.5
21 -3 -4 116.09 4.3
21 -3 -4 126.39 4.3
21 3 -4 114.79 4.3
21 3 -4 112.29 4.3
21 -3 -4 116.99 4.3
19 -3 -2 31.8 2
19 -3 -2 29.2 2.1
19 3 -2 30.3 2.2
19 3 -2 29.7 2.1
19 -3 -2 30.5 2.1
17 3 0 198.38 5.8
17 -3 0 201.68 5.7
17 3 0 183.48 5.9
17 3 0 189.18 5.8
17 -3 0 184.98 5.8
17 -3 0 196.38 5.9
15 3 2 87.09 3.7
15 -3 2 88.79 3.7
15 3 2 92.19 3.6
15 -3 2 83.69 3.5
15 3 2 88.49 3.8
15 -3 2 86.39 3.7
13 3 4 42.5 2.6
13 -3 4 41.7 2.5
13 3 4 41.6 2.5
13 -3 4 40.2 2.5
13 -3 4 41.9 2.5
11 -3 6 21.4 1.8
11 -3 6 18.6 1.8
11 3 6 20.3 1.7
11 3 6 21.3 1.8
11 -3 6 21.4 1.7
11 -3 6 19.6 1.8
9 -3 8 27.3 2
9 3 8 30.8 1.9
9 -3 8 27.1 2.1
9 -3 8 27.5 2
9 -3 8 27.1 1.9
9 3 8 26.8 1.9
9 3 8 27.9 2
7 -3 10 3.1 0.7
7 3 10 3.4 0.8
7 -3 10 4.2 0.8
7 -3 10 3.5 0.8
7 -3 10 3 0.7
7 -3 10 3.9 0.8
7 -3 10 2.8 0.7
7 3 10 3.2 0.7
5 3 12 0.9 0.5
5 -3 12 0.6 0.6
5 -3 12 1 0.4
5 -3 12 0 0.5
5 -3 12 0.6 0.5
3 -3 14 37.1 1.4
3 -3 14 41.5 1.4
3 -3 14 38.4 1.4
28 -4 -11 9.8 0.7
28 4 -11 9.9 0.7
28 -4 -11 8.3 0.6
28 -4 -11 9 0.7
26 -4 -9 26.3 1.4
26 -4 -9 30 1.7
26 4 -9 26.3 1.4
26 4 -9 29.4 1.6
26 -4 -9 31.1 1.6
26 4 -9 27.7 1.6
24 4 -7 69.69 3
24 4 -7 69.09 2.8
24 -4 -7 72.19 2.9
24 4 -7 75.69 2.9
24 -4 -7 69.59 2.8
24 -4 -7 65.89 2.6
22 4 -5 66.59 2.9
22 -4 -5 65.19 2.8
22 -4 -5 63.49 2.8
22 -4 -5 72.79 3.1
22 4 -5 62.29 3.2
20 4 -3 19.9 1.5
20 -4 -3 20.4 1.6
20 4 -3 19.4 1.9
20 -4 -3 19 1.6
20 -4 -3 18.5 1.6
20 4 -3 19 1.6
20 -4 -3 21.7 1.6
18 4 -1 2.2 0.6
18 -4 -1 3.7 0.8
18 4 -1 3.5 0.8
18 -4 -1 4 0.9
16 4 1 58.29 2.9
16 -4 1 59.29 2.7
16 -4 1 61.99 2.9
14 4 3 12.6 1.4
14 -4 3 11.7 1.2
14 4 3 11.9 1.3
14 -4 3 12.6 1.2
14 4 3 12.8 1.4
14 -4 3 14 1.4
12 4 5 3.2 0.7
12 -4 5 4.7 0.9
12 -4 5 3.1 0.8
12 4 5 3.1 0.9
12 -4 5 2.5 0.7
12 -4 5 2.4 0.6
12 4 5 2.8 0.7
10 4 7 56.39 2.5
10 4 7 51.49 2.3
10 4 7 52.49 2.5
10 -4 7 54.29 2.6
10 -4 7 54.39 2.6
8 4 9 14 1.2
8 -4 9 11.8 1.2
8 -4 9 13.8 1.2
8 4 9 12.6 1.1
8 -4 9 13.2 1.2
6 4 11 36 1.6
6 -4 11 39.9 1.8
6 -4 11 34.6 1.3
6 -4 11 37.8 1.7
6 4 11 37.7 1.6
6 -4 11 36.5 1.6
6 -4 11 40.9 1.7
25 -5 -8 85.49 2.4
23 5 -6 32.4 1.4
23 -5 -6 33.6 1.5
23 5 -6 30.3 1.7
23 -5 -6 36.6 1.7
21 -5 -4 21.5 1.4
21 -5 -4 21.6 1.4
21 5 -4 20 1.5
21 -5 -4 22.5 1.3
19 -5 -2 17.6 1.3
19 5 -2 15.9 1.4
17 -5 0 -1 0.5
17 5 0 -0.9 0.5
15 -5 2 1.9 0.6
15 5 2 1.4 0.5
15 -5 2 2.3 0.6
15 5 2 3.5 0.6
13 -5 4 2.7 0.5
13 5 4 3.9 0.7
11 -5 6 32 1.5
11 -5 6 35 1.6
11 5 6 32 1.6
9 -5 8 2 0.4
9 -5 8 2.8 0.5
9 -5 8 1.3 0.4
9 5 8 2.1 0.5
18 -6 -1 6.3 0.6
30 0 -14 4.5 0.7
30 0 -14 4.6 0.7
30 0 -14 4.5 0.7
30 0 -14 5.9 0.7
28 0 -12 4.7 0.8
28 0 -12 6.6 1
28 0 -12 4 0.8
28 0 -12 4.3 0.8
26 0 -10 62.59 3.1
26 0 -10 66.09 3.4
26 0 -10 66.39 3
26 0 -10 67.99 3.2
26 0 -10 69.99 3.1
24 0 -8 52.09 3
24 0 -8 55.69 2.8
24 0 -8 52.99 3.1
24 0 -8 55.19 2.9
24 0 -8 55.59 2.9
22 0 -6 79.39 3.5
22 0 -6 88.59 3.6
22 0 -6 81.09 3.8
22 0 -6 82.39 3.7
20 0 -4 397.16 9.5
20 0 -4 378.26 9
20 0 -4 408.16 16.4
20 0 -4 380.06 8.9
20 0 -4 396.16 9
18 0 -2 181.88 10.1
16 0 0 384.66 15
14 0 2 1254.17 30.7
12 0 4 344.37 13.9
12 0 4 347.97 8.2
12 0 4 352.86 8.5
12 0 4 362.66 8.7
12 0 4 367.86 8.9
10 0 6 237.58 6.9
10 0 6 243.08 6.7
10 0 6 238.98 6.5
10 0 6 230.48 6.6
10 0 6 240.38 6.3
8 0 8 28.2 2.1
8 0 8 30.7 1.9
8 0 8 26.4 2
8 0 8 27 2.1
8 0 8 28.8 2.2
6 0 10 33.4 2.3
6 0 10 39 2.4
6 0 10 36.4 2.5
4 0 12 8.4 1.2
4 0 12 7.5 1.1
4 0 12 10 1.2
2 0 14 22.7 1.6
2 0 14 23.9 1.6
2 0 14 25.9 1.5
2 0 14 23.7 1.6
0 0 16 24.7 1.2
31 -1 -15 1.1 0.3
31 -1 -15 2.5 0.4
31 1 -15 2.5 0.4
29 -1 -13 19.7 1.4
29 1 -13 18.4 1.3
29 -1 -13 18.2 1.4
29 1 -13 20.3 1.4
29 -1 -13 19.1 1.4
29 1 -13 19.5 1.4
29 -1 -13 18.3 1.3
27 1 -11 81.19 3.4
27 -1 -11 89.49 3.3
27 -1 -11 78.89 3.2
27 -1 -11 77.79 3.4
27 1 -11 80.69 3.5
27 -1 -11 81.49 3.6
27 -1 -11 80.49 3.4
27 -1 -11 81.89 3.5
27 1 -11 87.49 3.3
25 1 -9 34.4 2.3
25 -1 -9 32.2 2.3
25 1 -9 37.3 2.5
25 1 -9 40.2 2.4
25 -1 -9 31.9 2.1
25 -1 -9 34.6 2.3
25 -1 -9 33.3 2.4
23 -1 -7 127.19 4.6
23 1 -7 144.69 4.6
23 1 -7 140.79 5.1
23 -1 -7 137.59 4.8
23 -1 -7 125.39 4.6
23 -1 -7 142.09 5
23 1 -7 138.09 4.9
23 1 -7 130.59 4.8
23 -1 -7 130.29 5
23 -1 -7 128.99 4.9
21 1 -5 24.5 1.9
21 -1 -5 23.7 1.8
21 1 -5 22.6 3.8
21 -1 -5 22.4 1.8
21 -1 -5 20.6 1.9
21 -1 -5 22.9 1.8
21 1 -5 24.8 2
19 1 -3 127.29 4.3
19 -1 -3 128.29 4.5
19 -1 -3 127.29 4.4
19 1 -3 120.09 8.4
19 1 -3 124.99 4.5
19 -1 -3 120.39 4.4
19 -1 -3 122.79 4.4
19 1 -3 130.09 4.5
17 1 -1 30.5 4.2
17 -1 -1 36.6 4.2
17 -1 -1 27.3 3.9
15 1 1 154.18 9.4
15 -1 1 190.88 9.9
13 1 3 24.5 3.7
13 1 3 25.9 1.9
13 -1 3 28.8 2.1
13 -1 3 27.8 2
13 -1 3 28.4 2
13 -1 3 26 1.9
13 -1 3 27.8 2
11 1 5 25.7 3.7
11 1 5 28.8 2
11 1 5 29.1 1.9
11 -1 5 25.2 1.9
11 1 5 28.9 2
11 -1 5 25.5 2
11 -1 5 25.3 2
11 -1 5 26.7 2.1
11 1 5 27.3 2
11 -1 5 24.7 1.9
9 -1 7 17.9 1.7
9 -1 7 17.1 1.7
9 -1 7 20.1 1.7
9 1 7 22 5.2
9 -1 7 20 1.7
9 -1 7 19 1.6
9 1 7 32.4 2.6
9 -1 7 18.9 1.8
9 -1 7 17.2 1.7
9 1 7 22.1 2.2
9 -1 7 18.2 3.5
9 1 7 23.9 2.2
9 1 7 24.9 2.3
9 1 7 26.8 2.3
7 -1 9 32.1 2.3
7 -1 9 32.8 2.2
7 -1 9 31.2 2.2
7 1 9 30 2.1
7 -1 9 30.3 2.3
7 -1 9 34.7 2.2
7 1 9 29.3 2.1
7 1 9 34.1 2.3
7 -1 9 28.9 2.2
7 1 9 30 2.2
5 1 11 4.1 0.9
5 -1 11 4.1 0.8
5 -1 11 5.1 1
5 1 11 4.1 0.8
5 -1 11 5 1
5 -1 11 3.7 0.9
5 -1 11 3.5 0.9
5 1 11 4.1 0.9
5 1 11 4 0.9
5 -1 11 4.6 1
3 -1 13 0.8 0.7
3 1 13 0.1 0.5
3 1 13 1.7 0.6
3 -1 13 0.9 0.6
3 1 13 1.6 0.7
3 -1 13 0.7 0.6
1 1 15 20.6 1.2
1 -1 15 16.3 1.1
1 -1 15 20.3 1.1
1 -1 15 19.7 1.3
1 -1 15 19 1.2
30 -2 -14 0.7 0.3
30 2 -14 0.2 0.2
30 2 -14 0.2 0.3
30 -2 -14 0.4 0.3
30 -2 -14 0.2 0.2
28 -2 -12 72.99 2.8
28 2 -12 74.69 2.7
28 2 -12 74.29 2.7
28 2 -12 67.89 3
28 -2 -12 73.49 2.9
28 -2 -12 73.69 2.8
28 -2 -12 71.59 2.9
28 -2 -12 75.89 2.9
26 -2 -10 23.5 1.9
26 -2 -10 26.4 1.9
26 2 -10 26.9 1.8
26 2 -10 26.5 1.8
26 -2 -10 24.3 1.9
26 -2 -10 26.8 2
24 -2 -8 104.69 4.3
24 -2 -8 102.79 4
24 -2 -8 107.89 4.1
24 2 -8 113.79 4.2
24 -2 -8 103.19 4.3
24 2 -8 106.09 4.2
24 2 -8 117.29 4.1
22 2 -6 23.6 2
22 2 -6 26.3 2
22 -2 -6 27.2 2.1
22 -2 -6 24.9 2.2
22 2 -6 26.4 2
22 -2 -6 25.2 2
20 2 -4 85.19 7.3
20 2 -4 84.19 3.8
20 -2 -4 93.69 3.8
20 2 -4 94.59 3.9
20 -2 -4 93.39 3.9
20 -2 -4 95.89 7.5
20 -2 -4 91.59 3.8
18 -2 -2 11 1.3
18 -2 -2 12.8 1.3
18 -2 -2 10.7 1.3
18 -2 -2 12.6 2.8
18 2 -2 10.2 2.4
18 -2 -2 10.7 1.3
18 2 -2 13 1.4
18 -2 -2 13.7 2.8
16 -2 0 154.48 5
16 -2 0 136.99 9.1
16 -2 0 143.19 4.7
16 2 0 137.69 4.9
16 -2 0 142.39 4.8
16 2 0 139.39 9.1
16 2 0 149.79 4.7
16 -2 0 146.79 5
16 -2 0 139.99 8.8
14 -2 2 380.56 8.8
14 2 2 354.76 15.1
14 2 2 373.06 8.7
14 2 2 368.16 8.6
14 -2 2 355.36 8.5
14 2 2 361.06 8.9
14 -2 2 367.76 14.8
14 -2 2 380.66 9
14 -2 2 376.56 15.4
12 -2 4 106.99 8.4
12 2 4 119.59 4.2
12 -2 4 108.29 4
12 -2 4 103.89 4.2
12 -2 4 115.29 8
12 2 4 110.99 4.1
12 2 4 115.79 8.3
12 -2 4 100.19 4.1
12 -2 4 105.19 4.2
12 2 4 111.19 4.2
10 -2 6 171.18 5.8
10 -2 6 164.48 5.4
10 2 6 175.98 5.3
10 -2 6 164.58 5.5
10 -2 6 166.38 5.6
10 2 6 177.48 5.5
10 2 6 165.18 5.3
8 2 8 55.69 2.9
8 -2 8 57.69 3.2
8 -2 8 55.49 3
8 2 8 60.89 2.9
8 -2 8 54.39 3
8 -2 8 56.19 3
8 2 8 60.49 3
6 2 10 123.39 4.4
6 -2 10 125.59 4.6
6 -2 10 125.79 4.6
6 2 10 136.19 4.3
6 2 10 136.29 4.3
6 -2 10 120.59 4.7
6 -2 10 135.59 4.3
6 2 10 121.49 4.4
6 -2 10 119.39 4.4
4 -2 12 18.1 1.4
4 -2 12 19.5 1.6
4 -2 12 19.3 1.7
4 -2 12 23 1.5
4 -2 12 19 1.6
4 2 12 19 1.5
4 2 12 18 1.5
4 -2 12 20.8 1.6
2 2 14 8.4 0.8
2 -2 14 9.1 0.9
2 -2 14 10.2 1
2 2 14 9 0.9
2 -2 14 9.2 1
29 3 -13 22.3 1.1
29 -3 -13 22.7 1.2
29 -3 -13 23.3 1.2
29 3 -13 22.3 1.2
29 -3 -13 21.7 1.1
27 -3 -11 83.99 2.9
27 -3 -11 80.89 3
27 -3 -11 80.69 2.7
27 3 -11 81.59 3.1
27 3 -11 82.19 3
27 -3 -11 78.29 2.8
27 -3 -11 82.39 3.1
25 3 -9 30.8 2.1
25 -3 -9 31 1.9
25 -3 -9 28.6 1.9
25 -3 -9 31.4 2
25 -3 -9 30.9 2.1
25 -3 -9 31.9 2
25 3 -9 31.9 2.1
23 -3 -7 25.1 1.9
23 -3 -7 23.6 1.8
23 3 -7 23.6 2
23 3 -7 23.5 1.9
23 -3 -7 22.7 1.8
23 -3 -7 22.8 1.9
21 3 -5 176.58 5.6
21 -3 -5 179.28 5.8
21 3 -5 170.68 5.6
21 -3 -5 175.68 5.5
21 -3 -5 186.18 5.5
19 -3 -3 103.69 4
19 3 -3 98.69 4
19 3 -3 97.79 4.1
19 -3 -3 96.69 3.9
17 -3 -1 351.76 8.1
17 -3 -1 324.37 8.2
17 3 -1 319.07 8.2
17 3 -1 318.67 8.3
17 -3 -1 350.26 8.4
15 -3 1 64.69 3
15 3 1 64.49 3.2
15 3 1 65.69 3.1
15 -3 1 74.69 3.3
15 3 1 65.59 3.1
15 -3 1 70.89 3.3
13 3 3 45.3 2.6
13 3 3 44 2.6
13 -3 3 48.4 2.7
13 -3 3 45.3 2.6
11 3 5 5 1
11 -3 5 4.9 1
11 -3 5 3.8 0.9
11 -3 5 4.7 0.9
11 -3 5 4.7 1
11 3 5 4.8 1
9 3 7 13.7 1.5
9 -3 7 12.8 1.4
9 3 7 13.5 1.4
9 -3 7 11.9 1.4
9 -3 7 13.4 1.5
9 -3 7 12.1 1.4
9 3 7 11.3 1.4
7 -3 9 40.1 2.3
7 -3 9 39.4 2.5
7 -3 9 40.8 2.4
7 3 9 38.2 2.3
7 -3 9 40.1 2.4
7 3 9 37.6 2.3
5 -3 11 5.3 1
5 -3 11 6.9 0.9
5 -3 11 6.2 1
5 3 11 7.7 1
5 3 11 7.4 1
5 -3 11 7.7 1.1
5 -3 11 7.1 1
3 3 13 52.49 2.1
3 -3 13 55.29 2.2
3 -3 13 56.09 2
3 -3 13 53.89 2.3
3 -3 13 56.49 2.3
3 3 13 53.19 2
26 -4 -10 59.79 2.4
26 4 -10 58.49 2.3
26 -4 -10 57.09 2.3
26 -4 -10 63.39 2.2
26 4 -10 59.89 2.3
24 -4 -8 21.4 1.5
24 -4 -8 23.9 1.5
24 4 -8 20.8 1.5
24 -4 -8 22.4 1.5
24 4 -8 19.2 1.5
24 4 -8 19.3 1.6
22 -4 -6 30.7 1.8
22 4 -6 28.2 1.9
22 -4 -6 28.2 1.8
22 4 -6 27.9 1.9
22 4 -6 24.2 2
20 4 -4 44.4 2.4
20 4 -4 42 2.4
20 -4 -4 44.5 2.4
20 4 -4 39.3 2.7
20 -4 -4 49.5 2.7
18 4 -2 11.7 1.3
18 -4 -2 11.5 1.3
18 4 -2 11.4 1.3
18 -4 -2 12.7 1.3
16 -4 0 111.49 3.8
16 4 0 96.79 3.9
16 4 0 105.69 3.9
14 4 2 5.9 1.1
14 -4 2 6.5 0.9
14 4 2 6 1
14 -4 2 4.7 0.9
12 -4 4 137.89 4.5
12 -4 4 132.59 4.5
12 4 4 129.19 4.5
12 -4 4 141.19 4.6
12 4 4 146.69 4.7
12 4 4 127.49 4.5
10 4 6 9.7 1.2
10 -4 6 7.4 1.1
10 4 6 9 1.2
10 4 6 9.5 1.1
10 -4 6 8.6 1.1
8 -4 8 22.5 1.6
8 4 8 21.1 1.6
8 -4 8 24.3 1.7
8 4 8 22.3 1.6
8 -4 8 22.3 1.5
8 -4 8 22.6 1.7
6 -4 10 6.8 0.8
6 -4 10 8 1
6 -4 10 7.6 0.9
6 -4 10 7.4 0.9
6 4 10 7.4 0.9
6 4 10 8.1 1
4 -4 12 31.6 1.5
4 -4 12 33.7 1.4
4 4 12 26.3 1.2
4 4 12 28.5 1.4
4 -4 12 30 1.5
25 5 -9 16.1 0.9
25 -5 -9 16.6 1
23 5 -7 33.8 1.6
23 -5 -7 31.6 1.4
23 5 -7 34.3 1.8
23 -5 -7 37.3 1.7
21 -5 -5 24.7 1.5
21 5 -5 23.9 1.4
21 5 -5 23.4 1.7
21 -5 -5 22.6 1.4
19 5 -3 32.6 2.1
19 -5 -3 38 1.9
17 -5 -1 2.1 0.6
17 5 -1 2.7 0.7
15 5 1 33.3 2.1
15 -5 1 39.5 2
15 5 1 34 2
13 -5 3 1.3 0.5
13 5 3 0.3 0.4
13 5 3 0.1 0.5
11 5 5 21.8 1.5
11 -5 5 22.2 1.4
11 -5 5 23.3 1.5
9 5 7 52.59 2.2
9 -5 7 53.09 2.1
9 -5 7 54.89 2.2
7 5 9 12.1 0.9
7 -5 9 10.9 0.9
7 -5 9 11.5 0.9
7 -5 9 9 0.7
14 -6 2 3.6 0.5
12 -6 4 5.4 0.6
10 -6 6 4.5 0.5
30 0 -15 -0.1 0.4
30 0 -15 0.3 0.4
28 0 -13 -0.4 0.5
28 0 -13 -0.6 0.6
28 0 -13 -0.2 0.4
28 0 -13 0.6 0.5
26 0 -11 0.9 0.7
26 0 -11 1 0.7
26 0 -11 0.3 0.6
26 0 -11 -0.6 0.6
24 0 -9 -0.2 0.6
24 0 -9 0.4 0.6
24 0 -9 -0.9 0.7
24 0 -9 0.7 0.6
22 0 -7 0.3 0.6
22 0 -7 0.6 0.6
22 0 -7 0.4 0.6
22 0 -7 -0.3 0.6
22 0 -7 0.4 0.5
20 0 -5 -0.5 0.6
20 0 -5 0.1 0.6
20 0 -5 -0.7 0.6
18 0 -3 -0.7 1.3
16 0 -1 1.1 1.1
14 0 1 1.6 1.3
12 0 3 1.6 1.4
10 0 5 0.2 0.7
8 0 7 -0.8 0.6
8 0 7 -0.8 0.8
8 0 7 -0.3 0.6
8 0 7 0.8 0.7
8 0 7 -0.7 0.6
6 0 9 -0.9 0.7
6 0 9 -0.8 0.7
6 0 9 -0.4 0.7
6 0 9 -0.5 0.7
4 0 11 0.1 0.6
4 0 11 0.1 0.6
4 0 11 -0.7 0.7
2 0 13 -0.9 0.7
2 0 13 -0.9 0.7
0 0 15 -0.5 0.5
0 0 15 -0.3 0.5
0 0 15 -0.4 0.5
0 0 15 0 0.4
29 -1 -14 14.4 1.2
29 1 -14 16 1.2
29 -1 -14 15.3 1.2
29 1 -14 14 1.2
29 -1 -14 15.1 1.2
29 -1 -14 14.8 1
29 1 -14 16.2 1.2
29 -1 -14 15.1 1.2
29 1 -14 14.5 1.2
27 1 -12 6.2 1
27 -1 -12 6.6 1
27 1 -12 6.8 1.1
27 -1 -12 6.8 1
27 -1 -12 6.1 1
27 -1 -12 7.6 1
27 -1 -12 6.4 1.1
27 1 -12 6.5 1
25 1 -10 134.19 4.8
25 -1 -10 131.69 4.9
25 -1 -10 137.39 4.9
25 -1 -10 129.69 4.6
25 1 -10 137.29 5.1
25 -1 -10 139.99 5.3
25 1 -10 140.39 4.8
23 1 -8 256.77 7.4
23 -1 -8 243.38 7.2
23 -1 -8 256.77 7.1
23 -1 -8 249.08 7.5
23 1 -8 248.08 7.1
23 1 -8 257.77 7.2
23 -1 -8 246.98 6.8
23 -1 -8 232.08 6.6
21 -1 -6 56.29 3.2
21 -1 -6 56.99 2.9
21 -1 -6 56.49 2.9
21 1 -6 56.59 3.1
21 1 -6 58.79 3.1
21 1 -6 54.29 5.8
19 -1 -4 54.79 2.8
19 -1 -4 52.19 2.7
19 -1 -4 60.19 5.4
19 -1 -4 51.19 2.7
19 1 -4 50.99 5
19 1 -4 53.19 5.5
17 1 -2 14.5 2.9
17 -1 -2 13.1 2.5
15 1 0 56.69 5.4
15 -1 0 61.99 5.5
15 -1 0 71.59 5.5
13 1 2 16.5 3
13 -1 2 17.1 2.8
13 -1 2 14.9 2.6
11 -1 4 563.04 19.3
11 1 4 600.14 19.2
9 1 6 282.87 12.8
9 1 6 294.17 7.6
9 -1 6 281.37 7.5
9 1 6 301.97 7.5
9 -1 6 278.47 13.3
9 1 6 291.47 7.4
9 1 6 280.17 7.2
9 -1 6 283.07 7.4
9 -1 6 286.27 7.6
9 -1 6 290.67 7.8
9 1 6 292.47 7.4
7 -1 8 83.49 3.7
7 1 8 93.89 7.3
7 -1 8 91.09 4
7 1 8 84.59 3.7
7 -1 8 86.79 4
7 1 8 97.29 4
7 -1 8 89.39 7.7
7 -1 8 90.99 3.7
7 -1 8 92.49 3.9
7 -1 8 87.89 3.8
5 1 10 20.5 1.7
5 -1 10 19.6 1.8
5 1 10 19.5 1.8
5 -1 10 21.1 1.8
5 1 10 22 1.8
5 1 10 20.5 1.8
5 -1 10 19.2 1.7
5 -1 10 19 1.8
5 -1 10 20.4 1.8
5 -1 10 18.5 1.8
3 -1 12 17.8 1.6
3 1 12 17.7 1.4
3 1 12 18.7 1.6
3 1 12 17.4 1.6
3 -1 12 17.8 1.7
3 1 12 17.4 1.6
3 -1 12 21.1 1.8
3 -1 12 17.2 1.6
3 -1 12 17.9 1.6
1 -1 14 16.7 1.3
1 1 14 14.2 1.3
1 -1 14 14.9 1.4
1 -1 14 14.8 1.3
1 1 14 14.8 1.3
1 1 14 16.6 1.3
-1 -1 16 12.1 0.9
-1 -1 16 14.7 1
-1 -1 16 14 0.8
-1 1 16 16.9 1
-1 -1 16 16.4 1
30 -2 -15 6.5 0.6
28 -2 -13 46 2.2
28 -2 -13 47.5 2.1
28 -2 -13 45.8 2.2
28 -2 -13 47.2 2.2
28 2 -13 47.9 2.1
28 2 -13 45.6 2.3
28 -2 -13 46.7 2.1
28 2 -13 50.49 2
26 2 -11 4.4 0.8
26 -2 -11 4.7 0.9
26 2 -11 4.7 0.9
26 -2 -11 4.9 0.9
26 -2 -11 5.6 1
26 -2 -11 4.1 0.9
24 2 -9 4.2 0.9
24 -2 -9 5 1
24 -2 -9 3.5 0.9
24 2 -9 4.8 1
24 -2 -9 3.1 0.8
24 -2 -9 4.5 0.9
24 2 -9 5.3 1
24 -2 -9 3.9 0.9
22 2 -7 214.88 6.6
22 -2 -7 213.48 6.6
22 2 -7 229.98 6.6
22 -2 -7 206.38 6
22 -2 -7 201.38 6.1
20 2 -5 35.8 2.3
20 2 -5 35.3 4.5
20 -2 -5 31 2.3
20 2 -5 39 4.9
20 -2 -5 33 2.2
20 -2 -5 32.9 4.5
20 2 -5 33 2.3
20 -2 -5 33.3 2.2
18 2 -3 113.09 8.1
18 -2 -3 133.19 4.6
18 2 -3 136.19 4.8
18 -2 -3 131.79 4.5
18 -2 -3 130.49 8.5
18 2 -3 124.29 8.5
18 -2 -3 124.79 4.5
16 2 -1 82.49 6.7
16 -2 -1 83.29 6.9
16 -2 -1 96.89 7
16 -2 -1 87.29 6.8
16 2 -1 88.19 3.7
14 2 1 23.2 3.6
14 -2 1 27.7 3.9
14 2 1 28.6 2.1
14 -2 1 28.4 3.9
12 2 3 36.4 2.2
12 -2 3 39.6 2.3
12 -2 3 36.9 4.5
12 -2 3 33.4 4.5
12 2 3 41.6 2.4
12 -2 3 41 2.5
12 -2 3 40.6 2.4
12 2 3 35.9 4.4
10 -2 5 58.19 3.1
10 -2 5 53.69 5.9
10 2 5 58.09 2.9
10 2 5 55.89 5.7
10 -2 5 58.49 3
10 -2 5 56.39 2.9
10 2 5 56.19 2.8
10 -2 5 56.29 2.8
10 2 5 54.69 2.8
8 2 7 48.7 2.6
8 2 7 49.7 2.7
8 -2 7 54.19 6
8 2 7 47.4 2.7
8 -2 7 51.99 3
8 -2 7 51.09 3
8 -2 7 48.5 2.7
8 -2 7 49.6 2.8
6 -2 9 95.69 4.2
6 -2 9 95.09 4.2
6 2 9 105.19 4.1
6 2 9 109.89 3.9
6 -2 9 97.99 4.1
6 -2 9 111.29 4
6 -2 9 94.09 4
6 2 9 99.49 4
4 2 11 47.7 2.6
4 -2 11 46.7 2.7
4 -2 11 46.7 2.7
4 2 11 45 2.5
4 -2 11 44.6 2.7
4 -2 11 48.1 2.5
4 -2 11 45.9 2.6
2 2 13 1.6 0.7
2 -2 13 1.2 0.5
2 -2 13 1.7 0.5
2 -2 13 2.9 0.6
2 -2 13 1.8 0.7
2 2 13 1 0.5
2 -2 13 2.1 0.6
2 -2 13 1.9 0.6
0 2 15 8.2 0.8
0 -2 15 7.9 0.9
0 2 15 9.2 0.8
0 -2 15 7.6 0.7
0 -2 15 7.9 0.8
29 3 -14 4.9 0.5
29 -3 -14 4.3 0.5
27 -3 -12 33.5 1.7
27 3 -12 29.7 1.7
27 -3 -12 31.8 1.8
27 -3 -12 33.5 1.8
27 3 -12 32.2 1.9
27 -3 -12 31.8 1.6
27 -3 -12 32.4 1.8
25 -3 -10 1.9 0.7
25 -3 -10 1.4 0.6
25 3 -10 0.9 0.6
25 3 -10 1.1 0.6
25 -3 -10 1.2 0.6
25 -3 -10 2.4 0.6
25 -3 -10 1.4 0.6
23 -3 -8 1.5 0.7
23 3 -8 2.8 0.9
23 -3 -8 1.9 0.8
23 -3 -8 1.6 0.7
23 3 -8 0.6 0.7
21 -3 -6 29.9 2.2
21 3 -6 28.7 2.2
21 3 -6 35.6 2.4
21 -3 -6 29 2
21 -3 -6 29.3 2.1
19 3 -4 48.1 2.8
19 -3 -4 46.7 2.6
19 -3 -4 44.9 2.7
19 3 -4 47.7 2.8
19 -3 -4 46.6 2.6
17 -3 -2 165.48 5.3
17 3 -2 159.08 5.3
17 3 -2 154.78 9.5
17 -3 -2 182.68 10.7
17 -3 -2 163.28 10.5
17 -3 -2 166.08 5.3
17 3 -2 164.48 5.5
17 -3 -2 169.68 5.3
15 -3 0 84.69 7.4
15 3 0 84.79 7
15 -3 0 94.49 3.7
15 3 0 88.09 3.8
15 3 0 91.99 3.7
15 -3 0 96.79 3.8
15 3 0 88.69 3.7
15 -3 0 95.59 7.6
13 -3 2 136.79 4.7
13 -3 2 138.89 9.4
13 3 2 129.89 4.8
13 -3 2 125.99 8.9
13 3 2 136.89 9.1
13 3 2 134.59 4.7
13 -3 2 137.09 9
11 3 4 6.2 1
11 3 4 8.2 1.2
11 -3 4 5.8 1.9
11 -3 4 10.3 1.4
11 -3 4 7.6 1.1
11 -3 4 7.8 1.2
9 3 6 51.29 2.8
9 -3 6 50.59 2.8
9 -3 6 53.69 2.8
9 -3 6 49.5 2.9
9 3 6 49.99 2.8
9 3 6 50.39 2.8
7 3 8 45.8 2.6
7 -3 8 42.6 2.6
7 3 8 48.1 2.5
7 -3 8 43.7 2.7
7 -3 8 43.8 2.6
7 3 8 44.7 2.5
7 -3 8 44.4 2.7
5 -3 10 21.1 1.8
5 3 10 20.7 1.7
5 -3 10 20.6 1.7
5 -3 10 15.7 1.5
5 -3 10 21.1 1.8
5 3 10 19.6 1.7
3 3 12 15.2 1.3
3 -3 12 14.9 1.4
3 -3 12 15.9 1.5
3 -3 12 14.7 1.3
3 -3 12 17 1.5
3 3 12 13.7 1.2
1 -3 14 31 1.5
1 3 14 28.6 1.4
1 -3 14 29.4 1.4
1 -3 14 29.8 1.6
1 3 14 27.8 1.3
26 -4 -11 16.9 1.1
26 4 -11 18.8 1.3
26 -4 -11 18.2 1.2
26 -4 -11 18.3 1.3
26 4 -11 16.8 1.2
24 -4 -9 140.39 4.1
24 4 -9 124.99 4.1
24 -4 -9 130.99 3.7
24 4 -9 132.19 4.2
24 4 -9 128.89 4.2
24 -4 -9 135.29 4
22 4 -7 100.89 3.8
22 4 -7 107.39 4.3
22 -4 -7 101.59 3.6
22 -4 -7 104.89 3.9
22 4 -7 106.69 4
20 4 -5 10.6 1.3
20 4 -5 9.4 1.4
20 4 -5 11.5 1.3
20 -4 -5 11.5 1.2
18 -4 -3 12.3 1.4
18 4 -3 11.5 1.3
18 4 -3 9.3 1.2
18 4 -3 9.8 1.3
16 -4 -1 6.3 1
16 4 -1 7.2 1.2
16 4 -1 7.2 1
14 -4 1 29.6 1.9
14 4 1 26.2 2
12 4 3 42.3 2.5
12 4 3 40.9 2.5
12 4 3 41.5 2.6
12 4 3 47.9 2.6
12 -4 3 49.7 2.7
10 -4 5 245.48 6.7
10 4 5 235.08 6.4
10 4 5 240.48 6.6
10 4 5 246.28 6.8
10 -4 5 241.08 6.6
8 -4 7 27.2 1.9
8 -4 7 26.5 1.9
8 -4 7 24.9 1.9
8 -4 7 26.5 1.8
8 4 7 27.6 1.9
6 -4 9 33.4 2.1
6 -4 9 34.2 2.1
6 4 9 33 2
6 -4 9 30.1 1.9
6 -4 9 34.3 2
4 -4 11 49.2 2.2
4 -4 11 52.99 2.4
4 4 11 49.7 2.1
4 -4 11 50.09 2.3
4 -4 11 50.59 2.2
2 4 13 4 0.5
2 -4 13 3.9 0.6
2 -4 13 3.4 0.5
2 -4 13 4 0.6
25 5 -10 33.2 1.3
25 -5 -10 27.8 1.2
25 -5 -10 29.5 1.2
23 5 -8 12 1
23 -5 -8 14.2 1
21 -5 -6 27.9 1.6
21 5 -6 25.5 1.8
21 5 -6 26.9 1.6
19 5 -4 11.8 1.1
19 5 -4 8.5 1.2
17 5 -2 7.3 1.1
15 5 0 3.2 0.9
15 5 0 2.9 0.7
15 5 0 3.2 0.8
13 5 2 3.3 0.7
13 5 2 4 0.9
13 5 2 3.3 0.8
11 -5 4 1.9 0.6
11 5 4 1.1 0.6
11 5 4 0.2 0.6
9 5 6 17.1 1.4
9 -5 6 18.9 1.4
7 5 8 0.7 0.5
7 -5 8 0.1 0.4
7 -5 8 1.2 0.5
7 -5 8 -0.2 0.4
5 -5 10 25.1 1.3
5 5 10 23.6 1.3
5 -5 10 25.2 1.3
5 -5 10 20.4 1.1
18 -6 -3 91.69 2.6
14 6 1 30.3 1.4
14 -6 1 33.6 1.5
12 6 3 28.9 1.4
10 6 5 27 1.3
8 -6 7 22.8 1.1
30 0 -16 4 0.5
30 0 -16 2.6 0.4
28 0 -14 22.9 1.7
28 0 -14 23 1.6
28 0 -14 23.6 1.7
26 0 -12 146.29 4.8
26 0 -12 149.88 5.4
26 0 -12 142.49 5.1
26 0 -12 137.89 4.8
24 0 -10 96.09 4
24 0 -10 86.59 3.7
24 0 -10 100.59 4.6
24 0 -10 94.09 4
24 0 -10 93.89 4.2
22 0 -8 212.38 6.6
22 0 -8 215.78 6.4
22 0 -8 216.28 7
22 0 -8 201.38 6
20 0 -6 691.03 13.8
20 0 -6 639.84 13.1
20 0 -6 720.33 14.5
20 0 -6 634.64 13.3
16 0 -2 97.59 7
14 0 0 3.7 1.4
12 0 2 83.09 6.1
10 0 4 101.49 6.7
8 0 6 56.59 5
6 0 8 121.19 4.4
6 0 8 119.99 4.4
6 0 8 119.69 4.3
6 0 8 124.09 4.4
6 0 8 122.99 4.6
4 0 10 98.09 3.9
4 0 10 93.19 3.8
4 0 10 94.19 3.9
4 0 10 91.89 3.8
4 0 10 92.99 4
2 0 12 0.9 0.6
2 0 12 1.1 0.6
0 0 14 50.79 2.4
0 0 14 47.4 2.4
0 0 14 44 2.4
-2 0 16 22.7 1.4
-2 0 16 29.3 1.5
29 -1 -15 2.5 0.5
29 -1 -15 2.8 0.6
29 -1 -15 2.1 0.5
29 1 -15 1.8 0.5
29 1 -15 3.1 0.6
29 1 -15 2 0.5
27 1 -13 15.4 1.4
27 1 -13 17 1.6
27 -1 -13 15.5 1.4
27 -1 -13 15.7 1.3
27 -1 -13 15.9 1.6
27 -1 -13 14.2 1.4
27 1 -13 16.1 1.5
27 -1 -13 16 1.5
25 -1 -11 92.49 4.1
25 -1 -11 87.79 3.6
25 -1 -11 90.89 3.7
25 -1 -11 88.99 3.9
25 -1 -11 89.39 3.9
25 1 -11 94.19 4.2
25 -1 -11 96.19 4.4
25 1 -11 93.79 3.8
25 1 -11 93.89 3.9
23 1 -9 92.89 4.1
23 -1 -9 89.19 4.2
23 -1 -9 79.59 3.6
23 -1 -9 88.69 3.9
23 -1 -9 95.29 4.5
23 1 -9 96.39 4.4
23 1 -9 94.19 3.9
23 1 -9 103.99 4.4
23 -1 -9 83.29 3.7
21 1 -7 140.49 5
21 -1 -7 126.99 4.5
21 1 -7 142.09 4.6
21 1 -7 144.39 5.1
21 -1 -7 133.49 4.7
21 -1 -7 141.09 5.4
21 1 -7 143.09 5.3
21 -1 -7 137.49 5.1
21 1 -7 132.79 9.1
19 1 -5 22.3 3.5
19 1 -5 21 3.3
17 1 -3 204.58 10.4
17 1 -3 211.48 10.1
17 -1 -3 220.78 10
15 -1 -1 123.29 7.1
15 1 -1 81.79 6.3
13 -1 1 251.27 10.9
13 -1 1 237.78 10.4
13 1 1 235.68 11
11 -1 3 88.89 6
11 1 3 82.79 6.4
11 -1 3 90.19 6.2
11 -1 3 82.09 6.5
9 1 5 238.18 11.2
9 -1 5 240.68 11.6
7 -1 7 42.4 2.6
7 -1 7 42.5 2.6
7 1 7 40.6 4.5
7 1 7 42.3 2.5
7 -1 7 41.3 2.4
7 -1 7 37.9 4.8
7 -1 7 42.1 2.5
7 1 7 42.5 2.5
7 -1 7 41.2 2.5
5 1 9 73.19 3.4
5 -1 9 68.59 3.3
5 -1 9 66.49 3.5
5 -1 9 60.89 6.3
5 -1 9 65.19 3.2
5 -1 9 70.69 3.5
5 1 9 70.29 3.2
5 -1 9 63.89 3.1
5 1 9 66.79 3.2
3 1 11 13.3 1.4
3 -1 11 14.3 1.6
3 -1 11 13.3 1.6
3 -1 11 14 1.5
3 1 11 13.3 1.5
3 -1 11 13.6 1.5
3 -1 11 14.5 1.5
3 1 11 15.8 1.6
1 1 13 4.8 0.8
1 1 13 6 0.8
1 -1 13 5.4 1
1 1 13 4.6 0.9
1 -1 13 4.4 0.9
1 -1 13 5.7 1.1
1 -1 13 4.1 1
1 -1 13 4.3 0.8
1 -1 13 5.1 0.9
-1 1 15 7.7 0.9
-1 1 15 6.3 0.9
-1 -1 15 7.1 0.9
-1 1 15 8.3 0.9
-1 -1 15 7.8 1
-3 -1 17 1.6 0.3
-3 -1 17 1.2 0.3
28 2 -14 8.8 0.9
28 -2 -14 7.8 0.8
28 2 -14 8.4 0.8
28 2 -14 9.8 0.9
28 -2 -14 7.6 0.8
28 2 -14 8.1 0.9
28 -2 -14 7.4 0.8
28 -2 -14 7.7 0.9
28 -2 -14 8.8 0.9
26 -2 -12 40.6 2.4
26 2 -12 44 2.4
26 -2 -12 40.4 2.4
26 -2 -12 39.8 2.2
26 -2 -12 42.5 2.3
26 2 -12 41.6 2.6
26 -2 -12 37.6 2.3
26 2 -12 43.5 2.3
26 2 -12 44.6 2.3
26 -2 -12 45.7 2.6
24 -2 -10 71.29 3.5
24 -2 -10 65.79 3.1
24 2 -10 76.29 3.5
24 2 -10 74.99 3.2
24 -2 -10 73.99 3.8
24 2 -10 72.09 3.3
24 -2 -10 67.09 3.2
24 -2 -10 64.69 3.3
22 2 -8 83.39 3.6
22 -2 -8 74.99 3.7
22 -2 -8 71.19 3.4
22 2 -8 80.59 3.8
22 2 -8 77.89 3.9
22 -2 -8 74.79 3.4
22 -2 -8 80.49 4
20 -2 -6 74.29 6.7
20 -2 -6 73.09 3.3
20 -2 -6 74.59 3.3
20 2 -6 89.69 3.9
20 -2 -6 74.49 6.6
20 -2 -6 80.99 3.9
20 2 -6 91.29 3.9
20 2 -6 75.29 7.1
20 2 -6 76.49 3.7
20 2 -6 74.09 6.5
20 -2 -6 80.29 3.5
18 2 -4 54.99 3
18 2 -4 49 2.8
18 -2 -4 43.9 4.9
18 2 -4 49.3 5.3
18 2 -4 50.39 5.6
18 -2 -4 48 2.6
16 -2 -2 83.29 6.8
16 2 -2 78.59 6.4
16 -2 -2 88.39 6.7
16 2 -2 84.09 6.6
14 2 0 0.3 1.1
14 -2 0 2.7 1.6
14 -2 0 1.2 1.3
14 -2 0 1.7 1.5
12 2 2 349.17 14.2
12 -2 2 354.96 14.2
12 -2 2 343.07 14.1
10 2 4 166.98 9.6
10 -2 4 155.88 9.6
10 -2 4 180.38 9.7
8 -2 6 127.89 4.7
8 2 6 131.09 4.6
8 2 6 132.99 4.4
8 2 6 127.49 8.6
8 2 6 125.29 4.5
8 -2 6 128.69 4.7
8 -2 6 122.99 8.8
8 -2 6 123.39 4.4
6 2 8 280.57 7.4
6 2 8 286.67 7.1
6 -2 8 264.37 7.4
6 -2 8 265.87 7.6
6 -2 8 287.57 14.2
6 -2 8 281.37 7.3
6 2 8 272.17 7.3
6 -2 8 265.07 7.3
6 -2 8 266.77 7.6
4 -2 10 7.6 1.2
4 2 10 8.1 1
4 2 10 6.7 1.1
4 -2 10 7.6 1.2
4 -2 10 8.6 1.3
4 2 10 7.3 1.1
4 -2 10 8 1.1
4 -2 10 6.8 1.1
4 2 10 7 1.1
4 -2 10 8.5 1.2
2 -2 12 6.5 1.1
2 2 12 8.3 1.1
2 -2 12 7.1 1
2 -2 12 7 1.1
2 2 12 7.4 1.1
2 -2 12 7.6 1.2
2 -2 12 6.8 1
0 2 14 3.9 0.7
0 -2 14 4.1 0.7
0 -2 14 3.8 0.8
0 -2 14 4.5 0.8
0 -2 14 4.6 0.9
0 2 14 4.1 0.7
0 -2 14 3.1 0.7
-2 2 16 2 0.4
-2 -2 16 2.4 0.4
-2 -2 16 3.1 0.6
-2 2 16 2 0.4
27 -3 -13 13.3 1.1
27 -3 -13 11.2 0.9
27 -3 -13 13.5 1.1
27 3 -13 13.1 1.2
27 3 -13 13 1.1
27 -3 -13 13 1.1
25 3 -11 4.5 0.7
25 3 -11 4.6 0.8
25 -3 -11 4.4 0.8
25 3 -11 3.4 0.9
25 -3 -11 5.8 0.9
25 -3 -11 4 0.8
25 -3 -11 5.4 1
23 -3 -9 30.1 2.2
23 -3 -9 30.8 2
23 3 -9 31.5 2.4
23 3 -9 28 2.2
23 -3 -9 35 2.5
23 -3 -9 29.2 2.1
21 -3 -7 34.7 2.2
21 -3 -7 39.3 2.7
21 3 -7 33.6 2.5
21 -3 -7 36.6 2.2
19 3 -5 93.39 4.1
19 -3 -5 83.69 3.6
19 -3 -5 92.29 4.1
19 3 -5 84.69 3.9
17 -3 -3 258.37 13.2
17 3 -3 248.88 12.1
17 -3 -3 256.67 12.7
17 -3 -3 270.67 7
17 3 -3 266.17 7.4
17 3 -3 247.88 7.1
17 3 -3 259.17 13
17 -3 -3 252.67 6.8
15 3 -1 11.1 1.4
15 -3 -1 9.4 2.4
15 3 -1 9.6 2.3
15 -3 -1 12.3 1.3
15 3 -1 9 1.2
15 -3 -1 10.2 2.6
15 3 -1 12 1.3
13 3 1 66.29 6.1
13 -3 1 66.49 6.3
13 -3 1 68.89 6.3
13 3 1 66.59 3.3
13 -3 1 62.39 6
13 3 1 69.99 3.2
13 3 1 71.09 3.2
13 -3 1 69.29 3.2
11 -3 3 64.39 6.3
11 3 3 66.59 6.1
11 3 3 69.99 3.2
11 3 3 70.99 3.3
11 -3 3 65.59 6.4
11 -3 3 70.69 3.3
9 3 5 87.39 3.8
9 -3 5 79.29 3.6
9 3 5 78.29 6.9
9 -3 5 89.79 7.5
9 3 5 82.29 3.6
9 -3 5 80.89 7.5
9 3 5 81.99 3.6
9 -3 5 83.69 3.5
7 3 7 79.29 3.6
7 3 7 79.79 3.5
7 3 7 79.39 3.5
7 -3 7 81.49 3.7
7 -3 7 80.39 3.7
7 -3 7 77.39 3.5
5 -3 9 85.19 3.6
5 3 9 82.59 3.7
5 3 9 86.99 3.6
5 -3 9 86.19 3.8
5 -3 9 91.79 3.6
5 -3 9 86.39 3.8
3 -3 11 12.9 1.4
3 -3 11 13.5 1.3
3 3 11 13.6 1.4
3 -3 11 13.8 1.5
3 -3 11 15.1 1.6
3 -3 11 12.3 1.3
3 3 11 13.9 1.4
1 3 13 40.1 2.1
1 -3 13 41.7 2.1
1 3 13 41.4 2
1 -3 13 41.6 2.3
1 -3 13 39.3 2.2
1 -3 13 40.4 2.1
1 -3 13 43.4 1.9
-1 -3 15 11.6 0.8
-1 3 15 10.2 0.8
-1 -3 15 11.4 0.9
26 -4 -12 32 1.6
26 4 -12 33.6 1.7
26 -4 -12 32.6 1.5
26 -4 -12 33 1.6
26 4 -12 34.1 1.6
24 4 -10 22.5 1.6
24 4 -10 20.4 1.5
24 -4 -10 24.9 1.5
24 -4 -10 20.1 1.5
24 4 -10 19.3 1.5
22 -4 -8 104.49 3.9
22 -4 -8 98.19 3.4
22 4 -8 91.49 3.8
22 4 -8 90.19 3.7
22 4 -8 94.29 4.1
20 4 -6 41.1 2.8
20 4 -6 42.2 2.5
20 4 -6 42.3 2.6
18 4 -4 111.99 4.3
18 4 -4 109.29 4.4
18 4 -4 110.89 4.9
16 4 -2 20.2 1.7
16 4 -2 18.5 1.7
16 4 -2 21 1.9
14 4 0 79.09 3.6
14 4 0 79.89 3.4
12 4 2 105.99 4.1
12 4 2 93.99 3.9
12 4 2 92.29 3.8
10 4 4 29.9 2.2
10 4 4 27.6 2.1
10 4 4 27.4 2
10 -4 4 30.6 2.1
8 4 6 1.5 0.8
8 4 6 2.2 0.6
8 -4 6 1.9 0.6
6 -4 8 6.1 1
6 4 8 6.2 1
6 4 8 5.5 0.9
6 -4 8 5 0.9
4 -4 10 20.8 1.6
4 4 10 18.4 1.6
4 -4 10 19.9 1.5
4 4 10 17.7 1.4
4 -4 10 19.8 1.5
2 4 12 4.9 0.7
2 4 12 4.3 0.7
2 -4 12 5.5 0.8
2 -4 12 6 0.8
2 -4 12 5.8 0.8
2 -4 12 6.6 0.8
0 4 14 2.4 0.4
0 -4 14 3 0.4
23 5 -9 21.1 1.3
23 -5 -9 21.1 1.3
23 -5 -9 18.7 1.3
23 -5 -9 21.8 1.2
21 5 -7 28.6 1.7
21 -5 -7 31.7 1.6
21 5 -7 28.5 1.9
19 5 -5 52.99 2.5
19 5 -5 51.69 2.8
17 5 -3 33.6 1.9
17 5 -3 28.6 2.2
17 -5 -3 36.4 2
15 5 -1 42.8 2.3
15 5 -1 37.4 2.5
13 5 1 0.4 0.6
13 5 1 1.4 0.6
13 5 1 0.9 0.6
11 5 3 9.3 1.2
11 5 3 7.2 1.1
9 5 5 32.2 2.1
9 -5 5 32.7 1.9
7 5 7 84.69 3.3
7 -5 7 85.49 3
7 -5 7 87.49 3.2
5 5 9 19.1 1.4
5 -5 9 16.8 1
5 -5 9 19.6 1.3
5 -5 9 19.9 1.4
3 5 11 6.4 0.7
3 -5 11 5.4 0.6
3 -5 11 7.4 0.7
18 -6 -4 6.6 0.7
14 6 0 6.3 0.8
12 6 2 5.3 0.8
10 6 4 1.2 0.5
8 -6 6 5.3 0.5
8 6 6 5.6 0.7
6 6 8 1.7 0.4
28 0 -15 -1.1 0.7
28 0 -15 -0.9 0.5
28 0 -15 -0.2 0.4
26 0 -13 -0.1 0.7
26 0 -13 0.4 0.8
26 0 -13 0.1 0.5
26 0 -13 -0.5 0.7
26 0 -13 -0.2 0.4
24 0 -11 -0.6 0.7
24 0 -11 -0.2 0.9
24 0 -11 -0.6 0.6
24 0 -11 0.6 0.7
22 0 -9 -1.6 1.1
22 0 -9 0.4 0.6
22 0 -9 0.2 0.7
22 0 -9 0 0.6
20 0 -7 1.2 0.7
20 0 -7 0.2 0.6
20 0 -7 -0.3 0.6
16 0 -3 1.3 0.7
14 0 -1 6.3 1.9
14 0 -1 -0.6 0.6
12 0 1 1.8 1.6
12 0 1 -0.9 1.1
10 0 3 0.5 0.9
8 0 5 0.6 0.9
8 0 5 -1.2 1.2
6 0 7 -0.3 0.9
6 0 7 -2.2 1.5
4 0 9 -0.1 0.6
4 0 9 0.2 0.5
4 0 9 -1 0.6
4 0 9 0 0.5
4 0 9 -1 0.7
2 0 11 0.2 0.6
2 0 11 0.1 0.5
2 0 11 0 0.5
2 0 11 -1.1 0.7
2 0 11 -0.4 0.7
2 0 11 0.7 0.7
2 0 11 0.1 0.6
0 0 13 -0.7 0.7
0 0 13 0.4 0.6
0 0 13 -0.2 0.6
-2 0 15 -0.3 0.4
-2 0 15 -0.6 0.6
-2 0 15 -0.4 0.5
-2 0 15 0.3 0.4
-4 0 17 0.2 0.4
-4 0 17 -0.1 0.3
29 1 -16 58.19 2
29 1 -16 56.69 1.9
29 -1 -16 56.69 2
29 -1 -16 51.29 1.8
27 -1 -14 5.6 0.8
27 1 -14 5.6 0.9
27 -1 -14 5.5 1
27 -1 -14 5.8 0.9
27 -1 -14 5.3 0.9
27 1 -14 5.7 1
27 1 -14 5.7 1
27 -1 -14 5.9 1
27 1 -14 6.1 1
25 1 -12 94.19 4
25 -1 -12 98.39 4.3
25 -1 -12 88.79 3.6
25 -1 -12 87.59 3.7
25 1 -12 96.39 4.3
25 -1 -12 97.29 4.6
25 -1 -12 91.29 3.9
25 -1 -12 90.29 3.8
25 1 -12 89.99 3.7
23 -1 -10 270.97 7.5
23 1 -10 284.87 7.6
23 -1 -10 271.37 7.7
23 -1 -10 291.77 9
23 1 -10 297.87 8.7
23 1 -10 284.87 8
23 -1 -10 287.47 8.4
21 1 -8 234.08 6.9
21 -1 -8 234.18 7.1
21 1 -8 231.28 6.5
21 -1 -8 213.78 6.2
21 1 -8 219.68 6.2
21 -1 -8 218.18 6.4
21 1 -8 229.08 7.1
21 1 -8 228.48 7.3
21 -1 -8 237.88 7.7
19 -1 -6 300.27 13
19 1 -6 280.17 13.6
17 1 -4 582.34 18.5
17 -1 -4 568.94 17.3
17 1 -4 544.95 18
15 1 -2 258.77 11.3
15 -1 -2 293.87 11.1
15 1 -2 265.67 10.9
13 -1 0 331.97 12.5
13 1 0 321.87 12.5
13 -1 0 332.07 12.3
13 -1 0 333.37 11.7
11 -1 2 64.19 4.9
11 -1 2 64.09 5
11 1 2 56.59 5
11 -1 2 57.69 5.2
9 1 4 104.29 7
9 -1 4 115.19 6.7
9 -1 4 128.99 7
9 -1 4 104.79 7.3
7 -1 6 277.47 12.6
7 1 6 284.07 11.9
5 -1 8 45.3 5.3
5 1 8 58.99 2.9
5 -1 8 52.99 2.8
5 1 8 55.79 2.8
5 1 8 53.29 5.2
5 -1 8 57.49 3
5 -1 8 52.99 2.8
5 -1 8 52.99 2.8
3 1 10 76.69 3.4
3 -1 10 76.39 3.5
3 1 10 68.69 3.3
3 -1 10 68.79 3.4
3 -1 10 69.59 6.8
3 -1 10 72.19 3.4
3 1 10 79.29 3.5
3 -1 10 69.99 3.6
1 -1 12 27.1 2.2
1 -1 12 26.6 2.2
1 -1 12 26.1 2
1 1 12 25.1 2
1 -1 12 27.6 2.1
1 1 12 28.8 2.1
1 -1 12 27.5 2
-1 -1 14 1.1 0.7
-1 1 14 0.1 0.6
-1 -1 14 1.4 0.6
-1 -1 14 1.7 0.7
-1 1 14 1.1 0.7
-1 -1 14 -0.1 0.6
-1 -1 14 0.9 0.6
-1 -1 14 1.1 0.8
-1 1 14 1 0.7
-3 -1 16 18.7 1.3
-3 -1 16 19.8 1.3
-3 1 16 19.4 1.3
-3 1 16 19.2 1.3
28 -2 -15 4.5 0.6
28 -2 -15 7.6 0.8
28 -2 -15 6.4 0.7
28 2 -15 7.2 0.7
28 2 -15 6.6 0.8
28 2 -15 6.7 0.7
26 -2 -13 12.3 1.4
26 -2 -13 11.4 1.3
26 2 -13 12.7 1.3
26 2 -13 12.2 1.4
26 -2 -13 13.4 1.5
26 2 -13 13.2 1.3
26 -2 -13 12 1.3
26 2 -13 13 1.2
26 -2 -13 11.1 1.2
24 -2 -11 44.4 2.9
24 -2 -11 40.2 2.5
24 -2 -11 44.7 3.1
24 2 -11 45 2.5
24 2 -11 45.4 2.6
24 -2 -11 40 2.6
24 2 -11 45 2.7
22 2 -9 14.6 1.5
22 -2 -9 16.8 2
22 -2 -9 15.4 1.5
22 -2 -9 16.3 1.9
22 2 -9 17.5 1.9
22 2 -9 16.7 1.9
22 2 -9 17 1.6
22 -2 -9 14.5 1.5
20 -2 -7 73.99 4
20 2 -7 74.49 3.8
20 -2 -7 72.39 6.8
20 -2 -7 65.89 3.1
20 2 -7 79.09 3.5
20 2 -7 77.19 3.7
20 2 -7 72.49 6.4
20 -2 -7 71.39 3.3
20 2 -7 73.79 7.5
18 2 -5 228.88 12.5
18 2 -5 219.98 6.6
18 2 -5 222.78 11
18 -2 -5 226.28 11.4
16 2 -3 57.29 5.6
16 -2 -3 54.89 5.2
16 -2 -3 50.69 5.2
16 2 -3 47.6 4.8
14 2 -1 547.55 17.8
14 -2 -1 587.54 18.7
14 -2 -1 565.24 17.7
14 2 -1 574.54 18.1
12 2 1 94.89 6.8
12 -2 1 102.19 7
12 -2 1 98.29 6.9
10 -2 3 61.09 5.4
10 -2 3 53.59 5.3
10 2 3 59.99 5.4
8 -2 5 137.69 8.3
8 -2 5 131.69 8.7
8 2 5 123.89 8.1
6 -2 7 18.2 1.7
6 2 7 19.4 1.8
6 2 7 18.1 1.6
6 2 7 19 1.6
6 2 7 17 1.6
6 2 7 16 3.1
6 -2 7 12.9 3.1
6 -2 7 21.7 1.9
6 -2 7 18.9 1.7
6 2 7 17.9 1.6
6 -2 7 19.3 1.7
4 -2 9 20 1.9
4 2 9 22.1 1.8
4 2 9 20.7 1.8
4 2 9 22.4 1.7
4 -2 9 21.7 3.9
4 -2 9 20.9 1.8
4 -2 9 20.4 1.8
4 2 9 20.1 1.9
4 2 9 20 1.8
2 -2 11 58.59 3
2 2 11 55.79 2.9
2 2 11 52.49 2.8
2 -2 11 51.79 3
2 2 11 54.89 2.9
2 -2 11 53.39 2.9
2 -2 11 51.29 2.8
0 2 13 25.6 1.9
0 -2 13 25.6 1.9
0 -2 13 26.1 1.8
0 2 13 25.7 1.8
0 -2 13 25.2 2.1
0 -2 13 25 2
0 -2 13 26.7 1.9
-2 2 15 2.3 0.6
-2 2 15 3 0.7
-2 -2 15 2 0.5
-2 -2 15 2.6 0.6
-2 -2 15 2.4 0.7
-2 -2 15 2.9 0.7
-2 -2 15 2.3 0.7
-2 -2 15 1.5 0.5
27 3 -14 7.5 0.7
27 -3 -14 7.3 0.8
27 -3 -14 7.2 0.8
27 3 -14 7.6 0.8
27 -3 -14 6.8 0.8
25 3 -12 5.1 0.7
25 -3 -12 3.2 0.8
25 3 -12 3.5 0.8
25 3 -12 3.3 0.8
25 -3 -12 2.5 0.7
25 -3 -12 2.7 0.8
25 3 -12 2.9 0.7
25 -3 -12 3 0.8
23 3 -10 46.1 2.4
23 -3 -10 41 2.6
23 -3 -10 46.6 3
23 -3 -10 41.6 2.3
23 3 -10 38.5 2.6
23 -3 -10 37.5 2.3
23 3 -10 46 2.4
23 3 -10 45.1 2.9
21 -3 -8 167.48 5.7
21 -3 -8 148.59 4.9
21 3 -8 150.88 6.1
19 -3 -6 129.29 9.6
19 3 -6 124.39 5
19 -3 -6 115.69 4.2
19 -3 -6 140.09 5.4
19 3 -6 113.89 4.8
19 -3 -6 122.69 8.9
17 -3 -4 262.27 13.1
17 3 -4 262.87 7.6
17 3 -4 276.57 13.8
17 3 -4 253.57 7.3
17 -3 -4 249.28 12.4
17 3 -4 248.08 11.8
15 3 -2 164.58 9.5
15 3 -2 182.18 10.4
15 -3 -2 180.08 10.6
15 3 -2 191.08 6
15 3 -2 194.18 5.9
15 -3 -2 176.38 10.2
13 -3 0 74.49 6.4
13 -3 0 73.69 6.4
13 -3 0 77.59 6.8
13 3 0 82.19 3.7
13 3 0 87.39 3.5
13 3 0 73.49 6.2
11 3 2 3.6 1.5
11 3 2 6.9 1.1
11 -3 2 6.2 2.2
11 3 2 6.8 1
11 -3 2 4.9 1.9
9 3 4 68.59 3.3
9 -3 4 55.39 6
9 3 4 66.69 6.3
9 -3 4 67.89 6.4
9 3 4 66.29 3.2
9 3 4 65.19 3.1
7 3 6 45 2.7
7 3 6 41.6 5.1
7 -3 6 48.3 5.5
7 3 6 43.2 2.5
7 -3 6 41.5 2.6
7 -3 6 42.3 2.5
7 3 6 39.2 2.4
7 -3 6 40.4 5.3
5 3 8 11.4 1.4
5 -3 8 10.3 1.3
5 3 8 10.8 1.4
5 -3 8 11.2 1.4
5 -3 8 10.3 1.4
5 -3 8 11.8 1.4
5 3 8 10 1.2
3 3 10 2.3 0.8
3 -3 10 3.1 0.8
3 -3 10 4.3 1
3 -3 10 3.6 1
3 3 10 4.8 1
3 3 10 4 1
3 -3 10 3.3 0.9
1 -3 12 15.2 1.5
1 3 12 15.3 1.5
1 -3 12 16.5 1.5
1 -3 12 18.5 1.4
1 -3 12 15.6 1.5
1 3 12 16.2 1.4
1 -3 12 16.5 1.5
1 -3 12 15.5 1.5
-1 3 14 10.3 1
-1 -3 14 9.3 1
-1 -3 14 9.4 1.1
-1 3 14 9.4 0.9
-1 -3 14 9.1 1.1
-1 -3 14 10.3 1.1
-1 -3 14 9.8 0.9
-3 3 16 2.8 0.4
-3 -3 16 2.6 0.4
26 4 -13 1.1 0.3
26 -4 -13 1.4 0.3
26 -4 -13 1.3 0.4
26 -4 -13 0.9 0.4
24 -4 -11 50.89 2.2
24 4 -11 45.3 2.3
24 -4 -11 44.8 2.3
24 -4 -11 51.29 2.5
24 4 -11 48.4 2.4
22 4 -9 16.7 1.6
22 -4 -9 20 1.4
22 -4 -9 23.5 1.9
22 -4 -9 19.7 1.6
22 4 -9 19 1.7
22 4 -9 20.4 1.8
20 -4 -7 17.8 1.7
20 -4 -7 18 1.5
20 4 -7 17.5 1.7
20 4 -7 15.9 1.6
20 4 -7 16.9 1.9
18 -4 -5 31.7 2.1
18 4 -5 32.4 2.6
18 4 -5 35 2.4
18 4 -5 31.2 2.2
16 4 -3 5.5 1.2
16 4 -3 3.1 0.8
16 4 -3 3.6 0.9
14 4 -1 142.69 5.1
14 4 -1 150.68 5
12 4 1 9.8 1.3
12 4 1 10.1 1.3
12 4 1 10.5 1.4
10 4 3 49.9 2.8
10 4 3 51.09 2.8
10 4 3 46.2 2.7
8 4 5 98.49 3.8
8 4 5 91.69 3.8
6 4 7 56.59 3
6 4 7 56.59 2.9
6 -4 7 64.39 3
6 -4 7 58.99 2.9
4 4 9 94.39 3.8
4 -4 9 99.09 3.7
4 -4 9 97.79 3.7
4 -4 9 103.09 3.8
4 4 9 91.39 3.6
2 -4 11 37 2.1
2 4 11 37.9 2.2
2 -4 11 38 2.1
2 -4 11 41 2
2 4 11 37.2 1.9
2 -4 11 40.8 2.2
0 4 13 1.2 0.5
0 -4 13 2 0.6
0 -4 13 1.7 0.5
0 -4 13 1.3 0.4
0 -4 13 2.1 0.6
23 5 -10 29.6 1.5
23 -5 -10 21.5 1.2
23 -5 -10 27.3 1.5
21 5 -8 6.4 0.9
21 -5 -8 9.2 1
19 5 -6 13.6 1.3
19 -5 -6 15.8 1.3
19 5 -6 11.2 1.4
17 5 -4 17.7 1.5
17 5 -4 17 1.8
15 5 -2 2.3 0.8
15 5 -2 0.8 0.7
13 5 0 54.39 3
13 5 0 61.69 2.9
13 5 0 56.59 2.9
11 5 2 51.79 2.7
11 5 2 50.89 2.7
11 5 2 51.29 2.8
9 5 4 136.69 4.7
9 5 4 142.29 4.4
7 5 6 30.3 2.1
5 5 8 18.2 1.5
5 -5 8 20.7 1.5
5 -5 8 19.2 1.3
3 5 10 16.9 1.3
3 -5 10 19.7 1.4
3 -5 10 17.5 1.1
3 -5 10 18 1.2
1 5 12 2.7 0.5
1 -5 12 2.8 0.5
1 -5 12 2 0.4
20 6 -7 41.5 1.5
18 6 -5 14.8 1
14 6 -1 29.6 1.7
12 6 1 45.1 2.2
10 6 3 9.7 1
8 6 5 49.4 2.2
8 -6 5 52.49 1.8
6 6 7 15.7 1.1
6 -6 7 12.1 0.8
6 -6 7 15.4 0.9
4 6 9 25.4 1.1
28 0 -16 20.9 1.4
28 0 -16 21.4 1.4
26 0 -14 42.5 2.4
26 0 -14 41 2.8
26 0 -14 43.4 2.7
26 0 -14 39.8 2.1
26 0 -14 39.8 2.4
24 0 -12 36 3
24 0 -12 36.3 2.8
24 0 -12 38.4 2.4
24 0 -12 38.1 2.5
24 0 -12 32.8 2.3
22 0 -10 217.18 7.3
22 0 -10 213.78 6.4
22 0 -10 219.38 8
22 0 -10 223.98 6.3
22 0 -10 224.68 7
22 0 -10 209.98 6.5
20 0 -8 195.48 6.5
20 0 -8 184.58 5.7
20 0 -8 196.98 5.8
20 0 -8 192.58 7
20 0 -8 186.08 5.8
16 0 -4 441.76 13.6
16 0 -4 450.75 13.7
14 0 -2 742.83 17.6
12 0 0 960.2 23.5
12 0 0 1039.1 21.1
10 0 2 254.87 10.1
8 0 4 243.38 9.8
8 0 4 236.68 10.3
6 0 6 80.69 5.5
6 0 6 80.29 6.1
4 0 8 128.29 8.1
2 0 10 22.9 1.9
2 0 10 22 1.8
2 0 10 20.4 1.8
2 0 10 21.6 1.7
2 0 10 22.2 1.9
2 0 10 21.2 1.9
2 0 10 20.9 1.8
0 0 12 27.2 2
0 0 12 26.6 2
0 0 12 24.5 2
0 0 12 24.7 2.1
0 0 12 30.8 2.2
0 0 12 25.5 2
-2 0 14 170.98 5.1
-2 0 14 175.38 5.3
-4 0 16 43.4 2
-4 0 16 37.9 2
-4 0 16 44.2 1.9
29 -1 -17 11 0.7
27 1 -15 16.3 1.4
27 -1 -15 16.9 1.5
27 -1 -15 14.1 1.2
27 -1 -15 13.7 1.2
27 -1 -15 18.9 1.5
27 1 -15 14.9 1.3
27 1 -15 17.3 1.4
25 1 -13 99.19 4.2
25 -1 -13 92.79 3.7
25 -1 -13 100.69 4.2
25 1 -13 97.09 4.4
25 1 -13 89.69 3.7
25 -1 -13 89.89 3.8
25 -1 -13 97.89 4.4
25 -1 -13 96.09 4.7
23 1 -11 2.3 0.7
23 -1 -11 5 1.2
23 -1 -11 3.6 0.9
23 -1 -11 4.3 1.5
23 -1 -11 3.6 1.1
23 -1 -11 3.8 0.9
23 1 -11 6.1 1.3
23 1 -11 5.1 1
23 1 -11 4.9 1
21 -1 -9 127.39 5.4
21 -1 -9 117.29 5.7
21 -1 -9 122.89 4.6
21 -1 -9 122.29 4.6
21 1 -9 122.19 5.4
21 1 -9 125.09 5.4
21 1 -9 126.79 5.1
21 1 -9 129.69 4.7
21 -1 -9 122.49 4.7
19 -1 -7 67.09 6.1
19 1 -7 64.89 7
17 1 -5 139.09 9.2
17 -1 -5 140.99 8
15 1 -3 53.09 4.9
15 1 -3 55.89 4.9
15 -1 -3 65.99 5.1
13 -1 -1 63.69 5.1
13 1 -1 61.79 5
13 1 -1 59.39 4.7
13 -1 -1 64.49 4.7
11 -1 1 833.02 20.6
11 1 1 797.92 21
11 -1 1 837.02 20.4
11 -1 1 789.92 21.1
9 1 3 25.9 3.7
9 -1 3 27 3.2
9 -1 3 23.2 3.2
9 -1 3 28.5 3.1
7 1 5 93.79 6.4
7 -1 5 105.89 6.1
7 -1 5 92.39 6.6
5 1 7 3.5 1.6
5 -1 7 2.5 1.1
3 1 9 2.8 0.7
3 -1 9 2.6 0.7
3 -1 9 1.8 0.8
3 -1 9 4.2 1.8
3 1 9 3.2 1.5
3 -1 9 3.4 1
3 1 9 3 0.7
3 -1 9 2.7 0.8
3 -1 9 2.7 0.8
3 1 9 1.4 0.6
1 -1 11 13.1 1.6
1 1 11 15.3 1.6
1 -1 11 15.4 1.6
1 1 11 14.2 1.5
1 -1 11 13.6 1.6
1 -1 11 12.7 1.4
1 -1 11 13.9 1.5
-1 -1 13 3.3 0.9
-1 1 13 2.5 0.7
-1 -1 13 3.4 0.9
-1 1 13 3.7 0.9
-1 -1 13 2.5 0.7
-1 -1 13 3.9 0.9
-3 1 15 4.2 0.8
-3 -1 15 3.4 0.7
-3 1 15 3.9 0.8
-3 -1 15 3.9 0.8
-3 1 15 3.9 0.8
-3 -1 15 4.9 0.8
-3 -1 15 4.1 0.8
-3 -1 15 4.5 0.8
-3 -1 15 3.8 0.7
-5 1 17 6.7 0.7
-5 -1 17 7.3 0.8
-5 -1 17 6.8 0.7
-5 1 17 7.6 0.7
28 2 -16 13.3 0.8
28 -2 -16 14.3 0.9
26 2 -14 56.19 2.6
26 2 -14 57.99 2.7
26 -2 -14 58.59 2.8
26 -2 -14 50.79 2.5
26 -2 -14 54.69 2.7
26 -2 -14 57.29 2.7
26 2 -14 53.99 2.9
26 2 -14 54.19 2.4
26 -2 -14 51.39 2.6
24 2 -12 126.69 4.6
24 -2 -12 130.59 5.2
24 -2 -12 129.79 4.7
24 -2 -12 125.99 5.5
24 2 -12 125.89 5.2
24 2 -12 128.19 4.9
24 -2 -12 124.69 5
24 2 -12 122.69 4.4
24 -2 -12 117.59 4.5
22 2 -10 45.2 2.8
22 -2 -10 48.1 3.3
22 -2 -10 48 2.8
22 2 -10 44.5 2.9
22 -2 -10 43.6 2.7
22 -2 -10 50.19 3.7
22 -2 -10 43.5 2.8
22 2 -10 46 2.7
20 2 -8 183.88 5.8
20 -2 -8 184.28 6.4
20 -2 -8 185.28 11.4
20 2 -8 168.88 6
20 2 -8 178.68 13.2
20 -2 -8 168.08 6.8
20 2 -8 162.78 6.2
20 -2 -8 183.98 5.8
20 -2 -8 166.18 5.3
18 2 -6 21.9 4.2
18 2 -6 28.4 3.7
18 -2 -6 25.1 3.8
16 -2 -4 262.27 12.2
16 2 -4 261.17 11.5
16 2 -4 276.37 13.6
16 -2 -4 275.37 12
14 -2 -2 123.39 7.8
14 2 -2 119.69 7.3
14 2 -2 119.09 7.7
14 -2 -2 118.19 7.3
12 -2 0 382.66 14.1
12 2 0 373.26 13.7
12 -2 0 396.36 14.1
10 2 2 69.89 5.6
10 -2 2 74.89 5.8
10 -2 2 72.79 5.8
8 -2 4 69.99 5.7
8 -2 4 59.19 5.5
8 2 4 54.39 5.1
6 2 6 292.47 12.9
6 -2 6 298.27 13.5
4 2 8 217.98 6.2
4 2 8 220.98 6.3
4 2 8 212.88 6.2
4 -2 8 221.18 6.5
4 -2 8 213.38 6.5
4 -2 8 222.38 11.9
4 -2 8 217.28 6.2
4 2 8 217.28 6.2
4 2 8 226.98 11.4
4 -2 8 213.78 6.2
2 2 10 77.49 3.5
2 2 10 75.49 3.4
2 2 10 79.19 3.5
2 -2 10 72.19 3.6
2 -2 10 76.49 3.7
2 -2 10 75.39 3.5
2 2 10 77.49 3.6
2 -2 10 72.49 3.4
0 2 12 3 0.8
0 -2 12 2.9 0.8
0 2 12 4.6 1
0 -2 12 2.6 0.8
0 -2 12 3.4 0.9
0 2 12 2.5 0.8
0 -2 12 2.5 0.9
0 2 12 3.7 0.9
0 -2 12 2.9 0.8
-2 2 14 10.2 1.2
-2 -2 14 10.8 1.1
-2 -2 14 10.9 1.2
-2 2 14 11.3 1.2
-2 -2 14 10.6 1.3
-2 -2 14 9.6 1.3
-2 -2 14 10.4 1.2
-4 2 16 1.5 0.4
-4 2 16 3.4 0.7
-4 -2 16 1.9 0.5
-4 -2 16 2.3 0.6
-4 -2 16 3.4 0.6
-4 -2 16 3 0.6
27 -3 -15 4.4 0.6
27 3 -15 4 0.6
27 -3 -15 3.8 0.5
25 3 -13 16.8 1.3
25 -3 -13 15.1 1.3
25 3 -13 15.4 1.4
25 3 -13 15.9 1.5
25 -3 -13 14.8 1.4
25 -3 -13 14.7 1.4
25 -3 -13 17 1.5
25 3 -13 15.9 1.2
23 3 -11 69.89 3
23 -3 -11 66.59 3.5
23 3 -11 71.09 3
23 -3 -11 59.79 3.1
23 -3 -11 67.09 3.2
23 3 -11 59.19 3.3
21 -3 -9 169.08 6
21 -3 -9 149.88 4.9
21 -3 -9 154.18 5.3
21 3 -9 149.79 6.2
21 3 -9 141.29 5.5
21 -3 -9 151.28 6.4
19 -3 -7 171.58 11.5
19 -3 -7 166.98 6.5
19 3 -7 143.89 5.6
17 3 -5 32.6 2.6
17 -3 -5 35.7 2.6
17 3 -5 31.5 2.3
17 3 -5 37.2 5.3
17 -3 -5 33.1 4.5
15 -3 -3 207.78 11.3
15 3 -3 208.38 6.6
15 3 -3 217.78 6.4
15 3 -3 210.58 10.4
15 -3 -3 193.18 10.5
15 3 -3 211.38 11.7
13 3 -1 49.7 4.9
13 -3 -1 51.69 5.4
13 3 -1 52.59 5.3
13 -3 -1 51.79 5.2
11 3 1 45.3 4.6
11 -3 1 40.7 4.8
11 -3 1 43 4.8
9 -3 3 10.6 2.5
9 3 3 12 2.4
9 -3 3 10.2 2.5
7 3 5 15.8 1.6
7 3 5 13.3 1.4
7 3 5 15 1.5
7 -3 5 16.9 1.6
7 3 5 15.9 3
7 -3 5 12 2.7
7 -3 5 14.8 3
7 -3 5 16.7 1.5
5 3 7 155.28 5.2
5 3 7 154.18 9.8
5 -3 7 148.39 9.6
5 3 7 144.99 5
5 -3 7 157.38 5.3
5 3 7 159.08 5
5 -3 7 151.08 10.3
3 3 9 23.5 2
3 3 9 23.5 1.9
3 -3 9 23.7 2
3 -3 9 22.7 1.8
3 3 9 26.8 2
1 3 11 147.19 5
1 3 11 153.98 4.8
1 -3 11 146.69 4.9
1 -3 11 144.59 5.1
1 -3 11 146.09 4.9
1 3 11 150.18 5
-1 3 13 56.59 2.7
-1 -3 13 57.29 2.7
-1 -3 13 56.09 2.8
-1 3 13 56.09 2.4
-1 -3 13 54.79 2.8
-1 -3 13 57.39 2.7
-1 -3 13 55.19 2.7
-3 3 15 46.6 2
-3 -3 15 49.9 1.9
-3 -3 15 51.49 1.9
-3 -3 15 50.49 2.1
-3 -3 15 50.49 2.2
-3 -3 15 46.1 2.2
26 -4 -14 0 0.3
24 4 -12 5.1 0.7
24 4 -12 4.3 0.8
24 -4 -12 4.9 0.8
24 -4 -12 6.4 0.9
22 4 -10 15.6 1.5
22 4 -10 13.6 1.5
22 4 -10 13.4 1.5
22 -4 -10 15.9 1.4
20 4 -8 0.8 0.7
20 -4 -8 -0.2 0.7
20 -4 -8 -0.2 0.6
20 4 -8 1.3 0.9
20 4 -8 0.2 0.5
18 4 -6 223.98 6.7
18 4 -6 236.78 7
18 4 -6 226.18 7.6
16 4 -4 106.29 4.2
16 4 -4 106.59 4.7
16 4 -4 120.69 4.5
16 4 -4 116.49 5.1
14 4 -2 339.37 8.3
14 4 -2 350.56 15.2
14 -4 -2 357.46 15.8
14 4 -2 326.77 8.8
14 4 -2 344.57 8.6
14 -4 -2 336.07 15.1
12 4 0 76.49 3.5
12 4 0 67.49 6
12 -4 0 73.39 6.9
12 4 0 72.89 3.6
12 4 0 78.69 3.4
12 -4 0 70.09 6.6
10 4 2 71.49 3.4
10 4 2 73.49 6.3
10 -4 2 78.39 7
10 4 2 75.39 3.5
10 -4 2 73.69 6.6
10 4 2 71.59 3.4
10 4 2 70.29 3.6
8 4 4 10.9 1.3
8 4 4 10.8 1.4
6 4 6 53.99 3
6 4 6 52.69 2.8
6 -4 6 57.29 2.8
4 4 8 46 2.7
4 4 8 44 2.5
4 -4 8 46.7 2.6
4 -4 8 47.1 2.6
2 4 10 51.29 2.7
2 -4 10 50.19 2.6
2 4 10 50.29 2.5
2 -4 10 52.19 2.6
2 -4 10 53.59 2.6
2 -4 10 51.49 2.6
2 4 10 54.49 2.6
0 -4 12 4.1 0.7
0 4 12 5.1 0.9
0 -4 12 4.3 0.8
0 4 12 4.6 0.7
0 -4 12 3.8 0.7
0 -4 12 4.5 0.8
-2 4 14 -0.4 0.4
-2 -4 14 1.1 0.4
-2 -4 14 0.4 0.3
-2 -4 14 1 0.4
23 5 -11 1.7 0.4
23 -5 -11 1.2 0.4
23 -5 -11 1 0.4
21 5 -9 22.4 1.6
21 -5 -9 27.2 1.6
19 5 -7 80.29 3.7
19 5 -7 78.09 3.3
19 5 -7 86.69 3.4
17 5 -5 42.4 2.4
17 5 -5 48.1 2.9
15 5 -3 73.09 3.2
15 5 -3 69.59 3.1
15 5 -3 67.49 3.6
13 5 -1 67.89 3.1
13 5 -1 63.79 3.5
11 5 1 23.3 2
11 5 1 26.1 2
11 5 1 24.1 1.9
9 5 3 4.5 1
9 5 3 6.8 1
7 5 5 50.29 2.8
5 5 7 16.5 1.6
3 5 9 5.3 0.9
3 -5 9 5.1 0.8
1 -5 11 16.8 1.2
1 5 11 15.2 1.2
1 -5 11 15.4 1.1
1 -5 11 15.5 1
20 6 -8 15.6 0.9
20 -6 -8 12.1 0.9
18 6 -6 1 0.4
16 6 -4 2.6 0.6
14 6 -2 1.4 0.6
12 6 0 1.5 0.6
10 6 2 0.5 0.6
8 6 4 7.5 1
6 6 6 50.19 2.3
6 -6 6 50.49 1.9
4 -6 8 5.4 0.6
4 6 8 5.4 0.7
28 0 -17 -0.1 0.3
28 0 -17 -0.4 0.4
26 0 -15 0.3 0.7
26 0 -15 -0.7 0.6
26 0 -15 -0.5 0.6
24 0 -13 0.3 0.6
24 0 -13 -1 0.9
24 0 -13 -0.5 1.1
24 0 -13 0.1 0.7
24 0 -13 0.3 0.7
22 0 -11 0.5 0.7
22 0 -11 1.2 1
22 0 -11 -0.3 1
22 0 -11 0.3 0.5
22 0 -11 0 0.8
22 0 -11 -0.2 0.6
20 0 -9 -0.4 0.8
20 0 -9 -0.5 0.7
20 0 -9 1.2 1.1
20 0 -9 1.5 0.7
16 0 -5 1.8 1.3
16 0 -5 0.5 0.7
14 0 -3 0.3 0.7
14 0 -3 0.8 0.8
12 0 -1 -0.3 0.8
10 0 1 0.8 0.9
8 0 3 -1.3 0.9
8 0 3 0.3 0.8
8 0 3 0.4 0.9
6 0 5 19.4 3.5
6 0 5 17.4 3
4 0 7 0.2 0.7
4 0 7 0.5 0.9
2 0 9 -2.3 1.5
0 0 11 0.3 0.6
0 0 11 -0.1 0.7
0 0 11 0.1 0.6
0 0 11 -0.4 0.6
0 0 11 0.3 0.6
0 0 11 0.1 0.5
-2 0 13 0.1 0.5
-2 0 13 1 0.7
-2 0 13 0.7 0.7
-2 0 13 -0.2 0.7
-2 0 13 -0.2 0.6
-2 0 13 1.3 0.8
-4 0 15 -2.4 0.8
-4 0 15 -1.3 0.7
-4 0 15 0.1 0.6
-4 0 15 -0.8 0.6
-6 0 17 0 0.4
-6 0 17 0.2 0.4
-6 0 17 0.9 0.5
27 -1 -16 25 1.6
27 -1 -16 23.1 1.5
27 1 -16 28.1 1.7
27 1 -16 23.7 1.5
25 1 -14 14.1 1.6
25 -1 -14 13.8 1.7
25 1 -14 13.8 1.7
25 -1 -14 15.2 1.6
25 -1 -14 14.1 1.9
25 -1 -14 15 1.4
25 1 -14 13.7 1.7
25 -1 -14 13.9 1.5
25 1 -14 12 1.3
23 1 -12 18.9 2.1
23 -1 -12 19.5 2.2
23 -1 -12 20.1 1.9
23 -1 -12 20.2 1.9
23 1 -12 18.6 1.8
23 -1 -12 21.9 2.2
23 1 -12 17.8 2.2
23 -1 -12 18.9 2.6
23 -1 -12 19.6 1.9
23 1 -12 21.6 1.9
21 -1 -10 214.18 7.7
21 1 -10 227.78 6.7
21 1 -10 208.98 7.1
21 1 -10 216.98 6.5
21 1 -10 201.58 7.6
21 -1 -10 188.08 8.1
21 -1 -10 220.68 6.8
21 -1 -10 209.88 6.6
19 1 -8 80.59 8.7
19 -1 -8 104.49 7.9
17 -1 -6 142.29 8.9
17 1 -6 111.99 9.4
17 -1 -6 133.39 8.1
15 1 -4 405.36 15.9
15 -1 -4 444.46 14.5
13 -1 -2 320.77 11.8
13 -1 -2 322.17 11
13 1 -2 358.16 12.5
13 1 -2 326.67 11.9
11 -1 0 58.29 4.5
11 1 0 55.49 4.5
11 -1 0 59.29 4.6
9 1 2 1314.87 29.2
9 -1 2 1373.26 28.6
9 -1 2 1352.46 29.6
7 -1 4 249.78 8.8
7 1 4 222.68 9.5
7 -1 4 209.88 9.7
7 -1 4 240.28 9.2
5 1 6 67.39 5.2
5 -1 6 71.59 5.8
3 1 8 191.68 9.5
3 -1 8 187.68 10.2
3 -1 8 191.58 10.4
1 1 10 57.59 2.9
1 1 10 54.09 2.8
1 1 10 57.19 5.3
1 -1 10 55.79 5.9
1 1 10 55.29 2.9
1 -1 10 53.79 3
1 -1 10 51.09 5.6
1 1 10 53.19 3
1 -1 10 54.99 3
1 -1 10 50.49 2.9
1 -1 10 52.69 2.9
1 1 10 53.99 2.9
1 -1 10 58.49 2.9
-1 -1 12 33.7 2.4
-1 1 12 36.5 2.4
-1 -1 12 40.8 2.4
-1 1 12 36.7 2.4
-1 1 12 37.4 2.5
-1 -1 12 34.7 2.4
-1 -1 12 36 2.5
-1 -1 12 37.4 2.3
-3 1 14 18.5 1.6
-3 -1 14 22.4 1.7
-3 1 14 19 1.7
-3 -1 14 21.5 1.6
-3 -1 14 17.8 1.7
-3 -1 14 18.8 1.8
-3 -1 14 17.7 1.6
-5 1 16 19.7 1.5
-5 -1 16 19.4 1.3
-5 1 16 18.4 1.4
-5 -1 16 17.8 1.4
-5 -1 16 20.3 1.5
-5 -1 16 16.9 1.4
-5 1 16 22.4 1.4
-7 -1 18 8.8 0.7
26 2 -15 0.5 0.5
26 -2 -15 0.9 0.5
26 -2 -15 0.3 0.5
26 -2 -15 0.5 0.5
26 2 -15 -0.6 0.5
26 -2 -15 0.3 0.5
26 2 -15 1.2 0.6
24 2 -13 2.6 0.8
24 -2 -13 1.9 1
24 -2 -13 1.4 0.8
24 -2 -13 2.2 0.8
24 2 -13 1.5 0.9
24 -2 -13 2 1.1
24 2 -13 1.6 0.8
24 2 -13 1.6 0.6
24 -2 -13 2.2 0.8
22 -2 -11 167.18 5.8
22 2 -11 157.28 5.6
22 -2 -11 156.68 6.5
22 2 -11 149.88 5.8
22 -2 -11 140.99 6.9
22 2 -11 161.98 5.3
22 -2 -11 149.09 5.5
20 2 -9 30.2 2.3
20 -2 -9 24.9 2.5
20 2 -9 30.9 2.1
20 -2 -9 30.9 2.2
20 -2 -9 33.1 5.1
20 2 -9 26.8 2.4
20 -2 -9 24.1 2.8
20 -2 -9 31.7 2.4
20 2 -9 29 2.7
20 2 -9 33.8 6
18 -2 -7 20.6 4
18 -2 -7 16.4 3.3
18 2 -7 15.4 2.8
18 2 -7 11.2 3.6
16 2 -5 32.6 3.8
16 2 -5 31.9 5
16 -2 -5 32.1 4.1
14 -2 -3 22.8 3.3
14 2 -3 21.8 3.1
14 2 -3 22.8 3.7
14 -2 -3 19.7 2.9
12 -2 -1 278.17 10.8
12 -2 -1 259.37 11
12 -2 -1 250.07 10.3
12 2 -1 258.87 11
12 2 -1 252.57 10.6
10 2 1 637.84 18.2
10 -2 1 649.24 18.4
10 -2 1 637.34 18.4
8 2 3 25.5 3.3
8 -2 3 27.5 3.5
8 -2 3 25.5 3.4
6 2 5 315.97 12.9
6 -2 5 351.46 13
6 -2 5 329.87 13.4
4 -2 7 22.2 3.6
4 2 7 26 3.7
4 -2 7 26.9 3.5
4 -2 7 24.3 3.8
2 -2 9 96.39 4
2 -2 9 99.79 7.9
2 2 9 93.19 3.9
2 2 9 95.49 3.9
2 2 9 96.99 7.3
2 -2 9 94.99 7.7
2 -2 9 93.69 3.8
2 -2 9 98.19 4.1
2 -2 9 95.99 4
2 2 9 94.29 3.9
0 2 11 95.79 4
0 -2 11 94.79 4.1
0 2 11 93.99 3.9
0 -2 11 89.29 4
0 -2 11 93.39 4.1
0 -2 11 92.99 3.9
0 2 11 94.09 4
0 2 11 95.89 3.9
0 -2 11 93.89 3.9
-2 2 13 9.9 1.3
-2 -2 13 9.7 1.2
-2 2 13 10.3 1.3
-2 -2 13 9 1.3
-2 2 13 7.8 1.2
-2 -2 13 10.8 1.4
-2 2 13 10.1 1.2
-2 -2 13 11.4 1.3
-2 -2 13 8.8 1.3
-4 2 15 4.6 0.8
-4 -2 15 5.5 0.8
-4 2 15 4.3 0.7
-4 -2 15 4.8 0.9
-4 -2 15 4.6 0.7
-6 2 17 0.5 0.4
-6 -2 17 0.1 0.3
-6 -2 17 0.8 0.4
25 3 -14 15.9 1.3
25 3 -14 17 1.5
25 -3 -14 15.5 1.4
25 -3 -14 13.7 1.2
25 3 -14 14.4 1.1
25 -3 -14 16 1.3
23 3 -12 45.3 2.4
23 -3 -12 40.9 2.8
23 3 -12 40 2.6
23 -3 -12 46 2.7
23 -3 -12 40.7 2.8
23 3 -12 38.2 2.6
23 3 -12 39.7 2.3
23 -3 -12 37.2 2.4
21 -3 -10 41.2 2.7
21 3 -10 36.4 2.8
21 3 -10 41.6 2.5
21 3 -10 38.7 2.5
21 -3 -10 35.1 2.9
21 3 -10 39.5 2.4
19 -3 -8 165.68 6.3
19 -3 -8 158.28 5.1
19 3 -8 159.88 6.7
17 -3 -6 37.2 5.7
17 -3 -6 39 5.1
17 3 -6 33.3 2.8
17 3 -6 35.7 2.6
17 3 -6 32.7 5.3
15 -3 -4 382.06 15.4
15 3 -4 403.46 17.6
15 -3 -4 376.26 15.4
15 3 -4 392.56 14.3
13 3 -2 179.98 9.2
13 -3 -2 183.88 10.2
13 3 -2 188.98 10.5
13 -3 -2 162.98 9.2
11 3 0 81.29 6.3
11 -3 0 85.19 6.7
11 3 0 82.09 6.1
11 -3 0 93.89 6.7
9 -3 2 18.9 3.2
9 3 2 19.4 3
9 -3 2 14.6 2.8
7 3 4 25.5 3.6
7 -3 4 26.8 3.9
7 -3 4 25.7 3.8
5 3 6 67.39 3.3
5 3 6 66.29 6.1
5 -3 6 75.89 6.6
5 3 6 63.09 3
5 -3 6 71.39 6.6
3 3 8 104.99 4.3
3 -3 8 106.29 4
3 3 8 115.29 8.4
3 -3 8 108.09 8.6
3 -3 8 115.39 8.7
3 3 8 106.69 4.1
3 -3 8 107.79 4.2
3 -3 8 105.69 4.3
3 3 8 111.29 4.2
1 -3 10 184.78 5.9
1 3 10 187.58 5.9
1 -3 10 186.28 5.7
1 -3 10 192.98 6
1 3 10 185.78 5.6
1 -3 10 187.08 6
1 3 10 191.18 5.8
-1 -3 12 83.09 3.6
-1 3 12 86.89 3.7
-1 3 12 82.69 3.3
-1 -3 12 82.79 3.7
-1 -3 12 85.59 3.6
-1 3 12 85.99 3.6
-1 -3 12 83.29 3.5
-3 -3 14 22.1 1.6
-3 -3 14 22.4 1.8
-3 3 14 21.5 1.6
-3 -3 14 23.4 1.6
-3 -3 14 22.5 1.6
-3 3 14 21.8 1.4
-5 3 16 9.5 0.8
-5 -3 16 9 0.7
-5 -3 16 10.2 0.9
-5 -3 16 9.8 0.9
-5 -3 16 9.7 0.8
-5 -3 16 10 0.8
24 4 -13 31.2 1.7
24 4 -13 27.9 1.7
24 -4 -13 34.3 1.8
24 -4 -13 29.6 1.7
24 -4 -13 27.8 1.6
22 4 -11 17.5 1.6
22 4 -11 17.1 1.6
22 -4 -11 20.3 1.6
22 -4 -11 16 1.5
22 -4 -11 17.1 1.8
20 4 -9 77.99 3.6
20 -4 -9 89.89 3.8
20 4 -9 82.99 3.9
20 4 -9 75.49 4.1
18 4 -7 7.8 1.2
18 4 -7 7.8 1.4
18 4 -7 7 1.2
16 4 -5 24.6 2
16 4 -5 26.4 2.1
16 4 -5 23.2 2.3
14 4 -3 54.79 2.9
14 -4 -3 59.69 6.2
14 4 -3 54.39 3.2
14 4 -3 55.29 3.4
14 -4 -3 56.59 6
14 4 -3 62.39 6.3
12 -4 -1 54.29 5.8
12 -4 -1 49.8 5.5
12 4 -1 51.49 3
12 4 -1 55.19 2.9
12 4 -1 56.79 2.9
10 4 1 160.38 5.3
10 4 1 152.18 9
10 -4 1 152.88 9.8
10 4 1 160.98 5.4
10 4 1 153.18 5.2
10 -4 1 153.38 9.8
8 4 3 298.47 7.8
8 4 3 287.57 13.1
8 -4 3 305.07 14.4
8 4 3 305.97 7.8
8 4 3 279.57 7.5
8 -4 3 289.47 13.6
6 4 5 175.48 5.7
6 -4 5 180.78 10.9
6 4 5 168.48 5.5
4 4 7 41.6 2.6
4 4 7 40 2.4
4 -4 7 47.2 2.6
2 4 9 60.39 3.1
2 -4 9 63.39 2.9
2 4 9 60.39 2.8
2 -4 9 63.69 3
2 -4 9 63.89 3
2 4 9 67.89 3.1
0 4 11 18.9 1.6
0 -4 11 17.6 1.6
0 4 11 18.2 1.4
0 -4 11 17.5 1.6
0 -4 11 19 1.5
0 4 11 18.3 1.6
0 -4 11 19.4 1.6
-2 -4 13 2.3 0.6
-2 4 13 2.2 0.6
-2 -4 13 1.7 0.6
-2 -4 13 0.6 0.5
-2 -4 13 2.2 0.6
-2 4 13 1.7 0.6
-2 -4 13 1.2 0.6
-4 4 15 7.6 0.7
-4 -4 15 9.7 0.7
-4 -4 15 7.4 0.6
-4 -4 15 9.9 0.8
23 5 -12 19.7 1.1
23 -5 -12 18.5 1.1
21 5 -10 6.6 0.9
21 -5 -10 4.8 0.8
21 -5 -10 5.3 0.8
19 5 -8 0.7 0.5
19 -5 -8 1.2 0.7
19 5 -8 0.6 0.5
17 5 -6 29.2 2.4
17 5 -6 35 2.3
17 5 -6 32.1 2.2
15 5 -4 28 2
15 5 -4 23.6 2.2
15 5 -4 27 2
13 5 -2 56.49 2.8
13 5 -2 53.89 2.8
13 5 -2 52.69 3.2
11 5 0 65.69 3.2
11 5 0 69.29 3.3
11 5 0 63.69 3.4
9 5 2 -0.3 0.7
9 5 2 -0.3 0.7
9 5 2 1 0.5
7 5 4 48.3 2.8
5 5 6 14.7 1.6
3 5 8 15.2 1.5
3 -5 8 18.2 1.4
1 5 10 20 1.5
1 -5 10 22.1 1.4
-1 5 12 15.3 1.1
-1 -5 12 17.3 1.2
-1 -5 12 16.7 1.1
20 6 -9 73.49 2.2
18 6 -7 73.39 2.6
16 6 -5 56.69 2.4
14 6 -3 117.89 3.6
12 6 -1 5.4 1
10 6 1 4 0.9
8 6 3 2.9 0.8
6 6 5 0.9 0.5
4 6 7 2.9 0.6
2 -6 9 17.6 1
2 6 9 15.4 1.1
9 7 2 2.6 0.5
7 7 4 1.5 0.4
26 0 -16 9.2 1.1
26 0 -16 10.4 1.3
24 0 -14 87.99 4.6
24 0 -14 80.49 4.7
24 0 -14 91.49 4
24 0 -14 91.89 3.7
22 0 -12 93.09 5.1
22 0 -12 96.59 5.7
22 0 -12 108.79 4.9
22 0 -12 110.59 4.4
22 0 -12 108.89 4.6
20 0 -10 323.07 10.2
20 0 -10 379.96 9.4
20 0 -10 349.67 9.2
20 0 -10 389.86 9.2
20 0 -10 362.96 9.9
20 0 -10 342.47 11.3
16 0 -6 1977.9 38.8
16 0 -6 1829.12 42.4
14 0 -4 2144.09 41.5
14 0 -4 2073.69 39.4
12 0 -2 781.82 17.7
12 0 -2 800.62 17.7
10 0 0 1973.4 37
10 0 0 1948.41 33.9
8 0 2 308.57 9.2
8 0 2 284.57 10.2
8 0 2 306.07 10.1
6 0 4 291.57 9.9
6 0 4 279.37 10.4
6 0 4 308.57 8.9
4 0 6 318.27 10.7
4 0 6 313.27 11.6
2 0 8 414.26 13.2
2 0 8 372.36 13.6
0 0 10 8.6 1.3
0 0 10 6.8 1.1
0 0 10 7.7 1.1
-2 0 12 210.68 6.5
-2 0 12 220.08 6.3
-2 0 12 205.48 6.5
-2 0 12 212.78 6.1
-4 0 14 58.69 3
-4 0 14 56.09 2.9
-4 0 14 59.09 3.2
-4 0 14 59.49 3.1
-4 0 14 61.09 3
-4 0 14 66.79 3
-6 0 16 28.6 1.8
-6 0 16 26.7 1.8
-6 0 16 28.7 1.8
-6 0 16 30.9 1.8
-8 0 18 28 1.3
-8 0 18 25.4 1.3
-8 0 18 26 1.1
27 -1 -17 1.3 0.4
27 1 -17 2 0.6
27 1 -17 2.4 0.5
27 -1 -17 2.3 0.6
25 1 -15 3.9 1
25 -1 -15 3.7 1.1
25 -1 -15 3.8 1
25 1 -15 3.8 1.2
25 -1 -15 2.7 0.7
25 -1 -15 2.4 1
25 1 -15 3.9 0.9
25 -1 -15 3.1 0.8
23 1 -13 43.2 3.1
23 -1 -13 43.8 3.5
23 1 -13 48.2 2.8
23 -1 -13 52.79 3.1
23 1 -13 44.8 3.4
23 -1 -13 43.1 3.9
23 -1 -13 50.49 3.4
23 -1 -13 51.39 3.1
21 1 -11 12.3 1.5
21 -1 -11 9.5 1.9
21 -1 -11 11.1 1.6
21 -1 -11 11.8 1.6
21 1 -11 13.3 2.1
21 -1 -11 11.2 2.4
21 1 -11 10 1.5
21 1 -11 13.2 1.5
19 1 -9 38.5 3.1
19 -1 -9 44.1 5.5
19 1 -9 35.7 2.7
19 -1 -9 33.2 3
19 -1 -9 43 2.7
19 -1 -9 36.1 3.4
19 -1 -9 38.9 2.6
19 1 -9 34 6
19 1 -9 39.3 2.5
19 -1 -9 36.5 2.4
17 -1 -7 20.2 3.8
17 1 -7 19.7 4.6
15 -1 -5 133.59 7.9
15 1 -5 118.89 9.2
13 -1 -3 112.79 6.5
13 1 -3 122.59 7.8
13 -1 -3 125.39 6.6
11 -1 -1 135.39 6.8
11 1 -1 138.29 6.9
11 1 -1 132.49 6.8
11 -1 -1 131.59 6.2
9 -1 1 369.66 12.1
9 -1 1 362.46 12
7 -1 3 19.9 2.4
7 -1 3 16.5 2.4
7 1 3 15.5 2.3
7 -1 3 19.2 2.2
5 -1 5 120.79 5.5
5 1 5 106.49 6.2
5 -1 5 123.99 6.1
5 -1 5 102.59 6.4
5 -1 5 104.79 6.5
3 -1 7 104.79 7
3 1 7 102.19 6.5
3 -1 7 110.79 7.2
1 1 9 76.99 6
1 -1 9 73.89 6.3
1 -1 9 78.39 6.5
-1 1 11 2.9 0.8
-1 1 11 4.2 1
-1 -1 11 4.7 1
-1 -1 11 3.9 0.9
-1 -1 11 7.3 2.2
-1 1 11 4.9 1
-1 1 11 5.1 1
-1 -1 11 4.8 1
-1 -1 11 4.7 0.9
-1 1 11 4.9 1
-1 -1 11 5 1
-3 1 13 23 1.9
-3 -1 13 24.4 1.9
-3 1 13 21.5 1.8
-3 -1 13 20.5 1.9
-3 -1 13 21 1.9
-3 1 13 20.9 1.8
-3 -1 13 20.7 1.8
-3 -1 13 21.5 1.8
-3 -1 13 23.6 1.8
-5 1 15 1.5 0.7
-5 -1 15 2.6 0.8
-5 1 15 1.2 0.6
-5 -1 15 1.6 0.6
-5 -1 15 1.5 0.7
-5 -1 15 1.2 0.7
-5 -1 15 1 0.5
-7 1 17 3.3 0.5
-7 1 17 5.7 0.8
-7 -1 17 4 0.6
-7 1 17 4.6 0.7
-7 -1 17 4.7 0.7
-7 -1 17 4.1 0.7
26 -2 -16 16.2 1.2
26 2 -16 15.1 1.2
26 -2 -16 17 1.3
26 2 -16 14.9 1.1
24 2 -14 44.6 2.7
24 -2 -14 38.6 2.8
24 -2 -14 44.4 2.6
24 2 -14 40.9 2.9
24 2 -14 39.8 2.6
24 -2 -14 40.4 2.8
24 -2 -14 37.8 2.8
24 2 -14 41.4 2.4
24 -2 -14 42.8 2.6
22 2 -12 30.8 2.8
22 2 -12 32.5 2.5
22 -2 -12 28.6 3
22 -2 -12 37.7 2.8
22 2 -12 32.9 2.6
22 -2 -12 30.8 3.3
22 -2 -12 33.9 3
22 2 -12 32.9 2.3
22 -2 -12 33.4 2.5
20 -2 -10 102.59 9.3
20 2 -10 92.29 4.3
20 -2 -10 83.79 5.1
20 -2 -10 112.99 4.6
20 -2 -10 107.79 4.7
20 -2 -10 92.69 6.1
20 2 -10 94.39 4.6
20 2 -10 100.09 4.1
18 2 -8 33.5 2.4
18 -2 -8 33.3 3
18 2 -8 35.5 2.7
18 2 -8 36.3 2.9
18 -2 -8 29.7 3.3
18 2 -8 29.9 5.8
18 -2 -8 33.7 5.2
16 2 -6 24.2 5
16 -2 -6 31.7 4.3
16 2 -6 30.3 3.7
14 2 -4 103.69 6.4
14 -2 -4 102.59 7
14 -2 -4 103.99 6.8
14 2 -4 91.79 8.3
12 2 -2 115.29 6.6
12 -2 -2 126.29 7.3
12 2 -2 128.59 8.1
12 -2 -2 127.49 7.1
10 2 0 700.43 18.7
10 2 0 704.93 19.1
10 -2 0 719.63 19.4
10 -2 0 731.73 19.1
8 2 2 259.57 10.4
8 -2 2 270.57 10.7
8 -2 2 268.17 10.7
6 2 4 158.38 8.4
6 -2 4 166.08 8.2
6 -2 4 151.48 8.3
4 2 6 454.95 15.7
4 -2 6 454.55 15.9
4 -2 6 453.05 16.2
2 2 8 53.89 5.2
2 -2 8 53.49 5.5
2 -2 8 52.49 5.4
0 -2 10 45.5 2.7
0 -2 10 43.3 2.7
0 2 10 46 2.7
0 2 10 44.8 2.6
0 -2 10 53.89 5.7
0 -2 10 44.1 2.7
0 -2 10 49.6 5.6
0 2 10 45.4 5
0 -2 10 43.8 2.6
0 2 10 46 2.7
-2 2 12 15 1.6
-2 2 12 16.8 1.6
-2 -2 12 14.6 1.6
-2 -2 12 12.9 1.5
-2 -2 12 14.6 1.6
-2 -2 12 15.8 1.6
-2 2 12 16 1.7
-2 2 12 15.7 1.5
-4 2 14 34.3 2.2
-4 -2 14 30.8 2.2
-4 -2 14 36.3 2.1
-4 2 14 33.3 2.1
-4 2 14 35.7 2.1
-4 -2 14 31.8 2.2
-4 -2 14 32.8 2.2
-4 2 14 35.1 2.4
-4 -2 14 33.9 2.2
-6 2 16 12.5 1.2
-6 -2 16 11.3 1.1
-6 2 16 11.9 0.9
-6 -2 16 12.9 1.2
-6 -2 16 11.7 1.2
-6 -2 16 12.5 1.1
25 3 -15 37.8 1.7
25 -3 -15 38.6 1.9
25 3 -15 41.4 2.1
25 -3 -15 41.5 1.9
23 3 -13 37.2 2.1
23 3 -13 32.7 2.3
23 3 -13 32 2.4
23 -3 -13 34.9 2.3
23 -3 -13 33.3 2.6
23 3 -13 33.2 2
23 -3 -13 36.6 2.3
21 3 -11 37 2.4
21 3 -11 37.2 2.4
21 -3 -11 31.2 2.9
21 3 -11 31.9 2.6
21 -3 -11 31.7 2.4
21 -3 -11 35.8 2.7
19 -3 -9 107.59 5.7
19 3 -9 132.49 4.7
19 3 -9 129.19 4.6
19 3 -9 127.69 4.8
19 3 -9 134.39 6.2
19 3 -9 115.09 5.1
17 -3 -7 278.87 16.5
17 -3 -7 291.67 15
17 3 -7 260.27 8
17 3 -7 248.98 16.5
15 -3 -5 31.7 4.2
15 3 -5 37.7 5.9
15 -3 -5 37.9 5
13 3 -3 95.19 6.3
13 3 -3 98.29 8.1
13 -3 -3 95.49 7.1
13 -3 -3 93.99 7
11 -3 -1 51.19 4.6
11 -3 -1 51.19 5
11 3 -1 48.8 4.5
11 -3 -1 44.8 4.6
11 3 -1 51.49 5.2
9 3 1 47.5 4.4
9 -3 1 49.1 4.9
9 -3 1 49.3 4.7
7 3 3 67.59 5.6
7 -3 3 66.69 5.7
7 -3 3 69.09 5.8
5 3 5 79.09 6.4
5 -3 5 78.49 6.4
5 -3 5 75.59 6.4
5 -3 5 77.29 6.3
3 3 7 107.39 4.2
3 3 7 105.29 7.7
3 -3 7 102.09 7.5
3 -3 7 111.69 4.2
3 -3 7 105.29 8.1
3 3 7 106.49 4
3 -3 7 104.99 7.9
3 3 7 115.29 4.1
1 3 9 165.08 5.5
1 -3 9 163.88 5.3
1 -3 9 165.48 10.5
1 -3 9 173.38 10.8
1 3 9 164.18 5.2
1 -3 9 159.58 5.3
1 -3 9 162.28 5.5
1 -3 9 165.58 5.4
1 3 9 167.68 5.4
-1 3 11 48.3 2.8
-1 -3 11 48.8 2.8
-1 -3 11 48 2.8
-1 -3 11 50.89 2.9
-1 3 11 50.79 2.6
-1 -3 11 49.3 2.8
-1 3 11 48.4 2.9
-3 3 13 8.5 1.2
-3 -3 13 5.7 1
-3 3 13 9 1
-3 -3 13 6.6 1.1
-3 -3 13 7.4 1.1
-3 -3 13 7.6 1.1
-3 3 13 7.3 1.1
-3 -3 13 9 1.2
-5 3 15 16.1 1.3
-5 -3 15 16.6 1.2
-5 -3 15 15 1.3
-5 -3 15 15.3 1.3
-5 -3 15 17.1 1.3
-7 3 17 9.8 0.7
-7 -3 17 9.6 0.7
24 4 -14 23.7 1.3
24 -4 -14 23 1.3
24 -4 -14 26.8 1.5
22 4 -12 20.6 1.7
22 4 -12 21.1 1.4
22 -4 -12 20.3 1.9
22 4 -12 20.5 1.8
22 -4 -12 18.9 1.6
20 4 -10 34.8 2.4
20 -4 -10 42.2 2.7
20 4 -10 32.2 2.6
20 4 -10 34.8 2.5
18 4 -8 0.5 0.7
18 4 -8 1.6 1
18 4 -8 0.5 0.7
16 4 -6 56.79 3.1
16 4 -6 58.39 3.3
16 4 -6 56.89 3.7
14 4 -4 80.39 3.5
14 4 -4 73.09 3.5
14 -4 -4 71.19 6.6
14 4 -4 72.89 3.9
14 4 -4 78.89 3.7
14 4 -4 74.99 4.1
14 4 -4 78.69 7.5
14 -4 -4 80.89 7.6
12 4 -2 38.6 4.8
12 4 -2 36.3 2.3
12 4 -2 38.8 2.5
12 -4 -2 37.9 4.8
12 4 -2 40.4 2.7
12 4 -2 39 2.8
12 -4 -2 42.9 5.2
10 4 0 11.3 1.3
10 -4 0 8.8 2.5
10 4 0 10.2 1.4
10 4 0 12.5 2.7
10 4 0 13.4 1.7
10 -4 0 12.2 3
8 4 2 5.4 1
8 4 2 4 1.1
8 4 2 3.9 1
8 4 2 5.4 1.8
8 4 2 5.7 1.1
8 -4 2 6 1.9
8 -4 2 3.1 1.2
6 4 4 6 1
6 -4 4 6.5 2.1
6 4 4 4.6 1
6 4 4 6.5 1.9
6 -4 4 3.8 1
4 4 6 27 2.1
4 -4 6 34.5 4.7
4 4 6 26.6 2
4 -4 6 28.5 4.3
2 4 8 43.3 2.7
2 4 8 42.8 2.5
2 -4 8 48 2.6
2 -4 8 47.2 2.5
2 4 8 48.9 2.6
0 -4 10 69.09 3.2
0 4 10 63.39 3.2
0 -4 10 68.19 3.1
0 4 10 67.49 2.9
0 4 10 69.59 3.2
-2 4 12 44.2 2.4
-2 -4 12 45.6 2.4
-2 -4 12 46.1 2.4
-2 4 12 44 2.3
-4 -4 14 26 1.5
-4 4 14 26 1.5
-4 -4 14 28.2 1.6
-4 -4 14 24.5 1.2
-4 -4 14 26.6 1.5
-4 -4 14 27.8 1.6
-4 -4 14 28 1.6
21 5 -11 19.5 1.4
21 -5 -11 22.5 1.5
19 5 -9 71.09 3.1
17 5 -7 182.38 6.3
17 5 -7 185.98 5.7
17 5 -7 196.28 6
15 5 -5 76.89 3.5
15 5 -5 86.79 3.7
15 5 -5 77.89 4
13 5 -3 131.29 4.6
13 5 -3 129.19 4.6
13 5 -3 136.59 5.4
11 5 -1 39.5 2.5
11 5 -1 44.7 3
9 5 1 31.6 2.3
9 5 1 39.3 2.5
9 5 1 37.2 2.5
7 5 3 109.09 4.4
7 5 3 124.19 4.3
5 5 5 217.48 6.5
3 5 7 30.8 2.2
3 5 7 29.6 1.9
1 5 9 4.7 0.9
1 5 9 3.4 0.7
-1 5 11 46.4 2.2
-1 -5 11 47.7 2
-1 5 11 45.5 2
-1 -5 11 46.8 2.1
-3 5 13 2.5 0.5
-3 -5 13 2.4 0.5
-3 -5 13 2.2 0.4
20 6 -10 3.5 0.4
18 6 -8 16 1.1
16 6 -6 6.8 0.9
14 6 -4 9 1
12 6 -2 14 1.2
12 6 -2 12.4 1.3
10 6 0 4.7 0.9
8 6 2 3.2 0.9
6 6 4 27.3 1.9
4 6 6 10.2 1.1
2 6 8 4.5 0.8
0 6 10 10.6 0.8
0 -6 10 11 0.8
9 7 1 44.9 1.8
7 7 3 31.5 1.5
5 7 5 19.6 1
26 0 -17 0.4 0.5
26 0 -17 -0.8 0.5
24 0 -15 0.7 0.9
24 0 -15 -0.7 1.1
24 0 -15 -0.5 0.7
22 0 -13 -0.7 1
22 0 -13 -1.2 1.2
22 0 -13 -0.6 0.7
22 0 -13 0.1 0.7
22 0 -13 -1.3 0.7
20 0 -11 0.3 1
20 0 -11 -1 0.8
20 0 -11 -1.4 1
20 0 -11 0.5 1.2
20 0 -11 0 0.9
20 0 -11 1.1 0.8
16 0 -7 0.1 1.1
16 0 -7 4 1.7
14 0 -5 0 1
14 0 -5 -0.1 1.4
12 0 -3 -0.1 0.9
12 0 -3 -0.3 1.1
10 0 -1 0.2 0.6
10 0 -1 0.7 0.6
8 0 1 0.5 0.6
8 0 1 0.3 0.8
6 0 3 51.99 3.8
6 0 3 47.1 3.3
6 0 3 42.3 3.9
4 0 5 0.5 0.7
4 0 5 0.3 0.6
2 0 7 0 0.8
2 0 7 0.2 0.7
2 0 7 0.7 0.6
0 0 9 0.9 1
0 0 9 0.2 0.8
-2 0 11 0.6 0.6
-2 0 11 0.4 1.3
-2 0 11 0.2 0.6
-2 0 11 -0.3 0.5
-2 0 11 0.2 0.6
-2 0 11 0.7 0.6
-4 0 13 -0.5 0.7
-4 0 13 -0.2 0.7
-4 0 13 0.3 0.6
-4 0 13 -0.2 0.6
-6 0 15 -0.5 0.6
-6 0 15 -0.7 0.7
-6 0 15 0.2 0.5
-6 0 15 0.2 0.5
-6 0 15 0.6 0.6
-8 0 17 0.8 0.5
-8 0 17 -0.2 0.5
27 1 -18 26.9 1.1
25 1 -16 30.8 2.2
25 -1 -16 29.2 2.2
25 -1 -16 29.1 1.8
25 -1 -16 32.5 2.1
25 1 -16 31.1 2
23 1 -14 6.7 1.4
23 -1 -14 4.9 1.5
23 -1 -14 8.8 1.4
23 -1 -14 9.8 1.4
23 -1 -14 7 1.9
23 1 -14 6.7 1.6
23 1 -14 8.4 1.7
23 -1 -14 9.1 1.7
23 1 -14 9.3 1.4
21 -1 -12 104.09 6.5
21 1 -12 104.49 5.2
21 -1 -12 97.39 5.7
21 1 -12 120.69 4.5
21 -1 -12 104.19 5
21 -1 -12 113.89 4.9
21 1 -12 110.19 5.8
21 1 -12 118.19 4.9
21 -1 -12 96.49 5.3
21 1 -12 112.69 4.7
21 -1 -12 118.89 5.1
19 1 -10 69.09 4
19 -1 -10 61.29 4.3
19 1 -10 70.49 9.1
19 -1 -10 68.99 3.9
19 1 -10 76.59 4.5
19 -1 -10 74.59 5.4
19 1 -10 63.69 3.5
19 1 -10 67.99 3.5
19 -1 -10 72.29 3.7
19 -1 -10 69.09 7.2
17 -1 -8 11.3 2.6
17 1 -8 15.5 4
15 -1 -6 989.3 28.7
15 1 -6 967.5 30.8
15 -1 -6 1028.2 26.9
13 1 -4 555.64 20.2
13 -1 -4 618.34 17.6
11 -1 -2 1038.2 23.1
11 1 -2 1082.99 25.6
11 -1 -2 1052.29 22.9
9 1 0 885.31 20.3
9 -1 0 922.51 20.5
9 -1 0 925.01 20.5
9 1 0 907.21 20.6
7 1 2 133.19 6.5
7 -1 2 128.59 6.1
7 -1 2 143.49 5.9
7 -1 2 134.09 6.6
5 -1 4 232.98 7.4
5 1 4 205.78 8.4
5 -1 4 230.18 8.2
5 -1 4 212.88 8.7
5 -1 4 215.58 8.9
3 1 6 546.75 15.8
3 -1 6 542.15 16.3
3 -1 6 541.65 16.3
1 1 8 41.6 4.1
1 -1 8 44.2 4.6
1 -1 8 42.4 4.4
-1 -1 10 23.5 1.8
-1 -1 10 20 1.8
-1 -1 10 24.1 3.7
-1 -1 10 22.6 3.6
-1 1 10 23.1 1.8
-1 1 10 21.6 3.1
-1 -1 10 22.2 1.8
-1 -1 10 20.7 1.8
-1 1 10 19.6 1.7
-3 1 12 2.2 0.7
-3 -1 12 3.2 0.8
-3 1 12 1.8 0.6
-3 1 12 1.8 0.7
-3 -1 12 2.6 0.9
-3 -1 12 2.5 0.8
-3 -1 12 1.2 1.1
-3 1 12 2 0.8
-3 1 12 2.7 0.9
-3 -1 12 2.7 0.9
-3 -1 12 1.8 0.7
-3 -1 12 2.4 0.8
-3 1 12 2.9 0.8
-3 -1 12 2.4 0.7
-5 -1 14 63.39 3.2
-5 1 14 68.39 3.3
-5 1 14 65.59 3.1
-5 -1 14 70.99 3.2
-5 1 14 65.99 3.2
-5 -1 14 61.69 3.3
-5 -1 14 63.49 3.3
-5 -1 14 68.69 3.1
-7 1 16 6.8 1
-7 -1 16 8.3 1
-7 1 16 7.2 1
-7 -1 16 7.4 0.9
-7 -1 16 8.2 1.1
-7 1 16 8.1 1
-7 -1 16 6.5 1.1
-7 -1 16 9.6 1
-9 1 18 12.2 0.9
-9 -1 18 9.4 0.7
-9 -1 18 10.9 0.9
26 2 -17 15 1
26 -2 -17 11.6 0.9
24 2 -15 33.5 2.2
24 -2 -15 25.4 2.2
24 2 -15 33.6 2.1
24 -2 -15 32.4 2.2
24 -2 -15 29.5 2.3
24 2 -15 29.9 2.3
24 -2 -15 35.4 2.3
22 -2 -13 9.8 1.5
22 2 -13 9.1 1.3
22 2 -13 10.5 1.5
22 -2 -13 6.8 1.5
22 2 -13 7.9 1.5
22 2 -13 7.9 1.5
22 -2 -13 6.1 1.6
22 -2 -13 9.2 1.8
22 -2 -13 10.4 1.6
20 2 -11 62.49 3.6
20 -2 -11 57.49 4.5
20 -2 -11 71.89 5.5
20 2 -11 64.99 3.9
20 -2 -11 67.09 4
20 2 -11 67.99 3.5
20 -2 -11 68.79 3.8
18 -2 -9 40.8 6.3
18 -2 -9 33.2 3.3
18 2 -9 38.6 2.6
18 2 -9 43.7 3
18 -2 -9 38.4 4
18 -2 -9 44.6 3.1
18 2 -9 40.9 7.1
18 2 -9 44.5 3.3
18 2 -9 39.6 2.5
16 -2 -7 97.19 9.8
16 2 -7 97.79 10.1
16 -2 -7 104.29 8.8
16 2 -7 107.49 6.9
14 -2 -5 393.16 14.1
14 2 -5 395.66 19.2
14 2 -5 413.76 13.5
12 -2 -3 756.72 20.1
12 2 -3 737.63 24.1
12 -2 -3 787.02 20.8
12 2 -3 754.92 19.2
10 -2 -1 53.39 4.5
10 -2 -1 54.19 4.1
10 2 -1 57.09 4.9
10 2 -1 56.39 4.3
8 2 1 201.08 8.5
8 2 1 197.58 8.6
8 -2 1 201.28 8.7
8 -2 1 204.58 8.7
6 2 3 102.29 6.1
6 2 3 119.89 5.6
6 -2 3 98.49 6
6 -2 3 100.49 6
6 -2 3 94.89 6
4 2 5 24.8 3.2
4 -2 5 27.5 3.3
4 -2 5 24.5 3.3
4 -2 5 21.9 3
2 2 7 69.89 5.7
2 -2 7 75.59 6.1
2 -2 7 76.19 6.1
2 -2 7 81.59 5.8
0 2 9 261.27 7
0 2 9 257.37 11.9
0 2 9 256.07 6.9
0 -2 9 260.17 12.5
0 -2 9 245.88 12.1
0 -2 9 251.57 6.8
0 2 9 257.77 6.9
-2 2 11 90.39 3.9
-2 2 11 91.09 3.8
-2 2 11 85.39 3.8
-2 -2 11 86.19 4
-2 -2 11 88.99 3.9
-2 -2 11 88.99 7.6
-2 2 11 106.19 7.8
-2 -2 11 91.29 3.8
-2 2 11 89.09 3.9
-2 -2 11 101.19 8.1
-4 2 13 6.8 1.2
-4 2 13 5.7 1.1
-4 -2 13 7.7 1.2
-4 -2 13 7.1 1.2
-4 2 13 7 1.1
-4 2 13 6.7 1
-4 -2 13 7.5 1.2
-4 -2 13 7.2 1.2
-4 2 13 8.1 1.3
-6 2 15 9.3 1.2
-6 2 15 9.3 1.1
-6 -2 15 8.3 1.1
-6 -2 15 9.6 1.3
-6 -2 15 8.7 1.2
-6 2 15 8.6 1
-6 -2 15 9 1.2
-8 -2 17 27.7 1.6
-8 2 17 28.6 1.6
-8 -2 17 26.7 1.5
-8 -2 17 29.8 1.6
-8 -2 17 27.3 1.3
25 3 -16 26.2 1.3
25 -3 -16 25.9 1.4
25 -3 -16 20.3 1.1
23 3 -14 9.6 1.2
23 3 -14 11.6 1.5
23 -3 -14 13.4 1.5
23 -3 -14 11.2 1.6
23 -3 -14 13.1 1.5
23 3 -14 10.8 1.1
21 3 -12 18.2 1.7
21 3 -12 16.6 1.8
21 3 -12 16.4 1.9
21 -3 -12 14 2.1
21 -3 -12 14.2 1.9
21 3 -12 16.1 1.6
21 -3 -12 17.8 1.9
19 3 -10 112.89 4.4
19 -3 -10 101.49 4.9
19 3 -10 100.49 4.9
19 3 -10 105.89 4.3
19 3 -10 110.49 4.5
17 -3 -8 53.99 7.6
17 -3 -8 46.9 3.8
17 3 -8 53.09 3.3
17 3 -8 56.99 3.9
17 3 -8 52.29 8
17 3 -8 54.69 2.9
15 -3 -6 125.49 11.7
15 3 -6 120.79 11.3
15 -3 -6 149.69 10.7
13 -3 -4 234.08 11.1
13 -3 -4 252.67 12.4
13 3 -4 223.38 13.7
13 3 -4 247.68 10.2
11 3 -2 35.4 3.7
11 -3 -2 40.6 4.4
11 -3 -2 44.7 3.9
11 3 -2 38.1 4.7
11 -3 -2 37.3 4.2
9 3 0 3.2 1.3
9 -3 0 3.2 1.2
9 -3 0 3.3 1.5
9 3 0 1.9 1.2
7 -3 2 3.9 1.5
7 3 2 2.6 1.1
7 -3 2 3.8 1.6
7 3 2 1.7 1
5 3 4 53.69 5
5 3 4 66.09 5.1
5 -3 4 53.09 5
5 -3 4 59.99 5.2
5 -3 4 52.29 5.1
3 3 6 140.09 8.7
3 -3 6 145.39 8.7
3 -3 6 141.69 8.9
3 -3 6 144.69 8.8
1 3 8 227.78 6.7
1 3 8 247.48 12.2
1 -3 8 244.08 11.9
1 -3 8 243.48 12.3
1 3 8 231.48 6.4
1 -3 8 237.58 12.4
1 3 8 241.18 6.6
-1 3 10 225.28 6.6
-1 -3 10 230.48 6.8
-1 -3 10 224.48 6.5
-1 3 10 222.38 6.2
-1 3 10 229.68 6.6
-1 -3 10 219.48 6.5
-3 -3 12 92.29 3.9
-3 3 12 94.49 3.9
-3 -3 12 89.19 4
-3 3 12 97.59 3.6
-3 -3 12 89.79 3.9
-3 -3 12 95.29 3.9
-3 3 12 93.99 3.9
-5 3 14 5.5 0.9
-5 -3 14 4.7 1
-5 -3 14 5.4 1
-5 -3 14 5 0.9
-5 -3 14 5.6 0.9
-5 3 14 5.6 1
-5 -3 14 5.8 0.9
-7 3 16 16.5 1.2
-7 -3 16 18.7 1.3
-7 -3 16 17.6 1.3
-7 -3 16 17.7 1.3
-7 -3 16 19.9 1.2
24 -4 -15 1 0.4
22 4 -13 11.5 1.2
22 4 -13 10.4 1
22 -4 -13 10.2 1.4
22 -4 -13 11.8 1.3
22 4 -13 11.1 1.3
22 -4 -13 12.7 1.4
20 4 -11 38.3 2.5
20 4 -11 36.9 2.6
20 4 -11 40.5 2.3
20 -4 -11 39.1 2.7
20 -4 -11 30.9 3
20 -4 -11 38 2.5
18 4 -9 16 1.7
18 4 -9 18.3 2
18 4 -9 17.6 2.2
18 -4 -9 19.2 2
18 4 -9 20.2 1.7
16 4 -7 84.19 3.9
16 4 -7 88.39 4.2
16 4 -7 92.09 4.8
14 4 -5 104.89 4.1
14 4 -5 101.49 4.2
14 -4 -5 84.79 7.2
14 4 -5 101.09 4.3
14 4 -5 101.19 4.8
14 4 -5 91.09 8.7
14 -4 -5 114.89 9.8
12 4 -3 285.37 7.6
12 4 -3 306.27 7.8
12 -4 -3 281.87 13.3
12 4 -3 283.37 8.2
12 4 -3 289.77 14.3
12 4 -3 302.67 8.6
12 -4 -3 308.27 14.9
10 4 -1 164.48 9.8
10 -4 -1 169.28 10.1
10 4 -1 188.38 6
10 -4 -1 176.98 10.5
8 4 1 122.29 7.6
8 -4 1 118.69 8.3
8 4 1 130.39 4.8
8 -4 1 127.59 8
6 4 3 201.68 6
6 4 3 190.88 10.1
6 -4 3 197.98 11
6 -4 3 211.98 11
6 4 3 206.38 6.1
4 4 5 20 1.8
4 -4 5 24.2 4
4 4 5 22.2 1.9
4 -4 5 18.2 3.4
4 4 5 19.9 3.4
2 4 7 79.79 3.7
2 -4 7 90.19 7.5
2 4 7 81.59 3.5
2 4 7 83.89 3.5
0 4 9 65.19 3.1
0 4 9 60.79 3.2
0 -4 9 63.19 3.1
0 4 9 64.29 3
-2 4 11 10.5 1.3
-2 -4 11 11.2 1.2
-2 -4 11 10.1 1.2
-2 4 11 11.8 1.4
-2 -4 11 10.2 1.2
-4 4 13 13.5 1.3
-4 -4 13 14.4 1.3
-4 -4 13 15.5 1.3
-4 4 13 13.2 1.3
-6 4 15 10.6 0.9
-6 -4 15 11.1 0.8
-6 -4 15 9.1 0.7
-6 -4 15 11.8 1
-6 -4 15 10.5 0.9
-6 -4 15 11 0.9
-6 -4 15 12.6 1
21 5 -12 14.9 1.1
21 -5 -12 17.2 1.4
21 -5 -12 16.2 1.2
19 5 -10 6.8 1
17 5 -8 14.7 1.6
17 5 -8 16.2 1.6
15 5 -6 8.6 1.3
15 5 -6 8.7 1.2
15 5 -6 8.8 1.4
13 5 -4 4.4 1
13 5 -4 4 0.8
13 5 -4 3.6 1
11 5 -2 115.89 4.3
11 5 -2 117.39 4.6
11 5 -2 113.89 4.9
9 5 0 107.69 4.4
9 5 0 115.09 4.7
7 5 2 199.08 6.4
7 5 2 221.18 6.2
7 5 2 212.68 6.4
5 5 4 137.59 5.1
3 5 6 41.1 2.6
1 5 8 96.99 4
1 5 8 116.39 3.9
-1 5 10 38 2.2
-1 5 10 36.9 2.1
-1 -5 10 45.2 2.1
-1 5 10 43.3 2.1
-3 5 12 4.7 0.8
-3 -5 12 5.5 0.7
-3 5 12 5.7 0.7
-3 -5 12 5.3 0.7
18 6 -9 50.19 2
18 -6 -9 41.6 1.8
16 6 -7 1.6 0.5
14 6 -5 102.29 3.6
12 6 -3 21.3 1.6
12 6 -3 21.2 1.7
10 6 -1 58.39 2.9
8 6 1 93.19 3.8
6 6 3 48.4 2.6
4 6 5 123.79 4.3
2 6 7 81.29 3.1
0 6 9 29.7 1.6
-2 6 11 10.1 0.7
-2 -6 11 13.9 0.8
7 7 2 10.2 1
5 7 4 10.4 0.9
3 7 6 2.5 0.4
26 0 -18 79.39 2.6
24 0 -16 41.4 3
24 0 -16 43.1 2.7
22 0 -14 3.2 1.4
22 0 -14 3.8 1
22 0 -14 3.4 1.3
22 0 -14 2.8 1
22 0 -14 3.1 1
20 0 -12 413.76 12.3
20 0 -12 418.96 10.6
20 0 -12 434.26 13.3
20 0 -12 382.56 11.3
20 0 -12 415.26 10.9
16 0 -8 886.71 27.9
16 0 -8 773.72 22.3
14 0 -6 259.67 10.6
14 0 -6 294.37 13.7
12 0 -4 64.49 5.5
12 0 -4 62.39 4.4
10 0 -2 2168.38 38.7
10 0 -2 2196.68 38.1
8 0 0 1208.48 23.2
6 0 2 245.88 8.5
6 0 2 252.07 8.2
4 0 4 414.66 11.1
4 0 4 410.56 11.8
2 0 6 540.85 13.8
2 0 6 520.35 14.5
2 0 6 511.65 14.5
0 0 8 478.15 13.7
0 0 8 478.45 14.4
0 0 8 438.56 14.5
-2 0 10 245.38 11.2
-4 0 12 318.47 8.2
-4 0 12 302.17 8.1
-4 0 12 290.67 8.2
-4 0 12 326.37 8.1
-4 0 12 297.17 7.9
-4 0 12 331.07 7.8
-6 0 14 21.8 1.9
-6 0 14 22 1.8
-6 0 14 23 1.9
-8 0 16 12.3 1.3
-8 0 16 13.1 1.3
-8 0 16 12.4 1.3
-8 0 16 14.4 1.4
-8 0 16 13 1.3
-10 0 18 46.2 1.9
-10 0 18 43.8 1.8
-10 0 18 44.4 1.6
25 1 -17 17.5 1.6
25 -1 -17 13 1.3
25 1 -17 14.6 1.3
25 -1 -17 15.3 1.4
23 1 -15 5.2 1.4
23 -1 -15 6.7 1.6
23 -1 -15 6.5 1.2
23 -1 -15 5.1 1.6
23 -1 -15 3.5 1.2
23 1 -15 7.8 1.7
23 1 -15 6 1.1
23 -1 -15 5.9 1.3
21 -1 -13 103.29 6
21 -1 -13 103.49 4.9
21 1 -13 104.59 5.6
21 -1 -13 111.89 6.7
21 -1 -13 91.69 5.3
21 1 -13 99.09 5.2
21 1 -13 106.79 4.7
21 -1 -13 106.39 5.1
19 1 -11 134.09 5.9
19 -1 -11 127.69 6.7
19 1 -11 151.08 13.6
19 -1 -11 113.49 5.5
19 -1 -11 149.29 7.8
19 -1 -11 117.29 6.1
19 1 -11 145.09 6.5
19 1 -11 135.39 5.4
19 1 -11 141.89 5
19 1 -11 135.39 5.2
19 -1 -11 139.29 5.7
19 -1 -11 141.29 11.3
17 -1 -9 143.29 10.8
17 1 -9 164.88 12.9
15 1 -7 337.47 17.1
15 -1 -7 298.07 14.9
13 1 -5 180.88 11.4
13 -1 -5 184.08 9.6
11 -1 -3 465.15 13.4
11 1 -3 475.65 17.2
9 -1 -1 1653.33 30.9
9 1 -1 1619.24 32.1
9 -1 -1 1603.64 30
9 1 -1 1543.25 30.4
7 -1 1 489.95 12.8
7 -1 1 476.05 13
7 1 1 488.65 9.4
7 1 1 477.05 12.8
7 1 1 459.55 8.4
5 1 3 81.19 4.8
5 -1 3 91.49 4.7
5 -1 3 82.29 4.9
5 -1 3 86.19 5
5 -1 3 91.09 4.1
3 -1 5 105.29 4.4
3 1 5 99.89 6
3 -1 5 92.99 5.6
3 -1 5 96.79 5.7
3 -1 5 103.89 5.2
1 1 7 99.69 6.1
1 -1 7 119.99 5.8
1 1 7 103.69 5.4
1 -1 7 105.69 6.5
1 -1 7 97.59 6.3
-1 1 9 78.89 5.8
-1 -1 9 83.99 6.3
-1 -1 9 80.49 6.3
-3 -1 11 5.5 0.9
-3 -1 11 5.1 0.9
-3 1 11 4.6 1
-3 -1 11 5.7 2.1
-3 -1 11 5.2 1.8
-3 1 11 4.2 0.9
-3 -1 11 5.4 1
-3 -1 11 5.1 1
-3 1 11 5.2 1
-3 -1 11 5.3 1
-5 1 13 27.9 2.1
-5 1 13 28.3 2.1
-5 -1 13 27.9 2.3
-5 1 13 28.9 2.1
-5 -1 13 29 2
-5 1 13 27.9 2.1
-5 -1 13 26.8 2.2
-5 -1 13 29.6 2.3
-5 -1 13 27.4 2.1
-5 1 13 26 2.1
-5 -1 13 28.2 2
-7 -1 15 10.8 1.4
-7 1 15 10.9 1.4
-7 1 15 12.8 1.4
-7 1 15 13.6 1.5
-7 -1 15 12 1.4
-7 -1 15 11.4 1.3
-7 -1 15 13.1 1.3
-7 -1 15 14.1 1.4
-9 1 17 4.3 0.8
-9 -1 17 4.4 0.8
-9 1 17 4.6 0.7
-9 -1 17 4.4 0.8
-9 -1 17 3.8 0.8
-9 -1 17 4.2 0.8
-9 -1 17 3.6 0.6
24 -2 -16 62.89 2.9
24 2 -16 57.19 3
24 2 -16 63.79 2.8
24 -2 -16 63.79 3
22 2 -14 140.19 5.6
22 -2 -14 144.49 6.8
22 2 -14 153.58 5.8
22 2 -14 147.99 6.3
22 -2 -14 151.28 6
22 -2 -14 127.09 6.3
22 2 -14 154.38 5.3
22 -2 -14 143.99 6.9
22 -2 -14 171.88 6.3
20 -2 -12 32 3.5
20 2 -12 36.5 2.8
20 -2 -12 32.7 3.5
20 2 -12 39.7 2.6
20 -2 -12 32.2 3
20 2 -12 36.4 3.2
20 2 -12 39.7 3.1
20 -2 -12 41.7 3.2
18 -2 -10 44.7 7.2
18 2 -10 49.9 3.2
18 -2 -10 43.1 4
18 2 -10 54.89 8.5
18 -2 -10 45 3.4
18 2 -10 49.9 3.3
18 -2 -10 60.29 5.1
18 2 -10 49.1 2.9
16 -2 -8 77.29 9
16 2 -8 94.59 10.2
14 2 -6 4.6 1.4
14 2 -6 2.2 2.2
14 -2 -6 2.3 1.7
12 -2 -4 153.78 7.8
12 2 -4 154.38 11
12 -2 -4 180.88 9.7
12 2 -4 152.78 7.2
10 -2 -2 91.79 5.7
10 2 -2 90.19 7.1
10 -2 -2 98.39 5.2
10 -2 -2 95.09 5.9
10 2 -2 91.89 5.3
8 2 0 66.59 4.5
8 -2 0 60.99 4.6
8 -2 0 65.79 4.5
8 2 0 68.19 5
6 2 2 386.56 12.4
6 2 2 454.45 11.6
6 -2 2 382.26 12.3
6 -2 2 398.06 12.2
6 -2 2 391.16 12.4
6 -2 2 463.25 10.6
4 2 4 277.77 10.6
4 -2 4 279.67 10.4
4 -2 4 284.17 10.8
4 -2 4 285.57 10.3
2 2 6 116.99 7.1
2 -2 6 130.39 7
2 -2 6 120.39 7.2
2 -2 6 121.89 7.3
0 2 8 186.28 9.6
0 -2 8 182.68 9.8
0 -2 8 179.18 9.8
-2 2 10 31.8 2.2
-2 2 10 29.3 2.1
-2 2 10 31.2 2.1
-2 2 10 32.7 4.1
-2 2 10 31.2 2.2
-2 -2 10 29.7 2.2
-2 -2 10 27.6 4
-2 -2 10 28 2.1
-2 -2 10 32.5 4.4
-2 -2 10 29.7 2.1
-4 -2 12 123.19 4.8
-4 2 12 132.69 4.8
-4 2 12 137.49 4.7
-4 2 12 133.49 4.8
-4 -2 12 129.19 5
-4 -2 12 132.89 4.9
-4 -2 12 132.59 4.8
-4 2 12 134.99 4.9
-6 -2 14 40.7 2.6
-6 2 14 42.3 2.5
-6 2 14 41.9 2.4
-6 2 14 40.7 2.5
-6 -2 14 39 2.6
-6 2 14 47 2.4
-6 -2 14 40.7 2.6
-6 -2 14 40.2 2.5
-6 2 14 42.5 2.5
-8 2 16 44.6 2.3
-8 -2 16 41.2 2.3
-8 -2 16 42.1 2.3
-8 -2 16 42.1 2.2
-8 -2 16 46.4 2.2
-10 2 18 6.7 0.7
-10 -2 18 5.3 0.6
-10 -2 18 6.2 0.6
23 3 -15 17.1 1.7
23 -3 -15 19.3 1.7
23 3 -15 18 1.4
23 -3 -15 19 1.6
21 3 -13 50.99 2.8
21 3 -13 51.19 3.1
21 -3 -13 39 3.5
21 3 -13 45 3.2
21 3 -13 48 2.7
21 -3 -13 48.9 3.2
21 -3 -13 45.1 3.3
19 3 -11 11.2 1.5
19 3 -11 12.8 1.7
19 -3 -11 8.8 1.6
19 3 -11 11 1.7
19 3 -11 12.1 1.4
19 -3 -11 10.6 1.6
17 3 -9 19.9 1.9
17 -3 -9 15.2 4.7
17 3 -9 19.6 2.3
17 3 -9 17.2 2
17 3 -9 21.1 1.9
17 3 -9 16.4 4.5
17 3 -9 19.7 1.8
15 -3 -7 41.4 6.3
15 3 -7 44.6 7.2
15 -3 -7 40.2 7.3
13 -3 -5 29.3 3.8
13 3 -5 32 5.8
13 -3 -5 35.3 5.2
11 3 -3 155.48 7.5
11 -3 -3 146.29 8.3
11 3 -3 139.29 10.1
11 -3 -3 165.18 9.5
9 3 -1 92.49 5.7
9 -3 -1 92.29 6.4
9 -3 -1 108.99 6.2
9 3 -1 94.89 7
9 -3 -1 89.29 6.2
7 3 1 9.5 1.9
7 -3 1 9.1 2.2
7 3 1 7.7 1.7
7 -3 1 10.8 2
7 3 1 6.6 1.8
5 3 3 30.5 3.4
5 3 3 26.9 3.3
5 -3 3 26.4 3.2
5 -3 3 26.3 3.3
5 -3 3 25.6 3.3
3 3 5 51.39 4.9
3 -3 5 53.09 4.9
3 -3 5 54.49 5.1
3 -3 5 48.8 5
1 3 7 137.59 8.6
1 -3 7 134.99 8.5
1 -3 7 137.89 8.9
1 -3 7 145.79 8.7
-1 -3 9 95.69 7.7
-1 3 9 88.19 3.8
-1 -3 9 89.29 7.4
-1 -3 9 88.49 3.8
-1 3 9 86.49 3.5
-1 -3 9 89.29 3.7
-1 3 9 100.69 7.6
-1 -3 9 90.59 7.2
-3 3 11 222.78 6.6
-3 -3 11 229.38 6.8
-3 3 11 215.18 6.5
-3 3 11 229.48 6.2
-3 -3 11 239.28 6.6
-3 -3 11 227.08 6.6
-5 -3 13 69.79 3.4
-5 3 13 68.49 3.2
-5 -3 13 65.09 3.3
-5 -3 13 68.79 3.3
-5 -3 13 70.69 3.3
-5 3 13 66.09 3.2
-7 3 15 14.9 1.4
-7 -3 15 19.9 1.4
-7 -3 15 18.8 1.5
-7 -3 15 16.3 1.4
-7 -3 15 17.8 1.5
-7 -3 15 16.5 1.4
-7 3 15 15.8 1.4
-7 -3 15 16.9 1.4
-9 3 17 9 0.8
-9 -3 17 8.8 0.7
-9 -3 17 10.2 0.8
-9 -3 17 9.2 0.8
-9 -3 17 7.8 0.6
22 4 -14 1 0.6
22 -4 -14 0.9 0.7
22 4 -14 0.8 0.4
22 -4 -14 0.4 0.5
20 4 -12 7.6 1.2
20 4 -12 7.4 1.3
20 -4 -12 3.6 1.4
20 4 -12 8.5 1
20 -4 -12 6.5 1.3
18 4 -10 46.8 2.9
18 4 -10 46.1 3
18 4 -10 49.4 2.7
16 4 -8 167.78 5.9
16 4 -8 169.58 6.1
16 4 -8 178.58 5.5
16 4 -8 171.68 6.8
14 -4 -6 118.29 13.8
14 4 -6 145.49 5.2
14 4 -6 148.89 6
14 4 -6 146.59 5.5
14 4 -6 138.39 11.7
14 -4 -6 150.58 12.4
12 4 -4 295.07 7.8
12 4 -4 318.47 8.2
12 -4 -4 282.87 13
12 4 -4 298.57 8.5
12 4 -4 305.57 8.1
12 4 -4 301.67 8.7
12 4 -4 283.17 15.2
12 -4 -4 323.07 16.7
10 -4 -2 299.17 13.5
10 4 -2 313.37 14.3
10 -4 -2 341.77 15.5
8 4 0 31.2 4.1
8 4 0 34 3.8
8 -4 0 32.9 4.3
8 -4 0 33.1 4.5
6 4 2 49.3 4.8
6 -4 2 49 5.2
6 -4 2 49.4 4.8
4 4 4 3.5 0.8
4 4 4 -0.3 1.4
4 4 4 1.3 0.9
4 -4 4 2.9 1.3
4 4 4 3.9 1
4 -4 4 4.3 1.8
2 4 6 59.29 3.1
2 4 6 63.19 6
2 4 6 58.59 5.7
2 -4 6 65.39 6.2
2 -4 6 56.99 5.6
2 -4 6 64.29 6.2
2 4 6 59.89 3
0 4 8 77.19 3.6
0 4 8 84.19 3.5
-2 4 10 38.7 2.5
-2 -4 10 41.6 2.5
-2 4 10 40.7 2.5
-4 4 12 24.8 1.8
-4 -4 12 25.4 1.8
-4 4 12 22.7 1.8
-4 -4 12 25.6 1.9
-4 -4 12 26.9 1.9
-4 -4 12 26.1 1.9
-6 4 14 11.5 1.1
-6 -4 14 12.4 1.2
-6 -4 14 12.4 1.2
-6 4 14 11.3 1.1
-6 -4 14 12.7 1.2
-8 -4 16 12.8 0.8
-8 -4 16 11.8 0.8
-8 -4 16 14.6 0.8
21 5 -13 10.5 0.8
21 -5 -13 8.8 0.9
19 5 -11 13.5 1.3
19 -5 -11 14.2 1.5
17 5 -9 77.99 3.5
15 5 -7 62.59 3.2
15 5 -7 63.59 3.7
15 5 -7 65.19 3.4
13 5 -5 73.09 3.5
13 5 -5 78.39 3.6
13 5 -5 76.69 4.1
13 5 -5 79.89 3.7
11 5 -3 206.18 6.2
11 5 -3 204.78 6.5
11 5 -3 207.28 6.9
9 5 -1 383.66 9
9 5 -1 370.56 9.5
9 5 -1 377.56 9.8
7 5 1 212.58 6.7
7 5 1 225.38 6.8
5 5 3 198.98 6.4
3 5 5 132.69 5
1 5 7 17 1.7
1 5 7 18.3 1.7
-1 5 9 47.6 2.6
-1 5 9 47.7 2.6
-1 5 9 51.39 2.5
-3 5 11 31 1.9
-3 5 11 31.5 1.9
-3 -5 11 34.1 1.8
-3 -5 11 34.4 1.9
-3 5 11 31.3 1.8
-5 5 13 4.9 0.7
-5 -5 13 3.8 0.5
-5 5 13 5.6 0.7
-5 -5 13 5.6 0.7
-5 -5 13 4.6 0.6
18 6 -10 9.6 0.8
16 6 -8 27.9 1.7
14 6 -6 10.8 1.2
12 6 -4 20.5 1.6
10 6 -2 4.4 0.8
10 6 -2 4.4 1.1
8 6 0 21.5 1.9
6 6 2 0.7 0.7
4 6 4 66.39 3.2
2 6 6 34.2 2.1
0 6 8 22.5 1.6
-2 6 10 21.8 1.3
13 7 -5 14.2 0.8
11 7 -3 36.3 1.4
7 7 1 97.39 3.2
5 7 3 60.29 2.3
3 7 5 26.2 1.4
1 7 7 18.2 0.9
24 0 -17 -0.5 0.9
24 0 -17 -0.9 0.7
22 0 -15 0.6 1.2
22 0 -15 2 1.5
22 0 -15 0.4 0.7
22 0 -15 -1.3 0.9
20 0 -13 0.7 1.1
20 0 -13 0.2 0.9
20 0 -13 0.7 0.8
20 0 -13 -1.3 1.3
20 0 -13 -0.3 0.8
18 0 -11 -0.4 0.9
18 0 -11 0.5 0.9
18 0 -11 -0.3 1.2
18 0 -11 0.8 1.1
18 0 -11 -0.6 0.8
16 0 -9 -1.5 1.3
16 0 -9 -1 2.4
14 0 -7 2.4 1.5
14 0 -7 0.6 1.3
12 0 -5 -0.6 1.1
12 0 -5 1.5 1.4
10 0 -3 -0.5 1.5
10 0 -3 0.3 0.8
8 0 -1 0 0.6
8 0 -1 0.3 0.6
6 0 1 15.3 2
6 0 1 12.6 1.9
4 0 3 0 0.4
4 0 3 0.3 0.6
4 0 3 0.8 0.8
2 0 5 -0.2 0.4
2 0 5 -0.1 0.6
2 0 5 0.2 0.6
2 0 5 -0.2 0.6
0 0 7 -0.1 0.7
0 0 7 -0.5 0.9
0 0 7 0.6 0.6
-2 0 9 -0.8 1.1
-2 0 9 -0.2 0.8
-2 0 9 -0.3 0.7
-4 0 11 -0.2 0.6
-4 0 11 0.2 0.5
-6 0 13 -0.3 0.6
-6 0 13 0.6 0.6
-6 0 13 -0.4 0.6
-6 0 13 0.1 0.6
-6 0 13 0.1 0.6
-8 0 15 0.3 0.6
-8 0 15 -0.6 0.6
-8 0 15 -0.7 0.6
-10 0 17 -1.1 0.6
-10 0 17 -0.1 0.5
-10 0 17 -0.9 0.6
-12 0 19 0.3 0.3
25 -1 -18 22.1 1.3
25 1 -18 27.8 1.5
23 1 -16 59.19 3.6
23 -1 -16 53.59 3.7
23 -1 -16 66.49 3.4
23 1 -16 63.99 3.3
23 -1 -16 59.69 3.4
21 1 -14 76.69 4.6
21 -1 -14 82.39 5.4
21 -1 -14 70.09 4.3
21 1 -14 84.69 5.1
21 -1 -14 68.09 4.6
21 -1 -14 76.39 4.3
21 1 -14 79.99 4.8
21 -1 -14 80.79 5.5
21 1 -14 76.49 4
19 1 -12 29 2.8
19 -1 -12 27.7 3.1
19 -1 -12 23.7 2.6
19 -1 -12 25.2 2.6
19 1 -12 29.2 2.9
19 -1 -12 32.2 3.5
19 1 -12 26.2 2.4
19 -1 -12 25.8 3
19 1 -12 26.8 2.2
19 1 -12 25.9 2.3
19 -1 -12 27.8 2.7
17 1 -10 132.79 11.9
17 -1 -10 132.29 10.7
15 -1 -8 246.88 13.9
15 1 -8 262.97 15.2
13 -1 -6 324.17 15.1
13 1 -6 318.77 15.3
11 -1 -4 327.47 11
11 1 -4 356.86 15.2
11 -1 -4 345.37 9.2
11 -1 -4 323.37 12.6
11 1 -4 371.96 8.2
9 1 -2 81.39 2.6
9 -1 -2 96.29 5.2
9 1 -2 76.29 5.9
9 -1 -2 100.69 5.6
7 -1 0 1437.36 27.1
7 -1 0 1431.76 26.8
7 1 0 1460.65 27.8
7 1 0 1394.26 26.9
5 1 2 844.42 18.8
5 -1 2 891.31 18.5
5 -1 2 880.21 18.7
5 -1 2 877.21 19.1
5 -1 2 924.51 17.4
3 -1 4 408.16 9.4
3 1 4 383.26 11.2
3 -1 4 392.76 10.6
3 -1 4 381.76 11.4
3 -1 4 370.76 11.2
1 1 6 907.01 21.2
1 -1 6 989.8 18.2
1 -1 6 914.31 21.6
1 -1 6 880.01 21.5
1 1 6 953.6 19.7
-1 1 8 254.97 10.2
-1 -1 8 262.47 10.8
-1 -1 8 259.17 10.8
-3 1 10 51.09 4.7
-3 -1 10 48.5 4.8
-3 -1 10 47.2 4.9
-5 -1 12 115.89 4.7
-5 1 12 121.09 4.5
-5 1 12 120.49 4.5
-5 -1 12 121.89 4.6
-5 -1 12 131.29 9
-5 -1 12 119.49 4.6
-5 -1 12 117.39 4.4
-5 1 12 116.89 4.5
-7 1 14 83.59 3.7
-7 1 14 87.09 3.6
-7 -1 14 84.79 3.6
-7 -1 14 79.79 3.9
-7 -1 14 84.49 3.8
-7 -1 14 87.79 3.8
-7 1 14 81.99 3.6
-7 1 14 82.69 3.7
-7 -1 14 88.39 3.6
-7 -1 14 83.09 3.7
-7 1 14 89.19 3.8
-9 1 16 5.7 1
-9 1 16 7.7 1
-9 1 16 6.6 1
-9 -1 16 5.7 1
-9 -1 16 8 1.1
-9 -1 16 6.4 1
-11 1 18 3.5 0.7
-11 -1 18 2.9 0.6
-11 -1 18 3.5 0.6
-11 -1 18 3.2 0.5
-11 -1 18 3.2 0.5
24 2 -17 16 1.3
24 -2 -17 12.5 1.2
22 2 -15 42 2.9
22 -2 -15 32 3.1
22 -2 -15 41.2 3
22 2 -15 45.6 2.7
22 2 -15 40.7 3.1
22 -2 -15 43.2 3.1
20 2 -13 7 1.4
20 -2 -13 5 1.6
20 2 -13 7.8 1.5
20 2 -13 8.8 1.7
20 -2 -13 6.1 1.6
20 2 -13 8.6 1.6
20 -2 -13 6.2 1.8
20 2 -13 6.9 1.2
20 -2 -13 8.8 1.8
18 2 -11 18.3 2
18 -2 -11 15.4 4.5
18 -2 -11 19.4 2.9
18 -2 -11 15.6 2.2
18 2 -11 20.3 2.1
18 2 -11 23.1 5.7
18 2 -11 17 1.8
18 -2 -11 16.7 2.1
16 -2 -9 12.1 4
16 2 -9 10.8 3.2
14 -2 -7 65.99 8.5
14 2 -7 72.79 8.5
14 -2 -7 68.79 7.7
14 2 -7 79.09 5.3
12 -2 -5 44.4 4.1
12 2 -5 45.4 6
12 -2 -5 41.9 5.3
12 2 -5 42.8 3.6
10 -2 -3 65.19 4.6
10 2 -3 66.09 6.9
10 -2 -3 69.29 5.5
10 2 -3 71.19 4.4
8 -2 -1 524.65 14.8
8 -2 -1 556.84 13.8
8 2 -1 508.95 16.6
8 2 -1 524.95 13.8
6 2 1 294.17 10.2
6 2 1 289.07 9.7
6 -2 1 287.47 10
6 -2 1 292.07 9.8
6 2 1 313.77 9
4 2 3 273.57 9.7
4 -2 3 267.97 9.6
4 -2 3 260.87 9.2
4 -2 3 268.17 9.6
2 2 5 576.94 16.3
2 -2 5 562.14 16.1
2 -2 5 579.24 16.5
0 2 7 180.38 8.9
0 -2 7 178.78 9
0 -2 7 172.28 8.9
-2 2 9 67.89 5.7
-2 -2 9 62.99 5.7
-2 -2 9 65.49 5.8
-4 2 11 107.89 4.2
-4 2 11 112.99 4.2
-4 -2 11 111.69 4.4
-4 -2 11 117.49 8.5
-4 -2 11 119.49 8.6
-4 -2 11 114.69 4.4
-4 -2 11 112.59 4.5
-4 2 11 111.09 4.2
-4 -2 11 112.89 4.4
-4 2 11 114.49 4.4
-6 2 13 19.3 1.8
-6 2 13 22 1.8
-6 -2 13 19.6 2
-6 -2 13 19.5 1.8
-6 2 13 17.7 1.7
-6 -2 13 21 1.9
-6 -2 13 21.2 1.8
-6 2 13 19.1 1.8
-8 2 15 56.29 2.8
-8 2 15 57.19 2.6
-8 2 15 53.29 2.7
-8 -2 15 51.19 2.9
-8 -2 15 58.19 2.7
-8 -2 15 52.99 2.9
-8 -2 15 53.99 2.9
-8 -2 15 53.19 2.8
-8 2 15 53.69 2.7
-8 -2 15 61.19 2.7
-10 2 17 34.5 1.8
-10 -2 17 31.1 1.8
-10 -2 17 31.9 1.8
-10 -2 17 36.2 1.6
23 -3 -16 30.5 1.9
23 3 -16 31.4 1.7
21 3 -14 61.99 3.3
21 3 -14 56.89 3.5
21 -3 -14 50.79 3.5
21 -3 -14 49.2 3.8
21 3 -14 60.09 3
21 -3 -14 56.69 3.6
19 3 -12 37 2.6
19 3 -12 35.5 2.9
19 3 -12 37.7 2.8
19 -3 -12 31.7 3.1
19 -3 -12 31.2 3.6
19 3 -12 36.3 2.5
19 -3 -12 32.2 3
17 3 -10 154.08 5.5
17 3 -10 152.58 5.3
17 3 -10 147.19 6
17 -3 -10 132.79 6.6
15 -3 -8 33.4 7
15 3 -8 33.4 2.6
15 3 -8 42.1 3.2
15 3 -8 35.6 6.5
15 3 -8 34.9 2.3
13 -3 -6 324.87 21.5
13 -3 -6 358.66 14
13 3 -6 308.87 18.3
13 -3 -6 301.07 17.6
11 3 -4 252.97 9.3
11 -3 -4 229.98 10.3
11 3 -4 212.68 13.6
11 -3 -4 240.68 13.2
9 3 -2 57.39 4.2
9 -3 -2 58.89 5
9 -3 -2 65.59 4.3
9 3 -2 51.99 5.7
9 -3 -2 64.49 5.7
7 3 0 57.29 4.3
7 -3 0 59.59 4.9
7 -3 0 61.49 4.5
7 3 0 60.59 5.1
5 3 2 128.49 6.9
5 -3 2 134.49 6.7
5 -3 2 130.59 7
5 -3 2 121.99 7.1
5 3 2 137.49 7
3 3 4 13.5 2.3
3 3 4 10.7 2.1
3 -3 4 11.2 2.1
3 -3 4 12.2 2.4
3 -3 4 11.3 2.3
1 -3 6 20.6 3.3
1 -3 6 19.5 3.1
1 3 6 18.1 3
-1 3 8 269.27 7.2
-1 3 8 277.37 12.7
-1 -3 8 262.77 12.6
-1 -3 8 272.77 12.7
-3 3 10 79.29 3.6
-3 -3 10 77.49 3.7
-3 3 10 88.39 7.3
-3 -3 10 81.59 7.2
-3 3 10 83.49 3.4
-3 -3 10 90.29 7.6
-3 -3 10 81.69 3.5
-3 -3 10 75.09 3.5
-5 3 12 24.1 1.9
-5 -3 12 23.5 1.9
-5 -3 12 21.8 1.9
-5 -3 12 22.8 1.9
-5 3 12 20.1 1.8
-7 3 14 2 0.7
-7 -3 14 3.5 0.9
-7 -3 14 3.8 0.9
-7 -3 14 3.7 0.8
-7 3 14 4.4 1
-7 -3 14 3.8 0.9
-9 3 16 18.5 1.3
-9 -3 16 18 1.4
-9 -3 16 21.4 1.5
-9 -3 16 18.4 1.4
-9 3 16 18.8 1.4
-9 -3 16 20.3 1.3
22 -4 -15 1.1 0.6
22 4 -15 0.5 0.4
20 4 -13 16.8 1.6
20 4 -13 17.7 1.8
20 -4 -13 13.1 1.8
20 -4 -13 13.3 2.1
20 4 -13 16.8 1.4
20 -4 -13 16 1.8
18 4 -11 17.8 1.6
18 4 -11 18.5 1.9
18 4 -11 19.6 2.1
18 -4 -11 18.6 2.9
18 -4 -11 15.8 2
16 4 -9 20.6 2
16 4 -9 20.5 2.1
16 4 -9 22.6 2.5
16 4 -9 21.5 1.8
14 4 -7 38 2.6
14 -4 -7 31.4 7.9
14 4 -7 38.7 2.8
14 4 -7 39.2 3
14 4 -7 28.1 5.5
14 -4 -7 22.9 5.9
12 -4 -5 -3.1 4.6
12 4 -5 2.2 1
12 4 -5 1.7 0.8
12 -4 -5 2 1
12 4 -5 0.6 0.6
12 4 -5 0.7 0.8
12 4 -5 2.2 1.6
12 -4 -5 1.6 2.2
10 -4 -3 69.39 6
10 4 -3 81.09 7.5
10 -4 -3 68.09 7.5
8 -4 -1 188.28 10.3
8 4 -1 204.18 10.7
8 -4 -1 221.08 12.2
6 4 1 417.16 14.2
6 -4 1 421.96 14.6
4 4 3 315.77 13.1
4 4 3 295.07 12.2
4 -4 3 282.67 12.8
4 -4 3 299.57 12.8
2 4 5 80.79 3.5
2 4 5 77.29 6.3
2 -4 5 72.59 6.5
2 -4 5 80.29 6.8
2 -4 5 77.69 6.2
2 4 5 74.69 6.5
2 4 5 81.69 3.5
0 4 7 114.59 4.4
0 4 7 111.19 8.2
0 4 7 124.69 8.5
0 -4 7 123.29 8.7
0 -4 7 127.99 9
0 -4 7 114.19 8.1
0 4 7 119.69 4.3
-2 4 9 105.39 4.3
-4 4 11 40.8 2.5
-4 -4 11 42.1 2.5
-4 4 11 42.3 2.5
-4 -4 11 42.8 2.4
-6 4 13 24 1.7
-6 -4 13 23.6 1.8
-6 -4 13 24.3 1.6
-6 -4 13 24.8 1.8
-6 -4 13 24.7 1.8
-6 4 13 24.5 1.7
-8 4 15 15.9 1.1
-8 -4 15 16.5 1.1
-8 -4 15 15.9 1.2
-8 -4 15 16.1 1.2
-8 4 15 14.4 1.1
-8 -4 15 16.7 1.2
19 5 -12 5.2 0.8
19 -5 -12 5 1.1
17 5 -10 12.1 1.4
17 5 -10 15 1.3
15 5 -8 7.2 1.2
13 5 -6 132.29 5
13 5 -6 129.19 5.5
13 5 -6 138.29 5.2
11 5 -4 129.19 4.8
11 5 -4 132.19 5.1
11 5 -4 130.79 5.3
9 5 -2 416.26 9.7
9 5 -2 424.26 10.6
9 5 -2 416.56 10.5
9 -5 -2 392.36 21.2
7 5 0 72.49 3.8
7 -5 0 70.09 6.8
7 5 0 71.79 3.6
5 5 2 55.39 3.2
5 -5 2 60.69 6.3
5 5 2 60.09 3.1
5 -5 2 57.49 6.2
3 5 4 68.69 3.6
1 5 6 8.1 1.3
-1 5 8 3.1 0.9
-1 5 8 3.1 0.9
-3 5 10 1.5 0.7
-3 5 10 1.1 0.7
-3 5 10 1.3 0.6
-5 5 12 2.8 0.7
-5 -5 12 2.1 0.5
-5 -5 12 1.3 0.5
-5 5 12 2.5 0.6
-7 -5 14 6.9 0.6
-7 -5 14 5.5 0.6
-7 5 14 6.4 0.6
-7 -5 14 5.7 0.6
18 6 -11 27 1.2
16 6 -9 38.3 2
14 6 -7 34.2 2.1
12 6 -5 126.09 4.3
10 6 -3 42.2 2.4
10 6 -3 45.7 2.7
8 6 -1 51.39 2.6
8 6 -1 49.7 2.9
6 6 1 78.89 3.7
4 6 3 41.5 2.6
2 6 5 34.5 2.3
0 6 7 27.9 1.9
-2 6 9 6.6 0.9
-2 -6 9 7.7 0.7
-4 6 11 5.7 0.6
13 7 -6 15.4 0.9
11 7 -4 3.1 0.5
7 7 0 2.4 0.7
5 7 2 8.5 1
3 7 4 40.8 1.9
1 7 6 8.1 0.8
24 0 -18 12.9 1.3
22 0 -16 38.6 3.3
22 0 -16 31.9 2.7
20 0 -14 44.4 3.7
20 0 -14 47.1 4
20 0 -14 42.6 3.1
20 0 -14 46 3.6
20 0 -14 41.6 3.3
18 0 -12 230.38 8.4
18 0 -12 215.28 7.6
18 0 -12 231.38 8.6
18 0 -12 234.48 8.4
18 0 -12 212.58 7.7
16 0 -10 285.97 15.7
14 0 -8 272.07 13.3
14 0 -8 277.57 12.1
12 0 -6 342.67 11.9
12 0 -6 326.67 12.9
10 0 -4 1690.43 33.9
10 0 -4 1493.95 30.5
8 0 -2 1702.23 32.5
6 0 0 2912.21 46.3
4 0 2 2534.25 40.2
4 0 2 2473.45 41.6
4 0 2 2538.65 41.2
2 0 4 36.5 2.5
2 0 4 36.8 2.1
2 0 4 35.7 2.7
2 0 4 33.6 2.7
0 0 6 1275.77 24.6
0 0 6 1248.98 25.1
0 0 6 1221.68 25.5
-2 0 8 402.56 13
-2 0 8 440.46 12.7
-2 0 8 415.46 12
-4 0 10 401.76 14.2
-6 0 12 334.57 8.7
-6 0 12 366.86 14.5
-6 0 12 340.17 8.7
-6 0 12 350.86 8.6
-6 0 12 351.96 8.6
-6 0 12 338.97 8.4
-6 0 12 341.27 8.6
-8 0 14 5.3 1
-8 0 14 7.2 1.3
-8 0 14 5.8 1
-8 0 14 5.3 1
-8 0 14 6.9 1.1
-10 0 16 10.9 1.3
-10 0 16 10.3 1.2
-10 0 16 10.7 1.2
-12 0 18 1.1 0.5
-12 0 18 2.4 0.6
-12 0 18 1.7 0.5
23 -1 -17 4.1 1.2
23 1 -17 2.6 0.8
23 -1 -17 3.2 1
21 1 -15 33.1 3
21 -1 -15 36.7 3.5
21 -1 -15 32.5 2.9
21 1 -15 29.5 2.5
21 -1 -15 28.6 2.8
19 1 -13 28.2 2.8
19 -1 -13 33.3 3.3
19 -1 -13 23.1 2.5
19 1 -13 31.3 3
19 1 -13 26.3 2.3
19 1 -13 30.8 2.9
19 -1 -13 28 3.1
19 1 -13 29.5 2.6
19 -1 -13 27.2 2.8
19 -1 -13 26.6 3.1
17 1 -11 22.3 2.3
17 -1 -11 23.3 2.7
17 -1 -11 27.4 5.6
17 -1 -11 25.2 2.5
17 1 -11 23.3 5
17 -1 -11 21.9 2.7
17 1 -11 22.1 2.1
17 -1 -11 25.3 2.9
17 1 -11 22.4 2.4
17 1 -11 22.1 2
17 1 -11 21.4 2.1
17 -1 -11 20.8 2.4
15 -1 -9 11.2 2.8
15 1 -9 13.2 3.6
13 -1 -7 99.89 8.1
13 1 -7 92.99 8.1
11 1 -5 1541.05 37.3
11 -1 -5 1381.56 34.9
9 -1 -3 281.47 9.3
9 1 -3 321.27 13.2
9 -1 -3 316.17 7.1
9 -1 -3 282.17 10.8
9 1 -3 330.27 6.6
7 -1 -1 3324.67 53.69
7 -1 -1 3274.47 52.89
7 1 -1 3187.88 57.19
7 1 -1 3326.07 53.69
5 1 1 179.28 4.9
5 1 1 175.08 6.5
5 -1 1 183.28 6.3
5 -1 1 186.78 6.5
5 1 1 174.58 6.3
3 -1 3 50.29 2.5
3 1 3 53.59 3.5
3 -1 3 47.4 3.3
3 -1 3 50.69 3.1
3 -1 3 51.09 3.4
1 1 5 149.49 6.5
1 -1 5 159.18 4.8
1 1 5 154.18 5.7
1 -1 5 155.28 6.7
1 -1 5 140.99 6.5
-1 1 7 352.66 11.5
-1 1 7 368.16 9.9
-1 -1 7 346.27 11.9
-1 -1 7 337.47 11.8
-1 1 7 363.96 11
-3 1 9 25.7 3
-3 1 9 21.4 2.9
-3 -1 9 21.4 3
-3 -1 9 20.5 3
-5 1 11 20.5 1.7
-5 -1 11 20.4 1.7
-5 -1 11 19.7 3.2
-5 -1 11 21.6 3.4
-5 -1 11 21.6 1.7
-5 1 11 19.8 1.7
-5 -1 11 20.2 1.8
-7 1 13 3 0.8
-7 1 13 3.5 0.8
-7 -1 13 3.5 0.9
-7 -1 13 3.9 1
-7 -1 13 3.5 0.9
-7 -1 13 3.7 0.8
-7 1 13 4.3 1
-9 1 15 41.6 2.5
-9 1 15 44.1 2.4
-9 1 15 44.1 2.5
-9 -1 15 39.6 2.6
-9 -1 15 40.9 2.4
-9 1 15 46.5 2.5
-9 -1 15 40.7 2.5
-9 -1 15 44.8 2.6
-9 -1 15 39.6 2.5
-9 1 15 41.2 2.5
-9 -1 15 48.1 2.4
-11 1 17 5.3 0.9
-11 1 17 6.7 0.8
-11 -1 17 6.7 0.9
-11 1 17 5.7 0.8
-11 -1 17 5.4 0.9
-11 -1 17 5.9 0.9
-13 1 19 5.4 0.6
24 2 -18 21.9 1.2
22 -2 -16 79.59 4.1
22 2 -16 85.69 3.7
22 -2 -16 72.09 4
20 2 -14 75.39 4.2
20 2 -14 75.99 4.5
20 -2 -14 66.89 5
20 -2 -14 65.79 4.5
20 2 -14 71.59 3.7
20 -2 -14 64.39 4.5
18 2 -12 37.2 2.9
18 -2 -12 41.2 3.8
18 -2 -12 33.5 3.2
18 2 -12 36.5 3.1
18 2 -12 39.9 3
18 -2 -12 36.2 3.8
18 2 -12 36 2.7
18 -2 -12 31.8 3.2
16 2 -10 85.29 4.1
16 2 -10 75.59 9.3
16 2 -10 87.19 4.2
16 -2 -10 91.79 5.2
16 2 -10 80.79 3.8
16 -2 -10 78.19 9.7
14 -2 -8 14.2 4.6
14 2 -8 15.7 4
12 -2 -6 190.28 13.8
12 2 -6 167.98 11.8
12 -2 -6 152.58 11.4
12 2 -6 175.98 7.3
10 -2 -4 985.2 22.5
10 -2 -4 955 27.5
10 2 -4 1006 21.1
8 -2 -2 661.33 16.5
8 2 -2 633.84 20.7
8 -2 -2 668.33 14.8
8 -2 -2 691.73 18.4
8 2 -2 644.14 15.2
6 2 0 601.74 14.7
6 -2 0 611.44 15.5
6 -2 0 627.94 14.8
6 2 0 632.84 17
6 2 0 624.84 14.1
4 2 2 131.49 6.1
4 -2 2 133.19 6.1
4 -2 2 131.59 5.8
4 -2 2 130.79 6.1
4 -2 2 151.68 4.4
2 2 4 250.97 9.3
2 -2 4 249.68 9.3
2 -2 4 243.48 9
2 -2 4 231.18 9.1
0 2 6 13.2 2.3
0 -2 6 13 2.2
0 -2 6 13.2 2.3
-2 2 8 206.98 9.8
-2 -2 8 205.58 10
-2 -2 8 198.38 9.7
-4 -2 10 273.07 12.6
-4 2 10 267.37 12.1
-4 -2 10 257.87 12.2
-6 2 12 43.8 2.7
-6 2 12 47.1 2.6
-6 -2 12 45.9 5.3
-6 -2 12 47 2.9
-6 2 12 46.1 2.7
-6 -2 12 44.2 2.7
-6 -2 12 50.19 5.7
-6 -2 12 44 2.7
-6 -2 12 44.6 2.7
-6 2 12 45.2 2.7
-8 2 14 58.79 3.1
-8 2 14 64.49 2.9
-8 -2 14 57.79 3.2
-8 2 14 58.09 3
-8 -2 14 54.89 3
-8 -2 14 57.49 3.1
-8 -2 14 56.59 3
-8 2 14 58.09 3
-10 2 16 5.7 1
-10 2 16 4.4 0.9
-10 -2 16 3.6 0.9
-10 -2 16 4.9 0.8
-10 -2 16 4.6 0.9
-10 -2 16 3.9 0.8
-10 -2 16 4.5 0.9
-10 2 16 3.5 0.8
-10 -2 16 4.6 0.8
-12 2 18 4.2 0.6
-12 -2 18 3.4 0.5
-12 -2 18 3.3 0.5
-12 -2 18 4.1 0.6
-12 -2 18 3.2 0.5
23 3 -17 14.7 1
21 3 -15 4.1 1
21 -3 -15 3.2 1.2
21 3 -15 4.5 0.9
21 -3 -15 4.6 1.3
19 3 -13 3.9 1
19 3 -13 6 1.2
19 3 -13 5.1 1.2
19 -3 -13 3.5 1.6
19 -3 -13 1.1 1.6
19 3 -13 4.4 1
19 -3 -13 2.1 1.3
17 3 -11 75.69 3.8
17 3 -11 73.09 3.9
17 3 -11 70.89 4.1
17 -3 -11 69.39 5.5
17 3 -11 69.19 3.6
17 -3 -11 62.79 4.4
15 -3 -9 160.08 15.9
15 3 -9 167.18 5.6
15 3 -9 156.18 13.9
15 3 -9 164.08 6.1
15 -3 -9 152.28 7.2
15 3 -9 157.28 5.5
15 3 -9 171.88 5.7
13 -3 -7 202.18 17.2
13 3 -7 202.88 15
13 -3 -7 177.88 15
11 -3 -5 113.09 7
11 3 -5 103.59 9.9
11 -3 -5 92.69 9.5
9 -3 -3 366.26 12.9
9 -3 -3 356.66 15.8
9 3 -3 327.97 16.4
7 3 -1 105.59 5.5
7 -3 -1 104.39 6.4
7 -3 -1 110.99 5.7
7 3 -1 100.29 7.2
5 3 1 62.29 4.8
5 3 1 67.49 4.8
5 3 1 63.49 4.5
5 -3 1 67.69 4.6
5 -3 1 61.89 4.8
5 -3 1 68.09 4.7
5 -3 1 74.89 4.4
3 3 3 328.87 11.6
3 3 3 323.37 11.5
3 -3 3 318.77 10.9
3 -3 3 322.67 11.7
3 -3 3 316.17 11.6
1 3 5 142.99 7.9
1 -3 5 145.09 8.1
1 -3 5 138.99 7.5
1 -3 5 135.29 7.8
-1 3 7 76.09 6.1
-1 -3 7 71.49 6
-1 -3 7 78.29 6.1
-3 3 9 122.79 4.5
-3 3 9 134.19 8.8
-3 -3 9 133.59 8.9
-3 -3 9 131.09 8.7
-5 3 11 18.7 1.8
-5 -3 11 20.2 1.9
-5 -3 11 19.3 1.7
-5 -3 11 19.1 1.7
-7 3 13 78.59 3.5
-7 -3 13 76.79 3.5
-7 -3 13 79.19 3.7
-7 -3 13 78.99 3.5
-7 -3 13 85.29 3.5
-7 -3 13 75.99 3.4
-7 3 13 72.99 3.4
-9 3 15 2.1 0.7
-9 -3 15 2.2 0.7
-9 -3 15 1.7 0.7
-9 -3 15 2.2 0.7
-9 -3 15 2 0.7
-9 3 15 1.4 0.6
-11 3 17 21.8 1.3
-11 -3 17 21 1.3
-11 -3 17 21.4 1.3
-11 -3 17 24 1.3
-11 -3 17 22.7 1.1
20 4 -14 41.1 2.3
20 4 -14 40 2.1
18 4 -12 73.99 3.7
18 4 -12 72.29 3.9
18 -4 -12 65.59 4.9
18 4 -12 72.49 3.3
16 4 -10 6.6 1.2
16 4 -10 8.1 1.4
16 4 -10 7.3 1.2
14 4 -8 176.08 6
14 4 -8 181.68 6.4
14 4 -8 178.78 6.8
14 4 -8 179.08 5.7
12 -4 -6 94.39 13.6
12 4 -6 81.79 3.8
12 4 -6 92.79 4.3
12 4 -6 78.39 9.1
12 4 -6 84.09 4.2
12 4 -6 86.29 4
12 -4 -6 83.59 11.1
10 -4 -4 276.27 12.1
10 4 -4 254.37 15
10 -4 -4 230.68 16.4
8 -4 -2 524.95 17.8
8 4 -2 558.64 19.8
8 -4 -2 545.15 22.2
6 4 0 217.48 10.4
6 4 0 236.78 9.6
6 -4 0 200.88 10.4
4 4 2 65.79 5.2
4 -4 2 59.99 5.1
4 -4 2 52.09 5.2
4 4 2 61.29 5.5
4 -4 2 55.69 5.1
2 4 4 98.49 6.8
2 -4 4 95.99 7.2
2 -4 4 108.09 7.5
2 -4 4 98.69 7.3
2 4 4 96.89 7.1
0 4 6 91.19 3.8
0 4 6 95.49 7.4
0 -4 6 93.69 7
0 -4 6 99.89 7.6
0 4 6 93.49 7
-2 4 8 103.59 4.2
-2 4 8 113.69 8.3
-2 -4 8 107.29 8.3
-2 -4 8 109.19 8
-4 4 10 31.4 2.2
-4 -4 10 35.6 2.4
-6 4 12 64.09 3
-6 -4 12 62.89 3.1
-6 -4 12 65.19 3
-6 4 12 63.29 3
-8 4 14 5 0.8
-8 -4 14 4.1 0.8
-8 -4 14 4.9 0.8
-8 -4 14 5 0.8
-8 -4 14 4.5 0.8
-8 4 14 5.4 0.9
-10 4 16 3.4 0.5
-10 -4 16 3.5 0.5
-10 -4 16 3.7 0.5
-10 -4 16 3.9 0.5
19 5 -13 5.8 0.8
19 -5 -13 2.9 0.8
17 5 -11 9.7 1.2
17 5 -11 8.7 1
15 5 -9 83.79 3.8
15 5 -9 92.39 3.6
13 5 -7 5.9 1.1
11 5 -5 40.5 2.6
11 5 -5 39.3 2.9
11 5 -5 35.2 2.7
9 5 -3 67.99 3.3
9 5 -3 68.39 3.8
9 5 -3 71.19 3.7
7 5 -1 141.19 4.8
7 5 -1 138.39 5.5
7 -5 -1 132.99 9.3
7 5 -1 147.49 5.4
5 5 1 5.9 1.2
5 5 1 9.2 1.3
5 -5 1 9.7 2.8
3 5 3 56.09 3.3
3 -5 3 66.19 6.5
1 5 5 78.39 3.9
-1 5 7 21.1 1.9
-1 5 7 20.2 1.8
-3 5 9 87.29 3.7
-3 5 9 88.89 3.6
-5 5 11 4.6 0.8
-5 5 11 4.7 0.8
-5 -5 11 6 0.8
-5 5 11 4.9 0.9
-7 5 13 4.3 0.7
-7 -5 13 4.8 0.6
-7 -5 13 4.1 0.6
-7 -5 13 4 0.7
-7 5 13 3.7 0.6
16 6 -10 10 1
14 6 -8 5.5 0.9
12 6 -6 38.1 2.3
10 6 -4 12.5 1.3
8 6 -2 4.7 0.8
8 6 -2 4 1.1
6 6 0 24.1 1.7
6 6 0 20.6 2
4 6 2 43.8 2.8
2 6 4 79.59 3.6
0 6 6 2.3 0.8
-2 6 8 7.2 1
-4 6 10 8.4 0.9
-4 -6 10 8.9 0.8
-4 6 10 6.8 0.7
13 7 -7 4.9 0.5
11 7 -5 0.2 0.3
9 7 -3 6.2 0.7
5 7 1 32.7 1.9
3 7 3 -0.1 0.5
1 7 5 18 1.2
-1 7 7 3.1 0.4
22 0 -17 1 1.1
22 0 -17 -0.3 0.8
20 0 -15 -0.7 1.1
20 0 -15 -0.2 0.8
20 0 -15 -0.3 1.1
18 0 -13 -0.3 1.1
18 0 -13 2.4 1.3
18 0 -13 0.2 1
18 0 -13 -1.1 1.2
18 0 -13 -1.9 1.1
16 0 -11 -1.2 2.6
14 0 -9 1.5 1.4
14 0 -9 0.7 1.5
12 0 -7 -0.3 1
12 0 -7 0.2 1.2
10 0 -5 -0.2 0.7
10 0 -5 0.5 1.1
8 0 -3 2.9 1.5
8 0 -3 3.2 1.1
6 0 -1 44.3 3.7
6 0 -1 66.79 4.2
4 0 1 0.7 0.6
4 0 1 1 0.5
2 0 3 0.9 0.7
2 0 3 0.3 0.5
0 0 5 0.7 0.6
0 0 5 0.9 0.8
0 0 5 0.1 0.6
-2 0 7 0.8 0.7
-2 0 7 0.1 0.6
-2 0 7 -0.5 0.5
-4 0 9 0.3 0.7
-4 0 9 0.3 0.6
-6 0 11 1.4 0.9
-8 0 13 0.2 0.7
-8 0 13 0.3 0.7
-8 0 13 0 0.5
-8 0 13 0.6 0.5
-8 0 13 -0.3 0.6
-8 0 13 1.3 0.7
-10 0 15 0.3 0.5
-10 0 15 0.9 0.6
-10 0 15 0.1 0.6
-12 0 17 1 0.6
-12 0 17 -0.1 0.5
-12 0 17 0 0.5
-14 0 19 -0.1 0.4
23 1 -18 48.8 2.4
23 -1 -18 34.8 2.1
21 1 -16 34.5 3
21 -1 -16 28.4 2.6
21 1 -16 29.5 2.6
21 -1 -16 27.4 2.7
19 1 -14 49.99 3.6
19 -1 -14 46.1 3.9
19 -1 -14 41.8 3.9
19 -1 -14 43.1 3.7
19 1 -14 47.2 3.5
19 -1 -14 50.79 4.2
19 1 -14 45.7 3.3
19 -1 -14 40 3.6
17 1 -12 367.16 10.4
17 -1 -12 365.46 11.1
17 1 -12 377.96 20.6
17 1 -12 356.76 9.6
17 -1 -12 350.36 11.2
17 1 -12 358.66 10.4
17 -1 -12 369.86 11.2
17 -1 -12 360.56 11.4
17 1 -12 357.26 10
17 -1 -12 367.56 11.4
15 -1 -10 3.1 1.8
15 1 -10 3.4 2.5
13 -1 -8 7.9 2.4
13 -1 -8 12.3 2.3
13 1 -8 9.6 2.8
11 -1 -6 257.17 12.2
11 -1 -6 272.87 9.5
11 1 -6 251.07 12.1
9 1 -4 256.57 11.5
9 -1 -4 301.27 8.9
9 -1 -4 269.47 9.5
9 -1 -4 255.97 11.4
9 1 -4 309.27 7.2
7 -1 -2 380.86 9.8
7 1 -2 406.56 13.7
7 -1 -2 400.16 11.7
5 1 0 5831.52 87.99
5 -1 0 5945.4 89.99
5 1 0 6002.7 92.89
5 1 0 5857.91 90.19
3 1 2 242.68 7.4
3 -1 2 239.98 7
3 -1 2 239.88 7.2
3 -1 2 250.07 5.9
1 1 4 422.66 11
1 -1 4 418.56 8.4
1 -1 4 397.06 11
1 -1 4 397.76 10.8
-1 1 6 194.88 7.7
-1 -1 6 207.78 5.7
-1 1 6 202.28 7
-1 -1 6 196.78 7.8
-3 1 8 921.61 22.1
-3 -1 8 959.2 22.8
-5 -1 10 246.28 10.8
-5 -1 10 226.18 10.7
-7 -1 12 635.44 13.5
-7 1 12 627.94 13
-7 -1 12 668.73 21.3
-7 1 12 664.83 13.2
-7 -1 12 630.34 13.4
-7 -1 12 647.64 13.4
-7 -1 12 625.34 13
-7 1 12 621.74 13
-9 -1 14 169.88 5.9
-9 1 14 172.38 5.6
-9 1 14 189.58 5.7
-9 -1 14 164.88 5.7
-9 -1 14 175.28 5.6
-9 1 14 170.68 5.5
-9 -1 14 168.48 5.7
-11 1 16 3.9 0.9
-11 1 16 4.4 0.8
-11 1 16 4.3 0.8
-11 -1 16 5 1
-11 -1 16 4.6 0.9
-11 -1 16 6.3 1
-11 -1 16 4.6 0.9
-11 -1 16 4.7 0.9
-13 1 18 22.2 1.5
-13 -1 18 22.7 1.4
-13 -1 18 22.2 1.4
-13 1 18 23.6 1.5
-13 -1 18 21.9 1.3
-13 -1 18 21.6 1.4
-13 -1 18 21.5 1.3
22 2 -17 3.1 0.8
22 -2 -17 2.9 0.9
20 2 -15 21.1 2.3
20 2 -15 19 2.2
20 -2 -15 13.7 2.3
20 2 -15 19.3 2
20 -2 -15 17.8 2.5
18 2 -13 18.5 2.1
18 2 -13 16.9 2.1
18 -2 -13 14.9 2.6
18 -2 -13 14.4 2.4
18 2 -13 16.4 2
18 -2 -13 17.5 2.6
16 -2 -11 9 6.4
16 2 -11 4.1 1
16 -2 -11 34.6 3.7
16 2 -11 4.4 1.2
16 2 -11 8.2 2.9
16 2 -11 4.8 1.1
16 -2 -11 24.7 4.3
16 -2 -11 15.2 3.9
16 2 -11 3.9 1
14 -2 -9 38.1 6.5
14 2 -9 40.4 6.2
12 -2 -7 189.88 13.2
12 2 -7 187.08 12.4
10 2 -5 129.59 9.5
10 -2 -5 125.59 6.8
10 -2 -5 110.49 9.2
10 2 -5 129.69 5.7
8 -2 -3 529.15 14
8 2 -3 576.54 19.9
8 -2 -3 497.45 17.6
8 2 -3 549.85 12.9
6 2 -1 103.49 4.7
6 -2 -1 113.19 5.5
6 -2 -1 104.49 4.6
6 2 -1 92.99 6.7
4 2 1 744.63 16.5
4 2 1 760.62 16.3
4 -2 1 753.22 15.9
4 -2 1 736.23 16.9
4 -2 1 753.62 16.5
4 -2 1 751.72 16.4
4 2 1 762.72 17.7
2 2 3 61.29 4
2 -2 3 62.89 4.1
2 -2 3 60.49 3.8
2 -2 3 59.29 4
0 2 5 94.69 5.6
0 -2 5 92.89 5.5
0 -2 5 91.19 5.6
-2 2 7 55.79 4.7
-2 -2 7 56.59 4.7
-2 -2 7 51.49 4.6
-4 -2 9 24.4 3.3
-4 2 9 23.9 3.4
-6 2 11 96.19 4
-6 2 11 97.89 3.9
-6 -2 11 98.69 7.6
-6 -2 11 102.59 7.8
-6 -2 11 103.09 4.1
-6 -2 11 104.99 4.2
-8 2 13 93.49 4
-8 2 13 92.69 3.9
-8 -2 13 90.99 4.1
-8 -2 13 91.89 4
-8 -2 13 93.89 4
-8 -2 13 94.79 3.9
-8 2 13 90.39 3.9
-10 -2 15 4.2 0.9
-10 2 15 9 1.5
-10 2 15 7.5 1.4
-10 -2 15 3.2 0.8
-10 -2 15 3.1 0.9
-10 -2 15 4.5 0.9
-12 2 17 20.7 1.5
-12 -2 17 19.8 1.3
-12 -2 17 18.5 1.4
-12 -2 17 20.4 1.5
-12 -2 17 19.3 1.4
21 -3 -16 0.4 0.9
21 3 -16 0.6 0.5
19 -3 -14 17.1 2.6
19 -3 -14 15.7 2.7
19 3 -14 19.6 2.1
19 3 -14 18.5 1.8
19 -3 -14 18.1 2.6
17 3 -12 25.9 2.3
17 3 -12 23.5 2.2
17 3 -12 23.5 2.5
17 -3 -12 25.2 3.4
17 3 -12 24 2.1
17 -3 -12 21.1 2.9
15 3 -10 132.89 5
15 3 -10 120.99 4.9
15 3 -10 112.19 11.8
15 3 -10 124.19 5.3
15 3 -10 124.99 4.9
13 -3 -8 6 3.9
13 3 -8 2.4 2.1
11 -3 -6 142.99 13.6
11 -3 -6 151.88 8.8
11 3 -6 134.29 11.6
11 -3 -6 125.29 12.3
9 -3 -4 76.79 5.4
9 3 -4 71.89 7.8
9 -3 -4 77.49 8.3
7 3 -2 139.79 5.9
7 -3 -2 134.19 7.1
7 -3 -2 147.49 5.9
7 3 -2 119.09 8.9
7 -3 -2 135.29 9
5 3 0 189.88 8.3
5 3 0 190.68 7.5
5 -3 0 212.68 8
5 -3 0 214.08 8
5 3 0 209.38 9.5
5 -3 0 189.98 8.4
3 3 2 141.59 6.8
3 3 2 148.79 7.3
3 -3 2 157.18 6.7
3 -3 2 150.78 7.1
3 -3 2 158.18 7.4
1 3 4 106.69 6.3
1 -3 4 103.79 6.4
1 -3 4 106.99 6.1
1 -3 4 101.39 6.4
-1 3 6 276.87 11.5
-1 -3 6 268.37 11.5
-1 -3 6 272.37 11.2
-1 -3 6 260.47 11.4
-3 3 8 134.99 8.4
-3 -3 8 124.49 8.2
-3 -3 8 132.59 8.3
-3 -3 8 123.29 8.3
-5 3 10 142.59 5.1
-5 3 10 144.49 5
-5 -3 10 167.78 10.3
-5 -3 10 168.88 10.1
-5 -3 10 158.08 5.2
-7 3 12 2.2 0.7
-7 3 12 2 0.7
-7 -3 12 3.7 1
-7 -3 12 3.1 0.9
-7 -3 12 1.4 0.6
-7 3 12 3 1
-9 3 14 27.3 1.9
-9 -3 14 23.5 1.9
-9 -3 14 25.1 2
-9 -3 14 25.8 1.9
-9 -3 14 26.5 1.9
-9 -3 14 25.9 1.9
-9 3 14 24.8 1.9
-11 3 16 4.1 0.8
-11 -3 16 3.5 0.7
-11 -3 16 4.3 0.7
-11 -3 16 3.4 0.7
-11 -3 16 3.9 0.7
-11 3 16 3.5 0.7
-11 -3 16 4.6 0.8
20 -4 -15 0 0.8
20 4 -15 0.6 0.5
18 4 -13 39.9 2.6
18 -4 -13 30.7 3.5
18 4 -13 36.4 2.3
16 4 -11 23 2.1
16 4 -11 20.7 2.1
16 4 -11 23.2 2
16 -4 -11 16 2.5
14 4 -9 73.79 3.7
14 4 -9 74.89 4
14 4 -9 75.59 3.5
12 -4 -7 386.36 25.8
12 4 -7 374.36 9.4
12 4 -7 384.26 9.8
12 4 -7 381.06 10.2
12 4 -7 357.56 21
12 4 -7 369.06 9
10 -4 -5 71.19 10.8
10 4 -5 75.79 8.6
10 -4 -5 81.09 11.1
8 -4 -3 543.95 17.5
8 4 -3 538.15 21.2
6 -4 -1 97.99 6.9
6 4 -1 112.89 7.7
6 -4 -1 102.29 9.2
4 4 1 409.36 13.2
4 4 1 378.56 14.3
4 -4 1 428.46 13.9
4 -4 1 420.86 14.3
4 -4 1 363.46 14.1
2 4 3 107.39 6.7
2 -4 3 103.79 7.2
2 -4 3 111.19 7.2
2 -4 3 108.79 7.3
2 4 3 101.69 7.1
0 -4 5 194.88 10.3
0 4 5 190.08 10.4
0 -4 5 202.28 9.8
0 -4 5 195.28 10.5
0 4 5 193.08 9.9
-2 4 7 42.2 2.6
-2 4 7 43.7 4.8
-2 -4 7 47 5.3
-2 -4 7 41.2 4.7
-2 -4 7 42.3 5.1
-4 4 9 3.9 0.9
-6 4 11 79.09 3.5
-6 -4 11 83.89 3.8
-6 -4 11 85.49 3.5
-8 4 13 58.29 2.7
-8 -4 13 60.09 2.9
-8 -4 13 60.09 2.7
-8 4 13 56.99 2.8
-10 4 15 13 1
-10 4 15 12.4 1
-10 -4 15 14.1 1.2
-10 -4 15 14.3 1.1
-10 -4 15 14 1.2
-10 -4 15 13.5 1.1
-10 4 15 12.5 1.1
17 5 -12 0.9 0.6
17 -5 -12 -1.6 1.1
15 5 -10 33 2.3
15 5 -10 33.8 2.1
13 5 -8 63.19 3.3
13 5 -8 61.89 3.1
11 5 -6 3 0.9
9 5 -4 45 2.7
9 5 -4 43.8 3.2
9 5 -4 40.8 2.8
7 5 -2 182.68 5.7
7 5 -2 164.78 6.4
7 -5 -2 175.78 10.5
7 5 -2 186.48 6.2
5 5 0 93.79 3.8
5 5 0 79.59 4.2
5 -5 0 99.29 7.9
5 5 0 88.99 3.9
3 5 2 45 3.1
3 -5 2 46.2 5.2
1 5 4 13.2 1.6
1 -5 4 13.6 3
1 -5 4 16.6 3.2
-1 5 6 18.6 1.9
-1 5 6 17.3 1.7
-3 5 8 41.2 2.7
-3 5 8 44.9 2.6
-5 5 10 26 1.9
-5 5 10 29.3 2
-7 5 12 4.3 0.8
-7 5 12 5.2 0.8
-7 -5 12 5.7 0.8
-7 -5 12 5.5 0.8
-7 5 12 4.8 0.9
-9 -5 14 6.5 0.7
-9 -5 14 7.9 0.8
-9 5 14 7.9 0.8
16 6 -11 55.19 2.1
14 6 -9 23.4 1.6
12 6 -7 56.99 2.8
10 6 -5 37.6 2.3
8 6 -3 7.7 1.2
8 6 -3 7.1 1.3
6 6 -1 63.39 3
6 6 -1 56.89 3.4
4 6 1 32.6 2.4
2 6 3 121.49 4.8
0 6 5 72.19 3.4
-2 6 7 53.19 2.7
-4 6 9 11.3 1.1
-4 6 9 14 1.1
-6 6 11 27.4 1.3
-6 -6 11 33.3 1.4
-6 6 11 30.1 1.3
13 7 -8 17.6 0.9
11 7 -6 6.4 0.7
9 7 -4 1.6 0.4
7 7 -2 2.3 0.6
5 7 0 6.9 1
3 7 2 10.6 1.2
1 7 4 17.5 1.4
-1 7 6 14.8 1
22 0 -18 2.1 0.9
20 0 -16 21.9 2.5
20 0 -16 18.1 2.2
18 0 -14 54.39 3.8
18 0 -14 51.49 3.8
18 0 -14 53.39 3.9
18 0 -14 54.69 3.9
16 0 -12 303.07 9.2
16 0 -12 308.67 16.7
16 0 -12 316.97 9.6
16 0 -12 299.97 9.2
16 0 -12 317.47 9.7
16 0 -12 325.77 9.8
14 0 -10 32.6 4.6
12 0 -8 212.28 10.5
12 0 -8 231.88 10.6
10 0 -6 652.13 16.6
10 0 -6 649.43 17.4
8 0 -4 1148.79 23.4
6 0 -2 431.26 11.2
6 0 -2 418.26 10.3
4 0 0 1986.9 31.7
4 0 0 2008.8 31.8
2 0 2 9863.71 145.19
2 0 2 9827.92 146.59
2 0 2 9999 146.29
0 0 4 3347.57 52.49
0 0 4 3086.89 52.89
-2 0 6 958.8 19
-2 0 6 974.1 19.3
-4 0 8 260.67 8.7
-4 0 8 272.57 9
-6 0 10 293.57 11.5
-8 0 12 30.7 2.2
-8 0 12 37.2 4.3
-8 0 12 29.7 2.1
-8 0 12 31.2 2.1
-8 0 12 33.6 2.3
-10 0 14 94.39 4.1
-10 0 14 96.59 4
-10 0 14 102.69 4
-10 0 14 91.29 4
-10 0 14 94.69 3.9
-12 0 16 50.69 2.7
-12 0 16 52.59 2.8
-14 0 18 35.7 1.9
-14 0 18 34.2 1.7
-14 0 18 32.7 1.8
-14 0 18 33.3 1.7
21 1 -17 13.1 1.7
21 -1 -17 17.9 2.1
19 1 -15 34 3
19 -1 -15 31.9 3.1
19 -1 -15 28.6 3.1
19 1 -15 28.2 2.7
19 -1 -15 33.1 3.2
17 1 -13 94.39 4.8
17 -1 -13 95.69 5.1
17 -1 -13 100.79 5.8
17 1 -13 95.29 4.9
17 -1 -13 92.59 5.1
17 -1 -13 91.59 5.3
17 1 -13 95.99 4.9
17 -1 -13 102.49 5.7
15 1 -11 80.79 8.6
15 -1 -11 89.99 9.3
13 -1 -9 9.4 2.8
13 -1 -9 12.4 2.3
13 1 -9 10.8 2.8
11 -1 -7 70.59 6.1
11 1 -7 69.59 6.2
11 -1 -7 81.39 5.1
9 -1 -5 1159.38 27.7
9 1 -5 1141.39 27.6
9 -1 -5 1176.08 28.4
9 -1 -5 1234.98 23
7 1 -3 1476.45 31.9
7 -1 -3 1481.85 28
7 -1 -3 1465.65 31.8
5 1 -1 4344.77 71.39
5 -1 -1 4224.98 65.19
5 1 -1 4302.07 65.89
3 1 1 244.68 6.8
3 -1 1 237.38 6.5
3 1 1 248.58 7.2
1 -1 3 462.95 8.4
1 1 3 459.45 11
-1 1 5 368.86 10.4
-1 -1 5 377.06 7.7
-1 1 5 373.96 9.3
-1 1 5 372.76 8.5
-1 -1 5 365.96 10.4
-1 -1 5 351.86 10.3
-3 1 7 20.4 2.4
-3 1 7 21.2 2.1
-3 -1 7 20.4 2.5
-5 1 9 408.26 12
-5 -1 9 383.16 13
-7 -1 11 4.2 1.5
-9 -1 13 154.38 5.5
-9 1 13 143.79 5
-9 -1 13 155.78 9.8
-9 1 13 157.18 5.1
-9 -1 13 144.99 5.2
-9 -1 13 144.29 5.2
-9 -1 13 146.49 5
-9 1 13 143.59 5
-11 1 15 26.4 1.9
-11 -1 15 24.4 2.1
-11 1 15 29.4 2
-11 -1 15 27 2.1
-11 1 15 26.5 2
-11 -1 15 22.8 1.9
-11 -1 15 25.2 1.9
-11 1 15 25.5 2
-13 1 17 25.9 1.8
-13 1 17 24.3 1.7
-13 -1 17 22.9 1.6
-13 -1 17 23.2 1.7
-13 -1 17 27.2 1.7
-15 1 19 8.2 0.7
-15 -1 19 8.4 0.7
-15 -1 19 5.9 0.6
-15 -1 19 6.2 0.6
22 2 -18 19.6 1.4
20 -2 -16 10.4 2
20 2 -16 13.1 1.6
20 -2 -16 13.1 2
18 2 -14 57.69 3.7
18 2 -14 56.59 3.7
18 -2 -14 56.89 4.6
18 -2 -14 56.59 4.5
18 2 -14 51.39 3.4
18 -2 -14 54.29 4.5
16 2 -12 34.4 2.7
16 -2 -12 42.6 8.1
16 2 -12 31.8 2.7
16 -2 -12 31.5 3.3
16 2 -12 32.1 2.6
16 -2 -12 35.6 3.7
14 2 -10 47.8 6.9
14 -2 -10 55.69 7.9
12 -2 -8 51.69 6.6
12 2 -8 52.69 6.5
10 -2 -6 339.67 16.2
10 2 -6 334.57 15.5
10 -2 -6 353.06 16.8
8 2 -4 138.99 9.2
8 -2 -4 130.99 6.2
8 -2 -4 130.19 9.4
8 2 -4 138.69 5.3
6 -2 -2 192.18 7.2
6 2 -2 203.58 10.5
6 -2 -2 199.48 5.9
6 -2 -2 185.88 9.3
6 2 -2 193.58 6.3
4 2 0 243.88 7.5
4 -2 0 258.77 7
4 -2 0 263.77 7.7
4 -2 0 250.07 8.2
4 2 0 250.37 9.8
4 -2 0 263.37 7.6
4 2 0 243.88 7.9
2 2 2 384.06 10.2
2 -2 2 376.96 10.1
2 -2 2 376.86 9.6
2 -2 2 378.26 10.3
0 2 4 201.58 7.8
0 -2 4 191.28 7.6
0 -2 4 194.38 7.8
-2 2 6 117.59 6.4
-2 -2 6 115.79 6.3
-2 -2 6 110.19 6.4
-4 2 8 709.63 19.5
-4 -2 8 703.03 19.5
-4 -2 8 693.23 19.7
-6 -2 10 252.87 11.9
-8 2 12 564.24 12.3
-8 2 12 568.74 12.2
-8 -2 12 594.84 12.2
-8 -2 12 624.94 20.8
-8 -2 12 608.54 20.9
-8 -2 12 572.84 12.5
-8 -2 12 578.34 12.6
-8 2 12 568.34 12.3
-10 2 14 61.59 3.1
-10 -2 14 57.99 3.2
-10 2 14 62.19 3.1
-10 -2 14 58.49 3.1
-10 -2 14 58.89 3.1
-10 -2 14 62.39 3.1
-10 2 14 60.69 3.1
-12 2 16 66.49 3
-12 -2 16 61.79 3.1
-12 2 16 66.19 2.9
-12 -2 16 68.69 2.8
-12 -2 16 62.39 3
-12 -2 16 61.69 2.9
-12 -2 16 60.19 2.9
-12 -2 16 64.59 2.9
-12 2 16 65.79 2.9
-12 -2 16 69.39 2.8
-14 2 18 4.8 0.7
-14 -2 18 3.6 0.5
-14 -2 18 4.2 0.6
-14 -2 18 4.1 0.6
21 3 -17 2.8 0.6
19 -3 -15 49.7 4.2
19 3 -15 48.7 2.9
17 3 -13 50.69 3.1
17 -3 -13 43.6 4.4
17 -3 -13 40.9 4
17 3 -13 45.2 3.3
17 3 -13 43 2.9
17 -3 -13 50.69 4.5
15 3 -11 61.99 3.4
15 3 -11 58.59 3.3
15 3 -11 57.39 3.6
15 -3 -11 54.89 4.4
15 3 -11 61.59 3.4
15 -3 -11 51.79 4.5
13 -3 -9 183.78 15.6
13 3 -9 194.48 6
13 3 -9 196.68 6.1
13 3 -9 180.28 14.4
13 3 -9 187.68 6.4
13 3 -9 190.18 6.1
11 -3 -7 8.1 3.8
11 3 -7 5.6 2.4
9 -3 -5 197.08 14.4
9 -3 -5 218.98 9.7
9 3 -5 197.78 13.3
9 -3 -5 209.98 15.4
7 -3 -3 257.77 9.8
7 3 -3 255.67 13.9
7 -3 -3 232.58 14.5
5 3 -1 35.3 2.8
5 -3 -1 32 3.3
5 -3 -1 37.8 3
5 3 -1 31.6 4.1
5 -3 -1 36 2.9
3 3 1 663.23 16.1
3 -3 1 708.33 15.4
3 -3 1 658.63 16.3
3 -3 1 680.83 16.9
3 3 1 631.54 17.2
3 3 1 657.03 17.1
1 3 3 536.85 14.9
1 -3 3 519.15 15.1
1 -3 3 533.85 14.2
1 -3 3 519.05 15.2
-1 3 5 122.79 7
-1 -3 5 121.79 7.1
-1 -3 5 120.19 7.2
-3 -3 7 15.3 2.7
-3 3 7 13.7 2.7
-3 -3 7 13 2.7
-5 3 9 239.08 6.6
-5 -3 9 243.68 12
-5 -3 9 239.58 12
-7 3 11 10.8 1.4
-7 3 11 11.3 1.4
-7 -3 11 11.8 2.8
-7 -3 11 13.8 3.1
-7 -3 11 13.5 1.5
-7 -3 11 13.5 1.5
-9 3 13 37.7 2.4
-9 -3 13 39.1 2.6
-9 3 13 38.5 2.4
-9 -3 13 41.2 2.5
-9 -3 13 39 2.5
-9 3 13 39.3 2.5
-11 3 15 25.3 1.8
-11 -3 15 23.5 1.9
-11 -3 15 24.9 1.8
-11 -3 15 24.3 1.7
-11 -3 15 23.5 1.7
-11 3 15 25.2 1.8
-13 -3 17 9.5 0.9
-13 3 17 8.7 0.8
-13 -3 17 10 1
-13 -3 17 11.3 1
-13 -3 17 10.1 0.9
-13 -3 17 9.7 0.8
20 4 -16 18.7 1.2
18 -4 -14 7.6 2
18 4 -14 7.7 1.1
16 4 -12 14.4 1.7
16 4 -12 13.3 1.7
16 4 -12 13.6 1.6
14 4 -10 10.5 1.5
14 4 -10 9.9 1.5
14 4 -10 11 1.5
12 -4 -8 168.18 16.3
12 4 -8 161.28 5.6
12 4 -8 172.18 14.7
12 4 -8 169.68 6.1
12 4 -8 167.28 6.3
12 4 -8 167.38 5.6
10 -4 -6 143.99 14.3
10 4 -6 145.69 5.1
10 4 -6 134.79 6.1
10 4 -6 134.79 12.3
10 4 -6 152.78 5.4
10 4 -6 148.49 5.5
10 -4 -6 145.99 14.9
8 -4 -4 551.04 27.7
8 -4 -4 567.04 17.7
8 -4 -4 613.14 30.6
6 -4 -2 127.79 7.7
6 4 -2 132.99 9.1
6 -4 -2 109.19 11.3
4 4 0 254.77 10.9
4 -4 0 274.07 10.6
2 4 2 71.39 5.9
2 4 2 81.09 5.4
2 -4 2 80.59 5.8
2 -4 2 76.49 5.8
0 4 4 262.47 12.2
0 -4 4 312.17 11.6
0 -4 4 276.27 11.9
0 4 4 277.87 11.5
0 -4 4 279.57 12.4
-2 4 6 16.6 3.1
-2 4 6 21 3.4
-2 -4 6 16.2 2.9
-2 -4 6 15.8 3
-2 -4 6 16.9 3.3
-4 4 8 155.18 5.2
-4 -4 8 158.98 10
-4 -4 8 146.89 9.2
-4 -4 8 162.08 10.3
-6 4 10 63.39 3.1
-8 4 12 7.2 1.1
-8 -4 12 5.7 1.1
-8 -4 12 7.4 1
-8 -4 12 7.3 1
-8 -4 12 6.1 1
-10 4 14 5.3 0.8
-10 -4 14 6.7 0.9
-10 -4 14 5.8 1
-10 -4 14 6.8 1
-10 4 14 6.2 1
-12 -4 16 2.3 0.5
-12 -4 16 2.6 0.4
-12 -4 16 3.2 0.5
-12 -4 16 2.6 0.5
-12 4 16 2.5 0.5
-12 -4 16 3.3 0.5
17 5 -13 13.2 1.2
15 5 -11 70.99 3.3
15 -5 -11 59.89 4.7
15 5 -11 71.29 3.1
13 5 -9 55.39 3
13 5 -9 56.99 2.9
11 5 -7 57.89 3.1
11 5 -7 59.19 3
9 5 -5 129.69 4.8
9 5 -5 114.99 5.6
7 5 -3 130.89 4.7
7 5 -3 130.19 5
5 5 -1 86.19 3.7
5 5 -1 82.89 4.6
5 -5 -1 81.19 7
5 5 -1 93.79 4.1
3 5 1 98.69 4.8
3 -5 1 101.19 7.8
1 5 3 67.59 3.7
1 5 3 70.79 6.6
1 -5 3 71.29 6.4
1 -5 3 71.69 6.6
-1 5 5 17.5 1.9
-1 5 5 18.5 1.8
-3 5 7 78.89 3.8
-3 5 7 86.59 3.8
-5 5 9 4.7 1
-5 5 9 5 0.9
-7 5 11 3 0.8
-7 5 11 3.2 0.7
-7 -5 11 2.7 0.6
-9 5 13 2.2 0.5
-9 -5 13 2.4 0.5
-9 -5 13 4 0.7
-9 -5 13 3 0.6
-9 5 13 2.5 0.6
-11 -5 15 14.5 0.8
-11 5 15 14.4 0.8
-11 -5 15 15.5 0.8
14 6 -10 38 2
12 6 -8 37.9 2.3
10 6 -6 15.7 1.5
8 6 -4 6.6 1.1
6 6 -2 22.3 1.8
6 6 -2 20.9 2.1
4 6 0 8.8 1.1
4 6 0 8.7 1.5
2 6 2 51.29 3.1
0 6 4 26.9 2.1
-2 6 6 8.1 1.2
-4 6 8 21.5 1.7
-6 6 10 3.4 0.6
-6 6 10 3.5 0.6
-8 6 12 3.5 0.4
-8 -6 12 3.7 0.4
11 7 -7 25.1 1.3
9 7 -5 23.3 1.4
7 7 -3 43.5 2
5 7 -1 16.2 1.2
3 7 1 6.4 1
1 7 3 2.2 0.6
-1 7 5 6.4 0.8
-3 7 7 15.1 0.9
20 0 -17 -0.7 1
18 0 -15 -0.3 0.9
18 0 -15 -1.7 1
16 0 -13 0.2 0.8
16 0 -13 -0.2 1.1
16 0 -13 -0.6 0.9
16 0 -13 0.1 0.8
16 0 -13 -0.7 1.1
14 0 -11 0.1 1.8
12 0 -9 -0.3 1
10 0 -7 0.6 0.8
10 0 -7 0.2 1
8 0 -5 0.1 0.7
8 0 -5 -0.1 0.8
6 0 -3 1.7 1.1
6 0 -3 0.7 0.7
4 0 -1 2.7 0.8
4 0 -1 2.6 0.7
2 0 1 2 0.6
2 0 1 6.3 0.6
0 0 3 0.3 0.5
0 0 3 0.4 0.4
-2 0 5 -0.2 0.5
-4 0 7 -0.1 0.7
-4 0 7 0 0.7
-6 0 9 0 0.7
-10 0 13 -0.2 0.6
-10 0 13 -0.9 0.7
-10 0 13 1 0.6
-10 0 13 0.2 0.6
-12 0 15 0.9 0.6
-12 0 15 -0.3 0.6
-12 0 15 0.6 0.6
-12 0 15 -0.7 0.6
-14 0 17 0.3 0.6
-14 0 17 0.2 0.5
-16 0 19 0.1 0.4
-16 0 19 -0.1 0.3
21 1 -18 7.3 1.2
19 1 -16 9.8 1.6
19 -1 -16 9.2 1.8
19 1 -16 10.2 1.7
19 -1 -16 9.3 1.7
17 1 -14 39.9 3
17 -1 -14 43.6 3.3
17 -1 -14 37.7 3.6
17 -1 -14 39.7 3.5
17 1 -14 41.6 3.2
17 -1 -14 42.1 3.6
15 1 -12 89.29 4.3
15 -1 -12 92.79 4.5
15 1 -12 89.79 9.3
15 -1 -12 97.79 5.3
15 1 -12 87.69 4.4
15 -1 -12 87.79 4.5
15 -1 -12 88.09 4.7
15 1 -12 88.89 4.3
15 1 -12 92.59 4.5
15 -1 -12 98.29 5.3
13 1 -10 188.08 11.9
13 -1 -10 221.28 11.1
13 -1 -10 199.28 12.9
11 1 -8 436.06 16.8
11 -1 -8 438.06 16.6
9 -1 -6 18.5 2.8
9 1 -6 19.6 3
9 -1 -6 19.2 2.1
7 1 -4 124.99 6.6
7 -1 -4 111.79 5.4
7 -1 -4 124.39 4.2
7 -1 -4 129.59 6.9
5 1 -2 1122.39 24.2
5 -1 -2 1057.79 20.5
3 1 0 1628.74 26.2
3 -1 0 1577.04 25.7
3 -1 0 1600.34 26.2
3 1 0 1513.45 29.3
3 -1 0 1589.64 25.9
3 1 0 1608.24 26.5
1 1 2 400.36 9.4
1 -1 2 416.86 7.1
-1 1 4 1234.38 23.2
-1 -1 4 1238.58 19.6
-1 1 4 1259.57 21.4
-1 -1 4 1225.08 23.2
-1 -1 4 1187.68 23.3
-1 1 4 1273.77 20.6
-3 1 6 542.45 13.7
-3 1 6 570.94 11
-3 1 6 560.94 12.4
-3 -1 6 533.25 13.9
-3 -1 6 540.75 13.9
-5 1 8 371.96 12
-5 1 8 408.16 11.1
-5 -1 8 383.56 12.2
-7 -1 10 159.78 8.3
-9 1 12 236.08 6.7
-9 -1 12 233.08 6.8
-9 -1 12 235.48 6.6
-9 1 12 229.18 6.6
-9 -1 12 232.38 6.7
-9 -1 12 229.68 6.7
-9 1 12 226.58 6.5
-11 -1 14 52.49 3
-11 1 14 51.49 2.8
-11 1 14 54.19 2.8
-11 -1 14 48.9 2.9
-11 -1 14 47.9 2.9
-11 -1 14 52.29 2.8
-11 1 14 49.7 2.8
-13 1 16 55.79 2.5
-13 -1 16 50.79 2.8
-13 1 16 48.8 2.7
-13 -1 16 45.7 2.6
-13 -1 16 51.09 2.7
-13 -1 16 47.2 2.7
-13 -1 16 50.19 2.6
-15 1 18 27.3 1.6
-15 1 18 27.9 1.7
-15 -1 18 28.4 1.6
-15 -1 18 29.3 1.7
-15 -1 18 27.8 1.4
20 2 -17 2.2 0.9
18 2 -15 53.69 3.5
18 -2 -15 47.8 4.3
18 2 -15 47.3 3.3
18 -2 -15 54.49 4.3
16 2 -13 67.79 3.9
16 2 -13 69.49 4
16 -2 -13 70.59 5.2
16 -2 -13 64.59 4.5
16 2 -13 69.29 3.9
16 -2 -13 75.39 5.1
14 2 -11 55.09 3.2
14 2 -11 53.19 7.2
14 2 -11 54.79 3.3
14 2 -11 54.19 3.2
14 -2 -11 52.49 3.6
14 2 -11 52.89 3.1
14 -2 -11 59.19 4.3
14 -2 -11 60.49 8.5
12 2 -9 47.6 6.3
12 -2 -9 40 5.8
10 -2 -7 188.78 11.1
10 2 -7 195.18 11.5
8 -2 -5 392.56 15.7
8 2 -5 379.56 15.5
8 -2 -5 428.46 13.3
8 -2 -5 423.46 17.2
8 2 -5 434.26 10.1
6 2 -3 53.89 5.3
6 -2 -3 55.89 3.6
6 -2 -3 60.29 6
6 2 -3 61.09 3
4 2 -1 1206.78 21.8
4 2 -1 1250.87 28.7
4 -2 -1 1196.98 23.2
4 2 -1 1215.58 23.6
4 -2 -1 1237.88 21.7
4 -2 -1 1196.28 21.6
2 2 1 97.79 4.7
2 2 1 99.49 4.3
2 -2 1 91.29 4.1
2 -2 1 88.69 3.8
2 -2 1 94.19 4.3
2 2 1 101.89 4.9
0 2 3 735.63 16.4
0 -2 3 712.13 16.3
0 -2 3 706.63 16.4
-2 2 5 171.98 7.3
-2 -2 5 166.78 7.2
-2 -2 5 160.78 7.2
-4 2 7 187.58 8.5
-4 -2 7 186.98 8.5
-4 -2 7 193.58 8.8
-6 -2 9 115.39 7.3
-6 -2 9 122.29 7.6
-8 2 11 218.78 6.3
-8 -2 11 234.88 6.4
-8 -2 11 221.68 11.3
-8 -2 11 234.08 6.6
-8 -2 11 229.58 6.6
-10 2 13 137.19 5
-10 -2 13 139.89 5.2
-10 -2 13 139.29 4.8
-10 -2 13 133.29 4.9
-10 -2 13 132.19 5
-10 2 13 138.89 4.9
-10 2 13 133.49 5
-12 2 15 11.6 1.4
-12 -2 15 10.2 1.3
-12 2 15 11.1 1.3
-12 -2 15 11.9 1.4
-12 -2 15 11.4 1.4
-12 -2 15 12.3 1.5
-12 -2 15 11.7 1.3
-12 2 15 10.6 1.3
-14 2 17 17.7 1.4
-14 2 17 16.4 1.3
-14 -2 17 15 1.4
-14 -2 17 16.7 1.3
-14 -2 17 16.4 1.4
-14 -2 17 17 1.4
-14 -2 17 16.2 1.3
19 -3 -16 42.4 3.6
19 3 -16 47.5 2.7
17 3 -14 28.2 2.6
17 -3 -14 25.9 3.4
17 3 -14 24.7 2.2
15 3 -12 26.7 2.3
15 3 -12 30.3 2.4
15 3 -12 23.5 2.3
15 -3 -12 25.2 2.9
15 3 -12 25.8 2.2
15 -3 -12 30.4 3.6
13 3 -10 7.4 1.2
13 -3 -10 5.9 3.2
13 3 -10 6.9 1.2
13 3 -10 6.1 1.1
13 3 -10 3.1 2.1
13 -3 -10 3.1 1.2
13 3 -10 6.9 1.2
11 -3 -8 91.29 9.5
11 3 -8 80.09 9
9 -3 -6 0.7 1.4
9 -3 -6 1.8 1.5
9 3 -6 2.4 1.5
9 -3 -6 2.4 1.8
7 3 -4 173.18 11.5
7 -3 -4 178.58 8
7 -3 -4 186.68 13.7
5 3 -2 159.38 5.6
5 -3 -2 140.79 6.8
5 3 -2 145.29 9.7
5 -3 -2 155.28 5.8
3 3 0 164.98 6.3
3 3 0 158.38 7.6
3 -3 0 170.78 5.5
3 -3 0 159.28 6.4
3 3 0 168.28 8.2
3 -3 0 160.48 6.8
1 3 2 195.98 8.7
1 3 2 202.88 7.8
1 -3 2 186.98 7.7
1 -3 2 189.88 8
-1 3 4 440.06 13.5
-1 -3 4 421.96 13.5
-1 -3 4 422.76 13.7
-3 3 6 289.77 11.4
-3 -3 6 267.57 11.2
-3 -3 6 276.87 11.6
-5 3 8 212.88 10.5
-5 -3 8 199.58 10.3
-5 -3 8 194.78 10.4
-7 3 10 6.7 1.1
-7 3 10 3.5 0.7
-7 -3 10 7.7 2.2
-7 -3 10 6.5 1.1
-7 -3 10 8 2.4
-9 3 12 3.3 0.8
-9 3 12 2.7 0.8
-9 -3 12 2.3 0.8
-9 -3 12 2.8 0.8
-11 3 14 4.7 0.9
-11 -3 14 4.4 1
-11 -3 14 3.6 0.8
-11 -3 14 5.4 1
-11 3 14 3.7 0.9
-13 3 16 1.5 0.6
-13 -3 16 0.6 0.5
-13 -3 16 0.8 0.4
-13 -3 16 1.7 0.6
-13 -3 16 1.4 0.5
-13 -3 16 1.4 0.6
-13 3 16 1.5 0.6
-15 -3 18 3.2 0.4
-15 -3 18 3.1 0.4
18 -4 -15 16 2.1
18 4 -15 21.9 1.6
16 4 -13 42.6 2.7
16 -4 -13 39.3 4.1
16 4 -13 37.5 2.5
14 4 -11 6.2 1.2
14 4 -11 6.5 1.2
14 4 -11 6.8 1.2
12 4 -9 147.89 5.3
12 4 -9 153.58 5.8
12 4 -9 154.88 5.5
10 -4 -7 229.78 16.3
10 4 -7 231.18 6.7
10 4 -7 250.57 17.4
10 4 -7 239.58 7.2
10 4 -7 234.88 7.4
10 4 -7 239.88 6.8
8 -4 -5 23.1 4.9
8 4 -5 31.1 5.9
8 -4 -5 29.9 6.7
6 -4 -3 244.58 10.6
6 4 -3 229.48 13.7
6 -4 -3 259.67 18.9
4 -4 -1 121.59 6.5
4 4 -1 117.89 7.7
4 -4 -1 105.69 6.8
4 -4 -1 96.99 10.4
2 4 1 109.49 5.9
2 -4 1 99.09 6.7
2 -4 1 113.49 6.4
2 -4 1 103.99 6.5
2 4 1 97.29 7
0 4 3 14.4 2.7
0 -4 3 15.6 2.5
0 4 3 15.2 2.4
0 -4 3 16.9 2.8
-2 4 5 123.69 8.4
-2 4 5 125.79 7.7
-2 -4 5 119.69 7.7
-2 -4 5 130.69 7.5
-2 -4 5 121.99 8.1
-4 4 7 8.5 1.2
-4 4 7 4.3 1
-4 -4 7 6.8 2
-4 -4 7 6.8 2.3
-6 4 9 3 1
-6 -4 9 3.6 1.6
-6 -4 9 5.2 2.2
-8 4 11 266.37 7.2
-8 -4 11 292.67 7.4
-8 -4 11 287.37 7.5
-10 4 13 4 0.8
-10 -4 13 3.6 0.8
-10 -4 13 3.1 0.7
-10 -4 13 3.7 0.8
-10 -4 13 3.8 0.9
-10 4 13 3 0.9
-12 4 15 17.9 1.2
-12 -4 15 17.5 1.4
-12 -4 15 17.7 1.3
-12 -4 15 17.9 1.4
-12 4 15 19.3 1.4
15 5 -12 9.7 1.2
15 5 -12 9 1.1
13 5 -10 10.3 1.3
13 5 -10 10.6 1.4
11 5 -8 30.1 2.3
11 5 -8 31 2.2
9 5 -6 25 2.1
7 5 -4 241.48 6.9
7 5 -4 225.68 8.4
5 5 -2 89.49 3.8
5 5 -2 89.89 4.9
3 5 0 77.59 3.5
3 5 0 73.99 4.3
3 -5 0 73.09 6.6
1 5 2 7.1 1.5
1 -5 2 8.3 2.2
1 -5 2 7 1.9
-1 5 4 93.69 4.4
-1 5 4 93.09 7.9
-1 -5 4 98.09 7.8
-1 -5 4 101.49 7.9
-1 5 4 105.29 4.2
-3 5 6 36.8 2.6
-3 5 6 36.2 2.5
-5 5 8 43.9 2.7
-5 5 8 42.6 2.5
-7 5 10 55.89 2.8
-7 5 10 54.69 2.7
-9 5 12 12.8 1.1
-9 -5 12 12.6 1.2
-9 5 12 13.7 1.3
-11 -5 14 9.6 0.8
-11 -5 14 11.1 0.9
-11 -5 14 11.5 0.9
-11 5 14 11.1 0.9
14 6 -11 40.6 1.9
12 6 -9 22.9 1.7
10 6 -7 55.29 2.9
8 6 -5 37.9 2.4
6 6 -3 63.09 3.1
6 6 -3 59.09 3.7
4 6 -1 273.77 7.2
4 6 -1 254.57 8.1
2 6 1 82.09 3.4
2 6 1 77.29 4
0 6 3 113.79 4.7
-2 6 5 42.7 2.7
-4 6 7 8.8 1.2
-6 6 9 16.9 1.3
-8 -6 11 6.7 0.7
-8 6 11 6.6 0.7
11 7 -8 5 0.6
9 7 -6 0.8 0.5
7 7 -4 0.8 0.4
5 7 -2 0.7 0.4
3 7 0 14.8 1.5
3 7 0 14.6 1.1
1 7 2 0 0.6
-1 7 4 2.7 0.7
-3 7 6 14.4 1.1
20 0 -18 66.99 3.5
18 0 -16 51.29 3.6
18 0 -16 43.9 3.4
16 0 -14 222.28 7.6
16 0 -14 229.48 8.4
16 0 -14 235.18 8.2
14 0 -12 234.78 7.3
14 0 -12 226.88 7.6
14 0 -12 235.48 8
14 0 -12 231.88 7.3
14 0 -12 246.38 7.9
14 0 -12 228.88 13.5
12 0 -10 234.98 11.8
10 0 -8 11.7 2.1
10 0 -8 11.1 2.3
8 0 -6 528.15 13.9
8 0 -6 527.25 13.8
6 0 -4 1755.62 30.4
4 0 -2 105.19 3.6
2 0 0 2882.91 43.4
0 0 2 3062.59 46.5
0 0 2 3096.09 46.7
-2 0 4 8583.54 127.59
-2 0 4 8602.74 127.59
-4 0 6 495.25 11.6
-4 0 6 520.05 11.6
-6 0 8 347.37 10
-10 0 12 14.6 1.6
-10 0 12 12.4 1.4
-10 0 12 12.4 1.5
-12 0 14 60.79 3.3
-12 0 14 56.19 3.1
-12 0 14 57.99 2.9
-14 0 16 40.2 2.4
-14 0 16 41.4 2.4
-16 0 18 1.3 0.4
-16 0 18 0.3 0.4
-16 0 18 0.7 0.4
19 1 -17 14.5 1.8
19 -1 -17 17.8 2.2
17 1 -15 4.1 1.2
17 -1 -15 5.2 1.6
17 1 -15 4.3 1.3
17 -1 -15 5.8 1.6
15 1 -13 60.49 3.6
15 -1 -13 66.59 3.8
15 1 -13 63.69 8
15 -1 -13 61.19 4.2
15 -1 -13 60.79 3.7
15 -1 -13 58.19 3.9
15 1 -13 60.59 3.7
15 -1 -13 63.69 4.1
13 1 -11 40.8 5.7
11 -1 -9 86.89 6
11 1 -9 81.79 6.9
11 -1 -9 85.69 7.1
9 -1 -7 952.1 24.3
9 1 -7 985.1 24.8
7 -1 -5 1088.39 24.2
7 1 -5 1119.79 24.9
5 1 -3 871.71 19.2
5 -1 -3 867.21 17.1
3 1 -1 1290.47 25.4
3 -1 -1 1281.57 20.7
3 -1 -1 1302.27 20.4
3 1 -1 1279.07 21.2
1 1 1 1743.13 28.5
1 1 1 1762.02 28.9
-1 1 3 202.38 6.1
-1 1 3 205.88 4.7
-3 1 5 420.86 9.6
-3 1 5 436.96 6.1
-3 -1 5 422.36 9.6
-3 -1 5 427.36 9.6
-5 1 7 212.78 8
-5 -1 7 206.88 7.9
-5 -1 7 207.78 7.9
-7 1 9 498.85 13.2
-7 -1 9 453.95 14.3
-9 -1 11 116.89 7.3
-11 -1 13 72.49 3.6
-11 1 13 74.99 3.5
-11 -1 13 67.49 3.3
-11 1 13 69.39 3.3
-11 -1 13 66.69 3.3
-11 -1 13 70.19 3.5
-11 -1 13 67.29 3.2
-11 1 13 66.99 3.3
-13 -1 15 2.4 0.9
-13 1 15 2.6 0.7
-13 -1 15 2.6 0.8
-13 -1 15 2.6 0.7
-13 1 15 2.7 0.7
-15 1 17 1.2 0.7
-15 -1 17 0.9 0.7
-15 1 17 0.9 0.6
-15 -1 17 1.6 0.6
-15 -1 17 1.7 0.7
-15 -1 17 0.9 0.5
-17 1 19 7 0.7
-17 -1 19 6.8 0.7
-17 -1 19 6.2 0.6
-17 -1 19 5.7 0.6
20 2 -18 17.2 1.5
18 -2 -16 48.4 4
18 2 -16 50.09 3.2
16 2 -14 7.4 1.4
16 -2 -14 9.3 2.2
16 -2 -14 7 1.6
16 2 -14 9.1 1.5
16 -2 -14 11.7 2.1
14 2 -12 17.1 1.9
14 2 -12 17.8 4.8
14 2 -12 17.7 2
14 -2 -12 13.6 2.2
14 -2 -12 16 2.1
14 2 -12 16.2 1.9
14 -2 -12 15.6 2.2
12 -2 -10 36.5 5.6
12 2 -10 32.9 5.4
10 -2 -8 305.57 14.7
10 2 -8 310.67 14.9
8 -2 -6 910.11 24.5
8 2 -6 951.2 25.9
6 -2 -4 697.33 16.2
6 -2 -4 682.43 20.6
6 2 -4 702.83 13.1
4 2 -2 195.08 5.3
4 2 -2 185.18 9.2
4 -2 -2 174.78 6.2
4 -2 -2 186.68 4.9
4 -2 -2 180.58 5.1
4 -2 -2 183.18 9.9
2 2 0 287.27 7.4
2 2 0 270.77 10.2
2 -2 0 276.07 6.5
2 -2 0 270.57 7.2
2 2 0 288.57 8.9
2 -2 0 273.87 7.5
0 2 2 11.3 1.5
0 -2 2 8.7 1.4
0 -2 2 8.7 1.4
-2 2 4 123.09 5.6
-2 -2 4 115.69 5.6
-2 -2 4 115.69 5.6
-4 2 6 22.7 2.8
-4 -2 6 20.7 2.6
-4 -2 6 19.8 2.6
-6 -2 8 675.73 19.2
-6 -2 8 700.63 19.3
-8 -2 10 104.49 7.3
-8 -2 10 104.49 7.1
-10 2 12 46.2 2.7
-10 -2 12 47.9 2.7
-10 -2 12 51.99 5.5
-10 -2 12 47.9 2.8
-10 -2 12 47.8 2.8
-12 2 14 56.99 3
-12 -2 14 53.59 3.1
-12 2 14 57.49 2.9
-12 -2 14 52.09 2.9
-12 -2 14 52.39 3
-12 2 14 53.79 2.9
-14 2 16 1.8 0.7
-14 -2 16 -0.4 0.6
-14 2 16 0.6 0.5
-14 -2 16 1.5 0.7
-14 -2 16 0.9 0.6
-14 -2 16 1.1 0.6
-14 2 16 1.3 0.6
-16 2 18 3.6 0.6
-16 -2 18 3.7 0.6
-16 -2 18 2.4 0.5
-16 -2 18 3.1 0.5
19 3 -17 29.6 1.9
17 -3 -15 2.5 1.6
17 3 -15 3.4 0.9
15 -3 -13 44.4 4.2
15 -3 -13 44.6 3.5
15 3 -13 41.7 2.9
15 3 -13 43 3.1
13 3 -11 19 2
13 -3 -11 16 5
13 3 -11 21.8 1.9
13 3 -11 19.4 2
13 -3 -11 19.4 2.1
13 3 -11 18.5 1.9
11 3 -9 68.99 8.6
11 3 -9 75.59 3.6
11 -3 -9 68.39 8.2
9 -3 -7 70.39 7.2
9 3 -7 71.99 7.9
7 -3 -5 70.89 6.7
7 3 -5 71.99 7.4
7 -3 -5 89.99 6.1
7 -3 -5 69.49 7.4
5 3 -3 928.81 27.7
5 -3 -3 979.4 31.1
3 3 -1 378.86 9.6
3 -3 -1 366.56 11.4
3 3 -1 355.06 14.5
3 -3 -1 402.06 10.1
3 -3 -1 382.76 10.7
1 3 1 392.76 10.7
1 -3 1 368.06 10.8
1 3 1 396.76 13
1 -3 1 367.26 11.2
1 3 1 390.76 11.2
-1 3 3 571.54 14.9
-1 -3 3 568.54 15.3
-1 -3 3 540.15 15.3
-3 3 5 118.19 6.7
-3 -3 5 116.99 6.8
-3 -3 5 111.59 6.8
-5 3 7 107.09 7
-5 -3 7 107.59 7.1
-5 -3 7 105.39 7.2
-7 -3 9 89.49 7
-7 -3 9 86.89 7
-9 3 11 16.5 1.6
-9 -3 11 19.5 3.6
-9 -3 11 19 1.7
-9 3 11 16 1.6
-11 3 13 34.2 2.2
-11 3 13 33.6 2.2
-11 -3 13 36 2.2
-11 -3 13 33 2.3
-11 -3 13 33.6 2.3
-13 3 15 63.09 2.8
-13 -3 15 56.39 2.9
-13 -3 15 57.79 2.8
-13 -3 15 59.89 2.9
-13 -3 15 61.59 2.9
-13 -3 15 60.29 2.8
-13 3 15 59.39 2.8
-15 3 17 10.6 0.9
-15 -3 17 13.1 1.2
-15 -3 17 11.2 1
-15 -3 17 11.5 1
-15 -3 17 11.3 1
-15 3 17 11.8 1
-15 -3 17 12.2 0.9
18 4 -16 17.6 1.4
16 -4 -14 8.5 1.8
16 4 -14 10.5 1.3
14 4 -12 4.9 1
14 -4 -12 4.9 1.5
14 4 -12 5.1 1.1
12 4 -10 11 1.4
12 4 -10 12.9 1.7
12 4 -10 12.7 1.5
10 -4 -8 100.19 10.3
10 4 -8 92.29 4
10 4 -8 99.19 11.2
10 4 -8 93.29 4.3
10 4 -8 90.49 4
8 -4 -6 67.39 7.5
8 4 -6 60.19 8.3
6 -4 -4 175.48 11.4
6 4 -4 172.08 12.7
6 -4 -4 192.28 14.6
4 -4 -2 180.08 8.7
4 4 -2 178.68 10.8
4 -4 -2 202.08 15.9
2 4 0 327.17 13.8
2 -4 0 323.87 12.4
2 -4 0 357.26 12.2
2 -4 0 301.17 18.7
2 4 0 365.96 12.4
0 4 2 231.68 9.2
0 -4 2 214.88 9.3
0 -4 2 206.48 9.7
0 4 2 212.58 10.8
-2 4 4 105.69 7.7
-2 4 4 110.39 6.7
-2 -4 4 109.59 7
-2 -4 4 110.89 7.4
-4 -4 6 105.19 7.4
-4 -4 6 103.89 7.8
-6 4 8 13.2 1.5
-6 4 8 15.2 1.7
-6 -4 8 14.5 3
-6 -4 8 13.1 3.1
-8 4 10 45 2.6
-10 4 12 5.3 0.9
-10 -4 12 5.8 1
-10 -4 12 4.3 0.9
-12 4 14 4.1 0.7
-12 -4 14 3.2 0.7
-12 -4 14 3.9 0.8
-12 -4 14 4.4 0.8
-12 -4 14 3.5 0.7
-12 4 14 3.6 0.8
-14 -4 16 15.9 1.2
-14 -4 16 15.6 1
-14 -4 16 18.1 1.2
-14 -4 16 18.2 1.2
-14 4 16 16.2 1.1
15 5 -13 31.9 1.9
13 5 -11 97.69 4
13 5 -11 93.89 3.9
11 5 -9 31.9 2.3
11 5 -9 30.7 2.2
9 5 -7 57.69 3.1
9 5 -7 59.49 3.2
7 5 -5 176.78 5.7
7 5 -5 168.68 7.4
5 5 -3 214.88 6.4
5 5 -3 222.38 8.1
3 5 -1 281.77 7.5
3 5 -1 284.67 9
3 -5 -1 309.07 13.7
1 5 1 172.98 5.4
1 5 1 172.88 6.5
1 -5 1 164.98 10.1
-1 5 3 208.88 7
-1 -5 3 207.98 11.1
-1 5 3 214.18 12.2
-3 5 5 110.19 4.7
-3 -5 5 116.39 8.2
-3 5 5 113.69 4.5
-3 -5 5 117.39 8.6
-5 5 7 69.99 3.5
-5 5 7 66.39 3.5
-7 5 9 1.1 0.7
-9 5 11 5.1 0.9
-11 -5 13 19.7 1.4
-11 5 13 21.2 1.5
-13 -5 15 35.9 1.4
-13 5 15 35.4 1.4
12 6 -10 4.1 0.8
10 6 -8 4.1 0.9
8 6 -6 6 1
6 6 -4 5.5 1
4 6 -2 12 1.4
4 6 -2 10.6 1.7
2 6 0 32.7 2.2
2 6 0 29.1 2.5
0 6 2 25.7 2.3
-2 6 4 6.9 1.3
-4 6 6 0.8 0.6
-6 6 8 2.3 0.7
-10 -6 12 1.4 0.4
-10 6 12 1.4 0.4
9 7 -7 10.7 0.9
7 7 -5 50.09 2.2
5 7 -3 45.9 2.2
3 7 -1 56.89 2.4
1 7 1 28.3 1.9
-1 7 3 39.4 2.1
-3 7 5 21.1 1.3
18 0 -17 0.5 0.9
16 0 -15 -0.9 0.7
16 0 -15 0 0.9
14 0 -13 1 0.7
14 0 -13 3.2 1.6
14 0 -13 1.3 1
14 0 -13 0.2 0.8
12 0 -11 0.4 1.5
10 0 -9 0.3 0.9
8 0 -7 -0.3 0.8
8 0 -7 -0.7 0.9
6 0 -5 0.4 0.8
6 0 -5 0.9 0.8
4 0 -3 1.1 0.5
4 0 -3 0.4 0.5
2 0 -1 0.8 0.2
0 0 1 2 0.3
-2 0 3 0.4 0.3
-2 0 3 0.4 0.4
-4 0 5 0.3 0.6
-4 0 5 0.5 0.5
-6 0 7 0.9 0.7
-8 0 9 -0.8 0.7
-12 0 13 0.8 0.7
-12 0 13 -0.2 0.6
-12 0 13 0.2 0.6
-14 0 15 0 0.7
-14 0 15 -0.4 0.6
-16 0 17 0.3 0.5
-16 0 17 0.4 0.5
-18 0 19 0.3 0.4
-18 0 19 0.6 0.4
19 1 -18 6.4 1.2
17 1 -16 47.6 3.3
17 -1 -16 43 3.2
15 1 -14 130.99 5.5
15 -1 -14 129.19 6.3
15 1 -14 131.29 5.6
15 -1 -14 133.89 5.9
13 1 -12 247.98 7.4
13 -1 -12 239.18 8.1
13 -1 -12 235.48 7.6
13 1 -12 251.47 7.6
13 -1 -12 253.57 8.1
13 1 -12 255.77 15.1
11 -1 -10 79.69 6.2
11 1 -10 75.59 7
11 -1 -10 75.89 7.2
9 -1 -8 116.79 6.2
9 1 -8 105.79 7.1
9 -1 -8 108.09 7.1
7 -1 -6 97.89 5.6
7 1 -6 95.79 5.7
5 -1 -4 3698.83 63.49
5 1 -4 3936.11 63.99
3 -1 -2 3931.41 60.99
3 -1 -2 4050.39 64.29
3 1 -2 3994.4 63.79
1 1 0 626.74 11
1 1 0 636.04 13.9
1 -1 0 618.34 10.9
1 -1 0 610.04 9.6
-1 -1 2 2956.5 45.7
-1 1 2 3018.2 46.4
-1 -1 2 2932.01 45.6
-3 -1 4 138.89 5.1
-3 1 4 161.58 5.6
-3 -1 4 146.89 5.2
-3 -1 4 154.18 5.4
-5 -1 6 398.76 11.6
-5 1 6 423.46 11.7
-5 -1 6 433.86 11.6
-7 -1 8 589.44 15.7
-7 -1 8 581.44 15.3
-9 -1 10 192.18 9
-11 -1 12 407.66 9.5
-11 1 12 426.16 9.6
-11 -1 12 406.76 9.7
-11 -1 12 404.96 9.8
-11 1 12 412.56 9.5
-13 -1 14 9.2 1.4
-13 1 14 8.4 1.3
-13 -1 14 7.6 1.1
-13 -1 14 7.4 1.2
-13 -1 14 6.9 1.1
-13 1 14 5.8 1
-15 -1 16 13.9 1.6
-15 1 16 14.6 1.5
-15 -1 16 14 1.5
-15 -1 16 16.7 1.5
-17 1 18 9.2 1
-17 1 18 8.7 0.9
-17 -1 18 8.8 1
-17 -1 18 10.1 1
18 2 -17 25.8 2.1
16 -2 -15 92.69 5.6
16 2 -15 101.09 4.8
14 2 -13 30.5 2.5
14 2 -13 30.7 2.5
14 -2 -13 28.3 2.9
14 -2 -13 27.7 2.7
14 2 -13 30.1 2.5
12 2 -11 127.19 4.9
12 2 -11 130.19 11.1
12 2 -11 134.49 5.1
12 -2 -11 121.79 5.1
12 2 -11 123.79 4.9
12 -2 -11 123.29 10.9
10 2 -9 31.6 4.8
10 -2 -9 26.8 4.4
8 2 -7 270.47 12.7
8 -2 -7 275.87 12
6 2 -5 26.9 3.6
6 -2 -5 22.5 3
6 -2 -5 24.3 2.8
6 -2 -5 24.6 3.1
4 2 -3 687.73 11.9
4 2 -3 670.43 18.3
4 -2 -3 661.33 14.4
4 -2 -3 667.33 18.7
2 2 -1 52.59 2.4
2 2 -1 54.79 4.6
2 -2 -1 50.79 1.8
2 -2 -1 49.4 2.4
2 2 -1 56.49 3.9
0 2 1 62.69 3.1
0 -2 1 59.59 2.4
0 2 1 65.29 3.5
-2 2 3 588.24 13.5
-2 -2 3 575.74 12.4
-2 -2 3 559.14 13.7
-4 2 5 163.08 6.9
-4 -2 5 162.28 7
-6 2 7 267.57 10.2
-6 -2 7 276.97 10.5
-8 -2 9 288.37 11.9
-8 -2 9 305.87 12.1
-10 2 11 29.1 2
-10 -2 11 30.8 2.1
-10 -2 11 33.5 4.2
-12 2 13 37 2.4
-12 -2 13 35.5 2.3
-12 -2 13 35.2 2.4
-12 -2 13 36.1 2.5
-12 2 13 37.6 2.5
-14 2 15 44 2.5
-14 -2 15 44.1 2.7
-14 2 15 47.3 2.6
-14 -2 15 44.5 2.7
-14 -2 15 44.2 2.7
-14 -2 15 45.7 2.6
-14 2 15 45.3 2.5
-16 2 17 16.7 1.3
-16 -2 17 16 1.4
-16 2 17 16.7 1.3
-16 -2 17 16.2 1.4
-16 -2 17 16.9 1.4
-16 -2 17 16.8 1.4
-16 -2 17 17.6 1.3
17 3 -16 54.89 3
15 -3 -14 88.69 5.5
15 3 -14 92.79 4.4
13 3 -12 141.59 5.6
13 -3 -12 129.69 6.4
13 3 -12 142.89 5.5
11 3 -10 21.2 1.9
11 -3 -10 17 4
11 3 -10 20.8 1.8
11 3 -10 20.4 5.1
11 3 -10 18.1 1.9
11 3 -10 19.5 1.9
9 -3 -8 141.19 10.2
9 3 -8 141.79 11.4
7 -3 -6 43.9 5
7 3 -6 43 5.6
5 -3 -4 514.85 17.1
5 3 -4 505.45 19.6
5 -3 -4 562.54 14.9
5 -3 -4 520.35 19
3 3 -2 949.01 27
3 -3 -2 891.11 20
3 -3 -2 945.91 19.1
3 -3 -2 988 29.6
1 3 0 427.76 14.1
1 3 0 411.56 10.3
1 -3 0 397.76 10.7
1 3 0 426.76 13.3
-1 3 2 595.64 17.3
-1 3 2 585.34 14.3
-1 -3 2 574.04 14.8
-1 -3 2 552.14 15.1
-3 3 4 469.65 13.7
-3 -3 4 464.25 14
-3 -3 4 459.75 14.2
-5 -3 6 13.4 2.5
-5 3 6 13.1 2.3
-5 -3 6 10.7 2.3
-7 -3 8 84.29 6.6
-7 -3 8 80.19 6.4
-9 3 10 8.9 1.2
-9 3 10 10.7 1.3
-9 -3 10 10.9 2.5
-9 -3 10 9.6 2.3
-11 3 12 79.69 3.5
-11 -3 12 84.79 3.6
-11 -3 12 74.49 3.6
-11 -3 12 78.49 3.7
-11 3 12 80.49 3.5
-13 3 14 34.8 2.1
-13 3 14 33.4 2.1
-13 -3 14 34.5 2.1
-13 -3 14 31.5 2.2
-13 -3 14 33 2.3
-13 3 14 34.6 2.3
-15 3 16 36.4 1.8
-15 -3 16 37.2 2.2
-15 -3 16 36.4 2
-15 -3 16 33.9 2
-15 -3 16 35.3 2
-15 -3 16 36.9 2
-15 3 16 35.2 1.9
-17 -3 18 15.8 0.9
16 4 -15 24.2 1.8
14 -4 -13 1.4 1.3
14 4 -13 1.5 0.9
12 4 -11 -0.2 0.6
12 -4 -11 1.5 1.2
12 4 -11 1.1 0.8
10 4 -9 329.27 8.5
10 4 -9 327.47 9
10 4 -9 335.37 8.8
10 -4 -9 334.07 18.9
8 -4 -7 -0.4 1.4
8 4 -7 0.6 0.5
8 4 -7 0.1 0.6
8 4 -7 2 2.4
8 4 -7 0.8 0.6
6 -4 -5 209.18 11.7
6 4 -5 210.08 14.6
4 -4 -3 88.29 6.9
4 -4 -3 91.79 6
4 4 -3 82.59 8
4 -4 -3 86.49 8.5
2 -4 -1 248.68 10.4
2 4 -1 280.37 11.7
2 -4 -1 266.97 10
2 -4 -1 258.47 16.9
0 4 1 148.49 9.1
0 -4 1 148.59 7.2
0 -4 1 140.69 7.6
-2 -4 3 11.3 2.1
-2 4 3 8.8 2.3
-2 -4 3 8.9 2.1
-4 4 5 3.4 1.6
-4 -4 5 7.8 2.1
-4 -4 5 5.8 1.8
-6 4 7 25.7 2.1
-6 -4 7 21.3 3.6
-6 -4 7 20.8 3.6
-8 -4 9 410.66 16.7
-8 4 9 371.26 9.7
-8 -4 9 416.56 17.2
-10 4 11 95.19 3.8
-10 -4 11 89.39 3.8
-12 4 13 34.8 2
-12 -4 13 31.1 2
-12 -4 13 33.9 2.2
-14 -4 15 19.3 1.5
-14 -4 15 21 1.4
-14 -4 15 20.7 1.4
-14 -4 15 20.4 1.4
-14 -4 15 21.6 1.5
-14 4 15 19.5 1.4
13 5 -12 20.8 1.7
11 5 -10 98.09 4.1
11 5 -10 96.19 4.1
9 5 -8 88.59 3.9
9 5 -8 94.09 4.1
7 5 -6 27.5 2.1
5 5 -4 67.79 3.3
5 5 -4 66.19 4.4
3 5 -2 40.5 2.5
3 5 -2 38.8 3.2
1 5 0 79.99 3.6
1 5 0 83.29 4.4
1 -5 0 86.99 7.1
-1 5 2 126.79 4.5
-1 5 2 113.19 4.9
-1 -5 2 124.39 8.7
-1 -5 2 111.29 7.8
-1 5 2 113.09 9
-3 5 4 209.48 6.7
-3 5 4 215.08 12.4
-3 5 4 209.68 6.4
-3 -5 4 217.58 11.1
-3 -5 4 206.68 11.4
-5 5 6 6.3 1.2
-5 5 6 6.1 1.3
-7 5 8 27.8 2.1
-7 5 8 28.5 2.3
-9 5 10 47.6 2.5
-11 -5 12 8.1 0.9
-13 -5 14 2.9 0.5
-13 -5 14 4.2 0.6
-13 5 14 4.1 0.6
12 6 -11 21.7 1.4
10 6 -9 24.4 1.8
8 6 -7 55.19 2.9
6 6 -5 16.2 1.6
4 6 -3 114.89 4.4
4 6 -3 116.79 5.3
2 6 -1 80.89 3.5
2 6 -1 85.19 4.3
0 6 1 177.68 5.5
0 6 1 173.68 6.1
-2 6 3 77.89 3.7
-4 6 5 77.29 3.5
-4 6 5 75.29 3.4
-6 6 7 6 1
-10 6 11 10.7 0.9
9 7 -8 1.1 0.4
7 7 -6 3.6 0.6
5 7 -4 10.9 1.1
3 7 -2 6.3 0.9
1 7 0 2.1 0.5
-1 7 2 1.9 0.6
-3 7 4 20.1 1.4
16 0 -16 15.8 1.9
14 0 -14 143.69 5.5
14 0 -14 139.09 5.7
12 0 -12 101.99 4.7
12 0 -12 96.59 8.3
10 0 -10 120.29 8
8 0 -8 158.78 7.8
6 0 -6 175.48 7
-2 0 2 1283.17 20.5
-2 0 2 1322.97 20.2
-4 0 4 7582.04 112.29
-6 0 6 173.38 6.4
-8 0 8 167.28 7.6
-8 0 8 193.08 7
-12 0 12 95.19 3.8
-12 0 12 99.79 3.9
-12 0 12 95.09 4
-14 0 14 139.69 5
-14 0 14 133.49 4.9
-14 0 14 128.59 4.9
-16 0 16 20.9 1.7
-16 0 16 21 1.7
-16 0 16 20.4 1.7
-18 0 18 72.39 2.8
-18 0 18 72.19 2.5
17 1 -17 0.1 0.8
15 1 -15 2.1 0.9
15 -1 -15 0.1 1.1
15 1 -15 3.1 1.1
15 -1 -15 1 0.8
13 1 -13 67.69 3.6
13 -1 -13 67.49 4.1
13 1 -13 71.19 3.8
13 -1 -13 65.79 3.8
13 1 -13 78.39 8.7
11 -1 -11 39.5 4.8
11 1 -11 40.2 5.5
9 -1 -9 233.28 9.9
9 1 -9 225.98 11.2
9 -1 -9 226.88 11.4
7 1 -7 511.45 15.4
7 -1 -7 511.35 15.2
5 -1 -5 1290.87 25.3
5 1 -5 1276.77 25.7
3 -1 -3 912.81 16.8
3 1 -3 947.21 18.4
3 -1 -3 920.31 17.9
1 1 -1 1211.28 21.6
1 1 -1 1280.07 18.9
1 1 -1 1233.58 22.4
1 -1 -1 1258.27 22.5
-1 -1 1 1245.98 19.7
-1 1 1 1203.68 20.3
-1 -1 1 1243.78 20.1
-1 1 1 1250.87 19.8
-3 1 3 958.5 15.8
-3 1 3 965.9 17.6
-3 -1 3 926.71 17.3
-5 1 5 1317.87 23
-5 -1 5 1279.87 24.3
-5 1 5 1257.57 19.7
-5 -1 5 1312.97 24.4
-5 -1 5 1328.97 24.1
-5 1 5 1323.47 24.4
-7 -1 7 504.35 14.1
-7 -1 7 535.45 13.6
-9 -1 9 245.88 9.9
-9 -1 9 259.47 9.6
-11 -1 11 41.3 4.2
-13 -1 13 70.09 3.4
-13 1 13 72.49 3.3
-13 -1 13 70.89 3.4
-13 -1 13 72.29 3.6
-13 1 13 67.59 3.2
-15 -1 15 2.5 0.9
-15 1 15 2.2 0.6
-15 -1 15 1 0.6
-15 -1 15 2.1 0.8
-15 -1 15 2.7 0.7
-17 1 17 0.3 0.6
-17 -1 17 0.9 0.6
-17 1 17 0.2 0.5
-17 -1 17 1.3 0.6
-17 -1 17 1.6 0.5
-17 -1 17 0.4 0.5
-19 1 19 2.6 0.4
-19 1 19 2.5 0.4
-19 -1 19 2.6 0.5
-19 -1 19 2.5 0.4
18 2 -18 0.5 0.6
16 2 -16 4.2 1.1
14 -2 -14 45.5 3.6
14 2 -14 47.2 3.2
12 2 -12 253.47 7.5
12 -2 -12 234.78 8.1
12 -2 -12 250.67 7.8
12 2 -12 255.57 7.7
10 -2 -10 123.59 9.7
10 2 -10 134.19 10.3
8 2 -8 129.59 8.8
8 -2 -8 129.19 8.3
6 -2 -6 759.12 20.1
6 2 -6 776.72 21.5
4 -2 -4 534.25 14.5
4 -2 -4 549.65 13.3
4 -2 -4 504.75 14.2
4 2 -4 534.15 15.6
2 2 -2 654.63 16.9
2 2 -2 651.33 11.1
2 -2 -2 640.04 13.3
2 -2 -2 671.13 11.5
2 -2 -2 652.33 16.9
0 2 0 865.91 15.9
0 2 0 916.61 20.4
0 2 0 920.01 20.3
0 -2 0 878.31 15.6
-2 -2 2 644.64 12.7
-2 2 2 671.33 13.9
-2 -2 2 657.03 13.3
-4 -2 4 569.74 13.2
-4 2 4 580.74 14.1
-4 -2 4 587.94 13.6
-6 -2 6 777.32 18.6
-6 -2 6 815.52 19
-6 -2 6 812.52 19.4
-8 -2 8 132.49 7.3
-10 -2 10 132.29 8.3
-10 -2 10 138.39 8.2
-12 2 12 252.87 6.9
-12 -2 12 256.97 7
-12 -2 12 275.27 12.9
-12 -2 12 262.77 7
-12 -2 12 241.68 7.2
-14 2 14 55.39 2.9
-14 -2 14 54.99 2.9
-14 2 14 53.39 2.8
-14 -2 14 52.69 3
-14 -2 14 50.39 3
-14 2 14 55.99 3
-16 2 16 2.2 0.7
-16 -2 16 2.9 0.8
-16 2 16 4 0.9
-16 -2 16 3.3 0.8
-16 -2 16 2.9 0.9
-16 -2 16 3.9 0.8
-16 2 16 2.9 0.6
-18 2 18 1.3 0.4
-18 -2 18 2.5 0.5
-18 -2 18 2.8 0.6
-18 -2 18 1.6 0.5
17 3 -17 7.6 1.1
15 -3 -15 34.9 3.2
15 3 -15 35.8 2.6
13 -3 -13 32.2 3.1
13 3 -13 33.8 2.6
11 -3 -11 23.4 4.8
11 3 -11 22.3 5
11 3 -11 23.4 2.2
11 -3 -11 22.9 2.4
11 3 -11 22.4 2.1
9 -3 -9 2.4 1.8
9 3 -9 -1 2.2
7 -3 -7 69.89 6.3
7 3 -7 68.09 7.3
5 -3 -5 64.69 5.4
5 3 -5 61.39 6.2
5 -3 -5 66.09 5.5
3 -3 -3 424.96 13.5
3 3 -3 411.96 16.4
3 -3 -3 407.56 11.5
3 -3 -3 411.66 14.8
1 3 -1 319.77 7.9
1 3 -1 315.67 13
1 3 -1 307.47 12.7
1 -3 -1 305.27 8.4
1 -3 -1 326.67 15.1
-1 3 1 332.37 9.3
-1 3 1 334.57 12.8
-1 -3 1 341.77 8.2
-1 3 1 334.57 9.2
-3 3 3 442.36 12.5
-3 -3 3 458.05 11.6
-5 -3 5 84.09 5
-5 -3 5 72.09 5.4
-7 -3 7 85.49 6.3
-9 -3 9 1.5 1.5
-9 -3 9 2.5 1.3
-11 3 11 21.8 1.7
-11 -3 11 22.7 1.8
-11 -3 11 24.7 3.9
-11 3 11 23.1 1.8
-11 -3 11 23.4 3.8
-13 3 13 36 2.3
-13 3 13 33.2 2.2
-13 -3 13 33.6 2.2
-13 -3 13 33.2 2.3
-13 -3 13 33.5 2.4
-15 3 15 41.4 2.2
-15 -3 15 35 2.3
-15 -3 15 37.1 2.2
-15 -3 15 38.2 2.3
-15 -3 15 38.8 2.2
-15 3 15 40.6 2.3
-17 -3 17 7.4 0.9
-17 -3 17 6.2 0.7
-17 -3 17 7.9 0.9
-17 -3 17 6.4 0.8
-17 -3 17 6.6 0.7
-17 3 17 5.3 0.6
14 4 -14 27.8 2.1
12 4 -12 0.6 0.6
12 4 -12 1.5 0.9
10 4 -10 132.39 4.9
10 4 -10 129.69 5.1
8 4 -8 33.3 2.2
8 -4 -8 37.1 5.3
8 4 -8 31.3 2.4
8 4 -8 34.4 6.6
8 4 -8 33.3 2.3
6 -4 -6 8.7 2.5
6 4 -6 5.5 1.7
4 -4 -4 18 3
4 4 -4 20.4 4.3
2 -4 -2 50.99 4.5
2 -4 -2 50.19 4.2
2 4 -2 56.39 5.8
0 4 0 1.7 1.9
0 -4 0 2.1 1
-2 -4 2 65.29 4.9
-2 -4 2 59.99 5
-2 4 2 61.79 6.1
-4 4 4 11.9 2.8
-4 -4 4 11 2.2
-4 -4 4 11.8 2.5
-6 -4 6 8.1 2.1
-6 -4 6 6.4 2
-8 4 8 26.3 2.2
-8 -4 8 25.5 3.9
-8 -4 8 29.2 4.3
-10 4 10 120.39 4.9
-12 -4 12 0.2 0.5
-12 -4 12 0.9 0.6
-14 -4 14 28.9 1.8
-14 -4 14 29.1 1.9
-14 4 14 28 1.9
-16 -4 16 23.3 1.4
-16 -4 16 21.3 1.2
-16 -4 16 24.7 1.3
-16 4 16 23.6 1.3
11 5 -11 56.09 2.9
9 5 -9 5.6 1
9 5 -9 6.6 1.2
7 5 -7 66.69 3.3
5 5 -5 176.48 5.7
3 5 -3 65.49 3.2
3 5 -3 62.29 4.1
1 5 -1 166.28 5.4
1 5 -1 167.28 6.4
-1 5 1 177.68 5.6
-1 5 1 172.18 6.2
-1 -5 1 178.78 10.4
-1 -5 1 169.98 9.6
-3 5 3 61.39 3.4
-3 5 3 66.39 3.3
-3 -5 3 56.89 5.7
-3 5 3 57.19 6.5
-5 5 5 167.78 5.7
-5 5 5 168.18 5.7
-5 -5 5 160.68 9.7
-5 -5 5 172.68 10.5
-7 5 7 74.79 3.5
-7 5 7 65.99 3.5
-9 5 9 3.6 1.1
-11 -5 11 50.89 2.5
-13 -5 13 55.79 2.4
-13 -5 13 54.09 2.2
-13 5 13 57.59 2.5
-15 -5 15 15.9 0.9
-15 5 15 14.3 0.8
10 6 -10 4 0.8
8 6 -8 18.1 1.6
6 6 -6 1.1 0.6
4 6 -4 58.69 3
2 6 -2 34.6 2.3
2 6 -2 35.5 2.8
0 6 0 24.2 1.9
0 6 0 22.8 2.2
-2 6 2 35.2 2.5
-2 6 2 39.3 2.4
-4 6 4 62.19 3.1
-4 6 4 65.99 3.2
-6 6 6 1.4 0.7
-6 6 6 0.9 0.6
-12 6 12 9.5 0.8
7 7 -7 14.5 1.1
5 7 -5 52.89 2.4
3 7 -3 4.1 0.7
1 7 -1 2.3 0.6
-1 7 1 2.2 0.6
-3 7 3 5.3 0.8
16 0 -17 0.5 0.8
14 0 -15 0.3 0.7
14 0 -15 -1.7 0.9
12 0 -13 0.5 0.7
12 0 -13 -0.7 0.9
12 0 -13 -0.2 0.8
10 0 -11 0.8 1.6
8 0 -9 -0.7 0.9
-6 0 5 0.7 0.6
-6 0 5 1 0.7
-6 0 5 0.3 0.3
-8 0 7 -0.1 0.8
-10 0 9 0.1 1
-10 0 9 0.4 0.7
-14 0 13 -0.6 0.8
-14 0 13 0.6 0.5
-14 0 13 0.9 0.7
-14 0 13 -0.4 0.7
-16 0 15 0 0.6
-16 0 15 1.2 0.6
-18 0 17 0.2 0.6
-18 0 17 0.1 0.5
-20 0 19 0 0.3
-20 0 19 -0.4 0.3
17 1 -18 8.3 1.2
15 1 -16 10.2 1.6
13 1 -14 12.5 1.6
13 -1 -14 9.4 1.5
13 1 -14 12.8 1.7
11 1 -12 377.36 9.5
11 -1 -12 367.06 10
11 -1 -12 387.86 16.5
11 1 -12 390.66 18.4
11 1 -12 383.66 9.6
9 -1 -10 172.18 9.2
9 1 -10 163.58 10.1
7 1 -8 593.64 18.1
7 -1 -8 639.74 18.6
5 1 -6 389.36 12.1
5 -1 -6 411.96 12.1
3 -1 -4 208.28 6.8
3 1 -4 185.08 6.6
1 -1 -2 3205.38 48.4
1 -1 -2 3134.09 46.3
1 1 -2 3006.1 48.5
1 -1 -2 2997.2 47.7
-1 1 0 567.74 12.8
-1 1 0 586.74 10.1
-3 1 2 4062.39 61.59
-3 -1 2 3979.9 61.79
-5 1 4 4216.68 63.19
-5 -1 4 4069.99 64.59
-5 -1 4 3992.1 64.79
-7 1 6 130.89 5.3
-7 -1 6 115.19 5.7
-7 1 6 131.29 3.4
-7 -1 6 118.59 5.7
-7 -1 6 127.89 5.4
-9 1 8 100.79 5.5
-9 -1 8 92.79 5.8
-9 -1 8 107.59 5.6
-11 -1 10 97.09 6.3
-13 -1 12 222.88 6.4
-13 -1 12 227.78 6.4
-13 -1 12 224.28 6.7
-15 -1 14 125.79 4.9
-15 -1 14 116.49 4.5
-15 1 14 126.19 4.5
-15 -1 14 115.79 4.6
-15 -1 14 117.19 4.7
-15 -1 14 128.19 4.5
-17 -1 16 45 2.6
-17 1 16 47.1 2.6
-17 -1 16 45.8 2.6
-19 1 18 3.5 0.7
-19 1 18 3.1 0.6
-19 -1 18 2.9 0.6
-19 -1 18 2.4 0.6
16 2 -17 20.5 1.9
14 -2 -15 37.3 3.1
14 2 -15 43.3 2.9
12 -2 -13 32.7 2.8
12 2 -13 32.7 2.5
10 2 -11 33.1 2.3
10 -2 -11 36.1 2.7
10 2 -11 30.8 2.3
10 2 -11 37.2 5.9
8 2 -9 300.07 14.4
8 -2 -9 291.27 13.6
6 2 -7 273.67 12
6 -2 -7 267.67 11.2
4 -2 -5 175.48 7.7
4 2 -5 168.28 8.2
2 -2 -3 619.44 14.6
2 -2 -3 610.74 12.4
2 -2 -3 564.04 13.8
2 2 -3 594.64 15.5
0 2 -1 64.59 4.2
0 2 -1 64.39 2.4
0 2 -1 60.09 4.9
0 -2 -1 60.49 4.2
-2 -2 1 52.69 2.2
-2 2 1 56.79 2.8
-2 -2 1 54.59 3
-2 2 1 58.29 2.6
-4 -2 3 680.13 14.3
-4 2 3 698.53 15.1
-4 -2 3 691.53 15.1
-6 -2 5 22.3 2.5
-6 -2 5 21.3 2.5
-8 -2 7 282.47 10.6
-8 -2 7 301.87 10.9
-8 -2 7 284.87 10.7
-10 -2 9 25.3 3.3
-12 -2 11 121.29 4.4
-12 -2 11 117.29 8.1
-12 -2 11 127.29 4.4
-14 2 13 31.6 2.1
-14 -2 13 30.3 2.2
-14 -2 13 31.4 2.2
-14 -2 13 30.2 2.3
-16 2 15 102.99 3.9
-16 -2 15 98.89 4.2
-16 -2 15 97.99 3.9
-16 -2 15 96.79 4
-16 2 15 106.39 4
-16 -2 15 96.99 4.1
-16 -2 15 107.09 3.9
-16 2 15 103.39 3.9
-18 2 17 27.4 1.6
-18 -2 17 24.7 1.7
-18 2 17 25.4 1.6
-18 -2 17 28.2 1.8
-18 -2 17 24.7 1.7
15 3 -16 39.8 2.6
13 -3 -14 31.2 2.8
13 3 -14 32.7 2.5
11 -3 -12 87.29 4.5
11 3 -12 83.79 4
9 -3 -10 18 3.9
9 3 -10 13.1 3.5
9 3 -10 14.6 1.7
9 3 -10 16.3 1.7
7 3 -8 93.09 8.7
7 -3 -8 92.59 7.6
5 -3 -6 17.2 2.9
5 3 -6 16.4 3.6
3 -3 -4 448.16 13.9
3 3 -4 421.46 16.5
3 -3 -4 451.25 13.6
1 -3 -2 576.84 14.9
1 -3 -2 541.85 15.7
-1 3 0 359.36 14.5
-1 3 0 389.96 11.6
-1 -3 0 388.46 9.4
-3 3 2 837.62 23.7
-3 -3 2 955.8 19.1
-5 -3 4 563.44 14.6
-7 -3 6 54.69 4.4
-7 -3 6 47.7 4.6
-9 -3 8 168.78 9.3
-11 3 10 25.4 2.1
-11 -3 10 22.3 3.7
-11 -3 10 22 3.6
-13 3 12 155.78 5
-13 3 12 151.78 4.9
-13 -3 12 143.99 5
-13 -3 12 164.38 5.1
-15 3 14 103.59 3.7
-15 3 14 96.59 3.6
-15 -3 14 97.69 3.8
-15 -3 14 93.19 3.9
-15 -3 14 95.79 4.1
-17 -3 16 53.89 2.6
-17 -3 16 53.69 2.5
-17 -3 16 54.89 2.6
-17 -3 16 59.89 2.4
-17 3 16 54.29 2.3
-19 -3 18 21.7 1.1
14 4 -15 21.5 1.8
12 4 -13 29.8 2.3
10 4 -11 86.59 3.8
10 4 -11 88.29 4.1
8 4 -9 383.16 9.3
8 4 -9 408.56 23
8 4 -9 379.16 9.7
8 -4 -9 409.06 18.9
6 4 -7 17 1.6
6 -4 -7 16 3.3
6 4 -7 12.9 3.8
6 4 -7 16.3 1.6
4 -4 -5 7.1 1.8
4 4 -5 5.3 1.9
2 -4 -3 13.6 2.2
-2 4 1 211.58 12.1
-2 -4 1 238.28 9.3
-4 4 3 66.29 6.5
-4 -4 3 79.69 5.7
-4 -4 3 73.39 5.8
-6 4 5 193.38 11.3
-6 -4 5 206.48 10.2
-6 -4 5 202.88 10.6
-8 4 7 0.5 0.8
-8 -4 7 0 0.8
-8 -4 7 0.9 0.9
-10 4 9 339.27 9.1
-10 -4 9 362.46 15.7
-10 -4 9 359.86 15.8
-12 -4 11 1.5 0.6
-14 -4 13 1 0.5
-14 -4 13 -0.1 0.4
-14 -4 13 0.1 0.6
-16 -4 15 23.9 1.7
-16 -4 15 22.4 1.4
-16 -4 15 23.6 1.5
-16 -4 15 23.9 1.6
-16 -4 15 25.3 1.5
-16 4 15 23.6 1.5
11 5 -12 10.7 1.2
9 5 -10 46.9 2.7
7 5 -8 26.3 2
5 5 -6 8.2 1.1
3 5 -4 197.38 6.1
3 5 -4 194.68 7.3
1 5 -2 105.09 4.2
1 5 -2 101.79 4.9
-1 5 0 88.69 3.8
-1 5 0 85.19 4.2
-3 5 2 39.4 2.4
-3 5 2 37.7 2.7
-3 5 2 31.2 5
-3 -5 2 31 4.1
-3 5 2 38.1 2.5
-5 5 4 66.29 3.4
-5 5 4 65.09 7
-5 5 4 65.49 3.4
-5 -5 4 72.89 6.3
-5 -5 4 69.49 6.5
-7 5 6 23.5 1.9
-7 5 6 22.3 2
-9 5 8 92.59 4.2
-13 -5 12 21.5 1.5
-15 -5 14 43.9 1.9
-15 -5 14 42.8 1.6
-15 5 14 48.3 1.9
10 6 -11 11.7 1.1
8 6 -9 4.2 0.8
6 6 -7 8.1 1.1
4 6 -5 57.49 3
2 6 -3 82.99 3.6
0 6 -1 159.78 5.3
0 6 -1 163.88 5.9
-2 6 1 71.09 3.6
-2 6 1 72.49 3.4
-4 6 3 119.09 4.5
-4 6 3 120.69 4.5
-4 6 3 127.29 4.5
-6 6 5 11.6 1.3
-6 6 5 11.4 1.4
-8 6 7 48.4 2.7
7 7 -8 20.3 1.2
5 7 -6 4.8 0.8
3 7 -4 19.3 1.4
1 7 -2 2.1 0.6
-1 7 0 2.3 0.6
12 0 -14 57.19 3.3
12 0 -14 49 3.1
10 0 -12 17.9 3.4
10 0 -12 16.4 1.7
8 0 -10 36.2 4.4
-8 0 6 562.34 11.2
-8 0 6 559.14 11
-10 0 8 20.2 2.6
-12 0 10 219.18 10
-14 0 12 230.98 6.5
-14 0 12 230.38 6.5
-14 0 12 237.18 6.6
-14 0 12 235.28 6.8
-16 0 14 231.38 6.8
-16 0 14 224.88 6.9
-18 0 16 45.7 2.5
-20 0 18 70.09 2.7
15 1 -17 2.4 0.9
13 1 -15 0.3 0.7
11 1 -13 68.39 3.6
11 -1 -13 60.19 3.6
11 1 -13 68.99 3.6
9 -1 -11 100.19 7.6
9 1 -11 100.99 8.4
7 1 -9 419.56 15.5
5 1 -7 208.28 9
5 -1 -7 217.58 9.2
3 1 -5 415.26 11.6
3 -1 -5 433.66 11.6
1 -1 -3 196.78 5.8
-1 -1 -1 1803.42 27.8
-1 1 -1 1742.63 28.1
-1 -1 -1 1783.02 27.1
-7 1 5 1101.49 20.4
-7 -1 5 1084.09 21.8
-7 -1 5 1050.69 21.7
-9 1 7 1000.1 20.9
-9 -1 7 959.8 22.1
-9 -1 7 957.1 21.9
-9 -1 7 998.5 20.8
-11 1 9 82.69 5.3
-11 -1 9 73.99 5.6
-11 -1 9 91.49 5.4
-13 -1 11 43.8 4.4
-15 -1 13 61.59 3.2
-15 -1 13 62.19 3.1
-15 -1 13 62.29 3.4
-17 -1 15 3.6 0.9
-17 -1 15 3.3 0.9
-17 -1 15 4.2 0.9
-17 -1 15 4.3 1.1
-19 1 17 16.7 1.4
-19 -1 17 16.4 1.4
-19 1 17 16.9 1.4
-19 -1 17 14.7 1.3
-21 1 19 0.4 0.3
-21 -1 19 -0.2 0.3
16 2 -18 2.7 0.7
14 2 -16 1.7 0.8
12 -2 -14 42.4 3.1
12 2 -14 46.3 3
10 -2 -12 51.29 3.3
10 2 -12 51.99 3.1
10 2 -12 49.7 6.9
8 2 -10 108.09 8.9
6 2 -8 645.84 21
6 -2 -8 699.43 20.9
4 2 -6 34.8 3.7
4 -2 -6 34.4 3.5
2 -2 -4 97.19 5.1
2 -2 -4 95.99 4.2
2 2 -4 92.09 5.4
0 -2 -2 22 2
0 -2 -2 21.1 1.8
0 2 -2 20.6 2.2
-2 2 0 271.57 8.3
-2 2 0 212.98 9.7
-4 -2 2 192.98 5.8
-4 -2 2 199.38 6.9
-6 2 4 724.13 12.7
-6 -2 4 699.03 15.8
-6 -2 4 718.53 16.6
-8 -2 6 997.6 22.3
-8 -2 6 1011.5 22.6
-10 -2 8 349.27 12.8
-10 -2 8 346.87 12.8
-10 -2 8 378.46 12.9
-12 -2 10 33.9 3.9
-14 -2 12 22.6 1.9
-14 2 12 23.1 1.8
-14 -2 12 23 1.9
-14 -2 12 27 4.1
-14 -2 12 24.8 1.9
-16 2 14 8.3 1.2
-16 -2 14 6.2 1.1
-16 -2 14 6.5 1.1
-16 -2 14 5.8 1.1
-16 2 14 9 1.2
-18 2 16 45.1 2.3
-18 -2 16 40.2 2.4
-18 2 16 43.3 2.2
-18 -2 16 40.1 2.4
-18 -2 16 42.5 2.5
-18 -2 16 46.2 2.2
-20 -2 18 17.7 1.2
-20 -2 18 18 1.2
-20 -2 18 14.5 0.9
15 3 -17 11.6 1.3
13 3 -15 62.19 3.4
11 -3 -13 38.5 2.8
11 3 -13 33.9 2.6
9 3 -11 17.9 4.3
9 3 -11 22.1 2
7 3 -9 84.49 8.6
7 -3 -9 94.49 8.1
5 3 -7 98.19 8.4
5 -3 -7 97.79 7.1
3 -3 -5 128.49 7.2
3 3 -5 123.49 8.5
1 -3 -3 600.84 15.3
1 3 -3 552.84 18.4
1 -3 -3 577.34 13.8
1 -3 -3 595.74 14.6
-1 -3 -1 402.86 10.6
-1 3 -1 412.86 14.1
-1 -3 -1 371.26 11
-3 3 1 353.96 14.8
-3 -3 1 395.56 10.7
-5 -3 3 884.21 18.1
-5 -3 3 900.61 19.9
-7 -3 5 60.79 4.2
-7 -3 5 59.89 4.5
-9 -3 7 80.69 5.9
-9 -3 7 77.89 6.1
-11 3 9 65.29 3.3
-11 -3 9 63.69 5.9
-13 -3 11 17.8 1.7
-13 -3 11 17 3.3
-13 -3 11 18.1 1.6
-13 -3 11 17.1 3.3
-15 -3 13 41.3 2.5
-15 -3 13 45.4 2.5
-15 -3 13 38.4 2.6
-17 -3 15 3.9 0.8
-17 -3 15 3.9 0.9
-17 -3 15 4.9 1
-17 3 15 3.5 0.8
-19 -3 17 30 1.6
-19 -3 17 31.1 1.6
-19 -3 17 31.2 1.6
12 4 -14 4.6 1
10 4 -12 3.8 1
8 4 -10 52.89 2.9
8 4 -10 48 3
6 4 -8 10.8 1.4
6 -4 -8 9.5 2.8
6 4 -8 10.2 3.1
6 4 -8 9.3 1.3
4 4 -6 104.09 10
4 -4 -6 100.39 7.2
-2 4 0 297.47 15.6
-4 4 2 167.68 11.1
-6 4 4 159.58 10.4
-6 -4 4 158.58 9
-8 -4 6 67.19 6.1
-10 4 8 84.39 4
-10 -4 8 79.79 6.9
-10 -4 8 84.49 7.3
-12 4 10 8.6 1.3
-14 -4 12 5.5 0.9
-16 -4 14 12.1 1.1
-16 -4 14 11.6 1.2
-16 -4 14 13.4 1.4
-18 -4 16 21.7 1.3
-18 -4 16 20.3 1.1
-18 -4 16 19.5 1.1
-18 -4 16 19.8 1.1
-18 4 16 16.8 1
9 5 -11 9.7 1.2
7 5 -9 1.1 0.6
5 5 -7 72.09 3.4
3 5 -5 120.79 4.6
1 5 -3 193.08 6
1 5 -3 185.88 6.8
-1 5 -1 163.78 5.4
-1 5 -1 160.38 5.9
-3 5 1 300.57 7.9
-3 5 1 291.97 8.1
-3 5 1 307.27 8.2
-3 -5 1 286.17 12.9
-5 5 3 213.58 6.4
-5 5 3 210.38 6.6
-5 -5 3 203.78 11.2
-5 5 3 198.98 13
-5 5 3 216.48 6.4
-7 5 5 177.78 6
-7 -5 5 175.68 10.3
-7 -5 5 173.78 10.7
-9 5 7 66.79 3.5
-11 5 9 36.9 2.6
-15 -5 13 29.8 1.7
8 6 -10 0.9 0.5
6 6 -8 2.4 0.7
4 6 -6 1 0.6
2 6 -4 5.9 1
0 6 -2 23.6 1.9
-2 6 0 32.5 2.4
-2 6 0 31.4 2.2
-4 6 2 9.9 1.2
-4 6 2 12.1 1.5
-4 6 2 10.7 1.4
-6 6 4 8 1.2
-6 6 4 4.8 1
-8 6 6 7.4 1.2
-10 6 8 5.2 1
-14 6 12 32.4 1.4
5 7 -7 27.9 1.5
3 7 -5 19.1 1.4
1 7 -3 33 1.9
-1 7 -1 27 1.7
10 0 -13 -0.1 0.7
10 0 -13 -2.3 1.7
8 0 -11 1.2 1.7
-8 0 5 0.6 0.6
-10 0 7 1.1 0.8
-10 0 7 0.4 0.7
-12 0 9 1.6 1.2
-14 0 11 -0.5 1.2
-16 0 13 -0.1 0.5
-16 0 13 0.2 0.6
-16 0 13 -0.8 0.7
-16 0 13 -0.3 0.6
-18 0 15 0.6 0.5
-20 0 17 0.5 0.5
-22 0 19 -0.3 0.3
-22 0 19 -0.1 0.3
13 1 -16 43.8 2.7
11 1 -14 47.5 2.9
9 1 -12 226.18 6.8
9 -1 -12 205.98 6.7
9 -1 -12 215.98 12.1
9 1 -12 210.88 12.9
9 1 -12 214.48 6.5
7 1 -10 147.89 9.4
5 1 -8 325.57 12.4
3 -1 -6 529.35 14.4
1 -1 -4 1214.08 22.9
-1 -1 -2 407.66 8.6
-3 1 0 1547.65 29.4
-5 1 2 1083.39 17.4
-7 -1 4 129.89 5.5
-9 1 6 18.3 2.1
-9 -1 6 18.3 2.3
-9 -1 6 19.1 2.3
-11 1 8 463.85 13.4
-11 -1 8 432.86 14.1
-11 -1 8 431.36 13.9
-13 1 10 223.58 9.8
-13 -1 10 208.38 10.2
-15 -1 12 79.79 3.6
-15 -1 12 78.39 3.5
-15 -1 12 84.29 3.8
-15 -1 12 81.79 3.7
-17 -1 14 37.1 2.5
-17 -1 14 39.3 2.5
-17 -1 14 37.9 2.5
-17 -1 14 38.8 2.7
-19 -1 16 12.4 1.3
-19 1 16 11.8 1.3
-19 -1 16 11.4 1.3
-19 -1 16 10.6 1.3
-21 1 18 6.1 0.7
-21 1 18 7 0.8
-21 -1 18 8.3 0.9
-21 -1 18 8.1 0.9
14 2 -17 16.2 1.5
12 2 -15 9.6 1.4
10 -2 -13 144.29 5.7
10 2 -13 141.09 5.3
8 2 -11 236.98 6.8
8 2 -11 220.08 13.6
6 2 -9 114.49 8.6
4 2 -7 194.88 9.8
4 -2 -7 221.88 10.1
2 2 -5 143.69 7.2
2 -2 -5 161.28 7.1
0 -2 -3 756.92 16
0 -2 -3 751.72 13.6
0 2 -3 730.73 16.9
-2 -2 -1 92.59 3.3
-2 2 -1 88.39 4.2
-2 2 -1 77.39 6.4
-2 -2 -1 85.39 2.9
-4 -2 1 1187.18 18.6
-6 -2 3 47.9 3.5
-8 -2 5 399.06 11.7
-8 -2 5 390.96 12
-10 -2 7 199.58 8.9
-10 -2 7 195.28 8.8
-12 -2 9 37.3 4.2
-12 -2 9 41 4.4
-12 -2 9 39.3 4.1
-14 -2 11 57.39 2.9
-14 -2 11 60.29 3.1
-16 -2 13 76.99 3.6
-16 2 13 74.69 3.3
-16 -2 13 72.19 3.5
-16 -2 13 71.89 3.4
-16 -2 13 69.29 3.6
-18 2 15 53.59 2.6
-18 2 15 54.29 2.7
-18 -2 15 52.19 2.8
-18 -2 15 51.89 2.8
-18 -2 15 48.2 2.8
-18 -2 15 56.39 2.6
-20 -2 17 4 0.7
-20 2 17 4.4 0.7
-20 -2 17 3.2 0.7
13 3 -16 2 0.8
11 3 -14 2.6 1
9 3 -12 4.7 1.1
7 3 -10 7 3.3
7 3 -10 5.2 1.1
5 3 -8 225.08 13.4
5 -3 -8 247.68 12.5
3 3 -6 273.77 13.4
3 -3 -6 315.87 12.3
1 3 -4 452.95 16.3
1 -3 -4 486.95 13.9
-1 -3 -2 215.18 7.3
-1 3 -2 207.98 9.9
-3 3 0 183.48 11.2
-5 -3 2 167.18 5.7
-5 3 2 165.78 9.8
-5 -3 2 168.68 7.2
-7 -3 4 194.48 7.4
-7 -3 4 194.08 8.3
-9 -3 6 2.4 1.2
-9 -3 6 1.7 1.1
-11 -3 8 97.29 6.7
-11 -3 8 105.79 7.2
-11 -3 8 99.59 7.2
-13 3 10 1.3 0.7
-13 -3 10 3.4 0.8
-13 -3 10 4 1.7
-15 -3 12 23.5 2
-15 -3 12 24.4 1.9
-17 -3 14 27.9 2
-17 -3 14 26.1 2
-17 -3 14 27.7 2.1
-19 -3 16 49.7 2.4
-19 -3 16 50.69 2.4
-19 -3 16 51.49 2.5
-19 -3 16 52.39 2.1
-19 3 16 49.3 2
10 4 -13 4.3 0.9
8 4 -11 263.27 7.7
6 4 -9 0.4 0.5
6 4 -9 0.4 0.6
4 4 -7 4 0.9
4 4 -7 3.2 0.9
-4 4 1 99.39 8.9
-6 4 3 239.18 13.3
-8 4 5 25.7 4.2
-8 -4 5 23.4 3.6
-10 4 7 244.28 7.2
-10 -4 7 225.48 11.9
-12 4 9 152.98 5.6
-14 -4 11 8.3 1.1
-16 -4 13 35.5 2.1
-16 -4 13 32.5 2.1
-16 -4 13 34.8 2.3
-18 -4 15 22.3 1.6
-18 -4 15 21.7 1.4
-18 -4 15 23 1.5
-18 4 15 19.9 1.3
7 5 -10 56.39 2.9
5 5 -8 45 2.6
3 5 -6 38.4 2.4
1 5 -4 94.19 4
-1 5 -2 6.3 1.1
-1 5 -2 5.2 1.3
-3 5 0 70.99 3.4
-3 5 0 70.59 3.6
-3 5 0 72.59 3.7
-3 -5 0 58.69 5.6
-5 5 2 101.99 4.1
-5 5 2 96.89 4.3
-5 5 2 96.79 4.1
-7 5 4 268.07 15
-7 5 4 241.58 7.3
-7 -5 4 248.48 12.8
-7 5 4 268.17 7.3
-9 5 6 26.6 2.3
-11 5 8 34.4 2.5
-13 5 10 9.1 1.1
-15 -5 12 10.4 1
-15 -5 12 9.3 1.1
-17 -5 14 1.1 0.4
-17 -5 14 0.5 0.4
-17 5 14 1.2 0.4
8 6 -11 5.4 0.8
6 6 -9 16.6 1.4
4 6 -7 4.3 0.9
2 6 -5 44.5 2.6
0 6 -3 105.09 4.1
-2 6 -1 76.19 3.5
-4 6 1 273.57 7.3
-4 6 1 283.37 7.5
-4 6 1 264.67 7.3
-6 6 3 83.69 3.5
-6 6 3 77.99 3.6
-6 6 3 75.69 3.5
-8 6 5 39.6 2.5
-10 6 7 49.5 2.7
5 7 -8 17.2 1.1
3 7 -6 15.3 1.2
1 7 -4 1.2 0.5
-1 7 -2 -0.2 0.5
-7 7 4 0.6 0.4
8 0 -12 24.6 4.2
-8 0 4 1166.88 22.1
-10 0 6 678.23 15.9
-12 0 8 168.78 8.1
-12 0 8 173.78 7.8
-14 0 10 24.9 3.4
-16 0 12 318.57 8.1
-16 0 12 316.77 8
-16 0 12 325.87 8.4
-18 0 14 44.6 2.7
-18 0 14 49.99 2.8
-18 0 14 46.1 2.8
-20 0 16 19.1 1.6
-22 0 18 4.6 0.7
11 1 -15 25.4 2.1
9 -1 -13 145.69 10.4
9 1 -13 164.78 5.6
7 1 -11 3.2 1.8
5 1 -9 358.86 14.1
-7 1 3 1529.05 24.9
-7 -1 3 1461.15 28.2
-9 1 5 1141.79 21.2
-9 -1 5 1113.39 23.4
-11 1 7 72.49 4.5
-11 -1 7 67.49 4.8
-11 -1 7 64.89 4.7
-13 1 9 8.1 1.7
-13 -1 9 8.3 2
-13 -1 9 8.9 2.1
-15 1 11 85.39 6.3
-15 -1 11 76.29 6.4
-17 -1 13 96.89 4.3
-17 -1 13 95.19 4.1
-17 -1 13 97.29 4
-17 -1 13 98.69 4.3
-19 -1 15 31.3 2.2
-19 -1 15 28.5 2.1
-19 -1 15 29 2.1
-19 -1 15 28.2 2.2
-21 1 17 17.4 1.3
-21 1 17 15.4 1.3
-21 -1 17 15.8 1.3
-23 -1 19 9.9 0.7
12 2 -16 57.39 3
10 2 -14 54.09 3.1
8 -2 -12 609.74 13.3
8 2 -12 583.94 12.9
8 2 -12 606.54 24.4
6 2 -10 237.88 13.2
4 2 -8 750.62 22.4
2 2 -6 89.19 6
2 -2 -6 103.39 6.2
0 2 -4 168.08 7.1
0 -2 -4 165.48 6.6
-2 2 -2 379.36 10.1
-2 -2 -2 385.86 9
-4 2 0 235.88 6.4
-4 2 0 225.48 11
-6 -2 2 197.88 8
-8 -2 4 166.38 7.3
-10 2 6 374.36 9.8
-10 -2 6 341.07 11.6
-10 -2 6 336.17 11.9
-12 -2 8 45.9 4.4
-12 -2 8 49.6 4.6
-12 -2 8 51.59 4.6
-14 -2 10 50.89 5.2
-14 -2 10 56.59 5.3
-16 -2 12 39.3 2.7
-16 -2 12 40.4 2.6
-16 -2 12 41.8 5.1
-16 -2 12 39.9 2.5
-18 2 14 49.3 2.6
-18 -2 14 47.5 2.8
-18 -2 14 45.8 2.6
-18 -2 14 43.6 2.8
-20 -2 16 13.1 1.3
-20 2 16 14.7 1.2
-20 -2 16 14.6 1.4
-20 -2 16 13.8 1.4
-20 -2 16 12.7 1.3
-22 -2 18 20.9 1.2
-22 -2 18 21.5 1.2
11 3 -15 27 2.1
9 3 -13 38.5 2.6
7 3 -11 16.6 1.8
5 3 -9 259.37 15
5 3 -9 249.38 7
3 -3 -7 14.1 2.8
3 3 -7 12.7 3
1 3 -5 119.09 8
1 -3 -5 146.19 7.5
-1 3 -3 535.85 17.1
-1 -3 -3 593.84 14.3
-5 3 1 31.3 4.6
-5 -3 1 26.8 3
-7 -3 3 277.47 8.8
-7 -3 3 271.37 10.1
-9 -3 5 214.28 8.7
-9 -3 5 199.48 9.1
-11 -3 7 8.7 2
-11 -3 7 7.2 2
-13 -3 9 175.68 9.8
-13 3 9 206.48 6.4
-13 -3 9 187.38 10.3
-13 -3 9 178.68 10.2
-15 3 11 61.29 3.4
-15 -3 11 60.79 3.2
-15 -3 11 58.19 3
-17 -3 13 51.39 2.8
-17 -3 13 46.4 2.7
-17 -3 13 48.1 2.6
-19 -3 15 55.79 2.6
-19 -3 15 53.09 2.7
-19 -3 15 55.29 2.8
-19 3 15 49.99 2.2
-21 -3 17 1.7 0.5
-21 -3 17 2.2 0.5
-21 -3 17 2.2 0.5
10 4 -14 7.9 1.2
8 4 -12 6 1.2
6 4 -10 78.59 3.5
6 4 -10 67.19 3.6
4 4 -8 148.49 5
4 4 -8 145.59 5.3
2 4 -6 20.5 1.8
-6 4 2 124.89 9.9
-8 4 4 533.45 20.6
-10 4 6 139.89 9.9
-10 4 6 134.49 5.1
-10 -4 6 140.59 8.2
-10 -4 6 121.79 8.5
-12 4 8 161.18 5.8
-12 -4 8 158.58 10.2
-14 4 10 8.6 1.4
-16 -4 12 9.3 1.2
-18 -4 14 8.6 0.9
-18 -4 14 8.7 1
-18 -4 14 9.5 1.2
-20 -4 16 15.5 1.1
-20 -4 16 13.1 0.9
-20 -4 16 14.7 0.9
-20 -4 16 13.8 1
7 5 -11 2.5 0.7
5 5 -9 9.1 1.2
3 5 -7 89.29 3.8
1 5 -5 14.7 1.5
-1 5 -3 69.69 3.4
-3 5 -1 107.29 4.3
-3 5 -1 105.59 4.4
-3 5 -1 117.59 4.8
-5 5 1 94.49 4
-5 5 1 99.19 4.4
-5 5 1 90.19 4
-7 5 3 122.19 10.2
-7 5 3 121.69 4.9
-7 -5 3 119.29 8.6
-7 5 3 120.59 4.7
-9 5 5 144.09 5.4
-11 5 7 72.69 3.7
-13 5 9 61.59 3.3
-17 -5 13 12.7 0.9
-17 -5 13 13.7 1.2
6 6 -10 3.6 0.7
4 6 -8 17.7 1.5
2 6 -6 6.8 1.1
0 6 -4 26.1 2
-2 6 -2 49.9 2.8
-4 6 0 7.4 1.1
-4 6 0 8.1 1.2
-6 6 2 21.5 1.9
-6 6 2 20 1.8
-8 6 4 5.3 1.1
-10 6 6 15.2 1.6
-12 6 8 35.7 2.2
-16 6 12 13.8 0.8
3 7 -7 23.2 1.4
1 7 -5 4.5 0.7
-1 7 -3 3.7 0.8
-3 7 -1 7.6 1
-7 7 3 44.5 2
8 0 -13 3.2 1.9
6 0 -11 -0.2 1.3
-8 0 3 1.4 0.9
-10 0 5 0.1 0.7
-12 0 7 0.1 0.8
-14 0 9 0.5 0.7
-16 0 11 1.2 0.9
-18 0 13 -0.6 0.6
-18 0 13 0.4 0.6
-18 0 13 0.2 0.6
-18 0 13 1.3 0.8
-20 0 15 1.2 0.7
-22 0 17 -0.3 0.4
7 -1 -12 599.94 21.3
7 1 -12 611.14 22.8
5 1 -10 242.78 12.2
-5 1 0 7162.88 112.39
-7 1 2 412.46 9
-9 -1 4 273.17 9.4
-11 1 6 256.77 8.2
-11 -1 6 244.58 9.4
-13 1 8 13.2 2.1
-13 -1 8 13.6 2.5
-13 -1 8 15 2.5
-13 -1 8 12.7 1.9
-15 1 10 0.8 0.9
-15 -1 10 2 1.2
-17 -1 12 352.76 15
-17 -1 12 340.97 9
-17 1 12 331.87 8.3
-17 -1 12 340.27 8.7
-17 1 12 338.97 8.4
-17 -1 12 334.07 8.5
-17 -1 12 336.97 8.8
-19 -1 14 42.3 2.6
-19 -1 14 42.8 2.6
-19 -1 14 43.1 2.7
-21 -1 16 34.6 2
-21 1 16 34.5 2.1
-21 -1 16 33.2 2.1
-21 -1 16 31.3 2.1
-23 1 18 48.4 1.8
-23 -1 18 46.5 1.8
10 2 -15 3.3 0.8
8 2 -13 92.39 4.1
6 2 -11 99.09 8.9
6 2 -11 107.59 4.3
4 2 -9 21 3.7
2 2 -7 60.89 5.4
0 2 -5 95.29 5.7
-2 2 -3 70.29 4.1
-4 2 -1 778.42 15.2
-6 2 1 128.89 7.5
-8 -2 3 545.95 15.4
-10 -2 5 107.99 6.3
-12 -2 7 186.38 8.9
-12 -2 7 190.18 9.1
-14 -2 9 37.2 4.3
-14 -2 9 33.3 4.1
-14 -2 9 35.7 4
-16 -2 11 5.3 2
-16 -2 11 3.9 1
-16 -2 11 3 0.9
-16 -2 11 5.8 1.1
-18 -2 13 20.1 1.9
-18 2 13 21.1 1.7
-18 -2 13 19 1.8
-18 -2 13 19.2 1.8
-18 -2 13 18.8 1.9
-20 2 15 15.5 1.3
-20 -2 15 15.4 1.5
-20 -2 15 16.7 1.6
-20 -2 15 13.6 1.5
-22 -2 17 2.6 0.6
-22 -2 17 3.3 0.7
9 3 -14 22.4 1.9
7 3 -12 4 1
5 3 -10 147.79 11.8
5 3 -10 150.68 5.3
3 3 -8 150.88 10.6
1 3 -6 278.77 13
-1 3 -4 102.39 6.9
-1 -3 -4 116.09 5.9
-5 3 0 213.38 12.3
-7 3 2 153.58 9.6
-7 -3 2 145.29 7.5
-9 -3 4 61.79 4.4
-9 -3 4 60.79 4.9
-11 -3 6 133.89 7.3
-11 -3 6 128.19 7.7
-13 -3 8 4.4 1.6
-13 -3 8 5.7 2
-13 -3 8 3.1 1.5
-15 3 10 121.69 4.9
-15 -3 10 112.79 4.6
-15 -3 10 115.39 8.4
-17 -3 12 26.5 2.1
-17 -3 12 26.2 2.1
-17 -3 12 25.7 1.9
-19 -3 14 19.3 1.7
-19 -3 14 19.6 1.6
-19 -3 14 18.2 1.7
-21 -3 16 1.2 0.5
-21 -3 16 0.7 0.5
-21 -3 16 0.8 0.6
8 4 -13 56.59 3
6 4 -11 86.59 4
4 4 -9 7.7 1.1
4 4 -9 5.5 1.2
2 4 -7 32.3 2.2
2 4 -7 29.6 2.2
-6 4 1 102.29 9.1
-8 4 3 584.34 22
-10 4 5 77.89 7.3
-10 -4 5 84.09 6.3
-12 4 7 413.46 17.7
-12 4 7 399.26 10
-12 -4 7 394.36 15.2
-12 -4 7 380.06 16.1
-14 4 9 90.09 4.2
-16 4 11 23.1 2.1
-18 -4 13 38.6 2.2
-18 -4 13 33.8 2.2
-20 -4 15 -0.6 0.5
-20 -4 15 0.5 0.4
-20 -4 15 0.9 0.5
-20 -4 15 -0.1 0.4
-20 4 15 0.2 0.3
5 5 -10 31.9 2.1
3 5 -8 34.7 2.3
1 5 -6 19.6 1.8
-1 5 -4 10.5 1.3
-3 5 -2 47.6 2.8
-3 5 -2 44.2 2.9
-5 5 0 97.09 4.1
-5 5 0 99.09 4.4
-7 5 2 190.28 6.4
-7 5 2 191.38 6.1
-9 5 4 41.4 2.9
-11 5 6 2 1
-13 5 8 57.39 3.3
-15 5 10 30.3 2.3
-15 -5 10 28.6 1.8
-17 -5 12 1 0.5
-17 -5 12 1.1 0.5
-19 -5 14 0.2 0.3
-19 -5 14 0.5 0.3
-19 5 14 0 0.3
4 6 -9 9.2 1
2 6 -7 48.9 2.5
0 6 -5 72.59 3.3
-2 6 -3 127.89 4.6
-4 6 -1 34.4 2.3
-4 6 -1 28.5 2.1
-6 6 1 71.69 3.5
-6 6 1 72.99 3.5
-8 6 3 11.3 1.4
-10 6 5 31.6 2.3
-12 6 7 51.69 2.8
-16 -6 11 50.79 1.8
1 7 -6 14.3 1.1
-1 7 -4 16.8 1.3
-3 7 -2 9.7 1.1
-7 7 2 1.1 0.4
-9 7 4 2.9 0.6
6 0 -12 312.27 15
-10 0 4 1551.84 29.5
-12 0 6 269.77 9.5
-14 0 8 233.18 10
-14 0 8 242.38 9.8
-16 0 10 263.27 11.7
-18 0 12 230.88 11.8
-18 0 12 226.78 6.9
-18 0 12 219.18 6.5
-18 0 12 222.88 6.5
-18 0 12 226.28 6.7
-20 0 14 35 2.3
-20 0 14 33.4 2.3
-20 0 14 37.3 2.4
-20 0 14 37.5 2.5
-22 0 16 39.2 2.1
-24 0 18 10.8 0.8
-24 0 18 12.2 0.9
5 1 -11 20.2 3.8
-9 -1 3 299.77 10.6
-11 1 5 1527.85 27.5
-11 -1 5 1444.06 30.3
-13 1 7 99.09 5.3
-13 -1 7 91.19 6
-15 1 9 10.9 2.1
-15 -1 9 10.6 2.3
-15 -1 9 10.6 2.3
-17 1 11 24.9 3.6
-17 -1 11 23.2 3.6
-17 -1 11 25.4 2.1
-17 1 11 24.1 1.8
-17 1 11 25.7 1.9
-17 -1 11 25.2 2
-17 -1 11 24.8 2
-19 -1 13 27.6 2.3
-19 -1 13 28.1 2.2
-19 -1 13 27.2 2.1
-19 -1 13 29.2 2.3
-21 -1 15 38 2.3
-21 -1 15 32.6 2.2
-21 -1 15 32.9 2.2
-21 -1 15 35.3 2.3
-21 -1 15 34 2.3
-23 1 17 3.7 0.7
-23 -1 17 2.1 0.6
10 2 -16 5 0.9
8 2 -14 64.69 3.3
6 2 -12 45.2 2.8
4 2 -10 256.27 13.7
2 2 -8 222.98 11.2
0 2 -6 22.3 3
-2 2 -4 244.58 8.8
-4 2 -2 112.49 4.7
-6 2 0 636.84 19.4
-10 -2 4 1046.2 24.6
-12 -2 6 174.88 8.7
-14 -2 8 19.4 3.1
-14 -2 8 20.9 3.1
-16 -2 10 89.19 7.1
-16 -2 10 94.99 4.1
-16 -2 10 101.39 7.6
-16 -2 10 102.49 4.1
-18 -2 12 27.2 2.3
-18 -2 12 26.5 2.2
-18 -2 12 25.9 2.1
-20 -2 14 64.19 3.2
-20 -2 14 63.09 3.1
-20 -2 14 65.19 3.2
-20 -2 14 61.89 3.2
-22 -2 16 82.79 3.1
-22 -2 16 83.79 3.2
-22 -2 16 81.79 3.2
-22 -2 16 77.59 3.2
-24 -2 18 17.9 1
9 3 -15 2.1 0.8
7 3 -13 77.49 3.7
5 3 -11 19.9 1.9
3 3 -9 112.39 4.4
3 3 -9 115.89 9.8
1 3 -7 60.79 6.3
-1 3 -5 143.59 8.5
-7 3 1 113.79 8.3
-9 3 3 387.06 15.2
-9 -3 3 351.06 13.1
-11 -3 5 126.19 6.9
-11 -3 5 122.59 7.6
-13 -3 7 221.18 10.4
-13 -3 7 215.28 10.8
-15 -3 9 168.08 9.7
-15 3 9 182.18 6
-15 -3 9 167.08 9.9
-15 -3 9 157.08 9.8
-17 3 11 83.79 3.9
-17 -3 11 76.99 3.8
-17 -3 11 81.39 3.6
-19 -3 13 5.7 1.1
-19 -3 13 6.8 1.1
-19 -3 13 6.7 1.1
-21 -3 15 4.7 0.8
-21 -3 15 3.9 0.8
-21 -3 15 4.9 1
-23 -3 17 8.5 0.7
-23 -3 17 11.3 0.9
-23 -3 17 12.3 0.9
4 4 -10 32.3 2.4
2 4 -8 118.59 4.4
2 4 -8 110.09 4.6
0 4 -6 111.69 4.2
-8 4 2 584.64 22.2
-8 -4 2 603.84 18.3
-10 4 4 288.47 14.6
-10 -4 4 308.17 12.6
-12 4 6 75.89 7.2
-12 4 6 80.09 3.9
-12 -4 6 77.29 6.4
-14 4 8 164.58 5.9
-16 4 10 7.5 1.4
-16 -4 10 6.1 1.2
-16 -4 10 6.7 1
-18 -4 12 76.69 3.3
-18 -4 12 70.89 3.2
-18 -4 12 75.39 3
-20 -4 14 40.9 2
-20 -4 14 38.3 2.1
-20 -4 14 39.7 2.2
-22 -4 16 7.2 0.6
-22 -4 16 7 0.6
-22 -4 16 6.9 0.6
3 5 -9 86.89 3.6
1 5 -7 24 1.9
-1 5 -5 70.49 3.4
-3 5 -3 48.5 2.8
-3 5 -3 54.69 3.3
-5 5 -1 6.7 1.2
-5 5 -1 8.5 1.5
-7 5 1 121.89 5.1
-7 5 1 120.79 4.7
-9 5 3 53.49 3.2
-9 5 3 55.29 3.1
-11 5 5 44.7 3
-13 5 7 9.3 1.4
-15 5 9 84.99 3.9
-17 -5 11 10.6 1
-19 -5 13 4.9 0.6
-19 -5 13 5.9 0.8
4 6 -10 7.4 0.8
2 6 -8 7.7 1
0 6 -6 1.3 0.7
-2 6 -4 72.59 3.3
-4 6 -2 41.6 2.6
-4 6 -2 38.8 2.5
-6 6 0 21.6 1.9
-6 6 0 17.9 1.7
-8 6 2 4.5 1
-10 6 4 12.9 1.5
-12 6 6 39.9 2.5
-14 6 8 5.5 1
-7 7 1 15.1 1.1
-9 7 3 6.7 0.8
-11 7 5 0.5 0.4
-12 0 5 -0.9 1.1
-14 0 7 -1 1.1
-16 0 9 0.9 0.7
-16 0 9 0.5 1.1
-18 0 11 0.7 1.4
-18 0 11 0.9 0.7
-18 0 11 -1.1 0.7
-18 0 11 -0.6 0.5
-18 0 11 -0.8 0.8
-20 0 13 0.1 0.6
-20 0 13 0.5 0.7
-20 0 13 -0.5 0.6
-22 0 15 -0.4 0.6
5 1 -12 131.29 10
3 1 -10 39 4.8
-11 1 4 346.67 9.5
-11 -1 4 323.07 11.7
-13 1 6 346.27 10.4
-13 -1 6 331.47 12.1
-15 1 8 293.07 11.3
-15 -1 8 276.87 11.7
-17 1 10 121.79 7.7
-17 -1 10 113.59 8
-17 -1 10 112.59 7.9
-19 -1 12 25.6 4.1
-19 -1 12 27.3 2.3
-19 1 12 22.2 1.8
-19 -1 12 24.7 2
-19 1 12 25.5 1.9
-19 -1 12 25.3 2.1
-19 -1 12 25.1 2.1
-21 -1 14 82.69 3.7
-21 -1 14 81.19 3.6
-21 -1 14 85.39 3.8
-23 1 16 64.89 2.6
-23 -1 16 60.79 2.7
-25 -1 18 21.7 1.2
6 2 -13 22.9 2
4 2 -11 97.49 8.8
4 2 -11 103.09 4.2
2 2 -9 60.59 6.1
0 2 -7 162.48 8.9
-2 2 -5 559.14 15.8
-4 2 -3 271.47 8.7
-6 2 -1 341.97 8.2
-8 2 1 604.54 17.2
-10 -2 3 69.49 5.6
-12 -2 5 44.6 4.4
-14 -2 7 64.39 5.5
-14 -2 7 72.29 5.9
-16 -2 9 6.8 1.9
-16 -2 9 7.8 2.2
-16 -2 9 7.7 2.1
-18 -2 11 18.3 3.4
-18 -2 11 19.4 2
-18 -2 11 19.9 1.9
-20 -2 13 7.7 1.2
-20 -2 13 7.9 1.2
-20 -2 13 9.5 1.3
-20 -2 13 7.6 1.2
-22 -2 15 41.5 2.4
-22 -2 15 42.1 2.3
-22 -2 15 40.7 2.4
-22 -2 15 40.2 2.4
-24 -2 17 12.9 1
7 3 -14 4.8 0.9
5 3 -12 15.2 1.6
3 3 -10 74.39 3.6
3 3 -10 81.49 8.7
1 3 -8 262.57 14
-1 3 -6 19.2 3.4
-9 3 2 47.8 5.1
-9 -3 2 46.1 4.7
-11 3 4 251.77 11.8
-11 -3 4 228.78 10.8
-13 -3 6 339.17 13
-13 -3 6 340.97 13.8
-15 -3 8 34.7 4.3
-15 3 8 36.9 2.5
-15 -3 8 32.4 4.2
-17 3 10 152.58 5.5
-17 -3 10 161.38 5.4
-19 -3 12 35.5 2.4
-19 -3 12 37.4 2.4
-21 -3 14 58.39 2.9
-21 -3 14 56.79 2.8
-21 -3 14 57.59 2.7
-21 -3 14 54.19 2.8
-23 -3 16 26.1 1.5
-23 -3 16 26.7 1.5
-23 -3 16 26.6 1.5
-23 -3 16 27.3 1.6
0 4 -7 114.39 4.3
-2 4 -5 69.39 3.2
-8 -4 1 230.58 11.1
-10 4 3 62.39 6.6
-10 -4 3 78.89 6.4
-12 4 5 3.1 1.3
-12 4 5 0.5 0.9
-12 -4 5 1 1.3
-14 4 7 43.3 2.8
-14 -4 7 43.8 5.1
-16 4 9 24.9 2.2
-18 4 11 13.3 1.5
-18 -4 11 15.9 1.6
-18 -4 11 17.1 1.5
-20 -4 13 20.9 1.5
-20 -4 13 19 1.5
-20 -4 13 17.9 1.3
-22 -4 15 0 0.4
-22 -4 15 0.5 0.3
-22 -4 15 0 0.3
-22 -4 15 0.9 0.5
3 5 -10 2.5 0.7
1 5 -8 2.8 0.8
-1 5 -6 11.6 1.3
-1 5 -6 13.8 1.7
-3 5 -4 67.49 3.3
-3 5 -4 69.89 3.8
-5 5 -2 51.49 3.2
-5 5 -2 46.1 2.8
-7 5 0 61.89 3.6
-7 5 0 64.49 3.4
-9 5 2 403.66 10.5
-9 5 2 418.86 10.2
-11 5 4 127.99 5.2
-13 5 6 136.29 5.3
-15 5 8 6.3 1.1
-17 5 10 12.7 1.4
-19 -5 12 3.4 0.6
-19 -5 12 3.6 0.6
-21 -5 14 1.3 0.3
2 6 -9 8.5 0.9
0 6 -7 31.3 2
-2 6 -5 38.7 2.3
-4 6 -3 40 2.5
-4 6 -3 33.9 2.3
-6 6 -1 66.89 3.4
-6 6 -1 69.69 3.4
-8 6 1 44.5 2.7
-10 6 3 38.9 2.5
-12 6 5 113.59 4.3
-14 6 7 39.8 2.3
-7 7 0 2 0.5
-9 7 2 2.7 0.6
-11 7 4 3.4 0.6
-12 0 4 52.99 4.2
-14 0 6 250.47 10
-16 0 8 715.73 19.8
-18 0 10 157.68 9.3
-20 0 12 402.06 16.6
-20 0 12 379.96 9.9
-20 0 12 394.56 9.5
-20 0 12 388.56 9.5
-20 0 12 419.56 9.7
-22 0 14 0.9 0.6
-22 0 14 1.1 0.5
-22 0 14 2.1 0.7
-22 0 14 0.7 0.6
3 1 -11 9.1 2.9
-9 1 1 1673.43 29.1
-11 1 3 529.55 13.3
-13 1 5 185.48 7.2
-13 -1 5 175.98 8.7
-15 1 7 342.57 11.2
-15 -1 7 315.77 12.6
-17 1 9 145.89 8.4
-17 -1 9 140.19 8.7
-17 -1 9 135.69 8.5
-19 1 11 131.09 8.5
-19 -1 11 130.19 9.1
-19 -1 11 134.19 5.2
-19 1 11 134.89 4.7
-19 -1 11 139.89 5.1
-21 -1 13 107.09 4.5
-21 -1 13 108.79 4.3
-21 -1 13 110.09 4.4
-21 -1 13 110.99 4.4
-23 -1 15 4.6 0.9
-23 -1 15 5 0.9
-23 -1 15 3.6 0.7
-23 -1 15 4.6 0.9
-25 -1 17 14.4 1
2 2 -10 37.2 5.3
0 2 -8 199.28 10.7
-2 2 -6 101.19 6.6
-6 2 -2 370.86 9.8
-10 2 2 75.99 5.2
-12 -2 4 156.68 8.8
-14 -2 6 7.1 2.1
-16 -2 8 94.19 7.1
-16 -2 8 107.69 7.6
-18 -2 10 64.09 6.2
-18 -2 10 56.79 3.2
-18 -2 10 58.49 6
-18 -2 10 61.09 3.2
-20 -2 12 41.7 2.8
-20 -2 12 38.8 2.5
-20 -2 12 43 2.7
-22 -2 14 141.99 5
-22 -2 14 144.49 4.9
-22 -2 14 149.99 4.9
-22 -2 14 147.79 5
-24 -2 16 65.79 2.4
-24 -2 16 65.99 2.6
-24 -2 16 64.99 2.7
-24 -2 16 64.39 2.6
5 3 -13 67.59 3.3
3 3 -11 231.78 6.9
1 3 -9 83.69 3.8
1 3 -9 77.89 7.9
-1 3 -7 155.18 10.1
-9 3 1 86.59 6.6
-11 3 3 184.68 9.7
-11 -3 3 170.48 9.7
-13 -3 5 33 3.9
-13 -3 5 31.2 4.2
-15 -3 7 44.5 4.8
-15 -3 7 42.9 5
-17 -3 9 13.5 3
-17 3 9 17.5 1.8
-17 -3 9 10.7 2.4
-17 -3 9 16.4 1.7
-17 -3 9 13.4 3
-19 3 11 12.6 1.5
-19 -3 11 11.9 1.5
-19 -3 11 15.9 1.6
-21 -3 13 51.39 2.8
-21 -3 13 49.7 2.8
-21 -3 13 52.89 2.7
-23 -3 15 16.5 1.3
-23 -3 15 15.3 1.3
-23 -3 15 16.6 1.3
0 4 -8 73.39 3.4
-2 4 -6 65.09 3.2
-4 4 -4 0.8 0.6
-8 -4 0 41.8 5
-10 -4 2 344.57 14.4
-10 4 2 327.37 15.2
-12 4 4 300.97 14.3
-12 4 4 302.77 8.7
-12 -4 4 310.27 13.7
-14 4 6 157.48 5.8
-14 -4 6 146.19 9.4
-16 4 8 180.18 6.2
-18 4 10 55.49 3.1
-20 -4 12 10.5 1.2
-20 -4 12 10.5 1.2
-20 -4 12 10.2 1.1
-22 -4 14 1.1 0.4
-22 -4 14 0.8 0.5
-22 -4 14 0.4 0.5
-22 4 14 0.8 0.4
1 5 -9 56.99 2.8
-1 5 -7 14.9 1.5
-3 5 -5 122.79 5.1
-3 5 -5 123.99 4.6
-5 5 -3 195.08 6.7
-5 5 -3 188.98 6
-7 5 -1 197.48 6.8
-7 5 -1 193.78 6.2
-9 5 1 342.97 9.5
-9 5 1 346.37 9.1
-11 5 3 209.68 7
-13 5 5 83.79 4.1
-15 5 7 57.99 3.3
-17 5 9 73.99 3.4
-19 -5 11 10.2 1
-21 -5 13 5.4 0.5
-21 -5 13 7.3 0.8
-21 5 13 6.4 0.6
0 6 -8 21.7 1.5
-2 6 -6 35.4 2.1
-4 6 -4 75.69 3.3
-4 6 -4 65.79 3.1
-6 6 -2 0.8 0.6
-6 6 -2 0.8 0.7
-8 6 0 16.3 1.7
-10 6 2 2.4 0.9
-12 6 4 17.8 1.7
-14 6 6 10.5 1.3
-16 6 8 28.7 1.8
-7 7 -1 78.79 2.5
-9 7 1 70.99 2.5
-11 7 3 32.9 1.6
-13 7 5 14.2 1
-14 0 5 0 1
-16 0 7 0.3 0.9
-18 0 9 0.9 1.1
-18 0 9 -1.8 1.6
-20 0 11 1 1
-20 0 11 0.8 0.8
-20 0 11 -0.2 0.6
-20 0 11 0.1 0.5
-22 0 13 -0.7 0.7
-22 0 13 0.1 0.5
-26 0 17 -0.2 0.4
-13 1 4 587.14 14.7
-13 -1 4 534.45 17.4
-15 1 6 1039.8 22.4
-15 -1 6 910.31 24.5
-17 1 8 21.2 2.9
-17 -1 8 19.6 3.2
-19 1 10 55.09 5.5
-19 -1 10 57.89 5.9
-19 -1 10 68.99 3.5
-19 -1 10 64.89 6.1
-19 1 10 67.09 3.1
-19 -1 10 66.79 3.4
-21 -1 12 121.59 4.9
-21 -1 12 123.19 4.7
-21 1 12 124.69 4.5
-21 -1 12 117.59 4.6
-21 -1 12 123.29 4.7
-21 -1 12 122.69 4.8
-23 -1 14 4.7 1
-23 -1 14 4.3 0.9
-23 -1 14 3.8 0.9
-25 -1 16 36 1.9
2 2 -11 84.49 8.5
0 2 -9 249.97 13.1
-2 2 -7 67.29 5.9
-10 2 1 61.69 4.3
-12 2 3 859.01 20.1
-12 -2 3 766.02 23.3
-14 -2 5 398.96 15.4
-16 -2 7 97.59 7.3
-18 -2 9 38.4 4.8
-18 -2 9 40.9 5
-18 -2 9 45.9 2.8
-20 -2 11 65.39 3.5
-20 -2 11 71.49 3.5
-22 -2 13 8.2 1.4
-22 -2 13 6.6 1.1
-22 -2 13 6.9 1.1
-22 -2 13 9.2 1.3
-24 -2 15 30.6 1.9
-24 -2 15 31.4 1.9
-24 -2 15 28.9 1.9
-24 -2 15 31.4 1.9
-26 -2 17 12.1 0.8
-11 3 2 27.1 3.6
-11 -3 2 25.3 4.1
-13 3 4 271.07 11.8
-13 -3 4 235.88 12
-15 -3 6 152.48 9
-15 -3 6 140.59 9.3
-17 -3 8 49.9 5.4
-17 3 8 58.09 3.2
-17 -3 8 58.29 6.1
-19 3 10 127.59 4.8
-19 -3 10 122.29 4.8
-21 -3 12 21.7 1.9
-21 -3 12 21 1.8
-21 -3 12 26.1 2
-23 -3 14 11.6 1.2
-23 -3 14 12.9 1.3
-23 -3 14 12.9 1.2
-23 -3 14 10.8 1.2
-25 -3 16 22.3 1.3
-25 -3 16 23.5 1.2
-2 4 -7 93.89 3.9
-4 4 -5 26.4 2
-6 4 -3 187.28 5.8
-8 4 -1 121.79 4.6
-10 4 1 185.48 6.6
-10 -4 1 191.88 11.2
-10 4 1 177.88 5.8
-12 4 3 288.97 8.6
-12 -4 3 288.47 13.6
-14 4 5 114.99 4.9
-14 -4 5 111.89 8.3
-16 4 7 97.69 4.4
-18 4 9 19.3 1.9
-20 4 11 41.2 2.5
-20 -4 11 41.8 2.5
-20 -4 11 39.6 2.2
-22 -4 13 8.2 1
-22 -4 13 9.8 1.1
-22 -4 13 8.2 0.9
-22 -4 13 8.7 1.1
-24 -4 15 1.6 0.4
-24 -4 15 1.1 0.3
-24 -4 15 1.3 0.4
-1 5 -8 101.39 3.9
-3 5 -6 41.8 2.5
-5 5 -4 138.19 5.6
-5 5 -4 139.89 5
-7 5 -2 204.38 6.9
-7 5 -2 197.68 6.3
-9 5 0 115.29 5
-9 5 0 109.79 4.6
-11 5 2 123.49 5.2
-13 5 4 3.6 1.1
-15 5 6 10.9 1.5
-17 5 8 12.9 1.5
-19 5 10 7.3 1.1
-19 -5 10 7.3 1
-21 -5 12 14.1 1
-21 -5 12 15.1 1.2
-2 6 -7 86.09 3.2
-4 6 -5 139.59 4.5
-4 6 -5 130.39 4.4
-6 6 -3 54.59 2.9
-6 6 -3 49.1 2.7
-8 6 -1 102.39 4.2
-10 6 1 59.49 3.1
-12 6 3 19.5 1.8
-14 6 5 102.29 3.9
-16 6 7 4.7 0.9
-9 7 0 1.2 0.5
-11 7 2 6.4 0.7
-13 7 4 1.1 0.4
-14 0 4 1876.71 38.2
-16 0 6 1726.53 36.2
-18 0 8 1432.66 32.8
-20 0 10 366.56 15.7
-20 0 10 385.66 9.6
-20 0 10 395.16 9.2
-20 0 10 381.56 15.3
-20 0 10 380.46 9.5
-22 0 12 87.69 4
-22 0 12 90.89 3.8
-22 0 12 87.19 3.8
-24 0 14 101.89 3.8
-24 0 14 97.09 3.8
1 1 -11 2.7 1.9
-13 1 3 115.59 6.2
-15 1 5 129.89 6.6
-15 -1 5 118.89 7.7
-17 1 7 21.5 2.9
-17 -1 7 16 3.1
-19 1 9 40.1 4.7
-19 -1 9 38.7 4.9
-19 1 9 43.4 2.6
-19 -1 9 38.9 2.6
-19 -1 9 39.6 4.8
-19 -1 9 43 2.7
-21 -1 11 12 1.6
-21 1 11 12.7 1.4
-21 -1 11 12.8 1.6
-23 -1 13 46.3 2.9
-23 -1 13 47.5 2.7
-23 -1 13 50.39 2.8
-23 -1 13 54.69 2.9
-25 -1 15 3.5 0.7
-25 -1 15 2.3 0.7
-25 -1 15 3 0.7
-25 -1 15 3.3 0.8
0 2 -10 44.1 5.8
-2 2 -8 47.6 5.4
-14 -2 4 79.39 6.8
-16 -2 6 20.2 3.4
-18 -2 8 40.9 4.9
-18 -2 8 51.19 5.7
-20 -2 10 97.39 4.3
-20 -2 10 107.19 4.4
-22 -2 12 23.4 2.1
-22 -2 12 27.2 2.1
-22 -2 12 26 2.1
-24 -2 14 43.4 2.5
-24 -2 14 46 2.5
-24 -2 14 48.8 2.5
-24 -2 14 48 2.5
-26 -2 16 14.9 1.1
-13 -3 3 98.79 7.9
-15 -3 5 34.7 4.7
-17 -3 7 276.97 13.2
-17 3 7 288.87 8.1
-17 -3 7 295.57 14.1
-19 3 9 143.59 5.2
-19 -3 9 133.39 5.1
-21 -3 11 33.2 2.5
-21 -3 11 37.9 2.5
-23 -3 13 37 2.3
-23 -3 13 36.5 2.2
-23 -3 13 38.9 2.3
-23 -3 13 35.3 2.2
-25 -3 15 32.9 1.6
-25 -3 15 34.5 1.7
-25 -3 15 33.4 1.7
-25 -3 15 33.8 1.7
-4 4 -6 33.8 2.3
-6 4 -4 4.7 0.9
-8 4 -2 8.5 1.3
-10 -4 0 14.2 3.4
-10 4 0 13.9 1.6
-12 4 2 38.7 2.9
-12 -4 2 38.6 5
-14 4 4 63.69 3.7
-14 -4 4 61.39 6.2
-16 4 6 44.9 3
-18 4 8 -0.8 1
-20 4 10 30.4 2.2
-20 -4 10 24.7 2
-20 -4 10 28.7 1.9
-22 -4 12 24 1.8
-22 -4 12 23 1.7
-22 -4 12 22.6 1.5
-24 -4 14 26.3 1.4
-24 -4 14 22.6 1.3
-24 -4 14 23.6 1.4
-1 5 -9 5.4 1.1
-3 5 -7 30.4 2.1
-5 5 -5 226.58 6.6
-7 5 -3 120.29 5.2
-7 5 -3 119.79 4.6
-9 5 -1 39.4 2.9
-9 5 -1 39.7 2.7
-11 5 1 49.2 3.2
-13 5 3 149.88 5.7
-15 5 5 77.59 3.9
-17 5 7 182.98 5.9
-19 5 9 67.49 3.1
-21 -5 11 16.8 1.1
-21 -5 11 16 1.2
-23 -5 13 19.4 1
-4 6 -6 10.1 1.1
-6 6 -4 27.6 2
-8 6 -2 2.6 0.9
-10 6 0 3.2 1
-12 6 2 13.6 1.5
-14 6 4 10.7 1.4
-16 6 6 8.2 1.2
-18 6 8 14.4 1.2
-18 -6 8 10.9 0.8
-20 -6 10 2.4 0.4
-9 7 -1 30.5 1.4
-11 7 1 4.2 0.6
-13 7 3 4.7 0.6
-16 0 5 1.4 1.1
-18 0 7 -0.3 1.3
-20 0 9 -0.3 0.7
-20 0 9 0.3 1.5
-20 0 9 0.3 0.8
-22 0 11 0.1 0.7
-22 0 11 -0.3 0.6
-22 0 11 0.4 0.6
-22 0 11 -0.5 0.9
-24 0 13 0.1 0.6
-24 0 13 0.6 0.6
-15 1 4 455.75 13.7
-15 -1 4 388.36 15.3
-17 -1 6 114.69 7.9
-19 -1 8 85.19 6.9
-21 1 10 186.88 10.8
-21 -1 10 215.78 12.1
-21 -1 10 199.78 6.6
-21 -1 10 216.58 11.7
-21 1 10 216.38 6.1
-21 -1 10 197.68 6.4
-23 -1 12 20.6 2
-23 -1 12 21.5 1.9
-23 1 12 23.9 1.8
-23 -1 12 20.6 1.8
-23 -1 12 23.2 1.9
-23 -1 12 20.3 1.9
-25 -1 14 10.9 1.2
-25 -1 14 10.3 1.2
-25 -1 14 11.4 1.2
-27 -1 16 16.2 1
-2 2 -9 87.49 8
-4 2 -7 20.6 3.3
-14 -2 3 22.3 3.9
-16 -2 5 34.3 4.6
-18 -2 7 22 3.8
-20 -2 9 24.5 4
-20 -2 9 28.3 2.1
-20 -2 9 25.7 4.1
-20 -2 9 25.9 2.2
-22 -2 11 152.28 5.6
-22 -2 11 157.28 5.5
-24 -2 13 0.8 0.7
-24 -2 13 1.5 0.7
-24 -2 13 2.1 0.8
-24 -2 13 1.1 0.6
-26 -2 15 0.4 0.5
-26 -2 15 0.6 0.5
-26 -2 15 1.4 0.5
-26 -2 15 1.1 0.4
-13 -3 2 170.28 11
-15 -3 4 380.06 16.4
-17 3 6 32.5 2.5
-17 -3 6 25.5 4.2
-19 3 8 158.98 5.5
-21 -3 10 44.9 2.8
-23 -3 12 39.2 2.5
-23 -3 12 42.1 2.5
-23 -3 12 41.8 2.4
-25 -3 14 14.9 1.3
-25 -3 14 14.7 1.3
-25 -3 14 13.4 1.1
-25 -3 14 12.5 1.2
-6 4 -5 171.58 5.6
-8 4 -3 287.17 7.8
-10 4 -1 174.28 5.8
-12 4 1 66.79 3.8
-12 -4 1 54.79 6.5
-14 4 3 51.99 3.4
-14 -4 3 58.49 6.3
-16 4 5 32.2 2.6
-18 4 7 11 1.5
-20 4 9 75.89 3.5
-20 -4 9 81.19 3.5
-22 -4 11 16.5 1.6
-22 -4 11 18.3 1.5
-22 -4 11 17.4 1.4
-24 -4 13 31.7 1.7
-24 -4 13 34.4 1.8
-24 -4 13 31.3 1.5
-24 -4 13 33 1.7
-5 5 -6 18.7 1.7
-7 5 -4 44.5 3.1
-7 5 -4 42.9 2.6
-9 5 -2 -0.6 0.7
-9 5 -2 0.1 0.7
-11 5 0 59.79 3.6
-13 5 2 47.1 3.1
-15 5 4 26.9 2.3
-17 5 6 30.3 2.3
-19 5 8 0.4 0.6
-21 5 10 5.1 0.8
-21 -5 10 4.8 0.8
-23 -5 12 18.2 1
-23 -5 12 16.2 0.9
-23 -5 12 19.5 1.1
-6 6 -5 2 0.7
-8 6 -3 3.3 0.9
-10 6 -1 2.4 0.8
-12 6 1 2.7 0.8
-14 6 3 89.69 3.7
-16 6 5 56.69 2.7
-18 6 7 66.59 2.7
-18 -6 7 68.79 2.4
-11 7 0 0.1 0.3
-13 7 2 1.3 0.4
-16 0 4 434.06 15.6
-18 0 6 1796.12 38.8
-20 0 8 208.08 6.4
-20 0 8 204.28 6.1
-20 0 8 204.68 10.7
-20 0 8 208.58 6.3
-22 0 10 203.98 11.7
-22 0 10 199.98 6.5
-22 0 10 213.78 6.1
-22 0 10 195.58 6.4
-24 0 12 26.1 2.1
-24 0 12 26.4 2
-24 0 12 25.2 2
-26 0 14 44 2.3
-15 1 3 62.79 5.2
-17 -1 5 132.09 8.7
-19 -1 7 51.79 5.4
-21 1 9 117.89 4.6
-21 -1 9 119.09 4.8
-21 -1 9 116.19 4.4
-21 -1 9 122.19 8.6
-21 -1 9 113.89 4.7
-23 -1 11 3.2 0.9
-23 1 11 3.9 0.8
-23 -1 11 3.5 1
-25 -1 13 90.19 3.9
-25 -1 13 96.99 3.8
-25 -1 13 92.09 3.7
-27 -1 15 15 1.2
-27 -1 15 15.2 1.2
-27 -1 15 15.2 1.1
-4 2 -8 204.68 12
-16 -2 4 239.78 12.8
-18 -2 6 28.4 4.4
-20 -2 8 171.98 5.6
-20 -2 8 178.08 11
-22 -2 10 38.1 2.7
-22 -2 10 36.8 2.3
-22 -2 10 36.7 2.6
-24 -2 12 118.69 4.6
-24 -2 12 120.29 4.4
-24 -2 12 123.09 4.5
-24 -2 12 120.89 4.5
-26 -2 14 52.79 2.5
-26 -2 14 54.19 2.5
-26 -2 14 57.99 2.5
-28 -2 16 11.1 0.7
-15 -3 3 190.18 11.8
-17 3 5 39.2 2.7
-17 -3 5 36.1 5
-19 -3 7 131.39 9.2
-19 3 7 142.59 5.2
-19 -3 7 133.29 4.9
-21 -3 9 138.39 5.2
-23 -3 11 59.39 3.1
-23 -3 11 63.49 3.1
-25 -3 13 14.4 1.4
-25 -3 13 13.6 1.3
-25 -3 13 13 1.3
-25 -3 13 14.1 1.3
-27 -3 15 3.5 0.5
-27 -3 15 3 0.5
-27 -3 15 2.1 0.4
-6 4 -6 58.19 3.1
-8 4 -4 11.8 1.5
-12 4 0 67.89 4
-12 -4 0 67.69 7.5
-14 4 2 317.37 9.3
-14 -4 2 330.97 16.1
-16 4 4 106.59 4.8
-18 4 6 236.18 7.3
-20 4 8 0.5 0.7
-20 -4 8 0.4 0.7
-22 4 10 16.8 1.5
-22 -4 10 15.6 1.6
-22 -4 10 18.7 1.5
-24 -4 12 2.3 0.7
-24 -4 12 3.4 0.7
-24 -4 12 3.6 0.6
-26 -4 14 0.4 0.2
-26 -4 14 0.3 0.3
-3 5 -9 4.2 1
-7 5 -5 52.29 3.3
-9 5 -3 1.2 0.8
-11 5 -1 23 2.2
-13 5 1 72.59 4
-15 5 3 76.49 3.9
-17 5 5 47.9 2.9
-19 5 7 87.29 3.7
-21 5 9 19.4 1.5
-21 -5 9 19.7 1.5
-23 -5 11 1.7 0.4
-23 -5 11 2.6 0.5
-6 6 -6 43.8 2.1
-8 6 -4 7.8 1.1
-10 6 -2 1.2 0.6
-12 6 0 0.4 0.6
-14 6 2 1.5 0.7
-16 6 4 3.6 0.8
-18 6 6 1.7 0.7
-20 6 8 12 0.9
-18 0 5 0.6 1
-20 0 7 -0.2 0.7
-20 0 7 -1.2 1.1
-22 0 9 0.3 0.9
-22 0 9 0.3 0.8
-24 0 11 0.6 0.8
-24 0 11 0.9 0.7
-26 0 13 0.3 0.5
-26 0 13 0 0.6
-17 -1 4 524.05 19
-19 -1 6 260.37 12.7
-21 1 8 243.98 6.8
-21 -1 8 220.28 6.6
-21 -1 8 217.68 11.9
-21 1 8 225.98 6.6
-21 -1 8 227.28 6.9
-23 -1 10 305.17 8.4
-23 -1 10 284.97 8
-25 -1 12 80.59 3.8
-25 -1 12 83.09 3.5
-25 1 12 89.09 3.4
-25 -1 12 76.19 3.5
-27 -1 14 5.3 0.8
-27 -1 14 4.3 0.8
-16 -2 3 52.79 6.2
-18 -2 5 204.68 11.9
-20 -2 7 65.49 3.3
-20 -2 7 72.09 7
-22 -2 9 16.1 1.6
-22 -2 9 17.2 1.8
-24 -2 11 38.9 2.6
-24 -2 11 34.6 2.4
-26 -2 13 10.7 1.3
-26 -2 13 12.5 1.3
-26 -2 13 10.6 1.2
-26 -2 13 12.4 1.2
-28 -2 15 7.5 0.7
-28 -2 15 6.2 0.7
-28 -2 15 4.9 0.6
-15 3 2 203.68 7
-15 -3 2 179.08 12
-17 3 4 275.97 8.1
-17 -3 4 252.17 13.8
-19 3 6 111.19 4.6
-21 -3 8 178.28 5.6
-23 -3 10 43.6 2.7
-23 -3 10 45.7 2.7
-25 -3 12 5.2 1
-25 -3 12 5.5 1
-25 -3 12 4.4 0.8
-25 -3 12 4.9 0.8
-27 -3 14 5.5 0.7
-27 -3 14 6 0.7
-27 -3 14 5.7 0.7
-14 4 1 125.79 5.5
-16 4 3 2.7 1
-18 4 5 38.4 2.7
-20 4 7 14.6 1.6
-20 -4 7 13.9 1.4
-22 4 9 19.9 1.6
-22 -4 9 19.5 1.7
-24 -4 11 47.2 2.4
-24 -4 11 47.1 2.2
-24 -4 11 46.8 2.1
-26 -4 13 -0.1 0.3
-26 -4 13 0.4 0.3
-26 -4 13 -0.3 0.3
-3 5 -10 12.5 1.2
-5 5 -8 19.1 1.9
-7 5 -6 28.8 2.4
-9 5 -4 133.99 5.4
-11 5 -2 52.29 3.3
-13 5 0 58.09 3.5
-15 5 2 2.4 1
-17 5 4 15.1 1.7
-19 5 6 11.8 1.4
-21 5 8 4.9 0.9
-23 -5 10 26.8 1.4
-6 6 -7 10.5 0.9
-8 6 -5 40.5 2.2
-10 6 -3 7.2 1.1
-12 6 -1 37.3 2.2
-14 6 1 19.5 1.6
-16 6 3 54.39 2.6
-18 6 5 17.1 1.3
-20 6 7 36.1 1.6
-20 -6 7 36.1 1.5
-18 0 4 307.67 13.6
-20 0 6 647.74 13.4
-20 0 6 650.03 20.8
-22 0 8 236.98 7
-22 0 8 221.68 6.6
-22 0 8 234.78 7
-24 0 10 89.09 4
-24 0 10 86.79 4
-26 0 12 166.78 5.1
-19 -1 5 15.1 3.1
-21 -1 7 130.19 4.9
-21 -1 7 129.49 9.1
-21 1 7 135.69 4.8
-23 -1 9 86.89 4.1
-23 -1 9 81.09 3.7
-23 -1 9 87.99 4
-25 -1 11 90.09 4.1
-25 -1 11 97.69 3.9
-25 -1 11 86.69 3.9
-27 -1 13 15.9 1.4
-27 -1 13 13.9 1.3
-18 -2 4 42.9 5.7
-20 -2 6 72.99 3.6
-20 -2 6 76.49 7.3
-22 -2 8 82.59 3.7
-24 -2 10 70.19 3.6
-24 -2 10 72.59 3.6
-26 -2 12 49.3 2.8
-26 -2 12 50.99 2.6
-26 -2 12 47.3 2.5
-26 -2 12 59.19 2.6
-26 -2 12 48.1 2.6
-28 -2 14 12 1
-28 -2 14 11.9 1
-17 3 3 269.07 8.2
-17 -3 3 228.58 13.6
-19 3 5 83.39 4
-21 -3 7 39.4 2.5
-23 -3 9 26.4 1.9
-23 -3 9 23.3 2
-25 -3 11 5 1
-25 -3 11 4.5 0.9
-27 -3 13 10.9 1.1
-27 -3 13 11.2 1
-27 -3 13 11.1 1
-27 -3 13 9.2 0.9
-14 4 0 80.89 4.4
-16 4 2 20.7 2.2
-18 4 4 106.29 4.7
-20 4 6 44.9 2.8
-20 -4 6 45 2.6
-22 4 8 91.99 3.7
-22 -4 8 88.29 3.7
-24 -4 10 21.3 1.7
-24 -4 10 19.8 1.5
-26 -4 12 34.3 1.7
-26 -4 12 34.9 1.6
-26 -4 12 31.8 1.4
-26 -4 12 33.6 1.5
-5 5 -9 17.7 1.6
-7 5 -7 80.79 3.9
-9 5 -5 34.8 2.6
-11 5 -3 5.8 1.2
-13 5 -1 1.3 0.9
-15 5 1 44.8 2.9
-17 5 3 25.8 2.1
-19 5 5 50.89 2.8
-19 -5 5 52.79 2.4
-21 5 7 25.6 1.8
-21 -5 7 27.4 1.6
-23 5 9 16.2 1.1
-23 -5 9 18.6 1.3
-23 -5 9 15.1 0.9
-8 6 -6 5 0.7
-10 6 -4 0.8 0.6
-12 6 -2 3.3 0.8
-14 6 0 6.1 1
-16 6 2 1.6 0.6
-18 6 4 5 0.8
-20 6 6 3.1 0.6
-18 0 3 -0.5 1.4
-20 0 5 -0.4 0.8
-20 0 5 -1.2 1.1
-22 0 7 2.1 0.9
-22 0 7 0.9 0.7
-22 0 7 0.3 0.8
-24 0 9 -0.1 0.8
-24 0 9 -0.1 0.7
-26 0 11 -0.8 0.7
-26 0 11 -0.9 0.7
-28 0 13 -0.8 0.5
-19 -1 4 36.2 5.1
-21 -1 6 43.8 2.7
-21 -1 6 38.5 5.1
-23 -1 8 243.58 7.3
-23 -1 8 232.38 6.9
-23 1 8 257.27 7
-23 -1 8 241.08 7.3
-25 -1 10 147.49 5.4
-25 -1 10 134.79 5.1
-27 -1 12 7.8 1.2
-27 -1 12 7.6 1
-27 -1 12 7.8 1.1
-29 -1 14 20.9 1.3
-18 -2 3 110.19 9.4
-20 -2 5 27.5 4.6
-22 -2 7 204.68 6.4
-24 -2 9 3.2 1
-24 -2 9 3.1 0.9
-24 -2 9 2.4 0.8
-26 -2 11 4.4 1
-26 -2 11 3.4 0.9
-28 -2 13 47.4 2.3
-28 -2 13 49.5 2.2
-28 -2 13 49.4 2.2
-17 3 2 175.38 6.5
-17 -3 2 160.98 11.7
-19 3 4 35.8 2.7
-21 3 6 30.1 2.3
-21 -3 6 21.6 1.9
-23 -3 8 3.4 0.9
-23 -3 8 2.8 0.9
-25 -3 10 1.3 0.8
-25 -3 10 1.9 0.8
-27 -3 12 28.3 1.8
-27 -3 12 27.9 1.6
-27 -3 12 27.9 1.6
-27 -3 12 28 1.5
-16 4 1 4.3 1.1
-18 4 3 8.1 1.4
-20 4 5 8.4 1.4
-22 4 7 110.39 4.1
-22 -4 7 106.89 3.8
-24 -4 9 115.69 4.1
-24 -4 9 122.39 4
-26 -4 11 19.7 1.4
-26 -4 11 21.4 1.3
-26 -4 11 18 1.2
-5 5 -10 15.2 1.1
-7 5 -8 0.1 0.6
-9 5 -6 15 1.7
-11 5 -4 2.4 0.8
-13 5 -2 4 1
-15 5 0 5.2 1.2
-17 5 2 5 1.1
-19 5 4 11.2 1.4
-21 5 6 25.2 1.8
-21 -5 6 24.3 1.6
-23 5 8 12.3 1
-23 -5 8 12.2 1.1
-23 -5 8 12 0.9
-23 -5 8 10.4 0.8
-25 -5 10 26.3 1.1
-10 6 -5 26.5 1.5
-12 6 -3 30.6 1.8
-14 6 -1 27.3 1.7
-16 6 1 24.6 1.6
-18 6 3 82.89 2.9
-20 6 5 24.2 1.3
-20 0 4 401.96 9.5
-20 0 4 402.36 16.7
-22 0 6 75.39 3.6
-22 0 6 81.09 3.8
-24 0 8 43.6 2.7
-24 0 8 43.8 2.8
-26 0 10 56.29 3
-26 0 10 54.79 2.8
-26 0 10 53.09 2.9
-28 0 12 5.6 0.8
-19 1 3 125.79 4.4
-19 -1 3 116.19 9.4
-21 -1 5 28.6 2.3
-21 -1 5 19.4 3.7
-23 -1 7 132.79 5
-23 1 7 150.18 5
-23 -1 7 141.19 5.3
-25 -1 9 34.3 2.5
-25 -1 9 33.6 2.3
-25 -1 9 35 2.5
-27 -1 11 86.39 3.8
-27 -1 11 92.09 3.4
-27 -1 11 83.19 3.5
-27 -1 11 81.09 3.6
-29 -1 13 17.6 1.1
-29 -1 13 17.7 1.3
-18 -2 2 10.9 3.3
-20 -2 4 86.79 8.3
-22 -2 6 15.3 1.6
-24 -2 8 97.29 4
-24 -2 8 96.79 4.2
-26 -2 10 27.7 2.2
-26 -2 10 26.8 2
-28 -2 12 75.99 3.2
-28 -2 12 83.59 3
-28 -2 12 80.29 3
-30 -2 14 0.5 0.3
-17 3 1 351.36 10.1
-19 3 3 97.99 4.6
-21 3 5 212.38 6.6
-23 -3 7 20.9 1.9
-25 -3 9 32.4 2.2
-25 -3 9 33.9 2
-25 -3 9 31.7 2.2
-27 -3 11 84.49 3.3
-27 -3 11 85.09 3.1
-27 -3 11 86.59 2.8
-27 -3 11 86.59 3.2
-29 -3 13 20.8 1.1
-29 -3 13 21.2 1.1
-16 4 0 110.59 5
-18 4 2 8 1.3
-20 4 4 53.69 3.1
-22 4 6 30.8 2.1
-22 -4 6 26.7 1.9
-24 -4 8 21.2 1.4
-24 -4 8 18.4 1.6
-26 -4 10 58.09 2.4
-26 -4 10 59.89 2.3
-26 -4 10 54.39 2.1
-7 5 -9 9.9 1.1
-9 5 -7 54.99 2.8
-11 5 -5 17.2 1.8
-13 5 -3 -0.1 0.7
-15 5 -1 35.7 2.5
-17 5 1 1.5 0.9
-19 5 3 26.6 2
-21 5 5 22.8 1.7
-21 -5 5 22.9 1.4
-23 5 7 29.9 1.6
-23 -5 7 29.9 1.5
-25 -5 9 12.2 0.8
-25 -5 9 12.5 0.8
-12 6 -4 4.4 0.7
-14 6 -2 3.5 0.7
-16 6 0 0.7 0.5
-18 6 2 7.2 0.8
-20 6 4 14.6 0.9
-18 0 1 0.5 0.9
-20 0 3 0.5 0.7
-20 0 3 1.2 1.3
-22 0 5 -0.3 0.7
-22 0 5 0.7 0.7
-24 0 7 0 0.7
-24 0 7 0.3 0.8
-26 0 9 1.3 0.9
-26 0 9 1.6 0.9
-28 0 11 1 0.5
-19 1 2 225.08 6.3
-21 1 4 114.09 4.3
-21 -1 4 110.59 4.6
-21 -1 4 110.59 9.1
-23 -1 6 90.29 4.1
-25 -1 8 48.7 2.9
-25 -1 8 45.3 2.7
-25 -1 8 45.7 2.8
-27 -1 10 50.29 2.8
-27 -1 10 58.39 2.6
-27 -1 10 50.39 2.8
-29 -1 12 35.4 1.9
-22 -2 5 2.8 0.9
-24 -2 7 18.1 1.8
-26 -2 9 19.9 1.9
-26 -2 9 20 1.7
-26 -2 9 23.1 1.9
-28 -2 11 28 1.9
-28 -2 11 28.2 1.7
-28 -2 11 25.9 1.7
-28 -2 11 27 1.8
-30 -2 13 46.6 1.6
-30 -2 13 51.89 1.9
-19 3 2 28 2.5
-21 3 4 118.69 4.8
-23 -3 6 22.6 1.9
-25 -3 8 28.6 1.9
-25 -3 8 27.8 2.1
-27 -3 10 29 1.9
-27 -3 10 28.7 1.8
-29 -3 12 57.49 2.2
-29 -3 12 60.49 2
-29 -3 12 62.69 2.1
-16 4 -1 45.6 3.1
-18 4 1 1.4 0.8
-20 4 3 28.7 2.3
-22 4 5 70.59 3.2
-22 -4 5 63.19 3
-24 -4 7 68.99 2.7
-24 -4 7 67.39 3
-26 -4 9 32.4 1.8
-26 -4 9 31.1 1.7
-28 -4 11 11.1 0.7
-28 -4 11 10.1 0.7
-9 5 -8 2.1 0.7
-11 5 -6 30.1 2
-13 5 -4 3.2 0.9
-15 5 -2 2.2 0.7
-17 5 0 0.2 0.7
-19 5 2 12.7 1.4
-21 5 4 16.5 1.4
-21 -5 4 17.2 1.2
-23 5 6 29.4 1.5
-23 -5 6 28.9 1.5
-25 -5 8 74.79 2.2
-14 6 -3 13.7 0.9
-16 6 -1 3.3 0.6
-18 6 1 7.1 0.7
-18 0 0 184.18 5.7
-20 0 2 50.59 2.9
-20 0 2 44.5 6
-22 0 4 299.57 8
-24 0 6 11.9 1.5
-24 0 6 11.7 1.5
-26 0 8 271.07 7.4
-28 0 10 53.59 2.5
-21 1 3 24.7 1.9
-21 -1 3 25.7 2.2
-21 -1 3 20.8 4.1
-23 -1 5 0.1 0.7
-25 -1 7 49.3 2.9
-25 -1 7 43.9 2.8
-25 -1 7 46.6 2.9
-27 -1 9 34.7 2.3
-27 -1 9 34 2.3
-29 -1 11 26.5 1.8
-29 -1 11 27.3 1.7
-31 -1 13 3.9 0.5
-22 -2 4 25.4 2.2
-24 -2 6 37 2.5
-26 -2 8 72.39 3.4
-26 -2 8 68.39 3.2
-26 -2 8 67.49 3.4
-28 -2 10 31.2 2
-28 -2 10 26.9 1.9
-30 -2 12 7.4 0.7
-30 -2 12 9.5 0.9
-19 3 1 8.9 1.5
-21 3 3 11.8 1.6
-23 -3 5 2.1 0.8
-25 -3 7 8.2 1.2
-25 -3 7 8.7 1.3
-27 -3 9 21.9 1.7
-27 -3 9 20.2 1.6
-29 -3 11 6.3 0.8
-29 -3 11 5.7 0.7
-29 -3 11 5.2 0.7
-16 4 -2 7.3 1.4
-18 4 0 18.4 2
-20 4 2 18.4 1.8
-22 4 4 52.69 2.8
-22 -4 4 48.7 2.6
-24 -4 6 21.9 1.5
-26 -4 8 35.5 1.9
-26 -4 8 35 1.8
-28 -4 10 65.99 2.1
-28 -4 10 59.49 1.8
-28 -4 10 64.09 1.9
-11 5 -7 1.7 0.6
-13 5 -5 12.2 1.3
-15 5 -3 28.5 2
-17 5 -1 15.4 1.5
-19 5 1 35.2 2.1
-21 5 3 56.09 2.4
-21 -5 3 53.59 2.2
-23 5 5 26.9 1.4
-23 -5 5 30.8 1.3
-23 -5 5 30.5 1.5
-25 -5 7 57.29 1.9
-20 0 1 -0.3 0.7
-22 0 3 0.8 0.7
-24 0 5 0.2 0.6
-24 0 5 0.2 0.7
-26 0 7 0.6 0.8
-21 1 2 5.4 1
-21 -1 2 6 1.2
-23 -1 4 3.9 1
-25 -1 6 205.58 6.1
-25 -1 6 197.88 6.3
-27 -1 8 101.29 3.9
-27 -1 8 96.09 4
-29 -1 10 87.29 3.3
-29 -1 10 85.19 3.1
-29 -1 10 82.89 3.3
-31 -1 12 21.9 1.2
-22 -2 3 117.49 4.7
-24 -2 5 10 1.4
-26 -2 7 25.6 2
-26 -2 7 23 1.8
-26 -2 7 25.4 2
-28 -2 9 23 1.8
-28 -2 9 20.7 1.7
-30 -2 11 117.39 3.4
-30 -2 11 119.29 3.4
-19 3 0 81.19 4.2
-21 3 2 -1.1 0.8
-23 -3 4 3.8 1
-25 -3 6 25.7 1.9
-27 -3 8 1.8 0.7
-27 -3 8 0.9 0.5
-27 -3 8 2.2 0.8
-29 -3 10 40.4 1.8
-29 -3 10 41.8 1.7
-29 -3 10 41.7 1.8
-29 -3 10 39.5 1.8
-16 4 -3 16.1 1.8
-18 4 -1 24.2 2
-20 4 1 20.2 1.8
-22 4 3 34.3 2.1
-24 -4 5 52.49 2.3
-26 -4 7 38.8 1.9
-26 -4 7 38.2 1.6
-26 -4 7 38.4 1.9
-28 -4 9 15.6 1
-28 -4 9 13.8 0.8
-28 -4 9 16 0.9
-28 -4 9 12.6 0.8
-13 5 -6 2.4 0.6
-15 5 -4 1.3 0.6
-17 5 -2 4.5 0.8
-19 5 0 36.9 2
-21 5 2 5.4 0.8
-21 -5 2 6.2 0.8
-23 -5 4 77.89 2.2
-23 -5 4 66.59 2.3
-25 -5 6 17.7 1
-20 0 0 258.37 6.9
-22 0 2 136.19 4.8
-24 0 4 162.48 5.3
-26 0 6 2.6 0.7
-28 0 8 99.09 3.7
-21 -1 1 64.29 3.3
-23 -1 3 18 1.8
-25 -1 5 17.4 1.7
-25 -1 5 19.4 1.9
-27 -1 7 51.39 2.6
-27 -1 7 43 2.5
-27 -1 7 47.9 2.7
-29 -1 9 6.8 0.9
-29 -1 9 6.7 1
-31 -1 11 0.4 0.4
-24 -2 4 25.8 2.1
-26 -2 6 21.4 1.8
-26 -2 6 20.5 1.8
-26 -2 6 20.8 1.8
-28 -2 8 14.5 1.4
-28 -2 8 14.8 1.4
-30 -2 10 34.3 1.7
-30 -2 10 35.2 1.7
-30 -2 10 32.9 1.7
-19 3 -1 108.29 4.7
-21 3 1 177.88 5.8
-23 -3 3 2.8 0.8
-25 -3 5 9.3 1.1
-27 -3 7 16.5 1.4
-27 -3 7 15.4 1.3
-27 -3 7 16.8 1.4
-29 -3 9 19.2 1.2
-29 -3 9 17.5 1
-29 -3 9 18.5 1.2
-12 4 -8 25.9 1.7
-14 4 -6 22.7 1.8
-16 4 -4 20.5 1.8
-18 4 -2 2.4 0.9
-20 4 0 11.1 1.3
-22 4 2 -0.2 0.5
-24 -4 4 7 0.9
-26 -4 6 8.2 0.9
-26 -4 6 7.4 0.7
-26 -4 6 8.5 0.9
-28 -4 8 9 0.7
-28 -4 8 9.1 0.7
-28 -4 8 8.3 0.6
-15 5 -5 13.9 1
-17 5 -3 26.1 1.5
-19 5 -1 33.5 1.7
-21 5 1 25 1.3
-21 -5 1 28.7 1.4
-23 -5 3 71.09 2
-23 -5 3 67.19 2.1
-22 0 1 -0.6 0.8
-24 0 3 0.8 0.7
-28 0 7 -0.1 0.6
-19 -1 -2 111.89 4.1
-21 -1 0 8.1 1.2
-23 -1 2 46.8 2.7
-25 -1 4 72.89 3.4
-25 -1 4 74.99 3.5
-27 -1 6 11.5 1.4
-27 -1 6 9.9 1.3
-29 -1 8 8.6 1.1
-31 -1 10 56.69 1.9
-22 -2 1 23.8 2
-24 -2 3 2.6 0.9
-26 -2 5 76.69 3.2
-26 -2 5 70.89 3.2
-28 -2 7 13.5 1.3
-28 -2 7 11.6 1.2
-28 -2 7 13.4 1.3
-30 -2 9 2.3 0.5
-30 -2 9 1 0.4
-30 -2 9 2.6 0.6
-19 3 -2 90.49 4
-21 3 0 30.1 2.2
-23 -3 2 9.8 1.3
-25 -3 4 2.9 0.8
-27 -3 6 1.7 0.6
-27 -3 6 1.4 0.6
-27 -3 6 0.1 0.5
-29 -3 8 29.7 1.4
-29 -3 8 29 1.5
-14 4 -7 11.5 1.1
-16 4 -5 3.2 0.8
-18 4 -3 10.2 1.2
-20 4 -1 19.5 1.5
-22 4 1 73.59 2.8
-22 -4 1 66.99 2.7
-24 -4 3 63.99 2.5
-26 -4 5 80.99 2.6
-26 -4 5 83.79 2.5
-26 -4 5 78.99 2.6
-28 -4 7 20.6 1
-19 -5 -2 10.9 0.8
-21 -5 0 20.1 1
-24 0 2 22.5 1.8
-21 -1 -1 17.5 1.6
-23 -1 1 9.2 1.2
-25 -1 3 4.8 1
-25 -1 3 3.8 0.9
-27 -1 5 34.8 2.1
-27 -1 5 37.7 2.2
-29 -1 7 7.8 1
-31 -1 9 1.4 0.3
-22 -2 0 129.79 4.5
-24 -2 2 110.49 4.1
-26 -2 4 33 2.1
-28 -2 6 26.3 1.7
-28 -2 6 27.2 1.8
-30 -2 8 1.4 0.5
-19 3 -3 7.2 1.2
-21 3 -1 118.89 4.1
-23 -3 1 9.9 1.2
-25 -3 3 12.8 1.2
-27 -3 5 15.2 1.2
-27 -3 5 17.5 1.3
-27 -3 5 14.6 1.3
-29 -3 7 7.6 0.7
-29 -3 7 10.1 0.9
-16 4 -6 21.8 1.3
-18 4 -4 9.9 1
-20 4 -2 32.6 1.7
-22 4 0 85.09 2.7
-22 -4 0 90.99 2.9
-24 -4 2 5.7 0.8
-26 -4 4 8 0.7
-26 -4 4 12.5 0.9
-26 -4 4 10.9 0.9
-23 -1 0 29.5 1.9
-25 -1 2 65.99 2.9
-27 -1 4 72.79 3
-27 -1 4 80.39 3
-29 -1 6 25.9 1.5
-20 -2 -3 49.5 2.3
-22 -2 -1 5.1 0.9
-24 -2 1 4.9 0.9
-26 -2 3 17.9 1.5
-26 -2 3 19 1.5
-28 -2 5 8.2 1
-28 -2 5 8.3 1
-30 -2 7 1.4 0.5
-15 3 -8 10.2 0.8
-17 3 -6 14.6 1.2
-19 3 -4 63.99 2.6
-19 -3 -4 69.79 2.5
-21 3 -2 25.7 1.6
-21 -3 -2 27 1.7
-23 -3 0 2.5 0.7
-25 -3 2 13.1 1.2
-27 -3 4 23.4 1.4
-27 -3 4 23.2 1.4
-29 -3 6 3.1 0.5
-20 -4 -3 18.9 1
-22 -4 -1 74.49 2.3
-24 -4 1 22.4 1.2
-26 -4 3 13.4 0.8
-26 -4 3 13.5 0.8
-23 -1 -1 71.49 2.6
-25 -1 1 63.09 2.5
-27 -1 3 5.8 0.8
-18 2 -6 1.4 0.6
-22 -2 -2 45.6 2
-24 -2 0 101.99 3.3
-26 -2 2 24 1.6
-26 -2 2 24.7 1.5
-28 -2 4 11.2 1
-28 -2 4 11 1
-30 -2 6 37.8 1.5
-21 -3 -3 21.2 1.2
-23 -3 -1 53.19 2
-25 -3 1 10 0.9
-27 -3 3 20.5 1.2
-27 -3 3 20.4 1.2
-24 -2 -1 8.4 0.8
-26 -2 1 14.1 1
-25 -3 0 2.7 0.4
-27 -3 2 13.1 0.8
