#------------------------------------------------------------------------------
#$Date: 2017-02-04 02:41:21 +0200 (Sat, 04 Feb 2017) $
#$Revision: 191282 $
#$URL: file:///home/coder/svn-repositories/cod/cif/1/54/52/1545203.cif $
#------------------------------------------------------------------------------
#
# This file is available in the Crystallography Open Database (COD),
# http://www.crystallography.net/
#
# All data on this site have been placed in the public domain by the
# contributors.
#
data_1545203
loop_
_publ_author_name
'Chen, Changjuan'
'Cui, Yaqin'
'Mao, Xiaoyang'
'Pan, Xiaobo'
'Wu, Jincai'
_publ_section_title
;
 Suppressing Cyclic Polymerization for Isoselective Synthesis of
 High-Molecular-Weight Linear Polylactide Catalyzed by Sodium/Potassium
 Sulfonamidate Complexes
;
_journal_issue                   1
_journal_name_full               Macromolecules
_journal_page_first              83
_journal_paper_doi               10.1021/acs.macromol.6b02271
_journal_volume                  50
_journal_year                    2017
_chemical_formula_moiety         'C30 H36 N Na O8 S'
_chemical_formula_sum            'C30 H36 N Na O8 S'
_chemical_formula_weight         593.65
_space_group_crystal_system      monoclinic
_space_group_IT_number           14
_space_group_name_Hall           '-P 2yn'
_space_group_name_H-M_alt        'P 1 21/n 1'
_symmetry_space_group_name_Hall  '-P 2yn'
_symmetry_space_group_name_H-M   'P 1 21/n 1'
_atom_sites_solution_hydrogens   geom
_atom_sites_solution_primary     direct
_audit_creation_date             2016-07-17
_audit_creation_method
;
Olex2 1.2
(compiled 2016.02.19 svn.r3266 for OlexSys, GUI svn.r5155)
;
_cell_angle_alpha                90
_cell_angle_beta                 108.232(7)
_cell_angle_gamma                90
_cell_formula_units_Z            4
_cell_length_a                   15.6531(9)
_cell_length_b                   11.2507(9)
_cell_length_c                   17.5258(12)
_cell_measurement_reflns_used    4413
_cell_measurement_temperature    289.97(10)
_cell_measurement_theta_max      27.1490
_cell_measurement_theta_min      3.6110
_cell_volume                     2931.5(4)
_computing_cell_refinement
;
CrysAlisPro, Agilent Technologies,
Version 1.171.37.35 (release 13-08-2014 CrysAlis171 .NET)
(compiled Aug 13 2014,18:06:01)
;
_computing_data_collection
;
CrysAlisPro, Agilent Technologies,
Version 1.171.37.35 (release 13-08-2014 CrysAlis171 .NET)
(compiled Aug 13 2014,18:06:01)
;
_computing_data_reduction
;
CrysAlisPro, Agilent Technologies,
Version 1.171.37.35 (release 13-08-2014 CrysAlis171 .NET)
(compiled Aug 13 2014,18:06:01)
;
_computing_molecular_graphics    'Olex2 (Dolomanov et al., 2009)'
_computing_publication_material  'Olex2 (Dolomanov et al., 2009)'
_computing_structure_refinement  'ShelXL (Sheldrick, 2015)'
_computing_structure_solution    'ShelXS (Sheldrick, 2008)'
_diffrn_ambient_environment      air
_diffrn_ambient_temperature      289.97(10)
_diffrn_detector                 'CCD plate'
_diffrn_detector_area_resol_mean 16.0733
_diffrn_detector_type            Eos
_diffrn_measured_fraction_theta_full 0.992
_diffrn_measured_fraction_theta_max 0.992
_diffrn_measurement_details
;
#__ type_ start__ end____ width___ exp.time_
  1 omega  -19.00   18.00   1.0000    6.0000
omega____ theta____ kappa____ phi______ frames
    -      -17.1479  -99.0000  -30.0000 37

#__ type_ start__ end____ width___ exp.time_
  2 omega   17.00   59.00   1.0000    6.0000
omega____ theta____ kappa____ phi______ frames
    -       20.5854  -99.0000  -90.0000 42

#__ type_ start__ end____ width___ exp.time_
  3 omega   -2.00   93.00   1.0000    6.0000
omega____ theta____ kappa____ phi______ frames
    -       20.5854   38.0000  -90.0000 95

#__ type_ start__ end____ width___ exp.time_
  4 omega  -49.00   30.00   1.0000    6.0000
omega____ theta____ kappa____ phi______ frames
    -       20.5854    0.0000  -90.0000 79
;
_diffrn_measurement_device       'four-circle diffractometer'
_diffrn_measurement_device_type  'SuperNova, Dual, Cu at zero, Eos'
_diffrn_measurement_method       '\w scans'
_diffrn_orient_matrix_UB_11      -0.0111458000
_diffrn_orient_matrix_UB_12      0.0039819000
_diffrn_orient_matrix_UB_13      0.0361529000
_diffrn_orient_matrix_UB_21      0.0043319000
_diffrn_orient_matrix_UB_22      0.0627043000
_diffrn_orient_matrix_UB_23      -0.0006120000
_diffrn_orient_matrix_UB_31      -0.0462018000
_diffrn_orient_matrix_UB_32      0.0049033000
_diffrn_orient_matrix_UB_33      -0.0225483000
_diffrn_radiation_monochromator  mirror
_diffrn_radiation_probe          x-ray
_diffrn_radiation_type           MoK\a
_diffrn_radiation_wavelength     0.710
_diffrn_reflns_av_R_equivalents  0.0652
_diffrn_reflns_av_unetI/netI     0.0893
_diffrn_reflns_Laue_measured_fraction_full 0.992
_diffrn_reflns_Laue_measured_fraction_max 0.992
_diffrn_reflns_limit_h_max       20
_diffrn_reflns_limit_h_min       -18
_diffrn_reflns_limit_k_max       14
_diffrn_reflns_limit_k_min       -13
_diffrn_reflns_limit_l_max       23
_diffrn_reflns_limit_l_min       -17
_diffrn_reflns_number            14661
_diffrn_reflns_point_group_measured_fraction_full 0.992
_diffrn_reflns_point_group_measured_fraction_max 0.992
_diffrn_reflns_theta_full        24.996
_diffrn_reflns_theta_max         24.996
_diffrn_reflns_theta_min         3.491
_diffrn_source                   'SuperNova (Mo) X-ray Source'
_exptl_absorpt_coefficient_mu    0.177
_exptl_absorpt_correction_T_max  1.00000
_exptl_absorpt_correction_T_min  0.95857
_exptl_absorpt_correction_type   multi-scan
_exptl_absorpt_process_details
;
CrysAlisPro, Agilent Technologies,
Version 1.171.37.35 (release 13-08-2014 CrysAlis171 .NET)
(compiled Aug 13 2014,18:06:01)
Empirical absorption correction using spherical harmonics,
 implemented in SCALE3 ABSPACK scaling algorithm.
;
_exptl_crystal_colour            colourless
_exptl_crystal_colour_primary    colourless
_exptl_crystal_density_diffrn    1.345
_exptl_crystal_description
;
;
_exptl_crystal_F_000             1256
_exptl_crystal_size_max          0.25
_exptl_crystal_size_mid          0.22
_exptl_crystal_size_min          0.2
_refine_diff_density_max         0.500
_refine_diff_density_min         -0.482
_refine_diff_density_rms         0.117
_refine_ls_extinction_coef       0.0022(5)
_refine_ls_extinction_expression Fc^*^=kFc[1+0.001xFc^2^\l^3^/sin(2\q)]^-1/4^
_refine_ls_extinction_method     'SHELXL-2014/7 (Sheldrick 2014'
_refine_ls_goodness_of_fit_ref   1.149
_refine_ls_hydrogen_treatment    constr
_refine_ls_matrix_type           full
_refine_ls_number_parameters     490
_refine_ls_number_reflns         5138
_refine_ls_number_restraints     101
_refine_ls_restrained_S_all      1.139
_refine_ls_R_factor_all          0.1682
_refine_ls_R_factor_gt           0.1572
_refine_ls_shift/su_max          0.009
_refine_ls_shift/su_mean         0.001
_refine_ls_structure_factor_coef Fsqd
_refine_ls_weighting_details
'w=1/[\s^2^(Fo^2^)+49.8207P] where P=(Fo^2^+2Fc^2^)/3'
_refine_ls_weighting_scheme      calc
_refine_ls_wR_factor_gt          0.3291
_refine_ls_wR_factor_ref         0.3337
_reflns_Friedel_coverage         0.000
_reflns_number_gt                4300
_reflns_number_total             5138
_reflns_threshold_expression     'I > 2\s(I)'
_cod_data_source_file            ma6b02271_si_004.cif
_cod_data_source_block           chenchj_0513
_cod_database_code               1545203
_shelx_space_group_comment
;
The symmetry employed for this shelxl refinement is uniquely defined
by the following loop, which should always be used as a source of
symmetry information in preference to the above space-group names.
They are only intended as comments.
;
_reflns_odcompleteness_completeness 99.64
_reflns_odcompleteness_iscentric 1
_reflns_odcompleteness_theta     26.32
_olex2_refinement_description
;
1. Fixed Uiso
 At 1.2 times of:
  All C(H) groups, All C(H,H) groups, All C(H,H,H,H) groups
 At 1.5 times of:
  All C(H,H,H) groups
2. Rigid bond restraints
 O5', C23', O4', C21', O8', C29', C28', O7', C27', C26', O6', C25', C24'
 with sigma for 1-2 distances of 0.01 and sigma for 1-3 distances of 0.01
 O8, C29, O4, C21, O5, C23, C24, C25, C26, O7, C27, C28
 with sigma for 1-2 distances of 0.01 and sigma for 1-3 distances of 0.01
 O8, C29, O4, C21, O5, C23, C24, C25, C26, O7, C27, C28
 with sigma for 1-2 distances of 0.01 and sigma for 1-3 distances of 0.01
3. Uiso/Uaniso restraints and constraints
O5' \\sim C23' \\sim O4' \\sim C21' \\sim O8' \\sim C29' \\sim C28' \\sim O7'
\\sim C27' \\sim C26' \\sim O6' \\sim C25' \\sim C24': within 2A with sigma of
0.01 and sigma for terminal atoms of 0.02
4. Others
 Sof(C24')=Sof(H24C)=Sof(H24D)=Sof(O4')=Sof(O5')=Sof(O6')=Sof(O7')=Sof(O8')=
 Sof(C21')=Sof(H21C)=Sof(H21D)=Sof(H22C)=Sof(H22D)=Sof(C23')=Sof(H23C)=
 Sof(H23D)=Sof(C25')=Sof(H25C)=Sof(H25D)=Sof(C26')=Sof(H26C)=Sof(H26D)=
 Sof(C27')=Sof(H27C)=Sof(H27D)=Sof(C28')=Sof(H28C)=Sof(H28D)=Sof(C29')=
 Sof(H29C)=Sof(H29D)=Sof(H30C)=Sof(H30D)=1-FVAR(1)
 Sof(C24)=Sof(H24A)=Sof(H24B)=Sof(O4)=Sof(O5)=Sof(O6)=Sof(O7)=Sof(O8)=Sof(C21)=
 Sof(H21A)=Sof(H21B)=Sof(H22A)=Sof(H22B)=Sof(C23)=Sof(H23A)=Sof(H23B)=Sof(C25)=
 Sof(H25A)=Sof(H25B)=Sof(C26)=Sof(H26A)=Sof(H26B)=Sof(C27)=Sof(H27A)=Sof(H27B)=
 Sof(C28)=Sof(H28A)=Sof(H28B)=Sof(C29)=Sof(H29A)=Sof(H29B)=Sof(H30A)=Sof(H30B)=
 FVAR(1)
5.a Ternary CH refined with riding coordinates:
 C8(H8)
5.b Secondary CH2 refined with riding coordinates:
 C24(H24A,H24B), C24'(H24C,H24D), C21(H21A,H21B), C21'(H21C,H21D), C22(H22C,
 H22D), C22(H22A,H22B), C23(H23A,H23B), C23'(H23C,H23D), C25(H25A,H25B),
 C25'(H25C,H25D), C26(H26A,H26B), C26'(H26C,H26D), C27(H27A,H27B), C27'(H27C,
 H27D), C28(H28A,H28B), C28'(H28C,H28D), C29(H29A,H29B), C29'(H29C,H29D),
 C30(H30A,H30B), C30(H30C,H30D)
5.c Aromatic/amide H refined with riding coordinates:
 C2(H2), C3(H3), C5(H5), C6(H6), C10(H10), C11(H11), C12(H12), C13(H13),
 C16(H16), C17(H17), C18(H18), C19(H19)
5.d Idealised Me refined as rotating group:
 C7(H7A,H7B,H7C)
;
_shelx_res_file
;
    chenchj_0513.res created by SHELXL-2014/7

TITL chenchj_0513 in P21/n #14
CELL 0.71 15.653085 11.250667 17.525815 90 108.2325 90
ZERR 4 0.000944 0.00091 0.001162 0 0.0066 0
LATT 1
SYMM 0.5-X,0.5+Y,0.5-Z
SFAC C H N Na O S
UNIT 120 144 4 4 32 4
DELU O5' C23' O4' C21' O8' C29' C28' O7' C27' C26' O6' C25' C24'
DELU O8 C29 O4 C21 O5 C23 C24 C25 C26 O7 C27 C28
DELU O8 C29 O4 C21 O5 C23 C24 C25 C26 O7 C27 C28
SIMU 0.01 0.02 2 O5' C23' O4' C21' O8' C29' C28' O7' C27' C26' O6' C25' C24'

L.S. 8
PLAN  20
FREE C24 C25
FREE Na1 C29'
FREE C25' C26'
MORE -1
BOND $H
CONF
fmap 2
acta
OMIT -0.1 50
OMIT -9 1 1
OMIT 7 1 1
OMIT -8 3 2
OMIT -7 3 1
OMIT 4 3 3
OMIT 1 5 4
OMIT 6 3 3
OMIT -10 1 4
OMIT 7 1 9
OMIT -11 6 3
OMIT -7 3 2
OMIT -8 2 11
OMIT 5 5 2
OMIT -12 1 2
OMIT -5 2 1
OMIT 11 3 1
OMIT -5 2 7
OMIT -7 3 3
OMIT -3 2 9
OMIT -6 3 2
OMIT 6 5 1
OMIT -1 3 7
OMIT 6 5 7
OMIT 3 4 11
OMIT -12 3 3
OMIT -7 6 1
OMIT 6 2 4
REM <olex2.extras>
REM <HklSrc "%.\\chenchj_0513-mask.hkl">
REM </olex2.extras>

WGHT    0.000000   49.820702
EXTI    0.002153
FVAR       3.64517   0.61805
PART 1
C24   1    0.559219    0.536915    0.239083    21.00000    0.03889    0.03611 =
         0.05140   -0.01085    0.02012   -0.00850
AFIX  23
H24A  2    0.552661    0.622695    0.237406    21.00000   -1.20000
H24B  2    0.533448    0.505825    0.278647    21.00000   -1.20000
AFIX   0
PART 0
PART 2
C24'  1    0.526646    0.529543    0.242594   -21.00000    0.08441    0.04994 =
         0.04322   -0.00393    0.01346   -0.01175
AFIX  23
H24C  2    0.522195    0.546381    0.295500   -21.00000   -1.20000
H24D  2    0.539076    0.604506    0.220841   -21.00000   -1.20000
AFIX   0
PART 0
S1    6    0.512878    0.037735    0.213100    11.00000    0.04274    0.02364 =
         0.03084    0.00424    0.02081    0.01021
NA1   4    0.550679    0.277141    0.147472    11.00000    0.02450    0.02566 =
         0.02752    0.00522    0.00689    0.00193
O1    5    0.590060    0.072124    0.187903    11.00000    0.04488    0.03251 =
         0.04544    0.01129    0.02940    0.01174
O2    5    0.472150   -0.077407    0.183922    11.00000    0.06025    0.02354 =
         0.04094   -0.00087    0.02809    0.00529
O3    5    0.176587    0.172956    0.193277    11.00000    0.02596    0.03811 =
         0.03879   -0.00009    0.00274    0.00401
PART 1
O4    5    0.704927    0.256712    0.142444    21.00000    0.04251    0.04075 =
         0.04259    0.00950    0.01471   -0.00244
PART 0
PART 2
O4'   5    0.717902    0.300104    0.200969   -21.00000    0.03731    0.08457 =
         0.03456   -0.02079   -0.00748   -0.02717
PART 0
PART 1
O5    5    0.659451    0.379022    0.261975    21.00000    0.04640    0.03990 =
         0.03916    0.01048    0.00969   -0.00496
PART 0
PART 2
O5'   5    0.606502    0.453038    0.254044   -21.00000    0.08305    0.04814 =
         0.04193   -0.00432    0.01134   -0.01484
PART 0
PART 1
O6    5    0.511304    0.483850    0.156649    21.00000    0.02948    0.04004 =
         0.03656    0.00257    0.00384    0.00673
PART 0
PART 2
O6'   5    0.456255    0.462835    0.122535   -21.00000    0.05342    0.04121 =
         0.04209   -0.00208    0.02167   -0.01132
PART 0
PART 1
O7    5    0.413539    0.343161    0.037107    21.00000    0.02755    0.03579 =
         0.03013    0.00753    0.00709   -0.00754
PART 0
PART 2
O7'   5    0.453621    0.291959    0.013024   -21.00000    0.03343    0.03808 =
         0.02984    0.00304    0.00142    0.00532
PART 0
PART 1
O8    5    0.560046    0.255925    0.008008    21.00000    0.03728    0.03279 =
         0.04095    0.00176    0.01396    0.00379
PART 0
PART 2
O8'   5    0.631948    0.274178    0.040602   -21.00000    0.03503    0.03641 =
         0.02837   -0.00573    0.00532   -0.00552
PART 0
N1    3    0.447159    0.144939    0.193986    11.00000    0.02682    0.02386 =
         0.02969    0.00328    0.01403    0.00422
C1    1    0.556887    0.019851    0.319104    11.00000    0.03902    0.03385 =
         0.02654    0.00738    0.01341    0.01515
C2    1    0.531964   -0.076931    0.358713    11.00000    0.05584    0.03645 =
         0.04679    0.01504    0.03014    0.02207
AFIX  43
H2    2    0.493849   -0.135839    0.329613    11.00000   -1.20000
AFIX   0
C3    1    0.565607   -0.082710    0.442544    11.00000    0.05443    0.06853 =
         0.06393    0.04218    0.04324    0.04389
AFIX  43
H3    2    0.548580   -0.145426    0.469192    11.00000   -1.20000
AFIX   0
C4    1    0.623352    0.002470    0.486359    11.00000    0.04306    0.06202 =
         0.04758    0.02270    0.02813    0.03333
C5    1    0.647942    0.095067    0.448491    11.00000    0.05071    0.04974 =
         0.04141    0.01337    0.01371    0.02860
AFIX  43
H5    2    0.687492    0.152196    0.478123    11.00000   -1.20000
AFIX   0
C6    1    0.613931    0.104841    0.364920    11.00000    0.04742    0.02703 =
         0.03626    0.00892    0.01511    0.01175
AFIX  43
H6    2    0.630028    0.169876    0.339646    11.00000   -1.20000
AFIX   0
C7    1    0.657926   -0.007799    0.576796    11.00000    0.06090    0.10692 =
         0.03618    0.03414    0.01796    0.03677
AFIX 137
H7A   2    0.609386    0.005353    0.598355    11.00000   -1.50000
H7B   2    0.704004    0.050549    0.598018    11.00000   -1.50000
H7C   2    0.682363   -0.085824    0.591493    11.00000   -1.50000
AFIX   0
C8    1    0.358890    0.124307    0.201775    11.00000    0.02796    0.01821 =
         0.02665    0.01087    0.00665    0.00577
AFIX  13
H8    2    0.360006    0.044319    0.224207    11.00000   -1.20000
AFIX   0
C9    1    0.282800    0.126134    0.123506    11.00000    0.03815    0.02457 =
         0.02143   -0.00415    0.00140   -0.00112
C10   1    0.295630    0.100168    0.050657    11.00000    0.06599    0.02773 =
         0.02206    0.00287    0.00657    0.01329
AFIX  43
H10   2    0.353581    0.089118    0.048172    11.00000   -1.20000
AFIX   0
C11   1    0.222793    0.090531   -0.018533    11.00000    0.10785    0.03849 =
         0.01897   -0.00189    0.00291    0.00513
AFIX  43
H11   2    0.232913    0.073252   -0.066882    11.00000   -1.20000
AFIX   0
C12   1    0.136832    0.105632   -0.017771    11.00000    0.06660    0.05302 =
         0.04104   -0.00464   -0.01623    0.02540
AFIX  43
H12   2    0.088569    0.097123   -0.064570    11.00000   -1.20000
AFIX   0
C13   1    0.122643    0.134391    0.055378    11.00000    0.04093    0.03609 =
         0.05454   -0.00005   -0.01050    0.01292
AFIX  43
H13   2    0.064763    0.145375    0.058054    11.00000   -1.20000
AFIX   0
C14   1    0.195465    0.145809    0.122195    11.00000    0.03888    0.02328 =
         0.03020    0.00253   -0.01012    0.01173
C15   1    0.246355    0.225035    0.254579    11.00000    0.03378    0.02198 =
         0.02330    0.00122    0.00906    0.00373
C16   1    0.220665    0.292371    0.309664    11.00000    0.03228    0.02691 =
         0.04006    0.00371    0.01588    0.00586
AFIX  43
H16   2    0.160130    0.302733    0.304347    11.00000   -1.20000
AFIX   0
C17   1    0.286088    0.343712    0.372387    11.00000    0.04264    0.04365 =
         0.03882   -0.00075    0.01847    0.01140
AFIX  43
H17   2    0.269870    0.386819    0.410991    11.00000   -1.20000
AFIX   0
C18   1    0.375052    0.331845    0.378458    11.00000    0.04370    0.05392 =
         0.03757   -0.02131    0.00892    0.00124
AFIX  43
H18   2    0.418905    0.368223    0.420488    11.00000   -1.20000
AFIX   0
C19   1    0.400206    0.264708    0.321211    11.00000    0.03254    0.04380 =
         0.04108   -0.01986    0.02010   -0.01114
AFIX  43
H19   2    0.460619    0.257962    0.325027    11.00000   -1.20000
AFIX   0
C20   1    0.335345    0.208553    0.259127    11.00000    0.03102    0.02280 =
         0.02905   -0.00134    0.01154    0.00117
PART 1
C21   1    0.768577    0.333698    0.189101    21.00000    0.01888    0.07030 =
         0.06045    0.01590    0.00492   -0.02183
AFIX  23
H21A  2    0.764704    0.409621    0.161999    21.00000   -1.20000
H21B  2    0.828333    0.301508    0.197637    21.00000   -1.20000
AFIX   0
PART 0
PART 2
C21'  1    0.764018    0.302501    0.141040   -21.00000    0.03073    0.07902 =
         0.03515   -0.01653   -0.00668   -0.01828
AFIX  23
H21C  2    0.824032    0.270171    0.164190   -21.00000   -1.20000
H21D  2    0.770011    0.384321    0.126022   -21.00000   -1.20000
AFIX   0
PART 0
C22   1    0.751914    0.350736    0.269679    11.00000    0.04065    0.10044 =
         0.04741   -0.00449   -0.00090   -0.02100
PART 2
AFIX  23
H22C  2    0.816458    0.360041    0.282262   -21.00000   -1.20000
H22D  2    0.739660    0.304921    0.311974   -21.00000   -1.20000
AFIX  23
PART 0
PART 1
H22A  2    0.768747    0.278502    0.301014    21.00000   -1.20000
H22B  2    0.790303    0.414226    0.298890    21.00000   -1.20000
AFIX   0
C23   1    0.651566    0.505543    0.259865    21.00000    0.03773    0.03542 =
         0.03550    0.00264   -0.02081   -0.00155
AFIX  23
H23A  2    0.684148    0.538406    0.312031    21.00000   -1.20000
H23B  2    0.677266    0.537816    0.220584    21.00000   -1.20000
AFIX   0
PART 0
PART 2
C23'  1    0.703895    0.475086    0.259598   -21.00000    0.08192    0.05429 =
         0.04275   -0.00450    0.00909   -0.02304
AFIX  23
H23C  2    0.732659    0.525567    0.305289   -21.00000   -1.20000
H23D  2    0.707279    0.514112    0.211275   -21.00000   -1.20000
AFIX   0
PART 0
PART 1
C25   1    0.417036    0.501064    0.126159    21.00000    0.04244    0.04308 =
         0.05390    0.00310    0.01074    0.01823
AFIX  23
H25A  2    0.402538    0.583879    0.131366    21.00000   -1.20000
H25B  2    0.387090    0.453182    0.156173    21.00000   -1.20000
AFIX   0
PART 0
PART 2
C25'  1    0.447649    0.494911    0.197978   -21.00000    0.07561    0.04869 =
         0.04442   -0.00574    0.01974   -0.00599
AFIX  23
H25C  2    0.404238    0.558650    0.191591   -21.00000   -1.20000
H25D  2    0.427623    0.427355    0.222280   -21.00000   -1.20000
AFIX   0
PART 0
PART 1
C26   1    0.385638    0.464790    0.038319    21.00000    0.02183    0.04605 =
         0.04782    0.00917    0.00881    0.00997
AFIX  23
H26A  2    0.320771    0.471495    0.016087    21.00000   -1.20000
H26B  2    0.413101    0.514691    0.007336    21.00000   -1.20000
AFIX   0
PART 0
PART 2
C26'  1    0.374812    0.428555    0.067987   -21.00000    0.04256    0.04321 =
         0.04563   -0.00153    0.01732   -0.00207
AFIX  23
H26C  2    0.332768    0.494459    0.057399   -21.00000   -1.20000
H26D  2    0.349265    0.363351    0.089857   -21.00000   -1.20000
AFIX   0
PART 0
PART 1
C27   1    0.407398    0.304412   -0.041339    21.00000    0.03345    0.05014 =
         0.04072   -0.01187    0.01373   -0.01573
AFIX  23
H27A  2    0.420508    0.370101   -0.071755    21.00000   -1.20000
H27B  2    0.346771    0.277044   -0.068747    21.00000   -1.20000
AFIX   0
PART 0
PART 2
C27'  1    0.391368    0.389394   -0.010425   -21.00000    0.02882    0.04026 =
         0.04043    0.00039    0.00603   -0.00087
AFIX  23
H27C  2    0.335742    0.363988   -0.049856   -21.00000   -1.20000
H27D  2    0.417015    0.453792   -0.032938   -21.00000   -1.20000
AFIX   0
PART 0
PART 1
C28   1    0.471009    0.208184   -0.036899    21.00000    0.04789    0.05201 =
         0.02010   -0.00865    0.01104   -0.01150
AFIX  23
H28A  2    0.469649    0.183750   -0.090344    21.00000   -1.20000
H28B  2    0.456552    0.140131   -0.009246    21.00000   -1.20000
AFIX   0
PART 0
PART 2
C28'  1    0.486989    0.264719   -0.051290   -21.00000    0.03775    0.04219 =
         0.02907   -0.00258    0.00247   -0.00059
AFIX  23
H28C  2    0.499350    0.336789   -0.076347   -21.00000   -1.20000
H28D  2    0.444043    0.217079   -0.091588   -21.00000   -1.20000
AFIX   0
PART 0
PART 1
C29   1    0.631001    0.175414    0.014466    21.00000    0.05128    0.02820 =
         0.05195    0.00984    0.02622    0.00937
AFIX  23
H29A  2    0.636502    0.159000   -0.038130    21.00000   -1.20000
H29B  2    0.620023    0.101139    0.037914    21.00000   -1.20000
AFIX   0
PART 0
PART 2
C29'  1    0.568840    0.198742   -0.014789   -21.00000    0.03540    0.03922 =
         0.02855   -0.00835    0.00670   -0.00388
AFIX  23
H29C  2    0.556114    0.129798    0.013086   -21.00000   -1.20000
H29D  2    0.593718    0.171415   -0.055901   -21.00000   -1.20000
AFIX   0
PART 0
C30   1    0.716207    0.233744    0.068051    11.00000    0.03520    0.03845 =
         0.05869   -0.00404    0.01981    0.00415
PART 1
AFIX  23
H30A  2    0.767257    0.181414    0.074612    21.00000   -1.20000
H30B  2    0.727386    0.307322    0.043929    21.00000   -1.20000
AFIX  23
PART 0
PART 2
H30C  2    0.745963    0.243622    0.027520   -21.00000   -1.20000
H30D  2    0.716231    0.149884    0.080910   -21.00000   -1.20000
AFIX   0
HKLF 4

REM  chenchj_0513 in P21/n #14
REM R1 =  0.1572 for    4300 Fo > 4sig(Fo)  and  0.1682 for all    5138 data
REM    490 parameters refined using    101 restraints

END

WGHT      0.0000     49.3616

REM Highest difference peak  0.500,  deepest hole -0.482,  1-sigma level  0.117
Q1    1   0.2870  0.5680 -0.0028  11.00000  0.05    0.50
Q2    1   0.6953  0.3839  0.1647  11.00000  0.05    0.48
Q3    1   0.7375  0.1466  0.2700  11.00000  0.05    0.47
Q4    1   0.1563  0.3028  0.1237  11.00000  0.05    0.46
Q5    1   0.4591  0.5793 -0.0276  11.00000  0.05    0.46
Q6    1   0.5002 -0.0272  0.1199  11.00000  0.05    0.46
Q7    1   0.6422  0.0803  0.6024  11.00000  0.05    0.44
Q8    1   0.5418  0.4053  0.2605  11.00000  0.05    0.43
Q9    1   0.6260  0.0853  0.2364  11.00000  0.05    0.42
Q10   1   0.4817  0.4529  0.4335  11.00000  0.05    0.42
Q11   1   0.5658  0.2777  0.0853  11.00000  0.05    0.40
Q12   1   0.4229 -0.0239  0.1705  11.00000  0.05    0.39
Q13   1   0.6010  0.3346  0.0914  11.00000  0.05    0.38
Q14   1   0.5220  0.3603 -0.0652  11.00000  0.05    0.37
Q15   1   0.4830  0.5197  0.3797  11.00000  0.05    0.37
Q16   1   0.4439  0.6116  0.2722  11.00000  0.05    0.36
Q17   1   0.8872  0.3260  0.2284  11.00000  0.05    0.36
Q18   1   0.6179 -0.0780  0.4407  11.00000  0.05    0.36
Q19   1   0.5135 -0.1183  0.1473  11.00000  0.05    0.36
Q20   1   0.6573  0.3374 -0.0217  11.00000  0.05    0.35
;
_shelx_res_checksum              89509
_shelx_hkl_file
;
 -18   0   2  402.70  213.38
 -18   0   4  987.95  485.01
 -18   0   6 2608.94  764.11
 -18   0   8 3459.77  817.02
 -18   0  10 3126.74  785.24
 -18   1   2  462.53  209.91
 -18   1   3  379.93  399.98
 -18   1   4  973.22  301.47
 -18   1   5  596.83  264.98
 -18   1   6  583.54  213.97
 -18   1   7   76.66   86.62
 -18   1   8  153.80  130.65
 -18   1   9   53.98  218.15
 -18   1  10 3036.82 1336.41
 -18   1  11  251.88  215.69
 -18   2   3  406.94  181.93
 -18   2   4  307.83  264.59
 -18   2   5  756.18  282.60
 -18   2   6 4360.12 1968.17
 -18   2   7  595.04  242.64
 -18   2   8  142.30  175.99
 -18   2   9  302.51  227.47
 -18   2  10   38.17  197.04
 -18   3   4 1957.64  416.15
 -18   3   5 1367.56  403.14
 -18   3   6  315.97  179.45
 -18   3   7 1299.47  444.70
 -18   3   8 1560.09  492.43
 -17   0  -1 1978.70  638.01
 -17   0   1  337.87  202.16
 -17   0   3  223.56  281.92
 -17   0   5   80.95  162.72
 -17   0   7 3802.59  795.37
 -17   0   9   83.42  241.51
 -17   0  11  684.15  375.42
 -17   0  13 2083.66  633.71
 -17   1  -2    3.80  122.21
 -17   1  -1  380.29  244.19
 -17   1   0    0.01  154.76
 -17   1   1  799.53  327.53
 -17   1   2  288.61   78.52
 -17   1   3 3266.03  863.84
 -17   1   4  726.06  300.38
 -17   1   5 1253.08  830.17
 -17   1   6 1818.49  381.67
 -17   1   7 1312.84  337.74
 -17   1   8  501.73  341.93
 -17   1   9 1051.49  345.67
 -17   1  10 1358.34  347.84
 -17   1  11  350.14  178.29
 -17   1  12  751.82  233.00
 -17   1  13  388.07  183.34
 -17   2  -1 1409.17  389.79
 -17   2   0 1636.95  374.41
 -17   2   1  590.32  284.31
 -17   2   2   22.59   63.24
 -17   2   3  107.34   62.15
 -17   2   4  464.67  268.05
 -17   2   5   82.29   72.64
 -17   2   6  750.17  269.84
 -17   2   7 1786.30  392.04
 -17   2   8  766.71  457.97
 -17   2   9  108.28  137.89
 -17   2  10  459.70  313.67
 -17   2  11 2703.37  465.67
 -17   2  12 2492.12  428.52
 -17   2  13 3421.73  529.27
 -17   3   0  399.68  161.66
 -17   3   1  813.01  222.18
 -17   3   2 1101.04  264.34
 -17   3   3 1787.33  371.23
 -17   3   4 1934.66  458.46
 -17   3   5 2805.75  483.93
 -17   3   6  436.72  278.74
 -17   3   7 8386.07 1240.67
 -17   3   8 2439.96  637.76
 -17   3   9  515.07  331.67
 -17   3  10 1515.04  520.76
 -17   3  11  817.25  227.76
 -17   3  12  379.93  178.11
 -17   4   1 1713.61  323.82
 -17   4   2  886.75  245.27
 -17   4   3  572.37  239.11
 -17   4   4  903.47  504.69
 -17   4   5 1748.39  693.79
 -17   4   6  197.04  244.63
 -17   4   7 1514.09  616.37
 -17   4   8  191.35  207.51
 -17   4   9 1032.55  412.95
 -17   4  10 1044.30  414.92
 -17   4  11  787.40  517.73
 -17   5   3   28.63  121.50
 -17   5   4  971.98  948.08
 -17   5   5  315.46  211.98
 -17   5   6 5588.96  937.62
 -17   5   7 8927.86 1316.79
 -17   5   8 1480.10  513.16
 -17   5   9 2822.67  664.54
 -16   0  -4 1427.14  408.74
 -16   0  -2   50.95  149.54
 -16   0   0  153.37  140.56
 -16   0   2  374.29  260.10
 -16   0   4  125.72  203.95
 -16   0   6 1372.92  507.87
 -16   0   8  668.26  367.80
 -16   0  10 2571.60  434.97
 -16   0  12  422.93  184.03
 -16   0  14  923.43  384.25
 -16   1  -4 1522.53  315.52
 -16   1  -3 1212.81  234.87
 -16   1  -2 2572.50  428.01
 -16   1  -1  266.89  173.16
 -16   1   0 1468.90  412.88
 -16   1   1  687.19  242.36
 -16   1   2  813.28  189.18
 -16   1   3  182.83   87.91
 -16   1   4 1616.54  693.06
 -16   1   5 1097.44  325.05
 -16   1   6 2762.05  900.67
 -16   1   7 1070.35  294.31
 -16   1   8  688.98  235.27
 -16   1   9   65.39   77.05
 -16   1  10 1440.81  260.81
 -16   1  11 1093.25  231.98
 -16   1  12  124.82  134.86
 -16   1  13  698.15  201.07
 -16   1  14  532.46  208.91
 -16   1  15 2254.53  433.87
 -16   2  -4 2327.21  418.17
 -16   2  -3 1988.09  428.73
 -16   2  -2 2845.34  400.83
 -16   2  -1  739.84  265.85
 -16   2   0  374.60  159.30
 -16   2   1 1385.99  303.12
 -16   2   2  928.27  221.96
 -16   2   3 1780.73  440.20
 -16   2   4 3616.42  917.22
 -16   2   5 2125.94  725.82
 -16   2   6 1011.23  302.79
 -16   2   7  719.71  259.36
 -16   2   8 4040.70 1406.37
 -16   2   9  892.40  195.82
 -16   2  10 1063.43  493.04
 -16   2  11 4374.85 1441.21
 -16   2  12  570.25  207.55
 -16   2  13   15.11   70.11
 -16   2  14   23.52  227.02
 -16   2  15    1.16  127.70
 -16   3  -3 1377.22  358.97
 -16   3  -2 2699.51  518.67
 -16   3  -1 1711.83  291.15
 -16   3   0  817.48  228.72
 -16   3   1  377.82   82.89
 -16   3   2 1202.21  257.20
 -16   3   3 3136.58  441.17
 -16   3   4 1430.26  263.73
 -16   3   5  351.29  349.05
 -16   3   6    6.14   44.07
 -16   3   7  677.96  332.44
 -16   3   8 1336.53  481.73
 -16   3   9 3477.46 1108.27
 -16   3  10 1836.98  385.37
 -16   3  11  380.14  217.96
 -16   3  12  416.03  324.66
 -16   3  13  852.60  383.57
 -16   3  14 1467.80  333.82
 -16   4  -2  544.20  255.38
 -16   4  -1  280.14  227.09
 -16   4   0   10.87  147.12
 -16   4   1   10.90   98.87
 -16   4   2   59.23  119.64
 -16   4   3  296.29  164.24
 -16   4   4 5092.49 1215.65
 -16   4   5 5167.92 1116.53
 -16   4   6 7305.46 1099.23
 -16   4   7 3047.24  716.57
 -16   4   8 2673.01  604.22
 -16   4   9   59.52   34.93
 -16   4  10  946.09  244.68
 -16   4  11  602.61  325.70
 -16   4  12  162.54  148.20
 -16   4  13  352.27  177.86
 -16   5  -1 2306.09  749.34
 -16   5   0 1914.17  626.97
 -16   5   1  690.21  396.01
 -16   5   2  278.30  280.13
 -16   5   3 1225.54  489.19
 -16   5   4 1150.20  426.71
 -16   5   5  268.01  203.10
 -16   5   6   16.24  118.94
 -16   5   7 2876.10  531.84
 -16   5   8   99.96   84.68
 -16   5   9  561.53  183.23
 -16   5  10  379.42  192.23
 -16   5  11 1593.08  359.59
 -16   5  12 3968.52  645.10
 -16   6   1  542.68  307.48
 -16   6   2   15.04  229.78
 -16   6   3   52.27  102.60
 -16   6   4 1255.50  502.47
 -16   6   5 1781.12  549.45
 -16   6   6 5722.34 1124.92
 -16   6   7 3311.11  827.10
 -16   6   8 1585.67  489.85
 -16   6   9 1259.62  360.87
 -16   6  10 2119.70  556.68
 -15   0  -5  356.14  191.54
 -15   0  -3 1004.33  322.91
 -15   0  -1  851.00  261.16
 -15   0   1 1294.72  503.47
 -15   0   3 8766.83 1197.62
 -15   0   514209.76 1433.56
 -15   0   7    7.87   83.14
 -15   0   9 3240.55  468.40
 -15   0  11   14.23   84.15
 -15   0  13   66.65  154.12
 -15   0  15  112.79  177.98
 -15   0  17 6109.98 1148.89
 -15   1  -6 1181.73  255.39
 -15   1  -5 5199.67  612.04
 -15   1  -4 5896.05  626.98
 -15   1  -3 2118.69  334.77
 -15   1  -2 1107.68  222.55
 -15   1  -1  516.81  221.89
 -15   1   0  755.06  230.63
 -15   1   1  784.12  308.38
 -15   1   2 2845.62  887.91
 -15   1   3 3504.90  555.22
 -15   1   4    2.40  100.62
 -15   1   5 4030.50  843.85
 -15   1   6 8600.19 1946.16
 -15   1   714998.58 2861.05
 -15   1   8 3932.01  423.80
 -15   1   9  724.22  198.21
 -15   1  10 3161.10  468.65
 -15   1  11  357.64  144.02
 -15   1  12 2078.15  372.67
 -15   1  13    0.30   74.82
 -15   1  14    4.37  137.18
 -15   1  15  832.64  265.87
 -15   1  16  576.08  272.44
 -15   2  -6 1940.51  383.31
 -15   2  -5  554.04  239.07
 -15   2  -4   20.41  149.59
 -15   2  -3  411.32  129.50
 -15   2  -2 2124.55  351.80
 -15   2  -1 5739.17  829.01
 -15   2   0 3995.58  578.27
 -15   2   1 2127.82  385.54
 -15   2   2 1002.08  258.66
 -15   2   3 1817.21  391.98
 -15   2   4  674.90  167.85
 -15   2   510153.66 2292.29
 -15   2   6  313.26  130.66
 -15   2   7  496.03  205.56
 -15   2   8 2593.66  482.78
 -15   2   9 1525.85  320.08
 -15   2  10  870.09  267.34
 -15   2  11  633.59  245.31
 -15   2  12 1909.92  485.39
 -15   2  13 2267.69  412.95
 -15   2  14 2521.31  456.06
 -15   2  15 4234.63  916.52
 -15   2  16 1080.18  493.58
 -15   3  -5 2993.35  532.90
 -15   3  -4 2131.57  418.43
 -15   3  -3 2177.26  472.63
 -15   3  -2 1324.65  399.67
 -15   3  -1 1397.69  553.81
 -15   3   0 1584.13  324.48
 -15   3   1   72.68  128.01
 -15   3   2  622.37  219.11
 -15   3   3  712.14  208.29
 -15   3   4 6755.50  609.44
 -15   3   5 3774.59  803.39
 -15   3   6 1019.01  298.85
 -15   3   7 2137.86  388.02
 -15   3   8 3968.65  738.34
 -15   3   9 3347.15  471.66
 -15   3  10 1205.18  287.51
 -15   3  11 1190.12  281.74
 -15   3  12  842.01  270.60
 -15   3  13   25.74  118.19
 -15   3  14  449.10  147.91
 -15   3  15   94.22   38.50
 -15   3  16   74.51  111.70
 -15   4  -4  790.59  328.94
 -15   4  -3 1442.38  379.70
 -15   4  -2  838.23  309.07
 -15   4  -1  263.22  235.53
 -15   4   0 2618.34  646.49
 -15   4   1 2977.95  480.24
 -15   4   2 1281.79  322.96
 -15   4   3  659.97  275.68
 -15   4   4  274.60  269.31
 -15   4   5 3295.22 1027.01
 -15   4   6   86.26   73.92
 -15   4   7  149.57  114.95
 -15   4   8 3631.68  527.07
 -15   4   9 1131.43  366.38
 -15   4  10 3132.71  467.14
 -15   4  11   63.99   73.16
 -15   4  12  208.61  159.09
 -15   4  13  926.54  311.53
 -15   4  14 2164.98  722.89
 -15   4  15  955.97  406.58
 -15   5  -3  355.10  260.95
 -15   5  -2 1023.12  436.70
 -15   5  -1 1319.36  495.59
 -15   5   0  263.00  269.29
 -15   5   1  501.20  271.42
 -15   5   2 1171.99  495.30
 -15   5   3  822.74  329.88
 -15   5   4 4522.44  934.00
 -15   5   5 4731.53 1026.65
 -15   5   6 2147.73  401.64
 -15   5   7 3596.99  480.17
 -15   5   8    0.99   91.74
 -15   5   9  957.20  543.05
 -15   5  10 3358.33  675.28
 -15   5  11   14.87   80.59
 -15   5  12  755.84  236.27
 -15   5  13  433.65  319.48
 -15   5  14  845.00  369.73
 -15   6  -2 2872.15  831.72
 -15   6  -1 1911.57  642.85
 -15   6   0 2968.97  757.45
 -15   6   1 3511.04  942.04
 -15   6   2 1612.67  595.58
 -15   6   3  782.78  237.12
 -15   6   4    7.14  222.03
 -15   6   5    1.26  175.39
 -15   6   6  405.10  211.52
 -15   6   7 1263.85  344.75
 -15   6   8 1085.11  311.12
 -15   6   9  104.16  356.82
 -15   6  10  575.63  301.02
 -15   6  11 2508.46  460.06
 -15   6  12 1943.70  759.67
 -15   7   0 1217.17  564.32
 -15   7   1  294.36  256.20
 -15   7   2 1283.91  429.25
 -15   7   3  912.49  463.22
 -15   7   4 2212.81  731.39
 -15   7   5 4120.45  847.10
 -15   7   6 4874.93  638.20
 -15   7   7 5385.73  707.73
 -15   7   8 1906.92  459.20
 -15   7   9 3077.99  523.77
 -15   7  10  811.05  266.01
 -14   0  -8  167.76  165.89
 -14   0  -6 6750.91  787.26
 -14   0  -4  378.42  155.70
 -14   0  -2 3011.22  432.07
 -14   0   0  268.92  134.50
 -14   0   2  923.03  290.89
 -14   0   4 1722.54  461.38
 -14   0   611158.85  827.95
 -14   0   818553.40 1074.54
 -14   0  10   65.31   78.86
 -14   0  12   97.82  106.15
 -14   0  14 2102.74  567.14
 -14   0  16  211.95   52.21
 -14   1  -8 2977.96  456.42
 -14   1  -7  326.78  210.39
 -14   1  -6 2159.94  399.55
 -14   1  -5  555.49  153.93
 -14   1  -4 1788.21  279.03
 -14   1  -3 1896.64  338.97
 -14   1  -2 1841.02  473.51
 -14   1  -1 1832.08  267.25
 -14   1   0 5570.38  637.07
 -14   1   1 7013.78 1116.54
 -14   1   2 7317.45 1691.08
 -14   1   3 6032.81  662.51
 -14   1   4 4194.73  587.56
 -14   1   5 3065.32  348.50
 -14   1   6 5847.31  484.89
 -14   1   7 5675.41 1306.36
 -14   1   8 3525.60  634.95
 -14   1   9  738.27  159.89
 -14   1  10 9108.16  534.58
 -14   1  11  286.33  108.71
 -14   1  12   83.51   75.08
 -14   1  13 3842.41  450.21
 -14   1  14 1601.44  389.79
 -14   1  15 3562.59  564.96
 -14   1  16 5451.67 1946.35
 -14   1  17 6257.47  850.64
 -14   2  -7  174.87  179.20
 -14   2  -6  733.16  258.29
 -14   2  -5 5662.23  658.37
 -14   2  -4 8846.17  888.68
 -14   2  -3 4547.88  678.78
 -14   2  -220673.03 1580.10
 -14   2  -1 3753.23  706.59
 -14   2   0 2877.02  401.97
 -14   2   1  306.09  128.02
 -14   2   2 1740.91  319.59
 -14   2   310470.71 1074.26
 -14   2   4 4006.60  455.17
 -14   2   5 4521.62  717.17
 -14   2   6 3201.39  373.76
 -14   2   7  340.47  195.86
 -14   2   8  112.41   65.30
 -14   2   9 1214.95  252.70
 -14   2  10  342.41  369.06
 -14   2  11  371.98  185.12
 -14   2  12  519.33  160.14
 -14   2  13  508.43  215.05
 -14   2  14   47.57   75.44
 -14   2  15 1036.67  428.56
 -14   2  16 3731.25  857.07
 -14   2  17  222.08  176.91
 -14   3  -7  922.97  262.76
 -14   3  -6  248.43  153.84
 -14   3  -5    0.10  124.97
 -14   3  -4  764.74  245.44
 -14   3  -3  992.22  316.09
 -14   3  -2 1642.58  378.37
 -14   3  -1 2809.42  455.26
 -14   3   012864.41 1051.49
 -14   3   1 7272.13  726.43
 -14   3   2 1132.95  307.14
 -14   3   3 5877.53  657.01
 -14   3   4 4534.44  383.29
 -14   3   5 5901.24  429.80
 -14   3   6 5484.03  498.97
 -14   3   716859.84 1656.70
 -14   3   8    3.54   77.49
 -14   3   9 2096.37  610.64
 -14   3  10  453.48  506.34
 -14   3  11 1356.11  300.31
 -14   3  12 3000.14 1088.99
 -14   3  13 6181.86 1789.71
 -14   3  14 3504.17  513.18
 -14   3  15   88.10  180.61
 -14   3  16  592.62  497.42
 -14   3  17 2385.14  695.78
 -14   4  -6 1380.15  351.68
 -14   4  -5  478.53  316.05
 -14   4  -4 4011.48  615.70
 -14   4  -3 1055.48  294.29
 -14   4  -2 4653.01  646.22
 -14   4  -1  572.91  752.35
 -14   4   0 4018.28  610.68
 -14   4   1 5233.20  657.73
 -14   4   2    1.75  118.03
 -14   4   3  204.41  127.81
 -14   4   4  694.62  244.64
 -14   4   5 3650.43  466.67
 -14   4   6 7729.07  708.58
 -14   4   7 4775.21  480.07
 -14   4   8 4987.32 1096.94
 -14   4   9 4584.13 1235.95
 -14   4  10 2398.94  376.26
 -14   4  11  157.94  170.64
 -14   4  12 1063.15  298.11
 -14   4  13   84.78   80.29
 -14   4  14 3003.77  801.73
 -14   4  15 1564.23  524.01
 -14   4  16 1452.74  562.65
 -14   5  -5  472.64  361.54
 -14   5  -4  483.57  398.29
 -14   5  -3    1.48  255.36
 -14   5  -2  613.11  471.45
 -14   5  -1 1275.05  568.34
 -14   5   0  287.51  273.14
 -14   5   1 1356.95  517.55
 -14   5   2 1367.22  435.01
 -14   5   3  472.76  252.48
 -14   5   4 5509.36  578.88
 -14   5   5 3017.30  451.41
 -14   5   6 2839.56  644.62
 -14   5   7 3541.27  504.34
 -14   5   8    0.71   39.78
 -14   5   9  351.83  338.37
 -14   5  10 3688.51  543.25
 -14   5  11 1610.21  364.66
 -14   5  12 1914.89  372.66
 -14   5  13 1800.13  662.38
 -14   5  14 1020.65  455.35
 -14   5  15  637.53  345.41
 -14   6  -4    0.09  135.79
 -14   6  -3 1326.48  563.42
 -14   6  -2 1866.30  657.24
 -14   6  -1  617.16  382.04
 -14   6   0  275.16  116.43
 -14   6   1  637.95  271.50
 -14   6   2 1305.62  363.13
 -14   6   3 7328.25 1177.59
 -14   6   4 4846.82  664.51
 -14   6   5 1955.27  376.35
 -14   6   6 1766.02  357.42
 -14   6   7 1160.59  378.26
 -14   6   8 2827.59  519.33
 -14   6   9  123.56   83.49
 -14   6  10  151.98  134.09
 -14   6  11 1920.43  369.93
 -14   6  12  121.25  102.19
 -14   6  13 2322.54  737.86
 -14   6  14 1133.32  481.58
 -14   7  -3 2621.09  841.79
 -14   7  -2 3467.55  949.80
 -14   7  -1 2735.01  525.14
 -14   7   0 2921.44  487.13
 -14   7   1  579.75  228.89
 -14   7   2    3.64  118.47
 -14   7   3  104.13  292.37
 -14   7   4  552.64  213.30
 -14   7   5 4215.69  560.38
 -14   7   6   13.41   96.86
 -14   7   7 1462.00  327.26
 -14   7   8 1393.78  351.76
 -14   7   9 1884.37  359.10
 -14   7  10 1525.70  533.99
 -14   7  11 1074.99  316.72
 -14   7  12  957.31  422.71
 -14   8   0  565.55  257.16
 -14   8   1  390.47  225.83
 -14   8   2 1213.88  335.03
 -14   8   3 1341.55  503.20
 -14   8   4 2277.69  454.35
 -14   8   5  558.71  257.72
 -14   8   6  672.12  219.12
 -14   8   7 2322.43  388.49
 -14   8   8  377.12  176.40
 -14   8   9  349.03  196.15
 -14   8  10 1492.75  596.18
 -13   0  -9 3416.85  526.57
 -13   0  -7  148.20   66.46
 -13   0  -5   20.20   63.87
 -13   0  -3  208.10  246.74
 -13   0  -1  208.97  131.63
 -13   0   1   60.47  179.75
 -13   0   311563.11 1207.59
 -13   0   5 1023.02  161.68
 -13   0   7 1060.75  298.44
 -13   0   9    8.65   73.18
 -13   0  1119806.29 1173.59
 -13   0  1325371.35 2052.90
 -13   0  15 3039.85  788.22
 -13   0  17 5750.95 1053.30
 -13   1  -9   31.29   54.02
 -13   1  -8    7.10   26.87
 -13   1  -7 4368.70  438.35
 -13   1  -6 3912.39  409.80
 -13   1  -5 8661.60 1173.39
 -13   1  -4  705.53  187.37
 -13   1  -3 3264.42  549.06
 -13   1  -2 5291.64  500.90
 -13   1  -110874.16  895.04
 -13   1   0 4128.43  721.96
 -13   1   1 3790.79  418.37
 -13   1   2 5993.75  919.57
 -13   1   3   30.01   50.95
 -13   1   4 1018.17  189.97
 -13   1   5 7211.39  936.45
 -13   1   6 8419.13 1153.90
 -13   1   710634.22 1240.65
 -13   1   815370.40  698.76
 -13   1   9 2767.89  436.62
 -13   1  10 8516.16  510.67
 -13   1  11 3288.40  556.99
 -13   1  12 4259.19  562.64
 -13   1  13  767.30  183.29
 -13   1  14  755.80  578.15
 -13   1  15  216.71  196.21
 -13   1  16    0.00  119.31
 -13   1  17 1858.96  444.67
 -13   1  18   37.94  100.27
 -13   2  -9 3208.84  552.24
 -13   2  -8 1731.99  343.05
 -13   2  -7 1574.91  434.99
 -13   2  -6  239.59  181.22
 -13   2  -5 1965.45  414.51
 -13   2  -4  290.96  162.96
 -13   2  -3 1386.87  320.71
 -13   2  -2 6711.37  775.63
 -13   2  -1 9851.75 1399.35
 -13   2   0 8291.66 1331.12
 -13   2   115145.57 1195.69
 -13   2   2 6064.68  452.79
 -13   2   311855.61  920.89
 -13   2   4 2149.23  210.42
 -13   2   5   76.86   99.99
 -13   2   6 2687.42  336.44
 -13   2   7 5105.14 1006.49
 -13   2   8 7562.76  946.37
 -13   2   9 4928.22 1476.99
 -13   2  10  449.18  376.89
 -13   2  11 7609.02 1898.86
 -13   2  12 4986.02 1014.53
 -13   2  13 3677.19  442.73
 -13   2  14 3172.18  579.51
 -13   2  15 7329.41  835.19
 -13   2  16  885.19  279.49
 -13   2  17 4756.96  699.55
 -13   2  18    0.38  159.11
 -13   3  -8  560.36  204.74
 -13   3  -7  324.22  191.93
 -13   3  -6 5566.31  683.25
 -13   3  -5  954.83  266.98
 -13   3  -4 4095.66  449.30
 -13   3  -3 2321.03  318.93
 -13   3  -213407.87  762.78
 -13   3  -125515.61 1057.12
 -13   3   0 1325.00  240.88
 -13   3   1 1130.06  201.52
 -13   3   2 1122.30  180.13
 -13   3   3 5321.81  450.05
 -13   3   410806.77  648.56
 -13   3   517458.69  854.73
 -13   3   6  169.20   97.66
 -13   3   7 3434.44 1062.32
 -13   3   814711.71 3802.21
 -13   3   9   26.58   71.63
 -13   3  10   60.86   64.07
 -13   3  11 1189.41  274.32
 -13   3  12 1489.65  329.61
 -13   3  13   83.78  113.56
 -13   3  14 6113.61 1183.90
 -13   3  15 3455.42  866.38
 -13   3  16  360.77  321.45
 -13   3  17 2749.46  736.44
 -13   3  18  348.01  312.83
 -13   4  -8  634.93  271.61
 -13   4  -7 2606.51  491.16
 -13   4  -6  297.10   89.20
 -13   4  -5 1021.10  210.51
 -13   4  -4 1314.25  233.80
 -13   4  -3  379.28  198.38
 -13   4  -2 1957.84  320.97
 -13   4  -1 9970.49 1502.26
 -13   4   0 9168.71  709.78
 -13   4   110377.86  673.38
 -13   4   2 3023.68  297.85
 -13   4   3 3440.38  483.82
 -13   4   4 6935.46  657.81
 -13   4   518413.90 1070.95
 -13   4   6 7460.07  674.71
 -13   4   7 1678.78  288.41
 -13   4   8 1358.19  398.37
 -13   4   9 1922.90  416.64
 -13   4  10 9947.03 1971.51
 -13   4  11 7422.35  753.65
 -13   4  12 4384.20  557.92
 -13   4  13  457.76  188.39
 -13   4  14  886.16  445.66
 -13   4  15  546.70  296.26
 -13   4  16 2450.48  725.88
 -13   4  17 3918.05  995.60
 -13   5  -7  610.01  270.01
 -13   5  -6 2042.52  400.76
 -13   5  -5 1827.24  669.63
 -13   5  -4 4392.38  581.79
 -13   5  -3 6838.61  734.44
 -13   5  -2 4462.14  572.21
 -13   5  -1   20.26  132.65
 -13   5   0 2785.30  438.39
 -13   5   1 2282.84  444.35
 -13   5   2 2381.08  384.49
 -13   5   3  448.65  147.92
 -13   5   4 5314.42  581.70
 -13   5   5 8144.06  798.45
 -13   5   6 1486.23  318.75
 -13   5   7 5498.73  579.64
 -13   5   8 2608.30  426.07
 -13   5   912653.15  969.01
 -13   5  10 1464.96  560.60
 -13   5  11  897.73  531.79
 -13   5  12  586.34  161.25
 -13   5  13 2083.96  647.86
 -13   5  14 7729.16 1256.81
 -13   5  15 2299.72  703.48
 -13   5  16  412.41  265.02
 -13   6  -6  132.02  168.22
 -13   6  -5   26.21   77.03
 -13   6  -4   11.63   62.22
 -13   6  -3  166.89  111.95
 -13   6  -2 1081.46  280.25
 -13   6  -1  260.78  169.00
 -13   6   0  137.39  134.61
 -13   6   1 6315.38  536.58
 -13   6   2 1071.36  235.03
 -13   6   3 2624.81  499.14
 -13   6   4 2903.33  474.48
 -13   6   5 4976.80  669.95
 -13   6   6 1780.42  346.93
 -13   6   7  288.18  135.73
 -13   6   8 1835.27  360.37
 -13   6   9 2229.73  379.13
 -13   6  10 1417.09  318.57
 -13   6  11 2851.71  691.98
 -13   6  12 1318.68  405.95
 -13   6  13  590.98  322.55
 -13   6  14 5012.97 1003.55
 -13   6  15 1285.39  542.94
 -13   7  -5  127.93   81.41
 -13   7  -4 2769.56  508.77
 -13   7  -3  727.34  258.50
 -13   7  -2  242.90  211.25
 -13   7  -1  738.57  268.96
 -13   7   0 1308.41  363.29
 -13   7   1  202.61   87.36
 -13   7   2 1226.42  254.04
 -13   7   3    4.08   90.89
 -13   7   4 1252.73  373.39
 -13   7   5 2575.58  555.06
 -13   7   6  827.30  203.83
 -13   7   7  307.47  176.91
 -13   7   8  524.65  210.44
 -13   7   9  781.16  240.34
 -13   7  10 2347.47  393.02
 -13   7  11 2162.12  635.68
 -13   7  12 3426.10  826.94
 -13   7  13 8842.54 1372.00
 -13   7  14 1006.48  453.03
 -13   8  -3  993.67  311.12
 -13   8  -2  725.81  287.57
 -13   8  -1  477.92  273.09
 -13   8   0  860.76  249.65
 -13   8   1 1551.84  601.46
 -13   8   2 1086.28  192.54
 -13   8   3  311.04  139.99
 -13   8   4 3153.71  559.30
 -13   8   5 2195.88  464.13
 -13   8   610015.91  982.06
 -13   8   7    1.89  163.02
 -13   8   8 1874.17  349.45
 -13   8   9  212.48  141.73
 -13   8  10    0.23  290.90
 -13   8  11  361.58  225.44
 -13   8  12  850.77  434.00
 -13   9   0  421.07  181.37
 -13   9   1 1372.92  371.22
 -13   9   2 1290.97  285.40
 -13   9   3 2486.98  465.88
 -13   9   4  151.82  154.59
 -13   9   5 1009.29  318.09
 -13   9   6   49.43  138.51
 -13   9   7 1599.89  429.61
 -13   9   8 1036.91  291.99
 -13   9   9 1018.13  453.61
 -12   0 -10   66.38   91.18
 -12   0  -8    5.95   69.90
 -12   0  -632437.98 1209.36
 -12   0  -434876.22 1209.27
 -12   0  -244817.20 1281.39
 -12   0   0 6364.02  395.62
 -12   0   2  942.40  394.56
 -12   0   4  948.58  197.09
 -12   0   6 3052.09  460.10
 -12   0   825108.76 1606.05
 -12   0  10  199.70  216.36
 -12   0  1213001.38 1375.74
 -12   0  1420452.11 1904.52
 -12   0  16 3540.97  866.74
 -12   0  18   13.32  238.19
 -12   1 -10 1523.31  251.88
 -12   1  -9  350.49  115.97
 -12   1  -8  424.20  168.99
 -12   1  -7  246.40   93.64
 -12   1  -6 1259.19  215.86
 -12   1  -5 1712.10  238.28
 -12   1  -4 5986.10  619.38
 -12   1  -3 1381.74  210.66
 -12   1  -219579.87 1959.77
 -12   1  -113537.53 1547.41
 -12   1   0 1967.34  246.06
 -12   1   1 6318.25  362.47
 -12   1   310226.94  427.75
 -12   1   4 3292.49  361.62
 -12   1   518725.47 2622.94
 -12   1   6 1974.08  270.47
 -12   1   7 4559.67  579.83
 -12   1   8  368.53   90.57
 -12   1   9 2401.72  259.97
 -12   1  1012689.49  522.80
 -12   1  1116942.17 2134.25
 -12   1  1224764.66 1492.01
 -12   1  13 1866.86  285.02
 -12   1  14 4270.99  436.34
 -12   1  15 8993.92  940.02
 -12   1  16 2858.63  395.06
 -12   1  17  527.92  183.45
 -12   1  18   37.00   72.03
 -12   1  19   49.09   73.16
 -12   2 -10   26.64  115.54
 -12   2  -9  126.12   57.28
 -12   2  -8  266.96   52.68
 -12   2  -7  187.28   96.97
 -12   2  -6  873.45  164.42
 -12   2  -5  191.22  112.84
 -12   2  -4 6044.95  730.67
 -12   2  -310818.49 1519.49
 -12   2  -2 8082.69  546.72
 -12   2  -1 6734.60  747.20
 -12   2   0 4919.91  393.27
 -12   2   1  115.24   44.51
 -12   2   2  272.45  147.10
 -12   2   3 7583.12  703.25
 -12   2   418974.76  817.82
 -12   2   511181.58  674.82
 -12   2   610012.36 1514.79
 -12   2   7 3402.60  334.72
 -12   2   8 6582.98  840.39
 -12   2   9 4910.76  508.66
 -12   2  10 6422.59  836.29
 -12   2  11 4114.07  348.20
 -12   2  1220316.01 1278.46
 -12   2  13 3825.66  627.10
 -12   2  1414437.69  865.08
 -12   2  15 1953.42  285.56
 -12   2  16  216.05  163.88
 -12   2  17 2004.38  372.33
 -12   2  18 1144.07  283.33
 -12   2  19 1365.74  365.64
 -12   3 -10  498.76  228.59
 -12   3  -9  246.66   88.60
 -12   3  -8   39.40   55.88
 -12   3  -7 2393.42  326.98
 -12   3  -6  391.89  123.39
 -12   3  -5 1900.52  300.31
 -12   3  -4 9955.03  743.39
 -12   3  -3 1118.62  191.26
 -12   3  -2 2823.28  336.34
 -12   3  -120930.98 1772.47
 -12   3   018569.19  654.04
 -12   3   1 5689.83  400.74
 -12   3   216244.47  625.23
 -12   3   410623.92  638.72
 -12   3   512887.85  712.43
 -12   3   6  727.84  214.15
 -12   3   7 6369.82  649.37
 -12   3   812338.41 1657.60
 -12   3   9 5147.20  714.99
 -12   3  10 1244.95  641.60
 -12   3  11 1367.83  301.20
 -12   3  12  780.57  176.20
 -12   3  1312926.16  694.31
 -12   3  14   22.43   86.74
 -12   3  15 6703.47  746.59
 -12   3  16 1895.42  418.17
 -12   3  17  396.56  174.40
 -12   3  18  581.24  383.17
 -12   4  -9  652.95  207.09
 -12   4  -8  286.22  106.83
 -12   4  -7  771.90  200.65
 -12   4  -6 2014.14  305.80
 -12   4  -5 4249.17  714.23
 -12   4  -4 2715.56  357.14
 -12   4  -3   69.54  134.42
 -12   4  -2  999.56  190.97
 -12   4  -1  475.09  151.84
 -12   4   0 1294.41  172.34
 -12   4   1 1299.92  197.40
 -12   4   2 3899.09  305.58
 -12   4   3   84.47   68.44
 -12   4   4 7098.51  670.22
 -12   4   5 5767.78  566.67
 -12   4   6 8316.18  702.14
 -12   4   7 6605.24  649.57
 -12   4   8  123.31  111.01
 -12   4   9 7278.84 1092.64
 -12   4  10 1507.92  275.01
 -12   4  11  425.36  112.71
 -12   4  12 1671.36  534.14
 -12   4  13 1615.46  313.88
 -12   4  14 1446.27  483.65
 -12   4  15  860.50  417.55
 -12   4  16  115.89  129.92
 -12   4  17  425.88  348.92
 -12   4  18    6.61   99.76
 -12   5  -9 2231.83  470.41
 -12   5  -8 1872.84  409.66
 -12   5  -7  584.26  209.08
 -12   5  -6   19.57  174.43
 -12   5  -5  133.05  166.66
 -12   5  -4  102.65  294.31
 -12   5  -3   14.85   84.32
 -12   5  -2 1800.50  372.18
 -12   5  -1  581.11  150.65
 -12   5   0 4359.76  381.85
 -12   5   1 2484.90  306.85
 -12   5   2 1238.77  258.85
 -12   5   3 2630.47  310.81
 -12   5   4 9690.09  822.80
 -12   5   524710.23 1313.42
 -12   5   620769.59 1227.46
 -12   5   7 2417.11  411.25
 -12   5   8 9364.42  763.23
 -12   5   9 1095.34  402.17
 -12   5  10  776.42  235.13
 -12   5  11  939.61  217.92
 -12   5  12 4798.41  766.99
 -12   5  13   77.95  130.01
 -12   5  14 1977.39  682.14
 -12   5  15 2337.69  627.35
 -12   5  16 4023.81  906.68
 -12   5  17 2414.63  707.11
 -12   6  -8  449.78  189.64
 -12   6  -7   96.30   93.37
 -12   6  -6 1133.12  334.44
 -12   6  -5 2263.56  434.11
 -12   6  -4 3783.84  581.70
 -12   6  -3 2488.28  480.46
 -12   6  -2 4716.48  578.79
 -12   6  -119038.01 1009.04
 -12   6   0 9444.94  701.86
 -12   6   119298.00  919.53
 -12   6   2 3193.16  372.74
 -12   6   3 2898.83  369.20
 -12   6   4 7132.17  758.93
 -12   6   5 1592.02  342.05
 -12   6   6  299.81  433.76
 -12   6   7 1041.63  282.32
 -12   6   8  779.89  231.83
 -12   6   9  397.05  195.80
 -12   6  10 2706.14  637.64
 -12   6  11 5370.68  635.35
 -12   6  12 3155.36  471.24
 -12   6  13 6252.39 1136.58
 -12   6  14 1572.08  525.97
 -12   6  15 1012.34  517.42
 -12   6  16  319.02  199.88
 -12   7  -6  426.76  166.21
 -12   7  -5    8.24  115.70
 -12   7  -4  653.27  315.90
 -12   7  -3  667.58  232.26
 -12   7  -2  234.67  157.17
 -12   7  -1 1781.13  429.92
 -12   7   0 5226.64  501.21
 -12   7   113214.98  792.39
 -12   7   215660.63  927.36
 -12   7   3 3846.97  421.58
 -12   7   4 5002.47  583.14
 -12   7   5 9246.06  810.43
 -12   7   6 2622.05  443.77
 -12   7   7 6184.32  717.87
 -12   7   8  298.67  176.37
 -12   7   9  337.92  182.18
 -12   7  10  151.40  111.50
 -12   7  11  730.44  399.74
 -12   7  12  880.81  415.21
 -12   7  13 3336.54  865.71
 -12   7  14 8152.39 1374.75
 -12   7  15 6486.78 1219.19
 -12   8  -5  583.47  217.75
 -12   8  -4 1615.95  380.99
 -12   8  -3  452.96  193.28
 -12   8  -2  478.29  211.88
 -12   8  -1  346.54  216.20
 -12   8   0 1056.31  291.49
 -12   8   1 4838.90  490.47
 -12   8   2  166.60  144.08
 -12   8   3  375.58  214.75
 -12   8   4  937.78  250.18
 -12   8   5 5139.87  622.02
 -12   8   6 3991.93  598.81
 -12   8   7 1380.23  318.54
 -12   8   8 3102.72  516.23
 -12   8   9 7519.56  815.15
 -12   8  10  744.66  400.34
 -12   8  11 4733.83  979.03
 -12   8  12 1943.17  637.88
 -12   8  13 4638.71 1010.95
 -12   9  -3 1186.35  364.33
 -12   9  -2 3304.57  570.46
 -12   9  -1  387.38  172.15
 -12   9   0 1071.59  314.68
 -12   9   1  768.70  198.72
 -12   9   2  292.80  160.27
 -12   9   3  717.78  235.25
 -12   9   4  819.17  251.79
 -12   9   5 3266.55  497.02
 -12   9   6 1831.52  405.43
 -12   9   7 5251.83  746.73
 -12   9   8  482.55  227.23
 -12   9   9  108.45  169.04
 -12   9  10  586.60  344.00
 -12   9  11  683.51  420.61
 -12  10   1  334.75  204.47
 -12  10   2   88.51  140.11
 -12  10   3  121.53  193.42
 -12  10   4  265.24  176.34
 -12  10   5    5.31  265.89
 -12  10   6 1182.37  312.57
 -12  10   7   92.64   80.90
 -11   0  -9  132.53   95.84
 -11   0  -7   49.17   74.54
 -11   0  -5 1773.69  260.28
 -11   0  -317969.04  764.31
 -11   0  -1  434.92   87.68
 -11   0   1  179.80  150.74
 -11   0   3   17.01   27.36
 -11   0   5 1163.74  211.32
 -11   0   7 1022.36  192.83
 -11   0   9 1065.15  170.92
 -11   0  11  464.38  314.09
 -11   0  13 1400.84  459.55
 -11   0  1512418.18 1489.33
 -11   0  17  187.02  161.99
 -11   0  19    9.54  280.19
 -11   1 -10  705.40  121.99
 -11   1  -9  726.35  145.88
 -11   1  -8 2525.65  242.25
 -11   1  -712945.77  837.25
 -11   1  -615932.83  812.27
 -11   1  -5 2743.99  247.54
 -11   1  -412344.01  684.03
 -11   1  -320442.95  619.98
 -11   1  -2  175.36   85.72
 -11   1  -1 9744.81  791.78
 -11   1   0 1664.87  149.35
 -11   1   1 4352.48  482.59
 -11   1   2 6696.74  285.49
 -11   1   3   28.51   19.34
 -11   1   4 2467.77  196.50
 -11   1   5 3613.97  250.16
 -11   1   6 7025.82  872.46
 -11   1   7 4987.91  335.73
 -11   1   8 1252.20  166.14
 -11   1   9 7033.34  720.34
 -11   1  10  984.63  130.51
 -11   1  11 5963.24  421.41
 -11   1  12 2537.09  280.23
 -11   1  1313767.09 1780.32
 -11   1  14  920.64  189.37
 -11   1  15 4163.85  481.53
 -11   1  16  848.95  227.23
 -11   1  17  244.61  146.89
 -11   1  18 2068.20  389.41
 -11   1  19  356.27  111.77
 -11   2 -10  847.99  186.90
 -11   2  -9 1325.46  209.46
 -11   2  -8 1202.79  191.67
 -11   2  -7  136.88   69.83
 -11   2  -6 4123.62  356.20
 -11   2  -535387.96 1040.85
 -11   2  -4 7560.52  464.14
 -11   2  -312788.73 1422.99
 -11   2  -218898.29  720.91
 -11   2  -1 9994.14  330.10
 -11   2   0 9317.07  655.24
 -11   2   128170.55 1249.58
 -11   2   2 9059.89  517.94
 -11   2   314913.90  717.32
 -11   2   4 2001.41  203.16
 -11   2   5 4626.16  280.97
 -11   2   6  627.00  146.26
 -11   2   7  661.55   78.53
 -11   2   8 2239.08  227.56
 -11   2   9 3194.17  232.89
 -11   2  10 9645.16  500.54
 -11   2  1111399.54  869.73
 -11   2  12  550.20  149.79
 -11   2  13 2710.29  305.24
 -11   2  14 6825.02  601.08
 -11   2  1528753.10 1253.80
 -11   2  16 3305.90  461.15
 -11   2  17 2685.88  396.79
 -11   2  18  313.34  182.68
 -11   2  19 3510.20  488.31
 -11   3 -10  926.68  198.12
 -11   3  -9 1931.97  257.45
 -11   3  -8 1879.58  237.69
 -11   3  -7  974.36  158.22
 -11   3  -6  306.72   88.30
 -11   3  -5 3075.98  295.42
 -11   3  -4 5692.05  817.51
 -11   3  -3 1191.02  159.19
 -11   3  -213824.74  863.54
 -11   3   011904.63  958.62
 -11   3   1 4524.08  245.87
 -11   3   2 1519.74  160.39
 -11   3   3 6381.49  461.36
 -11   3   4 3618.26  330.52
 -11   3   520371.64 1176.59
 -11   3   6 1232.04  267.06
 -11   3   7 7983.90 1457.11
 -11   3   833477.21  933.15
 -11   3   9 5734.59  562.61
 -11   3  1038396.46 1759.84
 -11   3  11 7744.34  486.49
 -11   3  1217725.19  798.67
 -11   3  13 5190.12  431.99
 -11   3  14 2016.23  277.36
 -11   3  15 9791.57  832.39
 -11   3  16 1926.52  404.04
 -11   3  17  481.87  246.85
 -11   3  18    0.17  176.90
 -11   3  19  903.05  327.67
 -11   4 -10 1016.51  319.24
 -11   4  -9 2997.94  415.92
 -11   4  -8 5792.71  535.99
 -11   4  -7 2361.37  355.63
 -11   4  -6 1781.84  296.90
 -11   4  -5 4933.59  643.22
 -11   4  -4  362.96   82.92
 -11   4  -3 4902.70  453.12
 -11   4  -2 3974.57  323.32
 -11   4  -117268.32  667.56
 -11   4   0 3807.30  309.99
 -11   4   1 5103.92  407.56
 -11   4   2  118.05   79.47
 -11   4   3 4707.79  451.84
 -11   4   4 4640.20  504.73
 -11   4   523400.45 1166.80
 -11   4   6 9193.97  418.11
 -11   4   714721.06  603.01
 -11   4   8 1850.35  259.84
 -11   4   911028.08  598.28
 -11   4  10 3638.69  519.91
 -11   4  11 5634.21  464.31
 -11   4  1225758.14 4329.81
 -11   4  13 9687.75  585.74
 -11   4  1411934.31  912.64
 -11   4  15 1778.93  517.45
 -11   4  16 3240.90  491.57
 -11   4  17  300.05  195.97
 -11   4  18  234.39  171.20
 -11   5 -10 2045.71  448.05
 -11   5  -9 2455.62  488.10
 -11   5  -8  178.49  127.95
 -11   5  -7  849.43  271.03
 -11   5  -6  574.49  293.88
 -11   5  -5 3329.76  507.40
 -11   5  -4 4042.53  560.81
 -11   5  -317125.51 1106.90
 -11   5  -2 4616.87  571.92
 -11   5  -1 6212.79  663.21
 -11   5   0 2068.91  269.03
 -11   5   1 7773.37  562.28
 -11   5   2 2456.39  312.98
 -11   5   3 9067.63  548.46
 -11   5   4 3957.19  489.06
 -11   5   5 4350.27  540.03
 -11   5   6 4401.87  329.78
 -11   5   7 1221.26  162.21
 -11   5   8 7164.21  462.09
 -11   5   912231.72  779.94
 -11   5  10 7337.20  509.63
 -11   5  11 7016.37  515.42
 -11   5  12 3536.07  659.74
 -11   5  13  626.49  184.82
 -11   5  14 2699.66  493.40
 -11   5  15 1841.74  378.12
 -11   5  16    6.68   46.65
 -11   5  17 2886.15  513.94
 -11   5  18   43.51  232.46
 -11   6  -9  712.82  261.99
 -11   6  -8 1092.18  359.44
 -11   6  -7 1319.44  371.84
 -11   6  -6  128.27  196.10
 -11   6  -5  725.93  244.96
 -11   6  -4 2551.95  637.74
 -11   6  -3 3671.22  561.29
 -11   6  -2 5388.67  668.04
 -11   6  -1 3437.29  449.17
 -11   6   0 6657.08  676.89
 -11   6   1 1554.37  216.64
 -11   6   214802.54  827.71
 -11   6   4 8235.50  736.09
 -11   6   5 2972.43  481.30
 -11   6   617927.70 1130.07
 -11   6   715514.17 1076.18
 -11   6   8 4065.73  383.74
 -11   6   9 7450.95  527.97
 -11   6  10 2134.99  335.32
 -11   6  11  882.08  187.58
 -11   6  12 6377.99 1002.88
 -11   6  13 2638.38  445.70
 -11   6  14 6396.89  702.12
 -11   6  15  203.44  146.30
 -11   6  16 3595.66  597.12
 -11   6  17 1415.37  551.33
 -11   7  -8   81.79  127.16
 -11   7  -7    6.50  117.95
 -11   7  -6 5336.44  715.20
 -11   7  -5 3930.05  599.92
 -11   7  -4 3478.36  762.20
 -11   7  -3 1447.05  455.98
 -11   7  -210289.44  993.10
 -11   7  -1 6131.99  721.96
 -11   7   0 7991.06  860.01
 -11   7   1  828.65  249.29
 -11   7   2  439.47  176.43
 -11   7   3 1185.80  329.09
 -11   7   4 5571.92  633.01
 -11   7   5  312.20  311.82
 -11   7   6 1156.23  266.58
 -11   7   7 2181.94  405.97
 -11   7   8 2859.64  435.60
 -11   7   9 3917.06  506.56
 -11   7  10 5053.87  598.87
 -11   7  11 3140.97  775.27
 -11   7  12 4282.39  920.86
 -11   7  13 3054.77  791.37
 -11   7  14  476.70  310.46
 -11   7  15  551.16  317.80
 -11   7  16  207.33  229.24
 -11   8  -6  196.86  245.93
 -11   8  -5 2965.91  590.13
 -11   8  -4 2321.89  454.70
 -11   8  -3   80.13   85.23
 -11   8  -2 1671.03  426.21
 -11   8  -1  998.92  311.63
 -11   8   0 2145.57  458.19
 -11   8   1 1617.01  356.48
 -11   8   2 6516.23  625.60
 -11   8   3 7280.92  623.12
 -11   8   4 1461.41  275.26
 -11   8   5 1484.09  370.75
 -11   8   6  657.54  194.13
 -11   8   7 1021.37  258.21
 -11   8   8 4436.88  572.71
 -11   8   9 1397.43  336.32
 -11   8  10  731.56  393.53
 -11   8  11  195.89  239.37
 -11   8  12 2980.52  793.63
 -11   8  13  931.94  419.27
 -11   8  14  795.71  332.68
 -11   9  -5 7725.04  951.45
 -11   9  -4 1035.09  312.79
 -11   9  -3  471.19  251.93
 -11   9  -2  560.60  218.29
 -11   9  -1  199.10  119.48
 -11   9   0  440.03  249.22
 -11   9   1  457.88  191.22
 -11   9   2  680.90  191.09
 -11   9   3  170.93  193.10
 -11   9   4 1897.97  414.33
 -11   9   5  519.92  201.21
 -11   9   6  517.47  260.83
 -11   9   7 2693.26  468.26
 -11   9   8 2804.53  439.13
 -11   9   9  474.08  341.66
 -11   9  10 5234.47 1097.05
 -11   9  11 3903.16  923.86
 -11   9  12 1524.79  584.89
 -11  10  -2  200.14  131.35
 -11  10  -1  487.92  228.36
 -11  10   0  715.17  281.09
 -11  10   1  498.37  255.45
 -11  10   2 4502.05  701.03
 -11  10   3 2249.72  409.68
 -11  10   4 5327.61  693.60
 -11  10   5 1799.82  416.76
 -11  10   6 4050.38  648.46
 -11  10   7   79.98  101.27
 -11  10   8  798.08  441.23
 -11  10   9 2259.79  690.53
 -10   0  -8 1181.83  192.66
 -10   0  -6   13.19   33.54
 -10   0  -426163.52  958.74
 -10   0  -2 4345.87  333.55
 -10   0   0 4815.08  311.71
 -10   0   2 1112.42  142.74
 -10   0   4  389.30   54.30
 -10   0   6 2411.14  213.90
 -10   0   812431.55  696.94
 -10   0  1016638.31 1021.26
 -10   0  1259888.75 3098.26
 -10   0  14    1.12  204.30
 -10   0  16 5165.73  976.31
 -10   0  18  295.26  248.27
 -10   0  20  342.70  138.30
 -10   1  -9  557.45   96.84
 -10   1  -812574.23  794.31
 -10   1  -7 3263.38  291.13
 -10   1  -6   54.58   42.49
 -10   1  -5 3511.90  256.98
 -10   1  -415437.30 1371.43
 -10   1  -3 3616.40  240.11
 -10   1  -2 2904.08  209.42
 -10   1  -1 1461.77  133.89
 -10   1   0  415.94   57.55
 -10   1   1 6043.57  231.95
 -10   1   221265.29  625.60
 -10   1   3 5027.55  367.09
 -10   1   5 4049.75  216.76
 -10   1   614052.60 1078.92
 -10   1   728015.96  689.19
 -10   1   8 3196.31  418.66
 -10   1   9 4353.32  532.95
 -10   1  10 6892.36  794.01
 -10   1  11 1059.72  194.74
 -10   1  12 5878.44 1139.71
 -10   1  1313432.80 3514.18
 -10   1  14 2062.83  442.19
 -10   1  1523284.79 1473.94
 -10   1  16 2915.92  389.81
 -10   1  17   81.97   61.61
 -10   1  18  346.98  155.79
 -10   1  19 1069.73  263.91
 -10   1  20  210.00  103.65
 -10   2  -9 1484.46  202.26
 -10   2  -811444.83  550.60
 -10   2  -7 5763.72  416.86
 -10   2  -6  974.44  161.97
 -10   2  -5 2153.66  215.49
 -10   2  -426721.58  900.35
 -10   2  -3 7877.94  761.56
 -10   2  -2 2318.90  276.36
 -10   2  -1 1831.81  123.64
 -10   2   011164.95  383.97
 -10   2   1 4350.35  210.85
 -10   2   2 7931.36  291.58
 -10   2   3  324.96   75.84
 -10   2   410294.50  714.40
 -10   2   5 6078.02  349.54
 -10   2   6 4678.24  210.73
 -10   2   7  442.64  141.30
 -10   2   8   18.97   36.78
 -10   2   9 3935.64  279.88
 -10   2  10 5929.97  472.26
 -10   2  11 3360.93  384.13
 -10   2  12 3837.12  397.05
 -10   2  13 9165.28  623.68
 -10   2  14 5854.07  562.00
 -10   2  15 1272.94  311.25
 -10   2  16 5983.65  627.53
 -10   2  17   79.53   89.14
 -10   2  18 2434.30  393.77
 -10   2  19  143.30  123.86
 -10   3  -9 6340.06  534.69
 -10   3  -8 2551.83  341.07
 -10   3  -717548.63  911.88
 -10   3  -6 7423.27  577.59
 -10   3  -5 3274.90  363.84
 -10   3  -4 1406.01  237.66
 -10   3  -3 1927.38  347.43
 -10   3  -212148.27  420.73
 -10   3  -1  640.74  102.25
 -10   3   0 1873.89  111.56
 -10   3   1   54.35   44.48
 -10   3   2 4718.88  376.39
 -10   3   3 8402.81  492.73
 -10   3   419100.93  981.88
 -10   3   529469.51 1286.55
 -10   3   6 3918.75  253.94
 -10   3   7 7628.68  429.90
 -10   3   8 6243.04  424.68
 -10   3   9 3732.47  824.54
 -10   3  10 2362.67  344.15
 -10   3  1113160.22  801.11
 -10   3  12 3643.09  863.78
 -10   3  13 6385.54 1120.41
 -10   3  14  801.34  313.95
 -10   3  15 3398.21  515.71
 -10   3  16  467.99  250.52
 -10   3  17 3650.53  663.45
 -10   3  18 4163.81  618.83
 -10   3  19  132.06  126.08
 -10   4  -9 1805.57  295.52
 -10   4  -8 5086.49  509.43
 -10   4  -7 1396.28  248.45
 -10   4  -6    0.57   98.35
 -10   4  -5 6123.06  511.51
 -10   4  -414080.52  967.23
 -10   4  -320969.34 1203.46
 -10   4  -216901.77 1316.56
 -10   4  -1 9713.93  361.55
 -10   4   0 1627.81  139.42
 -10   4   1 3125.56  181.21
 -10   4   2  358.58   62.85
 -10   4   3 6889.62  896.66
 -10   4   4  186.48  118.60
 -10   4   5 4982.31  305.70
 -10   4   6  982.89  136.90
 -10   4   7 3405.64  310.82
 -10   4   822553.15  835.59
 -10   4   926815.95 2973.11
 -10   4  10 5100.47 1047.37
 -10   4  1117254.38 1233.20
 -10   4  12 2373.46  568.25
 -10   4  13  483.68  214.39
 -10   4  14  942.65  587.05
 -10   4  15  162.91   72.03
 -10   4  16  622.93  248.84
 -10   4  17 1560.87  396.55
 -10   4  18  168.75   93.02
 -10   4  19  347.10  210.44
 -10   5  -9 1563.37  433.92
 -10   5  -8 1702.23  385.41
 -10   5  -7 1652.32  370.16
 -10   5  -6 7484.53  795.51
 -10   5  -5 3147.60  485.44
 -10   5  -4 1597.34  346.07
 -10   5  -3 8986.47  804.50
 -10   5  -214418.32 1021.76
 -10   5  -1 2203.92  380.03
 -10   5   011893.05  841.80
 -10   5   1 6253.76  480.27
 -10   5   219560.87 1066.82
 -10   5   3 9487.57  923.07
 -10   5   4 9643.49  983.07
 -10   5   523256.19  819.50
 -10   5   616866.63  717.61
 -10   5   7 1554.07  209.92
 -10   5   8 7464.30  460.53
 -10   5   9 6311.41  467.00
 -10   5  10 5102.04  537.24
 -10   5  11 5033.73  723.12
 -10   5  12 6580.50  630.06
 -10   5  13 8805.61 1130.40
 -10   5  14 5355.92  643.31
 -10   5  15  782.68  196.31
 -10   5  16  679.40  260.35
 -10   5  17  546.37  248.91
 -10   5  18 1329.14  356.03
 -10   6  -9   54.42  117.33
 -10   6  -8   68.01  126.46
 -10   6  -7 1482.64  396.84
 -10   6  -6 1417.03  349.52
 -10   6  -5 3697.71  544.51
 -10   6  -4  451.45  199.26
 -10   6  -3 4911.86  630.35
 -10   6  -2 2561.01  441.27
 -10   6  -1 1150.48  258.28
 -10   6   0 1108.90  319.78
 -10   6   1 1760.80  319.99
 -10   6   2 7491.02  604.72
 -10   6   311438.72  682.24
 -10   6   4  797.48  209.91
 -10   6   5 5667.20  427.12
 -10   6   6 3325.48  343.71
 -10   6   710929.85  618.96
 -10   6   815014.03  730.89
 -10   6   911656.37  645.76
 -10   6  10  805.10  210.57
 -10   6  1110210.58  839.30
 -10   6  12   65.40   66.13
 -10   6  13 9479.20  831.39
 -10   6  14 1066.66  289.73
 -10   6  15  695.80  228.74
 -10   6  16  478.78  224.35
 -10   6  17  619.99  297.40
 -10   7  -9 1327.34  448.01
 -10   7  -8  427.06  153.42
 -10   7  -7 1408.65  517.47
 -10   7  -6  525.91  254.16
 -10   7  -5 4652.04  685.16
 -10   7  -4 2270.68  432.62
 -10   7  -3 2580.80  441.35
 -10   7  -2  153.27  135.27
 -10   7  -1 3312.37  490.04
 -10   7   0  638.70  178.27
 -10   7   1 3025.39  396.04
 -10   7   2 4318.69  549.72
 -10   7   311854.25  779.64
 -10   7   421524.08 1231.62
 -10   7   5 6342.87  484.38
 -10   7   6 7732.89  561.74
 -10   7   7 3381.92  347.87
 -10   7   8 4182.94  406.42
 -10   7   9 1778.90  261.99
 -10   7  10 1258.93  229.29
 -10   7  11 2019.91  389.98
 -10   7  12  193.62  184.04
 -10   7  13   82.69   57.91
 -10   7  14  995.02  286.97
 -10   7  15 1843.31  406.04
 -10   7  1610120.83 1223.82
 -10   8  -8 1000.06  332.70
 -10   8  -7 9871.60 1051.01
 -10   8  -6 2254.07  492.71
 -10   8  -5 1178.14  352.84
 -10   8  -4 4063.27  898.61
 -10   8  -3 4070.14  588.44
 -10   8  -2  430.16  175.05
 -10   8  -1 1883.74  648.74
 -10   8   0  994.85  274.87
 -10   8   1   18.45  124.56
 -10   8   2 4141.27  556.45
 -10   8   318104.12  959.74
 -10   8   4 9527.80  886.37
 -10   8   5   28.25   89.23
 -10   8   6  479.71  149.44
 -10   8   7  102.74   86.25
 -10   8   8 3555.41  407.34
 -10   8   9 7729.85  589.14
 -10   8  1014331.30 1147.20
 -10   8  11 6214.36  690.03
 -10   8  12  273.21  107.87
 -10   8  13  168.17   77.02
 -10   8  14    9.23  162.64
 -10   8  15  209.37  117.92
 -10   9  -6  405.00  295.90
 -10   9  -5  339.68  225.39
 -10   9  -4  224.79  434.37
 -10   9  -3   89.05  411.35
 -10   9  -2 1122.66  351.45
 -10   9  -1 1905.43  417.70
 -10   9   0   11.75   43.34
 -10   9   1  504.53  181.38
 -10   9   2 1962.41  398.90
 -10   9   3  146.40  157.10
 -10   9   4  826.68  249.39
 -10   9   5  837.52  353.07
 -10   9   6  989.25  298.75
 -10   9   7  262.60  144.00
 -10   9   8  208.35  138.60
 -10   9   9 2823.93  434.71
 -10   9  10 2442.75  457.88
 -10   9  11 3486.37  552.47
 -10   9  12  657.40  378.19
 -10   9  13 4747.20 1051.50
 -10  10  -4  284.43  156.59
 -10  10  -3 1697.28  428.99
 -10  10  -2 1821.38  448.33
 -10  10  -1  687.44  290.24
 -10  10   0 2032.40  450.15
 -10  10   1 1554.44  363.63
 -10  10   2  769.29  313.15
 -10  10   3  985.41  264.17
 -10  10   4  446.37  121.88
 -10  10   5  765.47  308.45
 -10  10   6 1850.16  418.01
 -10  10   7 1087.97  285.69
 -10  10   8  617.22  405.50
 -10  10   9  655.28  389.24
 -10  10  10  494.42  367.12
 -10  10  11 1627.93  639.97
 -10  11   0  663.91  230.42
 -10  11   1 5454.77  747.33
 -10  11   2 2704.10  541.50
 -10  11   3 5748.96 1106.99
 -10  11   4 1221.46  402.76
 -10  11   5  902.68  327.36
 -10  11   6 1741.97  369.11
 -10  11   7 1768.07  711.43
  -9   0  -750332.90 1907.90
  -9   0  -5 1549.81  250.53
  -9   0  -3 3897.76  385.17
  -9   0  -1 5183.14  361.17
  -9   0   1 7275.57  548.71
  -9   0   3 1937.68  284.91
  -9   0   5 7770.07  436.93
  -9   0   799057.59 3616.69
  -9   0   911566.54 1005.77
  -9   0  11 1217.18  270.45
  -9   0  1311461.91 1373.01
  -9   0  15 5578.77  955.76
  -9   0  17 3466.73  852.54
  -9   0  19 1588.21  524.79
  -9   1  -810264.83  492.63
  -9   1  -7 3976.16  306.37
  -9   1  -6 1464.42  180.66
  -9   1  -5  564.01   75.71
  -9   1  -4 2469.72  213.92
  -9   1  -3 1043.16  141.78
  -9   1  -2 7579.90  406.47
  -9   1  -1 1705.63   94.67
  -9   1   0  776.62   84.66
  -9   1   234728.83  692.81
  -9   1   316186.34  515.79
  -9   1   416837.87  786.48
  -9   1   5  471.16  107.75
  -9   1   6 2561.20  223.73
  -9   1   7 4219.06  421.31
  -9   1   8 1493.75  302.82
  -9   1   9 4571.37  438.74
  -9   1  1031690.89 1381.17
  -9   1  1113385.34 2490.10
  -9   1  1218137.65 1161.21
  -9   1  13  662.03  439.57
  -9   1  14 9102.62 1540.28
  -9   1  15   66.31  105.03
  -9   1  16 1022.41  315.40
  -9   1  17  219.96  104.11
  -9   1  18  249.22   96.41
  -9   1  19 3171.87  447.88
  -9   1  20 4313.59  564.26
  -9   2  -8  745.19  144.89
  -9   2  -710584.60  566.84
  -9   2  -6 3607.71  305.03
  -9   2  -5 1361.16  209.02
  -9   2  -4 8363.38  511.58
  -9   2  -3 2179.84  272.69
  -9   2  -2 4835.16  242.70
  -9   2  -1 5638.48  327.04
  -9   2   0 3571.14  331.85
  -9   2   115184.08  643.06
  -9   2   2 5566.77  290.35
  -9   2   328343.94  925.52
  -9   2   4 2517.06  248.05
  -9   2   5 9294.80  429.15
  -9   2   6 4074.69  273.19
  -9   2   7 4954.74  884.03
  -9   2   8  421.93  151.57
  -9   2   9 1889.56  267.09
  -9   2  10 1141.42  211.72
  -9   2  11   94.39   49.98
  -9   2  12 6094.66  750.80
  -9   2  13  897.47  198.20
  -9   2  14  666.81  200.25
  -9   2  1511153.04  747.61
  -9   2  16  265.37  116.02
  -9   2  17 5044.57  586.39
  -9   2  18 2252.15  402.01
  -9   2  19 3451.18  501.40
  -9   2  20 2446.65  475.22
  -9   3  -8 3688.03  414.32
  -9   3  -7 2477.18  321.14
  -9   3  -610308.35  651.07
  -9   3  -5 2058.07  271.82
  -9   3  -4 7162.59  500.27
  -9   3  -3 1057.79   89.30
  -9   3  -2 3093.78  197.63
  -9   3  -110809.11  393.77
  -9   3   0  361.34   50.93
  -9   3   117697.40  702.37
  -9   3   2  433.75  102.08
  -9   3   3 4335.06  370.09
  -9   3   410519.44  645.42
  -9   3   5  167.63   54.15
  -9   3   6 1460.24  182.95
  -9   3   7 1560.44  214.73
  -9   3   8  957.11  154.85
  -9   3   910805.52  891.69
  -9   3  10 6594.82 1445.97
  -9   3  11  170.25  122.26
  -9   3  1219266.63 1053.79
  -9   3  13 6915.12  446.92
  -9   3  14 1934.54  386.28
  -9   3  15 4136.24  563.39
  -9   3  16  180.52  267.90
  -9   3  17  922.93  261.19
  -9   3  18 2626.80  509.82
  -9   3  19  849.12  342.57
  -9   4  -8 6128.47  658.69
  -9   4  -721048.65  965.32
  -9   4  -6 5870.96  478.61
  -9   4  -5 1434.19  166.68
  -9   4  -4 2669.54  216.83
  -9   4  -3 1108.00  147.56
  -9   4  -2 4199.93  296.62
  -9   4  -1 1413.76  156.55
  -9   4   010646.13  460.43
  -9   4   1   94.58   27.48
  -9   4   2 6195.00  534.40
  -9   4   323559.44  905.58
  -9   4   418491.43  663.36
  -9   4   5 2763.67  259.84
  -9   4   633485.77  958.58
  -9   4   7 2766.41  271.45
  -9   4   8 3459.05  336.53
  -9   4   914763.88  830.11
  -9   4  10 3183.53  593.99
  -9   4  11 1984.90  354.23
  -9   4  1211305.39  881.69
  -9   4  13 4807.19  572.48
  -9   4  14 2404.96  380.83
  -9   4  15 3911.74  839.10
  -9   4  16 1785.15  392.76
  -9   4  17 2347.39  434.13
  -9   4  18 2081.03  467.81
  -9   4  19  229.93  111.53
  -9   5  -8    1.67   97.39
  -9   5  -7 3418.32  541.09
  -9   5  -6 2189.81  547.73
  -9   5  -524019.51  924.00
  -9   5  -414670.59 1186.54
  -9   5  -313757.97  943.96
  -9   5  -2 2573.58  416.35
  -9   5  -1  207.02  148.31
  -9   5   0 6706.64  449.82
  -9   5   112311.12  566.28
  -9   5   2 5256.10  342.60
  -9   5   3  709.91  142.56
  -9   5   4 3783.31  256.13
  -9   5   514188.27  635.84
  -9   5   629795.32  980.52
  -9   5   714173.31  642.72
  -9   5   8 5391.84  415.42
  -9   5   919267.84  829.03
  -9   5  10 1220.00  224.79
  -9   5  11 1902.96  331.18
  -9   5  12 4375.32  527.92
  -9   5  13 8323.16  755.05
  -9   5  14 2195.23  426.45
  -9   5  15  134.57  115.84
  -9   5  16  555.72  177.88
  -9   5  17   64.08  107.92
  -9   5  18   93.86  125.53
  -9   6  -8 1296.86  404.26
  -9   6  -7 1192.48  310.83
  -9   6  -6 1734.75  346.05
  -9   6  -5 4445.97  429.08
  -9   6  -4  211.91  183.98
  -9   6  -3   12.80  142.71
  -9   6  -2 1227.06  504.31
  -9   6  -1 5447.97  618.11
  -9   6   0 8449.00  790.07
  -9   6   1 7937.92  676.61
  -9   6   214025.38 1058.20
  -9   6   310883.06  783.20
  -9   6   431662.61 1063.36
  -9   6   5 3628.65  328.96
  -9   6   610031.92  579.10
  -9   6   7 4812.98  410.44
  -9   6   8 2539.33  289.91
  -9   6   9 2130.02  276.57
  -9   6  10 5009.12  567.12
  -9   6  11 3617.77  530.09
  -9   6  12  472.87  193.90
  -9   6  13 7130.24  736.30
  -9   6  14 1120.05  322.69
  -9   6  15 2587.72  435.09
  -9   6  16 4761.51 1126.57
  -9   6  17  550.01  226.71
  -9   6  18 2560.25  515.83
  -9   7  -8 2580.43  473.61
  -9   7  -7 1629.84  574.03
  -9   7  -6 1617.06  494.57
  -9   7  -5 9677.91  774.43
  -9   7  -411423.79 1355.28
  -9   7  -310024.86  894.89
  -9   7  -2 3997.61  606.82
  -9   7  -112367.23  956.83
  -9   7   0 1364.56  573.82
  -9   7   1    7.24   39.13
  -9   7   2 2268.47  337.95
  -9   7   3 2179.20  375.72
  -9   7   4 2731.85  291.21
  -9   7   5 1652.71  267.85
  -9   7   617582.15  838.04
  -9   7   7 6242.45  471.84
  -9   7   8 4245.79  401.79
  -9   7   9  830.86  167.19
  -9   7  10 3378.23  356.20
  -9   7  11 3384.83  499.53
  -9   7  12   66.04  148.37
  -9   7  13 1129.68  325.87
  -9   7  14 3194.47  527.45
  -9   7  15 1684.90  424.59
  -9   7  16  407.63  211.37
  -9   7  17  276.33  156.22
  -9   8  -8  295.07  298.83
  -9   8  -7  433.13  243.76
  -9   8  -6  605.97  377.02
  -9   8  -5 2859.83  654.50
  -9   8  -4  968.35  372.50
  -9   8  -3  913.23  355.87
  -9   8  -2 4942.83  911.89
  -9   8  -1  270.10  241.07
  -9   8   0 4733.77  570.66
  -9   8   1  407.17   94.60
  -9   8   2 3249.59  532.17
  -9   8   312348.38 1121.00
  -9   8   410318.40  682.76
  -9   8   5 8121.08  587.98
  -9   8   6  891.94  147.12
  -9   8   7 1033.18  189.31
  -9   8   822875.06 1031.56
  -9   8   9  770.06  152.34
  -9   8  10    0.12   88.75
  -9   8  11 1081.84  308.10
  -9   8  12 2073.47  416.13
  -9   8  13 3066.47  526.45
  -9   8  14 5983.47  762.49
  -9   8  15 6511.16  813.00
  -9   9  -7 3414.78  808.98
  -9   9  -6 1500.15  559.62
  -9   9  -5 1324.69  478.46
  -9   9  -4 7322.58 1159.60
  -9   9  -3  977.57  396.51
  -9   9  -2 1710.91  525.51
  -9   9  -1 1164.74  390.36
  -9   9   0  863.55  341.07
  -9   9   1 1009.13  297.30
  -9   9   2  211.30  181.76
  -9   9   3 4015.12  557.31
  -9   9   4 3211.08  399.65
  -9   9   5   80.83  104.66
  -9   9   6  453.39  131.65
  -9   9   7  404.83  117.20
  -9   9   810569.07  692.41
  -9   9   9 2327.60  433.09
  -9   9  10 5349.19  691.80
  -9   9  11  473.99  166.27
  -9   9  12  248.08   87.81
  -9   9  13 1649.50  415.44
  -9   9  14  906.41  312.75
  -9  10  -5    0.78  251.89
  -9  10  -4  794.48  434.07
  -9  10  -3 2442.42  709.51
  -9  10  -2 1438.49  492.58
  -9  10  -1  419.67  166.57
  -9  10   0 1158.49  460.35
  -9  10   1  118.32  104.53
  -9  10   2 1428.56  367.18
  -9  10   3 1173.44  359.89
  -9  10   4  116.43   61.66
  -9  10   5   44.60  100.60
  -9  10   6   27.17   89.93
  -9  10   7    2.61   58.69
  -9  10   8 2618.60  808.90
  -9  10   9    0.19  125.85
  -9  10  10    1.06   73.58
  -9  10  11   22.35  152.67
  -9  10  12  285.41  189.20
  -9  11  -2 1171.92  493.47
  -9  11  -1 1464.01  523.99
  -9  11   0  570.30  356.26
  -9  11   1   13.00  185.51
  -9  11   2 1707.05  466.17
  -9  11   3  810.10  291.59
  -9  11   4 3758.67  547.83
  -9  11   5   18.11   55.54
  -9  11   6   79.64   83.34
  -9  11   7  245.84  191.73
  -9  11   8  175.15  180.79
  -9  11   9  308.81  206.93
  -8   0  -6 7543.60  571.00
  -8   0  -4 6375.37  534.41
  -8   0  -2   60.05   22.20
  -8   0   0 2219.12  192.68
  -8   0   2  596.69  144.83
  -8   0   474917.17 1254.29
  -8   0   6 6077.81  760.85
  -8   0   8  914.04  298.58
  -8   0  1016887.14 1484.66
  -8   0  1221543.56 1642.33
  -8   0  1411033.15 1345.29
  -8   0  16 2900.93  698.03
  -8   0  18  505.61  236.54
  -8   0  20  115.73  213.45
  -8   1  -7 7488.79  382.62
  -8   1  -6 9297.08  331.02
  -8   1  -5  735.83  115.48
  -8   1  -4 1223.80  130.39
  -8   1  -3 2973.21  202.81
  -8   1  -226446.10 1959.30
  -8   1  -112457.20  584.80
  -8   1   0 1390.14   63.83
  -8   1   113716.29  820.79
  -8   1   252910.72  792.84
  -8   1   3  272.11   61.95
  -8   1   425628.73 1271.63
  -8   1   517742.63  431.84
  -8   1   6 6827.29  400.86
  -8   1   727879.27 1554.65
  -8   1   8 6296.91  641.85
  -8   1   915914.34  927.31
  -8   1  10  641.32  108.89
  -8   1  11  600.66  195.79
  -8   1  12 3616.58 1029.03
  -8   1  13 6511.29 1517.04
  -8   1  14 2566.70  475.10
  -8   1  15 4406.67  623.50
  -8   1  16   89.74  101.61
  -8   1  17 7209.04  800.42
  -8   1  18 4076.17  551.42
  -8   1  19 3014.51  461.18
  -8   1  20 1670.13  356.29
  -8   2  -7  148.26   40.34
  -8   2  -6 7082.60  331.16
  -8   2  -5  217.95   72.19
  -8   2  -4 2679.18  204.68
  -8   2  -3 2678.25  516.18
  -8   2  -2    2.95   41.26
  -8   2  -1 6372.31  229.94
  -8   2   034357.89 1268.66
  -8   2   1 3686.32  169.27
  -8   2   2 1807.18  157.14
  -8   2   323962.46 1085.56
  -8   2   418168.64 1572.17
  -8   2   516049.24  454.17
  -8   2   624913.72 1024.27
  -8   2   7 1414.73  232.02
  -8   2   8  669.49  110.72
  -8   2   9 6801.22  610.61
  -8   2  10 7665.72  546.78
  -8   2  12 6045.74  519.50
  -8   2  1312868.75  768.10
  -8   2  1431117.04 1289.12
  -8   2  15 4412.89  468.08
  -8   2  16 3489.09  423.90
  -8   2  17 5679.31  989.54
  -8   2  18  525.69  371.58
  -8   2  19  743.10  354.79
  -8   2  20 9922.07 1041.64
  -8   3  -7 1895.42  271.60
  -8   3  -6 4611.79  307.32
  -8   3  -5 4721.53  493.42
  -8   3  -4 1043.90  115.80
  -8   3  -3 4762.09  264.04
  -8   3  -2 6178.01  446.31
  -8   3  -114065.33  700.09
  -8   3   0 6511.63  262.15
  -8   3   1 3524.99  175.39
  -8   3   369705.70 1059.26
  -8   3   451736.65 2238.24
  -8   3   5 9966.13  481.09
  -8   3   614562.10  574.32
  -8   3   742981.07 1328.09
  -8   3   8 1044.08  200.18
  -8   3   913245.39 1334.35
  -8   3  10  648.68  123.57
  -8   3  11 3032.39  252.32
  -8   3  12  191.98   91.49
  -8   3  1319082.76 1275.45
  -8   3  14 5375.81  741.67
  -8   3  15 3659.63  551.15
  -8   3  16 1990.12  401.80
  -8   3  17   72.77  145.00
  -8   3  18 8982.20  924.34
  -8   3  19   72.64   53.98
  -8   3  20  906.43  331.82
  -8   4  -7  256.58   60.94
  -8   4  -6 9500.09  768.22
  -8   4  -5 4735.29  334.39
  -8   4  -4 7799.77  408.18
  -8   4  -312105.09  626.76
  -8   4  -212077.35  509.57
  -8   4  -111328.07  545.94
  -8   4   0 2629.73  247.20
  -8   4   1 2029.25  244.63
  -8   4   2 2883.93  202.54
  -8   4   3 2337.59  160.93
  -8   4   4  142.87   57.34
  -8   4   5  164.82   54.87
  -8   4   6 1070.92  141.07
  -8   4   7 1607.67  170.59
  -8   4   814892.20  638.29
  -8   4   9 8849.76  603.67
  -8   4  10 3651.13  319.18
  -8   4  1124355.42  892.17
  -8   4  12 8899.96  717.57
  -8   4  13 9590.44  562.38
  -8   4  14  479.60  197.14
  -8   4  15  477.31  221.40
  -8   4  16 1270.65  378.66
  -8   4  17 1720.11  973.14
  -8   4  18  100.26  141.71
  -8   4  19   42.29  169.76
  -8   5  -7 3178.58  334.48
  -8   5  -6 8747.07  575.60
  -8   5  -5 1752.04  233.13
  -8   5  -4 4994.72  548.73
  -8   5  -3    1.00   80.17
  -8   5  -2  811.64  228.95
  -8   5  -1  474.97  101.46
  -8   5   0 3506.55  327.33
  -8   5   1 2612.34  234.85
  -8   5   2 8174.08  467.58
  -8   5   342658.16 1335.82
  -8   5   411025.38  455.43
  -8   5   5 2390.08  205.25
  -8   5   6 2488.62  268.06
  -8   5   717431.64  733.88
  -8   5   8 1731.36  198.61
  -8   5   911284.42  574.02
  -8   5  10  328.12  121.62
  -8   5  11 3550.63  357.03
  -8   5  12 2088.10  376.97
  -8   5  13 2235.49  417.38
  -8   5  14 4277.23  598.56
  -8   5  15    9.58  117.15
  -8   5  16 3566.07  573.33
  -8   5  17  944.49  319.77
  -8   5  18 4113.23  906.76
  -8   5  19  312.71  190.30
  -8   6  -7 7514.66  642.60
  -8   6  -6 2445.66  354.01
  -8   6  -5 6047.79  569.21
  -8   6  -4 2760.45  580.68
  -8   6  -3 1311.47  415.81
  -8   6  -2  135.26  141.04
  -8   6  -1  819.56  240.04
  -8   6   0 3700.46  453.76
  -8   6   123614.01 3561.75
  -8   6   215941.94  991.74
  -8   6   3 1295.14  199.15
  -8   6   4 3819.15  325.29
  -8   6   5 9635.84  566.97
  -8   6   611914.46  630.30
  -8   6   7 4361.65  376.54
  -8   6   8 5836.31  434.26
  -8   6   9 2971.35  311.95
  -8   6  1011896.06  852.31
  -8   6  11 2808.18  817.13
  -8   6  12 2291.67  427.27
  -8   6  13 4072.78  543.97
  -8   6  14 3498.70  525.38
  -8   6  15 3579.70  578.54
  -8   6  16  760.88  361.86
  -8   6  17  123.64  171.26
  -8   6  18 3035.37  554.37
  -8   7  -7 4680.02  535.86
  -8   7  -6 3892.17  503.59
  -8   7  -5 2201.06  588.93
  -8   7  -4  784.88  390.93
  -8   7  -3 4278.55  723.92
  -8   7  -2 1434.21  414.73
  -8   7  -1 4418.97  774.71
  -8   7   0  912.83  371.15
  -8   7   1 2385.02  537.95
  -8   7   2 7478.88  652.40
  -8   7   3 5562.47  467.50
  -8   7   4 1178.33  238.10
  -8   7   5 6830.14  488.85
  -8   7   6 1063.01  212.73
  -8   7   7 5788.78  455.39
  -8   7   8 3901.07  375.25
  -8   7   9 3573.43  350.11
  -8   7  10 1739.65  234.68
  -8   7  11 3468.11  484.25
  -8   7  12  271.38  142.66
  -8   7  13   53.67  213.36
  -8   7  14  914.15  256.11
  -8   7  15 2091.70  447.28
  -8   7  16 5733.30  763.89
  -8   7  17  326.76  198.49
  -8   8  -7    0.85  193.25
  -8   8  -6 7944.08  763.61
  -8   8  -5 4397.03  838.36
  -8   8  -4  710.86  319.21
  -8   8  -3 1758.86  547.99
  -8   8  -2   91.35   83.94
  -8   8  -1 3052.32  634.68
  -8   8   0  826.48  342.57
  -8   8   1 5065.84  906.86
  -8   8   2  244.48  168.31
  -8   8   3 2185.31  315.44
  -8   8   4 3014.80  386.39
  -8   8   5 9020.98  626.26
  -8   8   6 5603.90  484.88
  -8   8   7 3457.58  393.52
  -8   8   8 3035.24  363.81
  -8   8   9 7971.52  566.57
  -8   8  10  346.14  141.39
  -8   8  11 8918.86  869.53
  -8   8  12  947.90  275.52
  -8   8  13 1445.73  374.18
  -8   8  14 1534.22  391.92
  -8   8  15   10.42   67.61
  -8   8  16  224.40  368.43
  -8   9  -7  512.71  364.36
  -8   9  -610482.74  928.07
  -8   9  -5  687.80  371.27
  -8   9  -4  204.41  119.75
  -8   9  -3 5920.06  993.40
  -8   9  -2    0.00  119.22
  -8   9  -1 2890.11  720.37
  -8   9   0 2762.83  682.57
  -8   9   1 4647.95  843.38
  -8   9   2 2368.24  588.56
  -8   9   3 1187.58  312.56
  -8   9   4 3087.06  472.66
  -8   9   5  432.52  159.23
  -8   9   6 5754.72  505.27
  -8   9   7 7109.25  580.75
  -8   9   8 4387.15  450.11
  -8   9   9 4381.37  576.01
  -8   9  10 1187.48  309.81
  -8   9  11 5857.44  732.26
  -8   9  12  619.70  240.08
  -8   9  13  308.22  172.17
  -8   9  14 1487.08  379.46
  -8  10  -7  963.97  451.11
  -8  10  -611104.37 1514.39
  -8  10  -5  447.91  371.21
  -8  10  -4  540.75  312.56
  -8  10  -3 1055.07  453.55
  -8  10  -2    2.16   80.78
  -8  10  -1 3553.05  774.45
  -8  10   0 4111.30  898.38
  -8  10   110928.76 1472.80
  -8  10   2 3920.96  820.72
  -8  10   3 3363.32  486.90
  -8  10   4  717.15  254.46
  -8  10   5  546.78  286.51
  -8  10   6  217.38  133.04
  -8  10   7  524.61  103.79
  -8  10   8 5829.43  693.80
  -8  10   9 3065.25  541.74
  -8  10  10    3.11   99.99
  -8  10  11  958.82  329.45
  -8  10  12  325.15  248.97
  -8  11  -4 5013.64 1065.35
  -8  11  -3  700.53  338.59
  -8  11  -2 4094.97  928.38
  -8  11  -1  451.71  332.25
  -8  11   0    3.71  172.37
  -8  11   1  760.59  351.38
  -8  11   2  913.09  478.23
  -8  11   3 3779.88  902.60
  -8  11   4 1071.41  353.77
  -8  11   5 1140.21  287.04
  -8  11   6 2845.71  392.19
  -8  11   7 2620.40  468.46
  -8  11   8 1088.04  326.92
  -8  11   9  222.17  135.22
  -8  11  10  885.71  278.75
  -8  12   1  146.08   97.12
  -8  12   2  414.71  286.45
  -8  12   4  764.66  366.59
  -8  12   5  252.67  248.58
  -7   0  -5  906.82  132.70
  -7   0  -3 6194.37  488.10
  -7   0  -142959.85 1208.27
  -7   0   129912.31  537.70
  -7   0   3   10.78   14.32
  -7   0   5  168.19  122.18
  -7   0   754415.24 1493.17
  -7   0   943133.78 2250.97
  -7   0  1112007.85 1279.46
  -7   0  1311124.46 1278.24
  -7   0  15 2250.88  582.47
  -7   0  1723170.50 2142.52
  -7   0  19 2044.38  631.52
  -7   1  -6  759.01  111.56
  -7   1  -5 1115.95  121.54
  -7   1  -4 1112.17  118.33
  -7   1  -3 9360.44  281.11
  -7   1  -2 4762.45  176.87
  -7   1   019498.76  728.79
  -7   1   1 6892.46  243.11
  -7   1   219695.96  892.93
  -7   1   357823.00 3397.84
  -7   1   434126.90  687.02
  -7   1   543644.24 1466.15
  -7   1   613027.76 1152.85
  -7   1   735911.86 1369.72
  -7   1   8 5079.74  835.73
  -7   1   9  796.01   91.05
  -7   1  1033770.72 1449.78
  -7   1  1132674.27 5118.15
  -7   1  1220858.62 2352.30
  -7   1  1311253.82 1082.75
  -7   1  1419790.40 1239.08
  -7   1  15  433.24  208.01
  -7   1  16 1150.72  315.83
  -7   1  17 1105.69  331.20
  -7   1  18  802.87  222.21
  -7   1  19  384.86   80.37
  -7   1  20 2133.08  381.88
  -7   2  -6 4794.23  221.76
  -7   2  -5 1125.06  110.17
  -7   2  -4 1170.08   97.88
  -7   2  -3 1260.04  103.89
  -7   2  -210013.06  543.86
  -7   2  -112127.54  616.83
  -7   2   038709.89 1028.29
  -7   2   119416.61  753.83
  -7   2   2 5409.11  253.72
  -7   2   382578.04 2747.99
  -7   2   456097.20 1024.08
  -7   2   564693.26 2014.59
  -7   2   6 9033.21  589.24
  -7   2   7 4508.64  297.09
  -7   2   8 5221.95  238.17
  -7   2   9 2859.68  287.80
  -7   2  10 5270.94  464.80
  -7   2  11  887.56  170.71
  -7   2  12 1519.48  235.18
  -7   2  13  652.68  188.82
  -7   2  14 6743.41  580.05
  -7   2  15 2220.56  530.44
  -7   2  16 7202.06  654.30
  -7   2  1713012.64 1533.32
  -7   2  1810667.66  829.72
  -7   2  19 3545.13  613.55
  -7   2  20 4002.89  905.33
  -7   3  -611875.77  546.27
  -7   3  -5 8951.25  546.11
  -7   3  -413557.06  509.73
  -7   3  -3 6285.57  394.53
  -7   3  -2 3224.80  291.39
  -7   3  -125503.30  665.85
  -7   3   0 4651.38  314.65
  -7   3   4  115.02   53.33
  -7   3   5  719.95  127.32
  -7   3   6    1.80   21.17
  -7   3   7 3392.76  842.53
  -7   3   810192.86  562.04
  -7   3   9 5442.54  476.38
  -7   3  1023499.71 1231.42
  -7   3  11 3235.44  407.65
  -7   3  12 2558.15  501.16
  -7   3  1310849.73 1281.83
  -7   3  14 4803.32  918.92
  -7   3  1510395.07 1286.10
  -7   3  16 6226.58  719.52
  -7   3  17 1608.21  394.60
  -7   3  18  178.44  142.94
  -7   3  19  253.66  172.26
  -7   3  20  346.27  285.98
  -7   4  -6 1630.59  197.01
  -7   4  -516910.09  680.01
  -7   4  -4 1206.97  191.16
  -7   4  -3 3946.80  349.85
  -7   4  -235758.01 1425.83
  -7   4  -159217.14 2860.64
  -7   4   035146.34 1267.79
  -7   4   129922.28  884.86
  -7   4   2 1779.06  186.42
  -7   4   318097.82  587.83
  -7   4   414826.13  731.13
  -7   4   5 3665.60  252.31
  -7   4   6 3747.86  376.05
  -7   4   7 1109.59  182.96
  -7   4   8 8374.63  504.06
  -7   4   9 4305.49  459.86
  -7   4  10 1212.90  212.37
  -7   4  11 2775.81  461.79
  -7   4  12  307.37   81.67
  -7   4  13 8335.72 1205.28
  -7   4  14  542.77  240.21
  -7   4  15 3869.78  558.26
  -7   4  16  440.19  210.37
  -7   4  17 1099.77  372.30
  -7   4  18  804.17  284.03
  -7   4  19   39.90   87.51
  -7   5  -610634.00  730.14
  -7   5  -516865.63  884.41
  -7   5  -4 3048.30  619.30
  -7   5  -318026.41 1436.75
  -7   5  -2 1684.74  388.81
  -7   5  -1 7355.86  826.10
  -7   5   011386.60 1019.30
  -7   5   1 3921.50  326.58
  -7   5   2 2214.17  206.82
  -7   5   3 9821.00  417.71
  -7   5   4 8708.76  411.06
  -7   5   5 3811.82  320.40
  -7   5   6 7744.71  473.77
  -7   5   7 1177.25  197.02
  -7   5   8 6642.63  438.26
  -7   5   9 4580.48  533.10
  -7   5  10  405.12  174.33
  -7   5  11 9078.17  966.70
  -7   5  12 2297.82  267.99
  -7   5  1310672.40  874.48
  -7   5  14  970.06  276.93
  -7   5  15 3026.21  867.78
  -7   5  16  344.49  576.59
  -7   5  17    0.37   47.56
  -7   5  18  808.11  297.35
  -7   5  19  204.30  176.97
  -7   6  -6 1600.03  298.66
  -7   6  -5 1362.51  460.99
  -7   6  -4  234.91  136.90
  -7   6  -3 5365.09  797.48
  -7   6  -2  144.64  148.37
  -7   6  -111130.27 1156.75
  -7   6   0 7567.52  950.71
  -7   6   224740.93 1054.22
  -7   6   3 5198.01  392.26
  -7   6   421899.87 1012.06
  -7   6   5 2951.91  300.01
  -7   6   6 7177.50  472.99
  -7   6   7 5216.69  418.13
  -7   6   8 8014.70  596.74
  -7   6   9  256.56   90.33
  -7   6  10  593.32  189.17
  -7   6  11 2993.48  479.79
  -7   6  12   13.13   84.67
  -7   6  13 3259.57  475.71
  -7   6  14 3949.93  580.73
  -7   6  15  245.41  152.14
  -7   6  16 1555.03  372.02
  -7   6  17  860.24  270.20
  -7   6  18 2255.66  501.84
  -7   7  -6 4067.29  509.47
  -7   7  -5  985.85  363.74
  -7   7  -4 1849.73  504.63
  -7   7  -3 1147.99  438.70
  -7   7  -2 3074.78  649.07
  -7   7  -1  558.51  275.66
  -7   7   0 2539.01  565.56
  -7   7   123069.25 1750.14
  -7   7   210567.00  727.89
  -7   7   3 2587.28  349.48
  -7   7   4  695.09  183.97
  -7   7   5  247.17   67.94
  -7   7   6 4134.13  391.70
  -7   7   718501.66  834.36
  -7   7   8  313.33   95.91
  -7   7   9  386.78  117.90
  -7   7  10 2132.01  252.05
  -7   7  11 5293.86  639.02
  -7   7  12 5419.60  860.67
  -7   7  13 3504.96  554.74
  -7   7  14  997.35  298.65
  -7   7  1512559.33 1073.84
  -7   7  16 2821.86  775.27
  -7   7  17  848.14  308.88
  -7   8  -6 5462.53  628.17
  -7   8  -5   65.49   92.73
  -7   8  -4  289.40  187.12
  -7   8  -3  362.93  184.37
  -7   8  -2 8350.40 1084.05
  -7   8  -117210.54 1617.04
  -7   8   0 6166.96  902.93
  -7   8   1 2042.81  533.26
  -7   8   2 8642.10  747.75
  -7   8   3 5014.10  558.20
  -7   8   4 3362.75  621.30
  -7   8   5 1758.10  341.28
  -7   8   612458.28  727.82
  -7   8   7  903.88  195.85
  -7   8   8 4985.13  446.42
  -7   8   9 1050.12  211.78
  -7   8  10 5343.11  652.75
  -7   8  11    0.29   73.21
  -7   8  12    0.44  117.22
  -7   8  13  127.54  119.09
  -7   8  14 8732.56  933.34
  -7   8  15 4663.93  689.52
  -7   8  16  263.61  263.18
  -7   9  -6  541.40  296.42
  -7   9  -5  720.81  345.68
  -7   9  -4 1200.11  431.07
  -7   9  -3 1989.08  569.09
  -7   9  -2 1044.01  453.11
  -7   9  -1  404.24  247.34
  -7   9   0  829.62  393.00
  -7   9   1  372.95  280.90
  -7   9   2 1961.29  515.95
  -7   9   311674.81  872.08
  -7   9   4 1670.29  424.94
  -7   9   5  140.71   88.43
  -7   9   6 7155.59  605.79
  -7   9   7  456.88  154.63
  -7   9   8 1824.21  283.01
  -7   9   9 2726.26  458.28
  -7   9  10 1554.69  371.81
  -7   9  11 4407.10  622.64
  -7   9  12 5698.83  737.45
  -7   9  13 2161.35  482.95
  -7   9  14  706.18  285.01
  -7   9  15 2598.92  525.18
  -7  10  -6  646.66  348.63
  -7  10  -5  707.01  390.92
  -7  10  -4 1576.50  528.33
  -7  10  -3 1107.77  459.67
  -7  10  -2 1267.45  479.86
  -7  10  -1   47.90  227.62
  -7  10   0  235.28  232.20
  -7  10   1 2591.41  705.59
  -7  10   2 2563.43  396.98
  -7  10   3 1168.98  271.51
  -7  10   414396.31 1436.27
  -7  10   5 3906.40  688.33
  -7  10   612506.21  844.73
  -7  10   7  370.82  151.58
  -7  10   8  218.13  112.98
  -7  10   9 7152.66  789.48
  -7  10  10 2704.77  492.69
  -7  10  11  687.93  281.51
  -7  10  12 1905.81  435.27
  -7  10  13  937.71  326.72
  -7  11  -6 3248.72  864.16
  -7  11  -5 1045.55  533.37
  -7  11  -4 1149.35  450.71
  -7  11  -3 3340.13  839.80
  -7  11  -2 5376.31 1096.47
  -7  11  -1 5055.52  986.76
  -7  11   0  975.21  403.20
  -7  11   1 6927.28 1120.10
  -7  11   2 4449.76  870.38
  -7  11   3  184.88  162.15
  -7  11   4  350.59   44.01
  -7  11   5  451.35  229.38
  -7  11   6 3856.59  600.58
  -7  11   7 1969.31  439.02
  -7  11   8  811.90  295.82
  -7  11   9  906.63  267.30
  -7  11  10  325.70  177.07
  -7  12  -2    4.20  114.81
  -7  12  -1 1830.56  682.50
  -7  12   0 1480.17  523.16
  -7  12   1 2077.39  642.39
  -7  12   2  237.20  233.67
  -7  12   3 1285.47  398.76
  -7  12   4 1581.77  590.07
  -7  12   5 2548.33  708.71
  -7  12   6   20.52  239.09
  -7  12   7  119.99  184.94
  -6   0  -4 2895.08  376.37
  -6   0  -243827.94 1197.99
  -6   0   0 6438.86  253.24
  -6   0   218629.73  552.01
  -6   0   4 7295.56  386.34
  -6   0   661356.66 1408.74
  -6   0   8 2548.22  343.32
  -6   0  1040135.64 1545.10
  -6   0  1273865.08 3384.36
  -6   0  1437196.13 2450.11
  -6   0  16   19.82   44.73
  -6   0  18 2806.18  754.81
  -6   0  20 2163.36  742.26
  -6   1  -524376.83  650.74
  -6   1  -435359.01  991.24
  -6   1  -3  965.38  103.81
  -6   1  -237460.63 2220.88
  -6   1  -113584.32  357.12
  -6   1   0 9234.18  568.82
  -6   1   1 2879.37  177.45
  -6   1   227268.77  786.03
  -6   1   332377.36 1704.90
  -6   1   4 1626.97   73.97
  -6   1   522984.43  452.81
  -6   1   616628.01  879.33
  -6   1   751395.17 5684.00
  -6   1   8 2742.41  236.00
  -6   1   9 5900.68  500.76
  -6   1  10  429.97  221.53
  -6   1  11 2996.88  428.77
  -6   1  12 2352.42  407.78
  -6   1  1310516.37 1207.44
  -6   1  14 5633.27  632.86
  -6   1  15 4556.44  604.68
  -6   1  16 1095.49  305.71
  -6   1  17 3150.41  535.07
  -6   1  18  872.33  239.59
  -6   1  19 2998.57  447.49
  -6   1  20   47.46   87.36
  -6   2  -513513.84  930.04
  -6   2  -317828.60 1282.00
  -6   2  -2 7111.17  444.41
  -6   2  -1 3881.50  215.65
  -6   2   048849.33  877.10
  -6   2   116576.06  357.63
  -6   2   266704.35  942.90
  -6   2   328761.24  547.66
  -6   2   4 8810.47  380.50
  -6   2   518539.48  562.67
  -6   2   626348.02  691.45
  -6   2   7 3714.52  233.15
  -6   2   811635.00  379.43
  -6   2   911063.34 1131.80
  -6   2  10 6956.51  304.88
  -6   2  11 2910.41  586.78
  -6   2  12 4507.67  288.59
  -6   2  13 3972.96  421.94
  -6   2  1418893.65  954.38
  -6   2  15  791.57  193.22
  -6   2  1610066.73  747.58
  -6   2  17 1191.50  283.35
  -6   2  18  627.70  195.41
  -6   2  19  911.41  303.35
  -6   2  20 2787.20  549.20
  -6   3  -510695.89  440.18
  -6   3  -426270.86 1912.09
  -6   3  -2    5.20   34.91
  -6   3  -131057.14 1447.91
  -6   3   072513.46 1239.79
  -6   3   112494.76  488.76
  -6   3   3 4742.82  187.60
  -6   3   430761.53  993.94
  -6   3   5 8305.11  364.02
  -6   3   6 9096.57  688.91
  -6   3   7 5267.34  297.48
  -6   3   8 1977.23  227.11
  -6   3   9 2289.58  206.66
  -6   3  10 1782.21  150.71
  -6   3  11 1085.03  136.15
  -6   3  12 7994.71 1311.63
  -6   3  13 5194.93 1204.44
  -6   3  1417739.92 1508.40
  -6   3  15 1960.88  390.86
  -6   3  1616955.90 1516.50
  -6   3  17 1822.20  420.91
  -6   3  18 6550.52 1088.36
  -6   3  19  747.88  259.24
  -6   3  20 8628.25 1422.80
  -6   4  -528878.77 1119.14
  -6   4  -4  494.19  216.06
  -6   4  -310265.74  897.36
  -6   4  -224971.41 1461.10
  -6   4  -1 4572.37  330.27
  -6   4   0 4450.61  355.54
  -6   4   133943.83 1613.72
  -6   4   216480.01  650.31
  -6   4   314477.15  455.48
  -6   4   4 5565.85  406.65
  -6   4   521249.42  610.22
  -6   4   6 4826.54  317.32
  -6   4   713581.53  564.93
  -6   4   8 2187.56  329.33
  -6   4   9  739.92  150.87
  -6   4  10 1609.06  202.30
  -6   4  1111610.98  556.22
  -6   4  1215673.36 1475.09
  -6   4  1319741.35 1204.23
  -6   4  14 6782.79  722.45
  -6   4  15 1268.31  289.48
  -6   4  16   18.83  105.42
  -6   4  17  792.34  291.42
  -6   4  18  136.73  179.60
  -6   4  19   84.71   86.91
  -6   5  -5  734.93  145.17
  -6   5  -4 4005.69  645.79
  -6   5  -3 6676.11  756.72
  -6   5  -2 1651.60  377.18
  -6   5   060741.72 2660.49
  -6   5   1 3869.61  349.43
  -6   5   2  773.24  119.73
  -6   5   3  391.14   63.30
  -6   5   4 5828.63  396.84
  -6   5   523023.07  811.82
  -6   5   6 2106.89  236.21
  -6   5   7 3075.47  263.91
  -6   5   8  282.41  103.49
  -6   5   9 1257.82  273.93
  -6   5  10 3142.22  458.47
  -6   5  11  730.59  109.72
  -6   5  12 2627.29  466.83
  -6   5  13 6187.12  624.22
  -6   5  14 2857.61  654.98
  -6   5  15 5481.90  658.81
  -6   5  16  474.82  194.70
  -6   5  17 1465.73  376.52
  -6   5  18 1086.56  337.88
  -6   5  19 1059.72  327.92
  -6   6  -5 5470.80  846.78
  -6   6  -4  408.25  271.09
  -6   6  -3 5329.72  792.86
  -6   6  -2 2100.94  450.81
  -6   6  -123438.34 1586.31
  -6   6   015450.37 1273.74
  -6   6   1 4515.97  454.27
  -6   6   210282.90  690.36
  -6   6   313790.13  774.60
  -6   6   4 2465.75  323.57
  -6   6   5 3383.38  312.72
  -6   6   6 8179.38  498.96
  -6   6   7 3712.30  337.99
  -6   6   8   61.12   52.93
  -6   6   9 8901.88  499.88
  -6   6  10 2073.79  356.01
  -6   6  11  742.97  205.29
  -6   6  12 7545.18  780.50
  -6   6  13  466.59  193.60
  -6   6  14 3807.63  722.85
  -6   6  15 2787.68  509.30
  -6   6  16  463.10  236.58
  -6   6  17 2662.26  489.52
  -6   6  18  230.03  190.79
  -6   7  -515293.97 1495.39
  -6   7  -4 4744.56  776.01
  -6   7  -3 3294.53  632.24
  -6   7  -2 3311.32  582.84
  -6   7  -1 5570.39  856.51
  -6   7   0 2555.66  512.63
  -6   7   111560.63  748.72
  -6   7   2 6851.85  574.41
  -6   7   3  503.25  146.05
  -6   7   4 6425.69  771.63
  -6   7   5 4318.95  635.19
  -6   7   621026.44  905.38
  -6   7   7  411.28  103.42
  -6   7   8  362.72  105.65
  -6   7   9  357.46   97.42
  -6   7  10 5474.04  811.27
  -6   7  11   24.56   37.31
  -6   7  12 2442.19  426.69
  -6   7  13 1726.95  376.90
  -6   7  14  787.10  367.49
  -6   7  15 1888.75  417.60
  -6   7  16  882.66  315.67
  -6   7  17 1667.21  390.00
  -6   8  -5 1076.21  397.35
  -6   8  -4 1236.21  378.85
  -6   8  -310940.01 1290.67
  -6   8  -2 3131.01  692.59
  -6   8  -1 4475.49  785.68
  -6   8   0    0.26  150.52
  -6   8   111158.32  800.91
  -6   8   2 6842.13  630.55
  -6   8   3  377.33  166.76
  -6   8   4  201.45  157.68
  -6   8   5 5920.54  767.83
  -6   8   6 4188.05  420.60
  -6   8   7  778.18  182.86
  -6   8   8 2353.56  302.94
  -6   8   9 5980.25  694.98
  -6   8  10 1619.85  333.11
  -6   8  1122114.88 1376.78
  -6   8  12  613.85  231.18
  -6   8  1312514.62 1075.70
  -6   8  14 1280.46  366.72
  -6   8  15 2263.98  497.43
  -6   8  16 1082.64  327.32
  -6   9  -5 8311.54 1222.16
  -6   9  -4 6028.32 1003.62
  -6   9  -3  518.74  252.08
  -6   9  -2 3971.13  817.88
  -6   9  -1 5273.66  915.91
  -6   9   0 5549.88  937.45
  -6   9   1 9922.65  784.03
  -6   9   2 3625.77  492.83
  -6   9   3  272.54  136.21
  -6   9   411170.60 1203.68
  -6   9   5 2971.31  572.65
  -6   9   6 2311.76  508.57
  -6   9   7 5750.57  489.72
  -6   9   8 5682.15  572.33
  -6   9   9 2266.36  431.15
  -6   9  10 2050.45  404.55
  -6   9  11    7.61  210.00
  -6   9  12  689.56  255.63
  -6   9  13 7860.04 1315.11
  -6   9  14 3872.32  628.08
  -6   9  15  174.89  202.37
  -6  10  -5  451.30  294.66
  -6  10  -4  680.17  332.24
  -6  10  -3  586.80  340.04
  -6  10  -2 1156.06  494.56
  -6  10  -1 1426.22  508.19
  -6  10   0  315.72  290.84
  -6  10   1 6628.34 1098.54
  -6  10   2 2060.24  413.85
  -6  10   3 6590.73  675.81
  -6  10   4  885.11  369.59
  -6  10   5 2004.99  524.37
  -6  10   6 2093.89  573.25
  -6  10   710613.01  716.19
  -6  10   8 2698.65  476.09
  -6  10   912756.90 1120.29
  -6  10  10 4102.23  634.68
  -6  10  11 1939.60  442.23
  -6  10  12 4275.83  643.09
  -6  10  13 1800.91  448.54
  -6  11  -5  636.78  385.97
  -6  11  -4  777.40  364.66
  -6  11  -3  560.71  340.94
  -6  11  -2 1087.42  447.99
  -6  11  -1  231.49  243.04
  -6  11   0  193.85  155.69
  -6  11   1 2685.29  688.62
  -6  11   2 7583.48  822.91
  -6  11   3  508.44  447.06
  -6  11   4 3215.69  655.81
  -6  11   5 8838.24 1153.03
  -6  11   6 1852.53  544.74
  -6  11   7  947.51  316.47
  -6  11   8 1362.47  363.35
  -6  11   9  971.60  307.08
  -6  11  10 1471.12  407.25
  -6  11  11  297.55  198.24
  -6  12  -3 4410.73 1010.47
  -6  12  -2 1327.18  485.19
  -6  12  -1 1062.27  520.91
  -6  12   0 1948.66  703.26
  -6  12   1  342.07  106.46
  -6  12   2    1.05  169.18
  -6  12   3  447.11  243.27
  -6  12   4  862.88  390.26
  -6  12   5 1420.45  527.42
  -6  12   6 1290.41  434.85
  -6  12   7  129.25  148.09
  -6  12   8  627.12  263.02
  -5   0  -329072.65 1073.32
  -5   0  -143604.82 1190.47
  -5   0   1130163.0 1964.09
  -5   0   318496.01  649.78
  -5   0   5    0.00   29.63
  -5   0   7 9110.60  471.12
  -5   0   9 7576.39  482.68
  -5   0  1129673.61 1072.02
  -5   0  13 5381.48  437.10
  -5   0  1527576.52 2149.19
  -5   0  17 2234.04  644.38
  -5   0  19 2757.41  745.19
  -5   1  -4 2250.89  110.85
  -5   1  -318668.98  482.64
  -5   1  -214084.95  511.17
  -5   1  -1 5683.90  279.55
  -5   1   020571.71  430.81
  -5   1   1106823.8 1268.65
  -5   1   211907.00  878.94
  -5   1   3103395.7 1290.75
  -5   1   413175.73  286.16
  -5   1   5 7224.41  301.57
  -5   1   621359.97 1980.34
  -5   1   759075.23 2878.41
  -5   1   817352.83  644.58
  -5   1   937650.10 1098.16
  -5   1  1021943.68 4768.75
  -5   1  11 9890.29 1835.51
  -5   1  1211244.85 2176.68
  -5   1  1320249.37 1617.50
  -5   1  14 3572.35  519.57
  -5   1  15  523.94  242.83
  -5   1  16 2374.73  469.06
  -5   1  17  327.90  179.87
  -5   1  18  275.05  149.65
  -5   1  19  172.04  162.56
  -5   1  20 4034.95  541.84
  -5   2  -487053.62 7192.61
  -5   2  -315383.12  780.10
  -5   2  -211781.75  412.39
  -5   2  -1 4909.97  272.65
  -5   2   0 2259.20  117.08
  -5   2   229585.05  396.66
  -5   2   3 1919.57   99.28
  -5   2   4 2224.90  103.36
  -5   2   589870.13 1397.56
  -5   2   6 3825.76  457.84
  -5   2   818367.76 1205.06
  -5   2   9 1614.82  116.37
  -5   2  10  144.57   25.50
  -5   2  11 2581.70  250.93
  -5   2  1223308.39  905.95
  -5   2  13 2648.30  371.82
  -5   2  14 2970.22  369.99
  -5   2  15  512.22  143.63
  -5   2  16   13.91   86.83
  -5   2  17 2437.45  683.59
  -5   2  18 1396.33  349.26
  -5   2  19 8240.89  921.36
  -5   2  20 1165.82  570.80
  -5   3  -415346.68  946.36
  -5   3  -3 3983.14  350.17
  -5   3  -224854.53  993.80
  -5   3  -1 5784.88  262.37
  -5   3   0 3589.00  234.73
  -5   3   127974.91  940.48
  -5   3   228658.86  728.38
  -5   3   3 5605.05  225.12
  -5   3   423356.46  621.32
  -5   3   5 4029.73  232.40
  -5   3   611864.66  517.43
  -5   3   733823.89 3354.40
  -5   3   8 5985.68  375.16
  -5   3   9 2026.03  149.50
  -5   3  1033588.69 3069.68
  -5   3  11 6040.71 1160.96
  -5   3  12 3582.73 1497.13
  -5   3  13 1456.88  309.94
  -5   3  14 8061.88 1209.88
  -5   3  15 1260.10  329.03
  -5   3  16 2607.30  884.24
  -5   3  17 8121.88  848.81
  -5   3  18  173.53  142.46
  -5   3  19  457.21  179.36
  -5   3  20 1352.10  406.68
  -5   4  -421659.76 1397.14
  -5   4  -338329.64 1948.72
  -5   4  -222392.48 1789.45
  -5   4  -1 1073.20  262.52
  -5   4   015976.62  889.00
  -5   4   140782.86  974.55
  -5   4   281882.15 1606.93
  -5   4   3 9194.06  365.85
  -5   4   4  822.46   88.11
  -5   4   514458.41  488.90
  -5   4   6 3232.62  338.39
  -5   4   7  779.70  114.01
  -5   4   812968.25  932.85
  -5   4   9 7305.32 1327.51
  -5   4  10 5748.75  302.40
  -5   4  11  920.14  179.45
  -5   4  12 1135.67  312.80
  -5   4  13   17.18  126.87
  -5   4  14  813.41  257.46
  -5   4  15 3722.06  589.94
  -5   4  16 2803.11  515.02
  -5   4  17 2245.91  469.67
  -5   4  18 1658.40  394.29
  -5   4  19   66.94   41.87
  -5   5  -4  979.95  414.07
  -5   5  -312016.24 1098.57
  -5   5  -122521.72 1431.96
  -5   5   016226.06 1184.40
  -5   5   1 2854.19  296.57
  -5   5   211199.27  635.35
  -5   5   3 6648.94  498.86
  -5   5   4 4639.76  552.11
  -5   5   5 2868.49  256.93
  -5   5   6 1315.55  166.74
  -5   5   7 6850.45  402.76
  -5   5   8 6644.35  366.27
  -5   5   9  752.94  225.72
  -5   5  10 5010.12  802.38
  -5   5  1110991.35  467.24
  -5   5  12 1630.63  366.09
  -5   5  1317105.02 1525.05
  -5   5  14  600.44  316.52
  -5   5  15 4565.92  639.20
  -5   5  16  780.63  279.37
  -5   5  17    1.26  131.24
  -5   5  18  215.64  167.82
  -5   5  19  235.23  151.98
  -5   6  -4 1003.10  276.47
  -5   6  -314604.87 1253.98
  -5   6  -210533.27 1071.37
  -5   6  -113040.32 1195.04
  -5   6   0 5234.50  770.79
  -5   6   110374.99  663.03
  -5   6   2   21.52   42.96
  -5   6   3  839.12  172.33
  -5   6   4 6442.01  727.96
  -5   6   5 4002.00  582.12
  -5   6   6 6898.69  446.12
  -5   6   7 1018.72  185.84
  -5   6   8 4451.39  346.05
  -5   6   9  483.93   76.76
  -5   6  10 1804.76  361.78
  -5   6  11 2644.88  655.51
  -5   6  12  901.94  308.14
  -5   6  13 5765.43  645.92
  -5   6  14 2344.90  437.10
  -5   6  15 5754.21  727.62
  -5   6  16   86.08   82.17
  -5   6  17 2884.90  513.69
  -5   6  18 4618.27  701.81
  -5   7  -4 4218.77  747.20
  -5   7  -312858.96 1298.41
  -5   7  -2  622.45  211.26
  -5   7  -1 2798.93  540.09
  -5   7   0 6193.90  813.64
  -5   7   118610.97  974.03
  -5   7   216466.51 1015.20
  -5   7   3 6955.35 1042.26
  -5   7   4 2420.63  453.48
  -5   7   5 1387.76  378.54
  -5   7   6 4879.35  520.24
  -5   7   7 1651.13  212.23
  -5   7   8 1990.32  255.65
  -5   7   9 2381.97  251.80
  -5   7  10  575.51  289.47
  -5   7  11 1250.55  406.02
  -5   7  12 5123.90  645.27
  -5   7  13  296.34  122.27
  -5   7  14  141.02  115.86
  -5   7  15 5063.98  674.16
  -5   7  16  988.52  315.96
  -5   7  17    0.96  225.95
  -5   8  -415110.65 1525.24
  -5   8  -3 6203.60  920.58
  -5   8  -2  274.76  103.94
  -5   8  -115199.64 1491.99
  -5   8   010877.26 1241.53
  -5   8   1 1415.52  282.26
  -5   8   2 3151.91  427.56
  -5   8   3  597.04  183.02
  -5   8   4 3473.21  594.94
  -5   8   5 1725.37  393.99
  -5   8   623822.79 1739.89
  -5   8   7 8334.74  575.14
  -5   8   8 8923.18  568.00
  -5   8   912134.86  981.85
  -5   8  1010461.07  937.76
  -5   8  11 2454.11  464.22
  -5   8  12 3067.81  526.48
  -5   8  13  292.25  215.53
  -5   8  14 8569.51  930.33
  -5   8  15 2325.80  483.98
  -5   8  16 1442.54  352.93
  -5   9  -4 9085.46 1195.96
  -5   9  -3 2983.88  686.32
  -5   9  -2 8004.28 1155.32
  -5   9  -110182.66 1265.99
  -5   9   0 1428.00  394.45
  -5   9   115409.27 1017.74
  -5   9   2 4360.02  558.62
  -5   9   313749.52  982.17
  -5   9   4 1228.83  379.26
  -5   9   5 2143.64  509.74
  -5   9   6 1582.39  479.06
  -5   9   7 1592.20  369.81
  -5   9   8 2253.54  416.80
  -5   9   912399.24 1002.40
  -5   9  10   59.95   62.40
  -5   9  11 3281.20  557.66
  -5   9  12 2233.88  473.20
  -5   9  13 8833.79  956.31
  -5   9  14 6799.16  839.54
  -5   9  15 3118.25  582.13
  -5  10  -4 1051.63  396.92
  -5  10  -3  142.72  189.88
  -5  10  -2 7026.12 1094.03
  -5  10  -1 2829.13  711.46
  -5  10   0   75.45   45.04
  -5  10   1 3012.15  493.20
  -5  10   2  989.00  237.59
  -5  10   3 1409.26  293.48
  -5  10   4 6570.15 1013.20
  -5  10   5 3948.93  815.01
  -5  10   616710.42 1624.71
  -5  10   7 2402.35  448.50
  -5  10   8 1845.28  383.60
  -5  10   9 1506.36  363.29
  -5  10  10  365.96  166.66
  -5  10  11  384.77  228.24
  -5  10  12  510.27  245.60
  -5  10  13  533.77  211.08
  -5  11  -4 3158.20  799.56
  -5  11  -3  244.67  217.61
  -5  11  -2 1558.11  574.14
  -5  11  -1 4024.87  842.90
  -5  11   0 6994.78 1108.69
  -5  11   1 5943.38  724.56
  -5  11   2 3980.15  562.02
  -5  11   3  337.49  510.15
  -5  11   4 4866.75  923.78
  -5  11   5  732.39  282.17
  -5  11   6 2001.94  621.87
  -5  11   7 1332.90  352.39
  -5  11   8 3146.93  527.11
  -5  11   9  723.96  259.67
  -5  11  10  722.44  525.56
  -5  11  11 1605.34  430.27
  -5  12  -4 3024.06  757.57
  -5  12  -3  454.22  373.55
  -5  12  -2  327.35  255.03
  -5  12  -1  247.52  164.84
  -5  12   0 1534.04  540.74
  -5  12   1 5306.79 1018.64
  -5  12   2 4808.07  702.28
  -5  12   3 5325.76  989.01
  -5  12   4 2069.77  615.27
  -5  12   5 3377.54  807.91
  -5  12   6    1.89  263.14
  -5  12   7  576.53  298.37
  -5  12   8 1714.71  437.72
  -4   0  -287348.53 1792.80
  -4   0   0  605.32  103.68
  -4   0   2484553.116390.50
  -4   0   434011.89  764.22
  -4   0   619619.23  698.23
  -4   0   8 6172.26  565.11
  -4   0  1011384.63  557.61
  -4   0  1218940.36  810.06
  -4   0  1438763.75 1292.38
  -4   0  16 7795.87 1155.07
  -4   0  18 3525.60  814.72
  -4   0  20  939.61  468.85
  -4   1  -3 1837.09  106.03
  -4   1  -2 7453.77  267.09
  -4   1  -1  112.21   43.00
  -4   1   038353.88 1079.44
  -4   1   1185173.3 1922.90
  -4   1   262090.30 2299.44
  -4   1   347815.36 1504.82
  -4   1   414348.93 1041.59
  -4   1   533326.87 1231.59
  -4   1   661004.53 1885.03
  -4   1   7 7171.18 1143.60
  -4   1   826305.27 2033.98
  -4   1   911848.37 1110.28
  -4   1  1011633.31  471.28
  -4   1  11 9727.32 1478.09
  -4   1  1214542.29 2422.85
  -4   1  13 4135.84 1038.64
  -4   1  14 4835.97 1149.67
  -4   1  15 3633.66  856.96
  -4   1  16 3196.06  520.68
  -4   1  17 3390.53  494.58
  -4   1  18  624.23  204.09
  -4   1  19 1452.50  318.89
  -4   1  20   27.88   59.96
  -4   2  -3 9868.50  348.59
  -4   2  -2   11.81   28.20
  -4   2  -1 2739.11  201.27
  -4   2   010716.91  402.16
  -4   2   1147428.2 1567.74
  -4   2   2103600.8 1126.55
  -4   2   330511.73  427.95
  -4   2   4  661.77   63.91
  -4   2   526794.71 1682.54
  -4   2   643285.67 2051.11
  -4   2   729714.91 1745.76
  -4   2   851274.84 1969.86
  -4   2   9 9309.72  435.28
  -4   2  1032700.96 1962.70
  -4   2  1110879.57  624.53
  -4   2  12 7954.76  576.67
  -4   2  13 1583.54  260.99
  -4   2  14 1281.86  256.32
  -4   2  15   58.33   62.63
  -4   2  16 9158.91  717.38
  -4   2  17 5227.32  681.13
  -4   2  18 5556.71  749.36
  -4   2  19   99.45   71.91
  -4   2  20    0.40  177.12
  -4   3  -213593.08  676.15
  -4   3  -115356.66  488.84
  -4   3   0 1246.83  121.65
  -4   3   1133353.2 1925.13
  -4   3   214578.50  371.09
  -4   3   3 5579.07  224.07
  -4   3   414668.13  395.04
  -4   3   5 2392.08  170.33
  -4   3   6 9345.06  359.23
  -4   3   7 1919.64  255.54
  -4   3   847596.00 1089.54
  -4   3   9  938.58   81.59
  -4   3  10 7525.94 1021.81
  -4   3  1113746.67 3234.40
  -4   3  12  337.74  123.26
  -4   3  13 2268.06  399.46
  -4   3  14 2354.45  409.67
  -4   3  15 6580.64  700.06
  -4   3  16 1043.55  309.44
  -4   3  17 1036.37  314.66
  -4   3  18 2034.60  440.98
  -4   3  19 2508.42  665.03
  -4   3  20 2518.12  552.54
  -4   4  -3142023.3 4630.74
  -4   4  -222188.26 1339.60
  -4   4  -137565.62 1207.69
  -4   4   043501.75 1031.97
  -4   4   1 7108.49  379.75
  -4   4   2 2116.93  188.03
  -4   4   336334.31  899.71
  -4   4   414878.95  487.15
  -4   4   5 1361.65  188.78
  -4   4   6 3675.98  261.96
  -4   4   716795.15  664.83
  -4   4   8 1217.25  252.12
  -4   4   9 2824.93  375.25
  -4   4  10  441.68   67.93
  -4   4  11 4123.51  832.72
  -4   4  12 6733.53  652.11
  -4   4  13 3311.52  444.27
  -4   4  14 8529.85 1292.75
  -4   4  15 1178.51  294.06
  -4   4  16   41.10  103.28
  -4   4  17 3220.41  697.21
  -4   4  18 1183.48  335.28
  -4   4  19   15.71  166.43
  -4   5  -326528.62 1709.80
  -4   5  -2 2844.98  486.58
  -4   5  -1 7887.44  883.10
  -4   5   027628.27 1082.25
  -4   5   1 3012.12  302.09
  -4   5   231940.84 1517.90
  -4   5   3 3535.94  341.83
  -4   5   427524.83 1504.44
  -4   5   512580.25  756.73
  -4   5   6 2605.97  262.43
  -4   5   720278.73  732.45
  -4   5   8   30.15   30.06
  -4   5   9 3356.52  460.65
  -4   5  10  994.38  224.00
  -4   5  11 2325.31  148.83
  -4   5  1211712.62 1220.31
  -4   5  13 2950.33  528.79
  -4   5  14 1897.16  590.58
  -4   5  15 2161.96  403.59
  -4   5  16 4457.42  617.49
  -4   5  17  705.89  253.72
  -4   5  18 1210.69  375.26
  -4   5  19  640.38  261.43
  -4   6  -3 1011.93  282.52
  -4   6  -2  876.75  342.86
  -4   6  -1 4242.48  663.52
  -4   6   0 5329.31  464.07
  -4   6   113533.40 1145.35
  -4   6   247315.56 1585.75
  -4   6   317572.99  903.42
  -4   6   4 5920.46  703.90
  -4   6   5 6714.55  771.57
  -4   6   6 5242.82  527.13
  -4   6   7  770.50  148.70
  -4   6   8 7555.24  448.09
  -4   6   926143.07  776.48
  -4   6  10   70.19   74.08
  -4   6  11 1148.74  269.47
  -4   6  1210665.59  886.31
  -4   6  13 3074.00  496.82
  -4   6  14 2152.82  460.16
  -4   6  15 2535.52  471.34
  -4   6  16  513.04  388.96
  -4   6  17 1998.90  749.57
  -4   6  18    1.89  143.41
  -4   7  -319933.57 1601.74
  -4   7  -2 1135.73  310.22
  -4   7  -1  306.61  159.23
  -4   7   0 1448.90  279.13
  -4   7   1 3785.75  618.46
  -4   7   2 1845.16  304.22
  -4   7   3  195.42   81.29
  -4   7   412183.38 1104.56
  -4   7   5 3393.83  592.73
  -4   7   614341.96 1284.72
  -4   7   7 9853.91  772.47
  -4   7   810452.76  541.99
  -4   7   911627.65  700.32
  -4   7  10 1236.62  294.28
  -4   7  11 4544.56  593.06
  -4   7  12 1195.46  329.53
  -4   7  13 3032.92  515.02
  -4   7  14 2247.89  654.83
  -4   7  15 2477.29  500.23
  -4   7  16 1539.49  389.86
  -4   7  17  711.18  284.49
  -4   8  -3 1749.24  462.43
  -4   8  -2 2509.09  548.03
  -4   8  -113601.02 1359.05
  -4   8   0 2170.45  370.74
  -4   8   110074.44 1134.53
  -4   8   2 4067.67  871.60
  -4   8   3 1795.06  318.30
  -4   8   4  597.51  297.94
  -4   8   5  888.21  331.33
  -4   8   6 1965.01  523.35
  -4   8   7  918.16  244.16
  -4   8   8 1737.44  232.81
  -4   8   9 4309.87  582.33
  -4   8  10   56.20   38.96
  -4   8  1125896.52 1494.10
  -4   8  12 1201.70  335.64
  -4   8  1317268.37 1294.85
  -4   8  14  112.88  242.11
  -4   8  15 5439.26  748.89
  -4   8  16  593.61  244.44
  -4   9  -3 9893.58 1238.11
  -4   9  -2 5440.97  916.21
  -4   9  -1 1399.32  446.19
  -4   9   0 3374.40  477.27
  -4   9   1 4834.91  573.55
  -4   9   2 4490.60  566.93
  -4   9   3 2064.87  371.86
  -4   9   414313.96 1363.31
  -4   9   5 1499.63  454.55
  -4   9   6 2504.34  583.29
  -4   9   7 1651.82  347.38
  -4   9   8 5108.76  661.38
  -4   9   9 1201.36  291.88
  -4   9  10 1399.94  349.51
  -4   9  11 3043.72  535.19
  -4   9  12 3204.34  541.39
  -4   9  13   64.55  128.76
  -4   9  14 2303.52  510.60
  -4   9  15 1889.77  450.74
  -4  10  -3   10.48  115.00
  -4  10  -2  530.90  265.32
  -4  10  -1 1771.46  555.48
  -4  10   0 4712.68  606.61
  -4  10   113342.70 1026.45
  -4  10   2 7179.73  748.84
  -4  10   312319.91  954.85
  -4  10   4 1214.64  443.34
  -4  10   5 4780.67  890.17
  -4  10   6  666.53  350.00
  -4  10   7 2504.70  457.67
  -4  10   8  323.92  226.50
  -4  10   9 4949.04  694.88
  -4  10  10  109.15   97.66
  -4  10  11 1443.80  374.04
  -4  10  12  883.35  293.74
  -4  10  13  454.70  355.97
  -4  11  -3  101.45   95.54
  -4  11  -2  276.88  175.65
  -4  11  -1    6.10  258.67
  -4  11   0 1494.33  545.32
  -4  11   1  279.30  138.77
  -4  11   2 3460.80  539.03
  -4  11   3 5366.96  936.11
  -4  11   4  525.76  289.62
  -4  11   5 2684.83  641.82
  -4  11   6 1178.74  506.03
  -4  11   7  656.98  398.78
  -4  11   8  265.75  216.71
  -4  11   9    4.93   85.12
  -4  11  10 4530.00  698.23
  -4  11  11 1554.40  379.64
  -4  12  -3  489.79  309.61
  -4  12  -2 7217.18 1202.57
  -4  12  -1  663.11  386.87
  -4  12   0 1316.37  510.07
  -4  12   1 1392.22  367.82
  -4  12   2 1485.41  381.86
  -4  12   3 1328.86  497.16
  -4  12   4 1188.36  418.93
  -4  12   5  554.24  311.43
  -4  12   6   84.35  184.59
  -4  12   7    0.02  181.39
  -4  12   8  254.53  238.57
  -4  12   9  986.85  323.07
  -4  13   0  890.64  415.44
  -4  13   1 2213.82  667.94
  -4  13   2  665.23  290.86
  -4  13   3 2981.22  774.45
  -3   0  -170825.45 1384.57
  -3   0   1331781.2 8606.50
  -3   0   388887.62 2685.65
  -3   0   555787.86 1302.32
  -3   0   715059.05  588.70
  -3   0   9169729.8 3414.31
  -3   0  1115449.80  909.05
  -3   0  13 2264.48  374.06
  -3   0  15 1197.35  463.34
  -3   0  17  437.13  293.92
  -3   0  19 1931.25  621.99
  -3   1  -262026.81 1677.23
  -3   1  -129188.32 1284.85
  -3   1   063758.87 1362.91
  -3   1   116044.92 1331.15
  -3   1   271613.80 1033.11
  -3   1   319814.20 1989.42
  -3   1   423356.90  506.37
  -3   1   555711.22 1547.90
  -3   1   6 1206.58  121.22
  -3   1   715211.79 2568.10
  -3   1   818963.80 4750.46
  -3   1   953228.97 4003.43
  -3   1  1030315.65 2191.18
  -3   1  11  649.95  322.35
  -3   1  12 3300.37 1757.89
  -3   1  13 4385.73 1978.33
  -3   1  14 5929.96  990.17
  -3   1  15 5782.29  684.76
  -3   1  16  572.21  230.83
  -3   1  17  660.63  191.15
  -3   1  18 1423.84  292.36
  -3   1  19  553.50  240.02
  -3   1  20  518.46  197.14
  -3   2  -2  613.59   81.08
  -3   2  -1 4120.66  251.14
  -3   2   0146980.6 2325.46
  -3   2   144805.15 1356.76
  -3   2   2 6043.27  206.45
  -3   2   320710.64  456.37
  -3   2   413747.40  570.90
  -3   2   520267.60  586.18
  -3   2   6  118.86   18.48
  -3   2   7 8271.56  246.96
  -3   2   819363.52 1108.44
  -3   2  1010606.60 1456.66
  -3   2  11 1418.38  238.74
  -3   2  12  668.67  160.21
  -3   2  13 2430.76  338.29
  -3   2  14  254.53   60.90
  -3   2  15  586.19  183.23
  -3   2  16 1339.28  336.93
  -3   2  17 1293.93  363.49
  -3   2  18 2117.42  459.10
  -3   2  19 5080.49  711.43
  -3   2  20 2336.55  499.44
  -3   3  -250805.88 2943.95
  -3   3  -122083.85 1707.70
  -3   3   0 6642.09  304.53
  -3   3   127170.51  687.15
  -3   3   216436.66  628.48
  -3   3   3 6156.02  363.58
  -3   3   427199.74  657.89
  -3   3   5 1011.92  105.76
  -3   3   6 1514.34  144.28
  -3   3   7 7814.12 1204.45
  -3   3   8 7983.21  571.68
  -3   3   9 4033.23  443.38
  -3   3  10  258.95  134.41
  -3   3  11 2915.93  552.55
  -3   3  1211655.62  941.70
  -3   3  13 1491.46  300.21
  -3   3  14 1846.92  382.92
  -3   3  15  367.74  193.10
  -3   3  16 1929.26  436.50
  -3   3  17 7226.52  817.32
  -3   3  18  312.58  202.92
  -3   3  19 1542.37  386.33
  -3   3  20 1042.93  332.55
  -3   4  -2 7105.37  345.29
  -3   4  -1 3971.82  339.13
  -3   4   012085.80  484.58
  -3   4   112753.30  494.60
  -3   4   214727.09  549.15
  -3   4   362916.66 1615.76
  -3   4   431684.53 1111.45
  -3   4   543918.84 1701.35
  -3   4   626700.27  764.08
  -3   4   7 4581.70  238.02
  -3   4   8 7250.72  626.76
  -3   4   9 5607.77  507.44
  -3   4  10 6125.70  577.57
  -3   4  11 2518.03  414.85
  -3   4  1211050.21 1098.90
  -3   4  1322052.95 2123.65
  -3   4  14    2.77   50.60
  -3   4  15 1514.73  340.51
  -3   4  16 2694.56  498.73
  -3   4  17 3074.23  528.61
  -3   4  18 1504.22  387.79
  -3   4  19  206.72  168.53
  -3   5  -2 5445.95  705.39
  -3   5  -125656.61 1514.64
  -3   5   011092.19  969.05
  -3   5   1 5765.29  440.90
  -3   5   2 2052.88  291.36
  -3   5   3  319.69  115.98
  -3   5   4 3421.33  517.09
  -3   5   556760.76 2366.54
  -3   5   6 2529.84  359.44
  -3   5   7 6430.84  534.78
  -3   5   818606.01 1650.77
  -3   5   910081.56  784.05
  -3   5  10 6911.98 1049.95
  -3   5  11 2334.47  363.57
  -3   5  1218846.90 1148.26
  -3   5  13   25.29  156.75
  -3   5  14 3566.29  647.67
  -3   5  15 5477.69  686.10
  -3   5  16 1032.54  311.26
  -3   5  17  148.65  107.38
  -3   5  18 2033.02  451.13
  -3   5  19  273.82  167.53
  -3   6  -2 9427.68 1010.78
  -3   6  -133880.95 1985.00
  -3   6   0 5064.53  453.53
  -3   6   1 1977.74  296.96
  -3   6   2 7991.13  928.16
  -3   6   320903.01 1010.08
  -3   6   459286.21 2556.00
  -3   6   514765.19 1209.88
  -3   6   635644.21 1467.08
  -3   6   7 2955.10  405.52
  -3   6   8 7272.44  393.14
  -3   6   9 4982.44  549.46
  -3   6  10  305.37  142.43
  -3   6  11 1160.11  234.74
  -3   6  12 7501.16  745.35
  -3   6  13 2482.23  719.07
  -3   6  14 1636.97  398.75
  -3   6  15 5721.54  914.95
  -3   6  16    1.35  165.45
  -3   6  17    0.06  131.81
  -3   6  18  188.18  425.42
  -3   7  -212184.66 1198.82
  -3   7  -126798.76 2319.60
  -3   7   0 7092.81  598.18
  -3   7   175900.59 2281.33
  -3   7   2 1877.66  704.99
  -3   7   3 3585.78  415.54
  -3   7   4 8736.30  958.82
  -3   7   5 4200.48  664.13
  -3   7   627489.84 1789.44
  -3   7   717200.27 1028.63
  -3   7   815501.02 1054.15
  -3   7   913012.16  912.65
  -3   7  10 2596.99  459.76
  -3   7  11 9440.86  865.75
  -3   7  12 3617.37  537.97
  -3   7  1316798.23 1198.94
  -3   7  14  846.64  301.24
  -3   7  15  305.52  313.27
  -3   7  16 2365.04  485.30
  -3   7  17   30.19   84.88
  -3   8  -2 8676.40 1044.43
  -3   8  -1 6754.06  653.09
  -3   8   0 2741.86  407.15
  -3   8   1 2402.20  364.50
  -3   8   2 4917.39  524.89
  -3   8   311605.98  850.86
  -3   8   4 4342.12  722.31
  -3   8   5 8475.96  965.12
  -3   8   617008.62 1456.95
  -3   8   7   12.61   91.05
  -3   8   8 4085.31  576.06
  -3   8   9 3104.49  500.30
  -3   8  10 4773.06  615.99
  -3   8  11  112.46   85.17
  -3   8  12 1387.01  372.96
  -3   8  13 5025.10  676.18
  -3   8  14 2094.92  431.15
  -3   8  15  162.35  172.12
  -3   8  16 7173.23  871.07
  -3   9  -217734.37 1664.15
  -3   9  -1 3901.92  771.42
  -3   9   029997.57 1475.10
  -3   9   119069.15 1137.92
  -3   9   2   58.58  105.52
  -3   9   3 4074.91  557.82
  -3   9   4 7556.82 1010.11
  -3   9   5 2519.23  549.49
  -3   9   6 3450.70  684.95
  -3   9   7  131.16  139.19
  -3   9   8  507.81  179.54
  -3   9   9 4803.94  630.87
  -3   9  10   10.90  142.76
  -3   9  11 3894.52  612.82
  -3   9  12 5583.57  978.27
  -3   9  13 4367.36  650.36
  -3   9  14 3448.43  595.51
  -3   9  15 1021.88  308.32
  -3  10  -2 2258.38  618.85
  -3  10  -1 1304.32  420.80
  -3  10   0 5061.74  629.45
  -3  10   1 1084.61  291.74
  -3  10   2   10.93   67.47
  -3  10   3 8183.88  790.37
  -3  10   4  154.08  171.47
  -3  10   5  743.72  343.15
  -3  10   615636.17 1571.79
  -3  10   716897.83 1660.58
  -3  10   811060.29 1022.27
  -3  10   9 1301.90  344.41
  -3  10  10 1283.48  338.88
  -3  10  11 4010.29  638.10
  -3  10  12  309.62  172.62
  -3  10  13  365.49  197.68
  -3  11  -2  733.70  391.38
  -3  11  -1  112.31  247.33
  -3  11   0 1656.86  349.07
  -3  11   1 2642.66  475.91
  -3  11   2 1255.13  343.45
  -3  11   3  986.43  379.33
  -3  11   4 3820.60  788.80
  -3  11   5    0.03   39.12
  -3  11   6 2573.50  652.95
  -3  11   7 1639.11  518.30
  -3  11   8 2230.54  623.57
  -3  11   9  640.68  245.70
  -3  11  10 1740.01  591.94
  -3  11  11 1165.30  379.07
  -3  12  -2  774.23  417.12
  -3  12  -1 2807.32  765.99
  -3  12   0 3780.30  881.10
  -3  12   1 2784.96  482.73
  -3  12   2 1057.53  369.84
  -3  12   3  349.37  279.65
  -3  12   4  668.00  295.15
  -3  12   5 1092.47  474.08
  -3  12   6  989.44  414.09
  -3  12   7 2844.93  754.67
  -3  12   8  360.49  321.99
  -3  12   9 2260.85  509.98
  -3  13  -2 1195.62  481.19
  -3  13  -1 1788.44  704.37
  -3  13   0    2.01  251.54
  -3  13   1    0.85  126.23
  -3  13   2  339.03  286.14
  -3  13   3 6599.23 1170.02
  -3  13   4  834.39  412.05
  -2   0   4 1972.33  154.81
  -2   0   637738.73 1679.51
  -2   0   851219.74 2206.00
  -2   0  10 2627.04  486.26
  -2   0  12 3939.58  661.60
  -2   0  14 9436.79 1177.00
  -2   0  1611899.73 1374.99
  -2   0  18  165.24  267.45
  -2   0  20  504.93  238.20
  -2   1  -1102562.2 1873.87
  -2   1   217852.86  404.45
  -2   1   3108824.4 2108.19
  -2   1   434280.81 3179.41
  -2   1   5  202.32   66.36
  -2   1   618650.98  482.48
  -2   1   7 6370.91 3354.10
  -2   1   8 1719.55  244.56
  -2   1   910637.08  725.42
  -2   1  1013183.99 4058.75
  -2   1  1134929.72 1475.19
  -2   1  12 7356.83  629.80
  -2   1  13 7337.50 4240.45
  -2   1  14 1883.51  381.66
  -2   1  15 8290.01  780.21
  -2   1  16 1774.73  313.11
  -2   1  17 4696.93  511.46
  -2   1  18  730.85  212.58
  -2   1  19 5573.13  620.73
  -2   1  20  211.33  584.13
  -2   2  -182570.35 3765.40
  -2   2   0273688.4 4584.44
  -2   2   124193.05 1116.95
  -2   2   2995943.622646.80
  -2   2   3338593.0 5905.65
  -2   2   4  846.13   92.02
  -2   2   524550.00 1462.05
  -2   2   613898.73 1851.50
  -2   2   7 5724.15  870.48
  -2   2   872842.10 2045.84
  -2   2   926061.72 3282.20
  -2   2  10 1074.42  166.30
  -2   2  11 1253.74  215.78
  -2   2  12 5315.16  531.96
  -2   2  13  355.22  116.44
  -2   2  14  282.02  224.63
  -2   2  1511337.16  949.14
  -2   2  16 3427.18  551.75
  -2   2  17 1143.50  302.37
  -2   2  18 1276.79  342.23
  -2   2  19 1733.00  438.72
  -2   2  20  874.06 1044.91
  -2   3  -128551.84 1334.95
  -2   3   0 4707.39  415.38
  -2   3   128494.75 1933.55
  -2   3   263326.46 1546.69
  -2   3   334959.63 1461.11
  -2   3   4  954.26  147.16
  -2   3   5 1913.76  164.49
  -2   3   630702.46 1903.90
  -2   3   7 1687.00  234.24
  -2   3   8 1566.79  285.00
  -2   3   911554.32 1003.60
  -2   3  10  645.14  170.42
  -2   3  11 1934.48  345.17
  -2   3  1210206.57 1701.30
  -2   3  13  223.34  119.77
  -2   3  14 6723.38  706.36
  -2   3  15 6292.21  685.55
  -2   3  16  142.84  111.97
  -2   3  17  888.81  301.20
  -2   3  18 2188.85  438.41
  -2   3  19  574.07  236.07
  -2   4  -113101.01  492.88
  -2   4   0107267.8 1928.06
  -2   4   1  128.61   51.00
  -2   4   226048.17  764.55
  -2   4   3  427.57  116.06
  -2   4   4 2243.91  361.18
  -2   4   528237.03 1098.65
  -2   4   645193.50 1542.73
  -2   4   7 7319.82  594.65
  -2   4   833192.95 2812.70
  -2   4   9 3271.09  365.92
  -2   4  10  457.22  153.06
  -2   4  11 4081.24  489.46
  -2   4  1224262.50 1692.00
  -2   4  13  854.48  284.15
  -2   4  14 2380.36  429.56
  -2   4  15 8531.48  834.94
  -2   4  16  232.48  153.99
  -2   4  17  157.95  118.72
  -2   4  18  156.07  244.67
  -2   4  19  400.62  310.92
  -2   5  -1 7094.25  630.06
  -2   5   0 8970.37  579.63
  -2   5   1 1038.46  177.87
  -2   5   224772.33  998.56
  -2   5   317197.22 1173.82
  -2   5   4 5826.62  668.48
  -2   5   5 6955.98  705.19
  -2   5   612891.53  805.15
  -2   5   7  459.69   94.84
  -2   5   8 2936.17  421.74
  -2   5   9 4264.00  502.00
  -2   5  10 7530.71  761.24
  -2   5  11 3785.04  461.62
  -2   5  12    2.68   59.54
  -2   5  13 5870.46 1029.21
  -2   5  14 1229.18  285.02
  -2   5  15   46.44  142.40
  -2   5  16 5952.04  730.06
  -2   5  17   46.67   57.86
  -2   5  18  312.50  202.43
  -2   6  -1 3312.72  520.62
  -2   6   0 5047.76  455.23
  -2   6   1 1998.29  262.60
  -2   6   215968.99 1637.10
  -2   6   3 6473.58  561.89
  -2   6   442164.44 2161.70
  -2   6   5  260.27  184.30
  -2   6   6 9598.72  686.86
  -2   6   7 9281.09  720.72
  -2   6   8 1818.11  225.29
  -2   6   925953.05 1314.10
  -2   6  10 3479.58  510.36
  -2   6  1115503.76 1066.51
  -2   6  12 3289.99  696.73
  -2   6  13 4084.80  556.82
  -2   6  14 3572.22  544.25
  -2   6  15  716.50  227.04
  -2   6  16 1760.29  403.67
  -2   6  17 2262.70  481.00
  -2   6  18  275.66  150.81
  -2   7  -1  298.17  119.59
  -2   7   0 9450.72  668.35
  -2   7   1 5406.72  585.95
  -2   7   234702.73 1398.73
  -2   7   325538.63 1527.35
  -2   7   4 2734.66  548.27
  -2   7   5 1953.08  440.77
  -2   7   6    0.30   46.00
  -2   7   7 1357.20  285.46
  -2   7   8  805.06  264.89
  -2   7   9 2807.65  689.27
  -2   7  10 4417.00  540.06
  -2   7  11 2070.78  387.87
  -2   7  12 7883.84  902.39
  -2   7  13 2104.05  421.23
  -2   7  14 2980.72  582.38
  -2   7  15 1835.67  455.41
  -2   7  16  432.26  210.60
  -2   7  17 3783.24  616.29
  -2   8  -162113.85 2150.39
  -2   8   0 5024.27  537.00
  -2   8   119841.97 1836.50
  -2   8   2  219.49  126.87
  -2   8   3 9378.83  748.83
  -2   8   4 5419.63  793.20
  -2   8   5 9138.31 1073.85
  -2   8   6  733.57  256.48
  -2   8   7  734.27  166.04
  -2   8   8 1919.92  356.44
  -2   8   9 3304.68  536.38
  -2   8  10  642.19  236.50
  -2   8  11 4097.79  599.56
  -2   8  12  580.50  251.91
  -2   8  13 3210.36  636.51
  -2   8  14 1315.21  356.89
  -2   8  15  770.04  291.19
  -2   8  16    8.55  207.00
  -2   9  -1 1483.01  310.37
  -2   9   0  987.07  301.04
  -2   9   131093.42 1513.93
  -2   9   2 2034.96  346.92
  -2   9   3 7197.41  993.78
  -2   9   4 7334.95  966.86
  -2   9   5 8046.17 1084.37
  -2   9   621771.18 1856.85
  -2   9   7  586.07  334.84
  -2   9   810352.58  914.23
  -2   9   9 2124.78  432.74
  -2   9  10 5777.48  728.37
  -2   9  11  618.04  224.73
  -2   9  12 1401.74  367.69
  -2   9  13  239.36  162.40
  -2   9  14  338.67  207.75
  -2   9  15 2411.60  517.68
  -2  10  -1 2592.92  428.89
  -2  10   0 6412.30  700.62
  -2  10   1 5081.79  625.11
  -2  10   2  367.56  159.83
  -2  10   327084.50 2077.99
  -2  10   4 9509.87 1243.73
  -2  10   513310.34 1487.36
  -2  10   6 1354.89  458.05
  -2  10   7 5317.96  969.72
  -2  10   8  153.85   85.75
  -2  10   915234.22 1210.56
  -2  10  10 3089.42  532.85
  -2  10  11 6273.19  803.88
  -2  10  12 1768.22  414.72
  -2  10  13 3406.31  629.06
  -2  11  -1 2781.00  696.25
  -2  11   0  158.64  271.41
  -2  11   1 2302.75  449.63
  -2  11   2  785.12  379.60
  -2  11   3 1699.61  528.37
  -2  11   4  137.71  180.52
  -2  11   5 9827.87 1352.11
  -2  11   6  246.89  124.27
  -2  11   7 6402.42 1077.22
  -2  11   8 2561.48  502.85
  -2  11   9  398.39  200.64
  -2  11  10   55.06  261.80
  -2  11  11  461.95  240.58
  -2  12  -1 1351.16  482.05
  -2  12   0 2758.20  509.60
  -2  12   1 2018.47  429.55
  -2  12   2 1332.32  471.30
  -2  12   3    0.69  154.08
  -2  12   4 4265.19  922.90
  -2  12   5 1604.23  553.31
  -2  12   6  281.47  233.23
  -2  12   7 1519.04  566.87
  -2  12   8   60.26  189.61
  -2  12   9  326.01  184.57
  -2  13  -1 1812.55  593.85
  -2  13   0  969.61  452.10
  -2  13   1  713.41  432.92
  -2  13   2 1693.92  550.79
  -2  13   3 1400.50  541.38
  -2  13   4  379.43  313.10
  -1   0   3103114.0 2785.32
  -1   0   5449496.010940.60
  -1   0   7 4488.65  524.33
  -1   0   958795.17 2474.20
  -1   0  1115601.13 1300.39
  -1   0  13  109.60   70.24
  -1   0  1532567.14 2235.22
  -1   0  1717779.11 1800.91
  -1   0  19 7234.15  847.33
  -1   1   345995.76  891.13
  -1   1   4 6165.62  295.78
  -1   1   5 9787.90  490.49
  -1   1   657789.64 5122.50
  -1   1   7 3790.69  665.99
  -1   1   8151085.4 3320.25
  -1   1   929737.46 2712.25
  -1   1  1042811.62 2844.35
  -1   1  11 3933.86  456.42
  -1   1  12 8366.16  783.83
  -1   1  13 5302.51  754.18
  -1   1  1447951.02 1912.00
  -1   1  15 1531.88  305.58
  -1   1  16   40.66   97.12
  -1   1  17 1275.88  259.61
  -1   1  18  920.80  565.17
  -1   1  19  114.82  112.03
  -1   1  20  243.28  221.24
  -1   2   0132707.6 2460.10
  -1   2   1 7894.76  347.92
  -1   2   221167.55  929.70
  -1   2   3699557.111524.73
  -1   2   410868.03 1440.89
  -1   2   528453.26 1307.90
  -1   2   6 4543.54  413.12
  -1   2   780042.44 2922.15
  -1   2   828385.81 4758.35
  -1   2   913566.78 2437.61
  -1   2  10 2162.64  229.87
  -1   2  11 3848.27  292.49
  -1   2  12   68.31   16.10
  -1   2  13 1413.34  205.80
  -1   2  14  190.09  252.65
  -1   2  15 8740.82 1403.10
  -1   2  16 4847.54 1273.61
  -1   2  17 6149.34  730.02
  -1   2  18   90.04  176.21
  -1   2  19  926.89  276.18
  -1   3   021256.50  901.05
  -1   3   1278265.9 4905.07
  -1   3   2369133.4 6420.37
  -1   3   3 4758.50  501.58
  -1   3   418497.83  770.64
  -1   3   593969.97 3682.70
  -1   3   6 7472.38  583.17
  -1   3   816958.82 2114.65
  -1   3   9 5393.99  495.51
  -1   3  10 1760.70  309.93
  -1   3  11  790.69  319.03
  -1   3  12 6497.78  634.89
  -1   3  13 2202.11  394.94
  -1   3  1411730.90  960.65
  -1   3  15  582.09  221.48
  -1   3  16  614.24  198.99
  -1   3  17  209.34  109.61
  -1   3  18  923.48  389.26
  -1   3  19  467.79  248.08
  -1   4   0 9991.42  561.26
  -1   4   1117997.1 7215.50
  -1   4   2146095.2 3034.28
  -1   4   325249.14 1342.37
  -1   4   4 3376.65  498.00
  -1   4   536787.76 1293.12
  -1   4   627163.53 1933.25
  -1   4   721672.08 1095.05
  -1   4   8  876.04  458.69
  -1   4   9 1647.13  288.88
  -1   4  1017497.03 1040.87
  -1   4  1122301.03 1290.70
  -1   4  12 7345.49  913.39
  -1   4  13 3961.78  694.08
  -1   4  14 5209.05  671.72
  -1   4  15 1201.72  318.27
  -1   4  16 2226.73  443.31
  -1   4  17 3799.11 1269.34
  -1   4  18  671.96  289.27
  -1   4  19 1646.45  442.88
  -1   5   073333.19 2915.55
  -1   5   1 2533.67  302.62
  -1   5   2 8562.84  580.25
  -1   5   314141.73 1052.81
  -1   5   4158426.8 4927.05
  -1   5   515689.71 1181.09
  -1   5   626368.02 1206.95
  -1   5   7 9531.30  704.92
  -1   5   8 1049.42  261.13
  -1   5   9   41.91   45.46
  -1   5  1010415.26  807.86
  -1   5  11 1127.10  273.44
  -1   5  12 5471.06  607.82
  -1   5  13 1116.47  309.33
  -1   5  14 2414.85  424.74
  -1   5  15 4247.53  580.90
  -1   5  16 5632.81  700.70
  -1   5  17 2249.20  454.90
  -1   5  18   21.12   69.12
  -1   6   023075.59 1538.00
  -1   6   117420.46 1086.00
  -1   6   214832.93  803.14
  -1   6   317396.97 1281.06
  -1   6   4 1021.28  339.29
  -1   6   5 2669.46  480.93
  -1   6   6 1324.55  411.86
  -1   6   7 2245.61  396.19
  -1   6   8 4978.20  537.14
  -1   6   9  832.02  158.29
  -1   6  10 4600.39  555.06
  -1   6  1113898.98  986.35
  -1   6  12  420.07  179.53
  -1   6  13 5849.58  694.97
  -1   6  14 1966.73  417.86
  -1   6  15 1765.40  383.21
  -1   6  16 2686.31  943.30
  -1   6  17 5422.46  738.04
  -1   6  18 3025.76  553.45
  -1   7   0 8247.95  663.21
  -1   7   1 3281.22  424.98
  -1   7   2  146.32   48.22
  -1   7   310929.73 1031.55
  -1   7   4  238.13  178.80
  -1   7   5  656.25  325.53
  -1   7   611961.37 1178.80
  -1   7   7 1218.07  265.39
  -1   7   8 3519.94  482.47
  -1   7   912776.51  992.02
  -1   7  10  683.43  216.00
  -1   7  11 5569.85  636.34
  -1   7  12 3193.05  482.36
  -1   7  13  476.54  200.70
  -1   7  14 4604.38  645.93
  -1   7  15  237.48  231.46
  -1   7  16 1381.01  449.13
  -1   7  17 3156.23  580.43
  -1   8   012218.86 1254.55
  -1   8   1  420.15  169.01
  -1   8   2  763.71  197.11
  -1   8   3 5305.54  828.61
  -1   8   432754.09 2078.63
  -1   8   5 3169.28  624.65
  -1   8   6 3121.52  622.35
  -1   8   7 2663.67  613.29
  -1   8   826733.64 1497.16
  -1   8   9 3175.49  515.15
  -1   8  1023889.96 1404.70
  -1   8  11 3160.32  521.81
  -1   8  12 4492.89  631.80
  -1   8  13 1927.28  403.71
  -1   8  14  237.38  160.13
  -1   8  15 2096.43  451.07
  -1   8  16 5049.46  746.40
  -1   9   010245.45  835.95
  -1   9   121798.79 1235.15
  -1   9   2 2329.38  437.36
  -1   9   314593.19 1462.88
  -1   9   4    0.03  105.51
  -1   9   5  564.93  278.34
  -1   9   6 9394.33 1151.03
  -1   9   7 2972.39  626.33
  -1   9   8 6112.30  697.71
  -1   9   9  273.27  182.47
  -1   9  10  738.72  261.37
  -1   9  11 4760.90  668.50
  -1   9  12   19.19  105.61
  -1   9  13 5468.82  738.91
  -1   9  14  710.23  377.39
  -1  10   0 3979.57  557.11
  -1  10   1 2749.92  445.51
  -1  10   210755.18  918.46
  -1  10   3 6342.50 1010.50
  -1  10   4 3026.20  718.96
  -1  10   5 8216.93 1135.62
  -1  10   6 4994.98  882.68
  -1  10   7 6980.51 1108.65
  -1  10   8 3137.53  547.04
  -1  10   9  241.00  145.77
  -1  10  10 3142.70  579.33
  -1  10  11 2672.27  504.18
  -1  10  12  966.70  395.22
  -1  10  13  238.57  108.73
  -1  11   0 3870.58  579.67
  -1  11   114251.48 1127.42
  -1  11   2 8583.91  872.51
  -1  11   3  905.55  394.35
  -1  11   4 4497.39  876.35
  -1  11   5  535.83  372.34
  -1  11   6    6.77  170.56
  -1  11   7 2005.91  590.08
  -1  11   8 1483.39  404.25
  -1  11   9   94.63  129.67
  -1  11  10 2910.88  555.16
  -1  11  11  156.84  128.83
  -1  12   0 1948.18  421.21
  -1  12   1  303.45  259.26
  -1  12   2  364.61  220.86
  -1  12   3 1902.90  611.12
  -1  12   4 1134.48  400.67
  -1  12   5  954.80  415.06
  -1  12   6  240.45  241.56
  -1  12   7 1932.63  698.22
  -1  12   8 3116.76  586.03
  -1  12   9 1579.66  376.31
  -1  13   0 3139.11  568.81
  -1  13   1  124.48  656.29
  -1  13   2 3103.75  789.54
  -1  13   3 5250.80 1034.87
  -1  13   4  983.07  471.11
   0   0   4163701.4 4186.87
   0   0   684639.89 1916.01
   0   0   8 3501.43  488.88
   0   0  10 9654.20  909.95
   0   0  1227840.12 1807.23
   0   0  14  679.56  322.91
   0   0  1616143.06 1624.10
   0   0  18 6871.33  774.40
   0   1   353348.55 2169.35
   0   1   4 5197.17  327.02
   0   1   5154654.8 3010.54
   0   1   6 1461.49  126.90
   0   1   789693.23 1783.86
   0   1   814379.81 1832.90
   0   1   945257.25 1514.65
   0   1  10 1697.78  575.46
   0   1  11  334.85  144.39
   0   1  12 2886.06  725.57
   0   1  13 9904.68  872.22
   0   1  14 9219.06  661.22
   0   1  15 1365.68  307.29
   0   1  1615337.43  945.99
   0   1  17 2667.95  503.87
   0   1  18 6970.48  819.41
   0   1  19  123.63  148.15
   0   2   0 2066.82  241.15
   0   2   1 9733.56  412.56
   0   2   246036.63 1559.07
   0   2   3 8843.86  415.95
   0   2   412789.43  835.18
   0   2   5 7695.09 1070.15
   0   2   624024.79  760.77
   0   2   7  414.60   65.86
   0   2   8 3268.03  218.89
   0   2   936508.13  943.86
   0   2  1010702.74  464.92
   0   2  11 4028.98  501.76
   0   2  12  241.73  188.26
   0   2  1314790.29  657.98
   0   2  14  764.98  224.72
   0   2  15 4886.44  635.63
   0   2  16 1535.87  884.24
   0   2  17  114.53   85.19
   0   2  18 2062.74  461.91
   0   2  19  607.95  251.86
   0   3   1188583.8 3571.64
   0   3   213243.33  847.29
   0   3   326762.39 1312.32
   0   3   415924.23  828.95
   0   3   5 1499.44  126.79
   0   3   638421.73 1681.18
   0   3   710651.30 1435.27
   0   3   825633.25 1337.75
   0   3   9 1891.63  307.56
   0   3  10  963.87  227.59
   0   3  11 8478.49  883.85
   0   3  12 2477.03  388.16
   0   3  1310461.68  843.92
   0   3  1418644.46 1705.40
   0   3  15 4314.68  607.59
   0   3  16 5541.16 1357.61
   0   3  17 6380.96  786.35
   0   3  18 3473.97  960.15
   0   3  19 4497.76 1504.37
   0   4   0 3604.06  419.68
   0   4   134089.55 2290.25
   0   4   236722.68 1199.00
   0   4   3 7949.59  716.42
   0   4   4 5621.57  609.52
   0   4   5 6904.79  481.31
   0   4   6 5078.53  430.53
   0   4   7 8360.17 1137.55
   0   4   8 5123.27  649.61
   0   4   9 1330.17  256.16
   0   4  10 4440.61  497.53
   0   4  11 6766.26  960.53
   0   4  1220275.27 1460.50
   0   4  1313927.65 2157.80
   0   4  14 3580.26  865.68
   0   4  15 3458.99  525.40
   0   4  16 3117.24  534.10
   0   4  17 3075.01  659.49
   0   4  18  251.97  182.77
   0   5   155794.00 1681.74
   0   5   2 6596.85  489.34
   0   5   310251.75  854.72
   0   5   4 1610.88  376.20
   0   5   521192.36 1440.40
   0   5   614301.33  824.46
   0   5   7 9115.24  373.07
   0   5   8   17.23   55.74
   0   5   9 1992.02  227.50
   0   5  1020860.48 1378.80
   0   5  11  227.21  102.99
   0   5  1224646.64 2417.05
   0   5  13 3253.46  478.24
   0   5  14 2772.12  489.27
   0   5  15 1011.02  282.49
   0   5  16 4348.13  646.45
   0   5  17    3.84  113.28
   0   5  18 3973.47  724.51
   0   6   0 1975.16  423.18
   0   6   1 1719.89  267.63
   0   6   2 9184.68  847.33
   0   6   381520.24 3284.71
   0   6   4 3139.13  524.29
   0   6   553707.01 2540.74
   0   6   6 4409.84  648.38
   0   6   717974.99 1064.24
   0   6   8 2229.17  181.53
   0   6   9 3511.59  282.48
   0   6  1012179.39  935.21
   0   6  11 1359.76  315.98
   0   6  12 5945.72  684.86
   0   6  13 1963.34  397.02
   0   6  14  969.94  288.69
   0   6  15 1913.96  446.80
   0   6  16  205.41  111.30
   0   6  17 1902.77  406.95
   0   7   1 3948.54  664.63
   0   7   2 2203.52  317.56
   0   7   3 4564.78  679.60
   0   7   411323.48 1188.94
   0   7   516373.17 1380.44
   0   7   624460.26 1717.63
   0   7   710018.19  840.57
   0   7   8 3691.47  512.61
   0   7   9 9361.38  833.77
   0   7  10 7339.63  760.38
   0   7  1131168.14 1641.01
   0   7  12 2820.02  474.19
   0   7  13 3107.38  489.04
   0   7  14  545.20  504.80
   0   7  15 1571.78  386.95
   0   7  16 1182.77  351.85
   0   8   0 6759.92  921.03
   0   8   127302.82 1323.53
   0   8   2 3647.55  493.80
   0   8   3 8772.96 1066.38
   0   8   4 4516.89  706.85
   0   8   5 5562.28  889.06
   0   8   6 2416.78  541.76
   0   8   714292.77 1441.54
   0   8   8 5429.31  631.16
   0   8   9 7947.40  767.05
   0   8  10 1790.71  386.17
   0   8  11 6458.72  778.04
   0   8  12  104.51   80.61
   0   8  13 2475.44  480.14
   0   8  14  879.07  294.58
   0   8  15 9848.61  990.47
   0   9   1 8035.77  730.41
   0   9   211362.42  891.80
   0   9   321914.74 1841.23
   0   9   4  750.55  309.88
   0   9   5 2203.10  568.14
   0   9   6 5799.36  953.41
   0   9   7 2714.61  666.41
   0   9   8 2280.84  422.35
   0   9   9 2476.16  465.49
   0   9  10 6923.08  810.13
   0   9  11  181.34  322.25
   0   9  12 1660.80  422.80
   0   9  13 2631.93  518.70
   0   9  14 1716.66  455.46
   0  10   0    0.06  172.12
   0  10   1 7550.08 1155.01
   0  10   2 8019.14  779.86
   0  10   3  913.74  342.21
   0  10   4  503.28  258.43
   0  10   5 7353.69 1101.68
   0  10   6 1249.78  429.33
   0  10   7 3750.40  815.42
   0  10   8  117.87  134.01
   0  10   9 1257.58  332.89
   0  10  10 1585.27  387.36
   0  10  11 2117.02  492.14
   0  10  12 4279.19  689.16
   0  10  13 1341.57  376.31
   0  11   1  541.30  167.37
   0  11   2   99.01  106.25
   0  11   3 4595.73  900.52
   0  11   4  693.47  417.41
   0  11   5  792.10  388.18
   0  11   6 1279.60  485.93
   0  11   7 7943.15 1187.88
   0  11   8 1122.74  356.89
   0  11   9 2442.31  531.37
   0  11  10  359.80  186.17
   0  11  11  223.93  166.51
   0  12   0 1552.16  503.48
   0  12   1 2587.94  489.21
   0  12   2 6528.53 1177.65
   0  12   3  568.59  298.82
   0  12   4 2739.03  724.71
   0  12   5  313.40  125.29
   0  12   6 3989.70  863.39
   0  12   7 2511.06  732.32
   0  12   8  385.11  274.91
   0  13   1  495.90  282.36
   0  13   2 1788.81  590.33
   0  13   3  136.53  243.36
   0  13   4 1156.77  565.37
   1   0   3  470.34   94.56
   1   0   585533.14 1928.57
   1   0   732070.34 1032.10
   1   0   910245.04  864.08
   1   0  11  726.79  281.64
   1   0  13 5978.20  839.83
   1   0  1511126.99 1271.16
   1   0  17 7461.24  843.09
   1   0  19 3350.22  822.12
   1   1   2 3014.04  110.91
   1   1   369108.57  924.42
   1   1   4 6619.98  239.26
   1   1   525410.84  522.30
   1   1   6 6102.94  240.10
   1   1   7 9751.89  350.20
   1   1   841461.88 2719.69
   1   1   9 4361.06  595.05
   1   1  1029075.89  922.20
   1   1  11 4133.74  359.53
   1   1  12 7580.46  433.22
   1   1  13 4641.99  376.05
   1   1  14 3814.77  327.72
   1   1  15 6183.91  696.91
   1   1  16  551.65  277.00
   1   1  17  198.46  189.84
   1   1  18  379.57  228.02
   1   1  19  643.24  228.41
   1   2   1235917.0 5870.82
   1   2   253772.31 1765.38
   1   2   3 3738.73  196.68
   1   2   487068.91 1280.79
   1   2   5 1678.14  132.36
   1   2   628355.53  699.18
   1   2   729035.51  601.38
   1   2   829421.07  909.24
   1   2   9 5371.50  578.14
   1   2  10 3988.47  220.03
   1   2  11   33.62   18.67
   1   2  12  535.75  143.69
   1   2  1327266.00  948.04
   1   2  14   93.77  106.29
   1   2  15 6093.38 1424.86
   1   2  16    0.61   23.95
   1   2  17 1678.38  378.75
   1   2  18  589.73  271.34
   1   2  19   15.95   86.81
   1   3   1174947.8 3314.50
   1   3   2151939.4 4296.06
   1   3   3 4826.94  505.98
   1   3   411981.68  406.10
   1   3   515307.59  854.66
   1   3   610995.92  631.51
   1   3   7   36.08   50.05
   1   3   8 2989.09  453.10
   1   3   911835.49  953.95
   1   3  10 3360.47  422.66
   1   3  1154503.86 1948.93
   1   3  1210377.02 2223.39
   1   3  13 5327.27  675.19
   1   3  1441163.72 2261.30
   1   3  15 2598.14  579.61
   1   3  16 3973.80  563.56
   1   3  17 3409.84  510.87
   1   3  18  985.19  311.80
   1   4   125168.30  950.50
   1   4   238463.52 1707.50
   1   4   337674.58 1746.24
   1   4   4 3604.35  496.01
   1   4   5 1310.49  184.28
   1   4   625659.87  691.07
   1   4   7 6883.86  507.64
   1   4   8 3116.45  408.34
   1   4   9 1540.22  275.87
   1   4  1015954.67  964.54
   1   4  1145982.11 3553.90
   1   4  12 4259.10  538.45
   1   4  1331588.20 2336.70
   1   4  14 2050.23  383.41
   1   4  15 4584.19  595.27
   1   4  16 3071.19  521.71
   1   4  17 1072.68  421.28
   1   4  18 4548.45  646.36
   1   5   1100320.6 2454.73
   1   5   2 7477.88  811.17
   1   5   327138.01 1564.85
   1   5   5 5188.21  678.08
   1   5   6 6136.00  352.74
   1   5   7 4571.89  248.58
   1   5   8 4988.77  293.39
   1   5   9 1010.80  240.21
   1   5  10 9999.31 1474.50
   1   5  11 2132.29  375.27
   1   5  1217961.39 1131.52
   1   5  13 3404.42  557.50
   1   5  14 2573.39  423.31
   1   5  15 9066.38 1368.77
   1   5  16 2020.38  493.37
   1   5  17  698.64  272.21
   1   5  18  654.01  297.60
   1   6   114481.60 1223.20
   1   6   2 3375.99  436.15
   1   6   353853.23 2592.95
   1   6   4 5679.87  750.15
   1   6   512114.76 1105.78
   1   6   611251.63 1158.59
   1   6   7 1145.67  157.35
   1   6   839844.88 1488.04
   1   6   9  731.05   98.80
   1   6  1015909.02 1073.30
   1   6  11 1057.04  254.10
   1   6  1211229.26  925.03
   1   6  13 3618.10  522.97
   1   6  14 2064.60  428.26
   1   6  15   88.72   76.84
   1   6  16   11.34  159.46
   1   6  17  537.73  214.32
   1   7   116238.42  909.37
   1   7   2 5395.02  517.06
   1   7   3 3623.88  639.74
   1   7   4 2649.11  515.68
   1   7   5  587.97  318.50
   1   7   6 1132.99  320.87
   1   7   7   26.23  178.88
   1   7   8   26.51   78.11
   1   7   9 1731.90  316.96
   1   7  10 5667.34  635.76
   1   7  11  486.27  194.71
   1   7  12 5326.10  669.94
   1   7  13 4751.49  642.04
   1   7  14  271.42  166.07
   1   7  15 2562.24  487.23
   1   7  16  380.27  432.88
   1   8   1 2567.98  406.41
   1   8   212366.98  868.76
   1   8   3 1889.84  443.44
   1   8   4 6394.70  874.95
   1   8   5 6845.33 1015.95
   1   8   6 1912.76  564.70
   1   8   7 3877.72  721.42
   1   8   8 4875.41  630.15
   1   8   9 1538.99  337.61
   1   8  10  583.57  207.28
   1   8  11  153.45  116.53
   1   8  12 2030.02  434.95
   1   8  13 1217.35  317.09
   1   8  14 1465.97  383.11
   1   8  15  476.29  219.04
   1   9   121117.20 1237.55
   1   9   210491.30 1207.11
   1   9   3 1224.64  418.34
   1   9   4    7.22  227.92
   1   9   5 6140.46  926.23
   1   9   6 4970.49  894.46
   1   9   710039.76 1288.22
   1   9   8 4054.70  599.86
   1   9   9 7860.65  842.03
   1   9  10    1.51  102.69
   1   9  11 2389.50  470.63
   1   9  12  399.08  199.58
   1   9  13  442.58  336.71
   1   9  14 4529.70  700.84
   1  10   1 1579.07  332.25
   1  10   2  707.17  341.53
   1  10   3  779.29  319.33
   1  10   4 2079.75  558.79
   1  10   5 2361.03  636.84
   1  10   618079.95 1817.24
   1  10   7 3683.80  842.96
   1  10   823371.77 1522.13
   1  10   911636.58 1053.15
   1  10  10 2028.94  436.15
   1  10  11  153.86  119.58
   1  10  12 2358.78  623.75
   1  11   1 1351.11  312.44
   1  11   2 2488.53  642.37
   1  11   3  882.83  347.42
   1  11   4  679.00  316.03
   1  11   5  464.89  306.11
   1  11   6 3602.89  829.33
   1  11   7  574.21  338.42
   1  11   8  213.08  202.37
   1  11   9  251.86  207.41
   1  11  1010182.32 1041.82
   1  12   1 4162.16  924.22
   1  12   2    7.97   68.45
   1  12   3 3072.63  758.33
   1  12   4  721.29  317.19
   1  12   5 3624.54  896.43
   1  12   6    7.30   51.85
   1  12   7  372.94  282.72
   1  12   8 3126.20  577.22
   1  13   1  438.86  328.66
   1  13   2 1588.09  599.25
   1  13   3 1391.52  516.11
   1  13   4  285.58  191.27
   2   0   216853.17  340.30
   2   0   4 5982.21  474.63
   2   0   6217280.6 3921.60
   2   0   8 3161.08  511.96
   2   0  1012189.63  985.32
   2   0  12  668.28  235.97
   2   0  14 6340.66  595.75
   2   0  16 7795.22  800.40
   2   0  18 1427.20  566.53
   2   1   2  532.29   80.14
   2   1   3111592.8 1130.32
   2   1   418917.81  814.24
   2   1   5110167.0 1434.89
   2   1   621450.81  520.88
   2   1   7153158.4 4859.76
   2   1   8 8059.26  420.43
   2   1   9 2431.54  200.76
   2   1  10 4053.80  280.88
   2   1  11 4506.04  358.38
   2   1  12  418.86  136.88
   2   1  13 4712.69  401.79
   2   1  1421053.26  909.74
   2   1  15 6785.49  703.67
   2   1  16 1730.16  446.20
   2   1  17 1601.41  368.15
   2   1  18  531.65  236.36
   2   2   239547.40 1247.50
   2   2   3 5484.83  172.35
   2   2   4  483.39   73.36
   2   2   559558.50  850.74
   2   2   6  719.44   56.10
   2   2   710654.24  327.11
   2   2   8 9769.65  758.49
   2   2   9 5379.45  275.47
   2   2  1028383.26 2800.32
   2   2  11 7712.78  408.78
   2   2  12 9461.28  457.90
   2   2  13 1292.34  268.45
   2   2  14  248.01  140.65
   2   2  15 1745.18  493.61
   2   2  16  196.56   90.51
   2   2  17  778.31  204.87
   2   2  18  319.52  142.26
   2   3   2 1034.98  172.83
   2   3   3 4593.80  316.06
   2   3   424170.90  557.65
   2   3   5 3164.32  335.88
   2   3   624655.44 1179.36
   2   3   724458.28  994.66
   2   3   8 2878.52  348.66
   2   3   910196.38 1087.02
   2   3  1014964.22 1972.80
   2   3  1111195.36 1440.88
   2   3  12  812.51  286.12
   2   3  13  187.85  115.56
   2   3  14 6764.43  961.63
   2   3  15  484.06  201.06
   2   3  16 3321.70  508.22
   2   3  17  570.06  226.37
   2   3  18  411.77  243.48
   2   4   231448.21 1107.86
   2   4   351632.70 2283.72
   2   4   4 2680.80  267.94
   2   4   522398.02  829.76
   2   4   6 1159.59  131.24
   2   4   7 1266.66  146.83
   2   4   8 2251.26  318.55
   2   4   9 4370.91  489.16
   2   4  10  174.19  101.14
   2   4  11 1513.31  316.50
   2   4  12 1397.06  423.21
   2   4  13  748.89  279.89
   2   4  14 2131.55  420.76
   2   4  15 6034.31  706.96
   2   4  16 4335.39  600.72
   2   4  17  800.80  286.26
   2   4  18 4876.91  686.34
   2   5   2  858.49  254.99
   2   5   336706.09 1880.73
   2   5   416648.59 1279.08
   2   5   5 1637.46  270.14
   2   5   6 4075.05  252.52
   2   5   715252.58  924.75
   2   5   8 2680.14  268.71
   2   5   914639.90 1344.90
   2   5  1017046.28 1045.51
   2   5  1143166.89 3588.80
   2   5  12 2293.21  562.22
   2   5  13 2514.22  418.84
   2   5  14    0.29  134.35
   2   5  15   83.29  189.38
   2   5  16 2563.66  493.86
   2   5  17 2558.50  481.91
   2   6   2 1853.44  405.91
   2   6   317387.49 1294.92
   2   6   4 1841.05  484.07
   2   6   5 9162.87 1033.59
   2   6   6  875.39  338.44
   2   6   7 4674.54  284.95
   2   6   8  353.48   72.73
   2   6   9 5575.01  607.38
   2   6  10 1875.54  509.99
   2   6  1111002.19 1011.36
   2   6  12 2062.99  396.95
   2   6  1313649.88 1582.30
   2   6  14 1975.78  447.62
   2   6  15  563.82  253.12
   2   6  16  953.27  298.45
   2   7   2 3935.92  607.21
   2   7   3  243.40  179.77
   2   7   4  822.81  273.82
   2   7   5 1138.36  374.73
   2   7   6 7675.45  953.60
   2   7   7  457.32  188.98
   2   7   820372.60 1255.12
   2   7   924783.98 1346.83
   2   7  1017482.86 1160.33
   2   7  11  620.40  201.72
   2   7  12  740.89  244.30
   2   7  13 1611.17  455.84
   2   7  14 1848.22  406.54
   2   7  15 1316.80  325.97
   2   7  16  334.44  220.86
   2   8   2 1609.09  489.18
   2   8   3 9487.26 1106.50
   2   8   4 6372.61  885.09
   2   8   5  844.18  314.15
   2   8   6 9301.68 1219.40
   2   8   7 1965.30  342.79
   2   8   8 7700.29  752.61
   2   8   9 3232.97  514.58
   2   8  10 5142.13  650.05
   2   8  1110985.70 1153.57
   2   8  12 6865.13  780.22
   2   8  13 3450.74  566.95
   2   8  14 1599.46  404.16
   2   8  15  631.66  247.35
   2   9   2 5212.91  859.10
   2   9   3 5568.95  939.30
   2   9   4 4600.56  869.48
   2   9   5 3983.28  753.02
   2   9   6 1474.11  440.34
   2   9   7 6442.30 1053.89
   2   9   8   29.78  117.44
   2   9   9 2313.63  448.82
   2   9  10  842.78  275.48
   2   9  11  694.71  261.47
   2   9  12   91.72  343.45
   2   9  13  241.46  156.52
   2  10   212190.57 1435.85
   2  10   3  275.61  143.86
   2  10   4 8542.76 1177.04
   2  10   5 4549.81  899.23
   2  10   6  701.57  319.03
   2  10   7  251.11  158.72
   2  10   8 5718.69  720.01
   2  10   9 2705.12  511.66
   2  10  10  227.55  153.71
   2  10  11  214.82  124.33
   2  10  12  183.25  151.53
   2  11   2  990.77  352.83
   2  11   3  734.39  392.37
   2  11   4 6466.99 1095.42
   2  11   5 2776.24  678.58
   2  11   6 2263.37  655.87
   2  11   7 5031.39  995.16
   2  11   8  651.97  276.21
   2  11   9 2466.86  535.44
   2  11  10 1329.34  386.11
   2  12   2    2.75   76.42
   2  12   3    0.54  196.90
   2  12   4  490.72  356.22
   2  12   5  443.47  388.74
   2  12   6 1200.40  506.90
   2  12   7    7.86  226.81
   2  13   2  686.14  426.69
   2  13   3  713.38  387.58
   3   0   354896.62 1005.62
   3   0   565411.07 1265.22
   3   0   7 1595.95  208.21
   3   0   9   90.97   44.40
   3   0  11  260.08  122.22
   3   0  13 2479.24  387.33
   3   0  15  123.55   97.51
   3   0  17    3.14  349.44
   3   1   345325.21 1019.50
   3   1   425276.02  447.46
   3   1   540046.15 1562.15
   3   1   615515.06  783.95
   3   1   735593.37  907.56
   3   1   8 1645.75  185.86
   3   1   9 9280.51  617.23
   3   1  10 1388.37  281.01
   3   1  11  905.02  180.24
   3   1  1210297.40  917.19
   3   1  13 5400.93  607.09
   3   1  14 2069.93  300.25
   3   1  15 1382.58  274.31
   3   1  16  310.62   71.10
   3   1  17  762.60  271.75
   3   1  18    1.12  119.76
   3   2   3 2475.22  145.19
   3   2   4 1776.96  110.74
   3   2   5 1805.18  134.49
   3   2   625982.93 1714.35
   3   2   741658.50 1701.71
   3   2   8  721.07  102.75
   3   2   925995.86  671.92
   3   2  10 3948.76  265.15
   3   2  11  744.76  120.66
   3   2  1211913.62 1069.78
   3   2  13 1720.88  229.82
   3   2  14 9994.63 1552.24
   3   2  15 1082.84  591.00
   3   2  16 1009.41  303.13
   3   2  17 1254.78  318.50
   3   2  18  298.09  236.42
   3   3   313257.09  459.11
   3   3   427528.61 1470.71
   3   3   5 8105.28  408.60
   3   3   6 3739.16  301.16
   3   3   738319.58 1246.75
   3   3   8 5027.78  405.62
   3   3   9 3834.62  285.41
   3   3  10 6011.01  573.30
   3   3  11 1140.87  251.80
   3   3  12 4133.29  486.32
   3   3  13 5800.48  643.27
   3   3  14 2728.99  553.32
   3   3  15 2437.27  418.27
   3   3  16 1974.21  419.20
   3   3  17 1612.93  340.85
   3   4   326073.34  958.49
   3   4   4 4220.21  403.03
   3   4   5 2174.51  210.46
   3   4   6  551.76  104.30
   3   4   712262.28 1053.06
   3   4   8 8133.33  631.17
   3   4   9 1171.65  230.56
   3   4  1011214.83 1658.59
   3   4  12 8184.78  748.09
   3   4  13  780.83  204.03
   3   4  14  643.61  195.77
   3   4  15 1073.10  404.18
   3   4  16 1568.60  365.00
   3   4  17  742.61  282.98
   3   5   321713.56 1421.48
   3   5   4  223.10  169.19
   3   5   5 7387.40  523.76
   3   5   616504.63  695.92
   3   5   7 3928.56  266.55
   3   5   8 2634.91  245.14
   3   5   9 2481.68  389.10
   3   5  10 2127.56  356.31
   3   5  1110199.71  813.74
   3   5  1219853.29 1206.36
   3   5  13 5178.00  614.43
   3   5  14 1992.76  374.18
   3   5  1510472.05  939.66
   3   5  16 2244.50  565.23
   3   5  17 4785.34 1224.73
   3   6   3 6616.86  835.78
   3   6   4 1808.15  371.16
   3   6   5 3919.73  707.37
   3   6   618231.56  878.89
   3   6   7 2798.53  251.66
   3   6   839481.70 1661.01
   3   6   9 9419.42  896.19
   3   6  1016973.00 1101.86
   3   6  11 4977.95  591.98
   3   6  12  775.64  261.67
   3   6  13 2846.37  483.70
   3   6  14 1715.33  372.81
   3   6  15  292.26  136.53
   3   6  16 1444.49  343.96
   3   7   3 1117.63  419.53
   3   7   413932.29 1321.49
   3   7   5   89.34  125.98
   3   7   6 3528.22  672.61
   3   7   7 4227.88  537.37
   3   7   8 2291.34  386.34
   3   7   9    9.12   70.40
   3   7  1011403.79  952.07
   3   7  11 3179.01  517.89
   3   7  12 2061.25  402.83
   3   7  13 1348.94  638.46
   3   7  14  646.83  225.77
   3   7  15 1692.58  391.96
   3   8   3 6613.79  943.71
   3   8   4 8147.87 1070.00
   3   8   5 1898.77  572.89
   3   8   615441.92 1557.02
   3   8   711699.32  915.03
   3   8   8  756.26  204.31
   3   8   9 4699.96  616.68
   3   8  10  291.07  197.75
   3   8  11 1824.90  387.43
   3   8  12   52.58   95.96
   3   8  13  662.91  258.04
   3   8  14  868.07  257.86
   3   9   3  549.94  303.17
   3   9   4  455.08  223.46
   3   9   5  700.91  260.05
   3   9   6  500.85  354.05
   3   9   7 4240.01  887.11
   3   9   8 4052.25  595.92
   3   9   9 1520.27  368.97
   3   9  10  271.63  165.15
   3   9  11  580.48  239.19
   3   9  12 3435.46  579.78
   3   9  13   67.36   67.68
   3  10   3  715.35  359.15
   3  10   4  393.66  232.92
   3  10   5 2110.48  644.87
   3  10   6 1788.72  610.83
   3  10   7   39.59  168.89
   3  10   8  397.18  206.56
   3  10   9  601.57  264.31
   3  10  10  781.57  268.73
   3  10  11  474.22  203.52
   3  11   3  804.72  367.94
   3  11   4 1095.80  497.68
   3  11   5 7922.54 1260.17
   3  11   6  228.48  245.87
   3  11   7  284.83  248.45
   3  11   8  180.23   70.13
   3  11   9  947.07  295.90
   3  12   3  425.65  326.75
   3  12   4 2102.76  617.15
   3  12   5 2191.16  733.49
   3  12   6  492.19  280.56
   3  12   7  287.88  260.71
   4   0   416561.49  549.35
   4   0   6 1101.89  130.97
   4   0   8 1820.22  222.69
   4   0  10    1.33   49.30
   4   0  12 1024.82  200.93
   4   0  14   13.61   90.19
   4   0  16  294.34  229.17
   4   1   432865.40 2991.38
   4   1   5 7429.18  368.87
   4   1   627609.11  777.02
   4   1   714766.31  446.01
   4   1   819667.76  848.10
   4   1   9 5445.94  519.71
   4   1  10 1307.10  162.55
   4   1  11 5677.03  510.65
   4   1  12 4014.13  328.82
   4   1  13  145.39   39.76
   4   1  14 3401.39  329.48
   4   1  15  452.64  114.58
   4   1  16   77.17   57.65
   4   1  17  466.97  255.18
   4   2   4 1906.81  162.63
   4   2   5 6487.89  419.09
   4   2   6 3424.96  192.97
   4   2   731256.15  649.84
   4   2   8 2395.00  245.32
   4   2   9  110.72   18.16
   4   2  10 1687.91  189.44
   4   2  11 3122.39  315.51
   4   2  12 3985.33  272.17
   4   2  13  781.76  194.53
   4   2  14 1972.81  379.04
   4   2  15  249.30  110.24
   4   2  16 2179.39  701.11
   4   2  17  408.84  321.36
   4   3   4    8.51   24.72
   4   3   578331.43 1340.94
   4   3   6  772.48   93.76
   4   3   713632.08  469.59
   4   3   836753.33 1026.98
   4   3   925062.03 2562.23
   4   3  1032094.05 3683.61
   4   3  11 4614.12  321.91
   4   3  12 7382.56  453.90
   4   3  13 1811.41  444.07
   4   3  14 2144.55  365.35
   4   3  15 3749.61  595.99
   4   3  16 1185.17  317.02
   4   3  17 5462.27 1085.79
   4   4   432309.20  910.20
   4   4   543712.52  924.16
   4   4   6 7048.42  420.82
   4   4   7 4781.05  379.26
   4   4   8 4632.63  353.31
   4   4   9 4073.01  977.03
   4   4  10  837.84  368.74
   4   4  11 2199.81  356.46
   4   4  12 1889.18  331.19
   4   4  13 4701.36  790.16
   4   4  14 4169.25  710.62
   4   4  15 6618.15  750.51
   4   4  16 2237.27  639.12
   4   4  17 1224.12  483.14
   4   5   4  110.46  121.38
   4   5   5  396.00  203.65
   4   5   627012.62 1184.90
   4   5   711176.73 1028.25
   4   5   813751.36  883.89
   4   5   9 9782.13  735.58
   4   5  10 7834.02 1137.19
   4   5  11 2370.78  407.30
   4   5  12 3976.11  704.12
   4   5  13 2846.59  572.98
   4   5  14  347.24  170.37
   4   5  15  767.80  270.95
   4   5  16 1613.54  574.48
   4   6   417298.69 1422.04
   4   6   520451.91 1650.82
   4   6   6 5282.15  517.55
   4   6   7 1618.35  292.55
   4   6   8 6035.64  708.58
   4   6   9 1454.67  301.84
   4   6  10 2244.04  376.75
   4   6  11 1946.74  366.99
   4   6  12 2793.14  460.33
   4   6  13 4492.02  611.13
   4   6  14 1985.92  407.94
   4   6  15  132.49  123.00
   4   7   4 6562.94  842.20
   4   7   5 2907.32  634.34
   4   7   6 3022.60  695.91
   4   7   7 9432.11  787.72
   4   7   812438.06  951.12
   4   7   9 3376.39  499.12
   4   7  10  110.23  128.03
   4   7  11 4099.30  574.98
   4   7  12  643.24  208.26
   4   7  13  525.74  217.50
   4   7  14  333.89  191.93
   4   8   4 6013.13  927.55
   4   8   5 2235.22  560.05
   4   8   6 1029.75  367.51
   4   8   7 7668.84  742.93
   4   8   8   27.02  123.73
   4   8   9 3135.41  479.44
   4   8  10 3919.26  566.03
   4   8  11  357.41  159.55
   4   8  12  533.31  217.64
   4   8  13 1285.58  424.51
   4   9   4 6668.59 1059.63
   4   9   5 9784.70 1245.72
   4   9   6 2427.26  610.40
   4   9   7 6978.27  779.75
   4   9   8 2681.72  485.09
   4   9   9  735.75  259.63
   4   9  10  553.61  199.87
   4   9  11   88.65  263.95
   4   9  12  316.39  173.68
   4  10   4 4581.42  869.42
   4  10   5  963.45  395.71
   4  10   6 1234.69  525.00
   4  10   7  355.28  335.83
   4  10   8 7956.61  870.72
   4  10   9 2125.79  448.15
   4  10  10 1716.82  474.69
   4  10  11  869.01  279.45
   4  11   4 3025.91  803.54
   4  11   5  270.09   86.14
   4  11   6  837.46  377.52
   4  11   7 2081.42  703.12
   4  11   8  780.06  276.90
   4  11   9 5162.22  742.18
   4  12   4 2975.02  808.98
   4  12   5 1023.16  528.43
   4  12   6  284.73  269.28
   5   0   5 4672.70  238.36
   5   0   716326.61  749.88
   5   0   9  227.52   93.20
   5   0  11  144.55   76.78
   5   0  1314588.25 1054.02
   5   0  15 1126.57  261.71
   5   0  17  789.78  539.08
   5   1   527563.55  913.42
   5   1   618549.55  527.01
   5   1   7 2931.26  202.14
   5   1   8 1549.20  126.96
   5   1   9  451.04  108.38
   5   1  10 4946.59  336.43
   5   1  11 1522.50  212.06
   5   1  12 8561.53  753.23
   5   1  13 2278.91  210.53
   5   1  14 3894.95  358.49
   5   1  15 8892.71  872.89
   5   1  16 2117.27  412.43
   5   1  17 4328.21  686.15
   5   2   5  640.68  114.97
   5   2   6 4438.67  396.92
   5   2   7 2658.45  172.47
   5   2   8 1799.66  200.55
   5   2   930093.32 3290.89
   5   2  1022756.51 1140.63
   5   2  11 6388.89  362.10
   5   2  12 4819.34  313.83
   5   2  13   96.00   78.42
   5   2  14  592.49  178.67
   5   2  15   66.95  105.30
   5   2  16  518.68  255.87
   5   2  17 1179.37  503.64
   5   3   522361.40  900.58
   5   3   6 4161.44  313.41
   5   3   7 7250.39  408.78
   5   3   8 3673.46  329.53
   5   3   9 2279.02  237.57
   5   3  10 2884.23  264.30
   5   3  11  236.52   92.81
   5   3  12 2933.28  438.72
   5   3  13 4227.82  528.05
   5   3  14 4502.56  577.99
   5   3  15 2778.01  548.83
   5   3  16 2658.28  533.06
   5   4   542462.69 1431.89
   5   4   613633.48 1778.65
   5   4   7 6489.53 1033.19
   5   4   810602.20  678.85
   5   4   9 1290.53  259.58
   5   4  10 9035.76  725.94
   5   4  1112531.33 1041.20
   5   4  12   29.76  122.65
   5   4  13  290.36  148.51
   5   4  14  108.01  236.38
   5   4  15  207.46  204.81
   5   4  16  197.17  203.76
   5   5   5 4450.47  705.07
   5   5   6 9183.89  680.04
   5   5   7 1504.49  289.49
   5   5   8 2674.30  389.80
   5   5   9  670.34  185.63
   5   5  10  112.57   98.33
   5   5  11 1597.60  314.33
   5   5  12 7623.33 1046.47
   5   5  13 2219.85  390.71
   5   5  14 1589.46  559.86
   5   5  15 5631.20 1089.87
   5   6   5  155.18   95.32
   5   6   6  410.69  107.97
   5   6   7  209.33  105.60
   5   6   814017.32  943.11
   5   6   910539.92  853.78
   5   6  10 8646.34  765.38
   5   6  11 2603.54  442.12
   5   6  12  996.36  250.89
   5   6  13  514.49  202.99
   5   6  14    3.26  239.60
   5   6  15  950.65  444.92
   5   7   5   69.27  180.50
   5   7   6 1962.13  529.42
   5   7   7  974.69  274.51
   5   7   8 5276.18  590.05
   5   7   9  916.82  241.84
   5   7  10  497.57  194.02
   5   7  11 1552.22  355.14
   5   7  12 1382.08  333.96
   5   7  13 3040.11  782.06
   5   7  14  353.59  274.69
   5   8   5  499.15  236.34
   5   8   611776.03 1362.60
   5   8   7 1432.45  362.30
   5   8   8 2797.50  456.36
   5   8   9  713.03  232.46
   5   8  10 3684.66  538.79
   5   8  11   69.26  150.75
   5   8  12  326.33  117.97
   5   8  13  603.84  421.13
   5   9   5  891.00  403.44
   5   9   6    1.72  185.45
   5   9   7  225.50  148.28
   5   9   8 2165.50  442.26
   5   9   9  274.28  217.98
   5   9  10   42.03  158.59
   5   9  11    0.45  222.48
   5  10   5  556.18  355.14
   5  10   6  600.46  266.93
   5  10   7 1767.90  379.81
   5  10   8 5025.90  702.85
   5  10   9  618.43  247.14
   5  10  10  652.28  232.86
   5  11   5 1246.73  497.03
   5  11   6 1651.11  529.06
   5  11   7  222.34  329.03
   5  11   8  563.41  254.65
   5  12   5  475.97  398.72
   6   0   6 1601.56  135.68
   6   0   8  784.36  122.89
   6   0  10 2847.77  427.04
   6   0  12 6297.01  639.85
   6   0  14    1.34   41.15
   6   0  16 8239.61 1362.70
   6   1   6 6502.55  287.42
   6   1   7   95.84   32.84
   6   1   8 5001.14  251.07
   6   1   913803.29  664.14
   6   1  10 2996.96  258.84
   6   1  11 7929.23  501.58
   6   1  12 6985.80  639.98
   6   1  13  274.89  122.81
   6   1  14 1920.50  324.76
   6   1  15  177.26   90.53
   6   1  16  256.25  150.40
   6   2   614598.13  623.23
   6   2   7  222.84   65.42
   6   2   8 4958.01  316.05
   6   2   9 3008.34  257.14
   6   2  10 3288.28  261.58
   6   2  11 1956.53  218.91
   6   2  12 2069.30  197.19
   6   2  13 3724.20  425.98
   6   2  14 1570.39  392.32
   6   2  15 1934.98  446.37
   6   2  16  416.35  235.33
   6   3   6 6095.22  363.93
   6   3   7 6862.74  860.40
   6   3   8 8862.69  907.04
   6   3   919529.40 2324.54
   6   3  1025100.51  896.65
   6   3  11 3736.61  296.94
   6   3  12 3728.00  407.62
   6   3  13 2949.49  521.06
   6   3  14  407.51  193.74
   6   3  15  556.64  217.36
   6   3  16   35.68  131.80
   6   4   611857.17  902.25
   6   4   7 3284.77  312.73
   6   4   8 6788.83  430.38
   6   4   9 1149.51  342.16
   6   4  10  511.84  149.27
   6   4  11 2868.10  415.25
   6   4  12 1762.22  327.80
   6   4  13  135.48   28.07
   6   4  14 1728.85  418.58
   6   4  15 1034.62  376.64
   6   5   6 9652.22  667.70
   6   5   8 5130.10  706.03
   6   5   9 2899.84  401.50
   6   5  10 1379.65  267.86
   6   5  11 1002.13  254.97
   6   5  12 1316.46  482.47
   6   5  13  737.52  372.88
   6   5  14 2694.35  733.16
   6   5  15 4526.38  975.92
   6   6   6  349.17  116.72
   6   6   7 7046.21  635.55
   6   6   8 3147.40  443.36
   6   6   9 2150.46  347.96
   6   6  10  214.94  131.77
   6   6  11 1619.89  445.12
   6   6  12 1537.13  522.82
   6   6  13 3158.53  802.39
   6   6  14  790.82  407.38
   6   7   6 1800.44  359.54
   6   7   7 1749.59  338.73
   6   7   811200.86  872.22
   6   7   9 2186.25  390.99
   6   7  10  163.26  134.97
   6   7  11  286.95  116.79
   6   7  12 5163.81 1053.03
   6   7  13 2346.63  712.87
   6   8   6 2437.53  621.27
   6   8   7  625.30  226.97
   6   8   8 1849.58  366.75
   6   8   9 3035.63  487.54
   6   8  10 2732.34  473.38
   6   8  11    0.34   88.09
   6   8  12   80.96  186.88
   6   9   6 2023.54  605.84
   6   9   7 1408.55  347.41
   6   9   8 1785.73  382.29
   6   9   9 2999.93  535.34
   6   9  10  404.38  233.31
   6   9  11  647.78  330.45
   6  10   6  373.49  253.04
   6  10   7 1604.02  381.39
   6  10   8  443.50  207.51
   6  10   9   51.83  157.93
   6  11   6 2704.50  755.73
   6  11   7  141.60  114.99
   7   0   7 1648.90  214.62
   7   0   9 5856.28  607.05
   7   0  1110130.12  842.76
   7   0  13  167.20  129.91
   7   0  15    8.84  122.05
   7   1   7 2371.87  254.20
   7   1   8 9071.61  484.59
   7   1  10  471.83  120.09
   7   1  11 2278.47  250.23
   7   1  12 1371.64  181.80
   7   1  13 9333.82  590.71
   7   1  14 2608.93  379.33
   7   1  15  943.31  259.27
   7   2   7   70.64   40.94
   7   2   8 2393.06  229.34
   7   2   9 6692.79  462.28
   7   2  10 5474.54  308.26
   7   2  11 3730.37  407.80
   7   2  12 3480.89  315.99
   7   2  13 2712.61  471.16
   7   2  14 3238.45  521.22
   7   2  15  980.86  229.29
   7   3   7 2967.91  298.54
   7   3   8  943.66  187.19
   7   3   9 2756.66  247.74
   7   3  10 2756.71  262.36
   7   3  11 1357.69  221.07
   7   3  12  917.64  293.61
   7   3  13 6354.23  752.16
   7   3  14 4512.37  649.29
   7   3  15 4114.03  628.80
   7   4   7 8682.66  479.06
   7   4   811451.39 1420.93
   7   4   9 8944.35  869.54
   7   4  10 2247.13  323.95
   7   4  11 1534.16  361.56
   7   4  12 1005.09  285.48
   7   4  13 1784.07  418.09
   7   4  14  623.75  253.54
   7   5   7  401.70  138.46
   7   5   8 3926.77  438.73
   7   5   9 1098.07  265.50
   7   5  10  697.28  326.61
   7   5  11  546.79  339.32
   7   5  12 2474.74  650.05
   7   5  13 2170.08  467.58
   7   5  14  683.58  288.49
   7   6   7 1426.68  271.11
   7   6   8  360.00  127.57
   7   6   9 3589.63  465.54
   7   6  10 3539.16  790.62
   7   6  11 3705.59  807.46
   7   6  12    0.64  113.70
   7   6  13  330.32  245.59
   7   7   7 5727.13  628.81
   7   7   8 3499.81  496.66
   7   7   9  217.48  132.54
   7   7  10 2625.44  683.52
   7   7  11  619.01  354.68
   7   7  12    0.38  110.13
   7   8   7 3411.13  514.75
   7   8   8  876.78  269.70
   7   8   9  604.92  353.25
   7   8  10    0.06  119.70
   7   8  11 6974.03 1222.10
   7   9   7 1390.46  439.16
   7   9   8  256.89  205.59
   7   9   9  133.82   84.21
   7   9  10    1.87   80.15
   7  10   7  982.70  317.20
   7  10   8 2008.53  657.77
   8   0   8  259.79  190.82
   8   0  10 1920.01  344.68
   8   0  12  327.36  169.77
   8   0  14    1.48   71.06
   8   1   8 1359.02  164.40
   8   1   9 4826.77  384.92
   8   1  10 2682.84  243.37
   8   1  11 4428.28  344.26
   8   1  12  756.89  131.82
   8   1  13 2225.50  303.23
   8   1  14  891.78  228.59
   8   1  15  478.88  166.59
   8   2   8 4665.84  347.68
   8   2   9 6158.71  442.09
   8   2  10 3339.20  307.80
   8   2  11 3806.08  331.48
   8   2  12  274.31  104.56
   8   2  13  506.97  179.06
   8   2  14 4935.41  565.94
   8   3   8 1585.18  232.52
   8   3   9 3672.40  366.08
   8   3  10  528.63  150.09
   8   3  11  239.92   77.70
   8   3  12 2739.81  502.33
   8   3  13 1328.88  341.65
   8   3  14  302.60  163.72
   8   4   8 1592.60  262.22
   8   4   9 5916.40  505.53
   8   4  10   24.56  121.22
   8   4  11  610.81  200.16
   8   4  12  182.49   86.37
   8   4  13 2866.56  534.81
   8   4  14 1655.98  413.08
   8   5   812191.31 1017.29
   8   5   912009.06 1029.81
   8   5  1010912.52  978.87
   8   5  11 8719.85  916.82
   8   5  12  898.59  287.53
   8   5  13   46.70   99.63
   8   6   8  660.43  343.86
   8   6   9 3882.62  782.05
   8   6  10  923.94  379.80
   8   6  11 1888.03  597.05
   8   6  12  146.01  320.79
   8   7   8  336.26  259.66
   8   7   9   45.94   81.47
   8   7  10 4728.54  945.04
   8   7  11 2687.87  756.83
   8   8   8 1645.20  557.50
   8   8   9 1686.43  528.11
   8   8  10   69.08  111.79
   8   9   8  150.06   78.96
   8   9   9  429.61  215.44
   9   0   9 9562.99  836.47
   9   0  11 4307.84  450.85
   9   0  13    0.11  115.36
   9   1   9 5508.44  405.24
   9   1  10  980.51  162.90
   9   1  11 1246.92  174.91
   9   1  12  302.86   84.33
   9   1  13 1168.56  215.29
   9   1  14   95.16   68.61
   9   2   9 2365.34  268.81
   9   2  10 3171.32  272.36
   9   2  11  109.64   61.73
   9   2  12  453.88  134.83
   9   2  13 1091.54  254.87
   9   3   9 4997.19  459.51
   9   3  10 2303.11  332.18
   9   3  11  355.90  189.33
   9   3  12 1300.57  343.88
   9   3  13  218.07  129.04
   9   4   9 2472.46  345.76
   9   4  10 3932.93  436.06
   9   4  11  113.60  248.25
   9   4  12   84.90  373.66
   9   4  13  258.01  185.21
   9   5   9  238.52  131.27
   9   5  10 1597.31  411.61
   9   5  11  687.57  249.87
   9   5  12  309.71  186.77
   9   6   9 2213.30  486.25
   9   6  10 3937.49  653.07
   9   6  11 2725.68  541.35
   9   7   9 2483.50  491.33
   9   7  10  194.33  193.59
   9   8   9  770.05  435.61
  10   0  10  152.57   74.91
  10   0  12  897.49  223.53
  10   1  10  791.14  127.57
  10   1  11   68.74   72.44
  10   1  12  553.88  135.40
  10   1  13  250.28   71.12
  10   2  10  443.93  110.87
  10   2  11  843.13  163.18
  10   2  12  448.51  134.65
  10   3  10  821.81  239.00
  10   3  11 1375.98  317.44
  10   3  12    0.41   96.50
  10   4  10 1090.29  292.47
  10   4  11  142.04   83.02
  10   4  12  980.55  329.30
  10   5  10  451.15  167.49
  10   5  11  534.35  511.40
  10   6  10 2811.06  548.01
  11   0  11 1439.98  265.86
  11   1  11  425.66  125.85
  11   1  12  336.51  115.50
  11   2  11  468.99  150.05
  11   3  11  364.00  171.90
  11   4  11 1586.67  408.37
   0   0   0    0.00    0.00
;
_shelx_hkl_checksum              61207
_shelx_shelxl_version_number     2014/7
_olex2_date_sample_data_collection 2016-05-13
_olex2_submission_special_instructions 'No special instructions were received'
loop_
_space_group_symop_operation_xyz
'x, y, z'
'-x+1/2, y+1/2, -z+1/2'
'-x, -y, -z'
'x-1/2, -y-1/2, z-1/2'
loop_
_atom_site_label
_atom_site_type_symbol
_atom_site_fract_x
_atom_site_fract_y
_atom_site_fract_z
_atom_site_U_iso_or_equiv
_atom_site_adp_type
_atom_site_occupancy
_atom_site_site_symmetry_order
_atom_site_calc_flag
_atom_site_refinement_flags_posn
_atom_site_refinement_flags_adp
_atom_site_refinement_flags_occupancy
_atom_site_disorder_assembly
_atom_site_disorder_group
C24 C 0.5592(11) 0.537(2) 0.2391(14) 0.041(5) Uani 0.618(11) 1 d . U P A 1
H24A H 0.5527 0.6227 0.2374 0.049 Uiso 0.618(11) 1 calc R . P A 1
H24B H 0.5334 0.5058 0.2786 0.049 Uiso 0.618(11) 1 calc R . P A 1
C24' C 0.527(3) 0.530(4) 0.243(3) 0.061(6) Uani 0.382(11) 1 d . U P A 2
H24C H 0.5222 0.5464 0.2955 0.073 Uiso 0.382(11) 1 calc R . P A 2
H24D H 0.5391 0.6045 0.2208 0.073 Uiso 0.382(11) 1 calc R . P A 2
S1 S 0.51288(16) 0.0377(2) 0.21310(13) 0.0303(6) Uani 1 1 d . . . . .
Na1 Na 0.5507(2) 0.2771(3) 0.14747(19) 0.0262(8) Uani 1 1 d . . . . .
O1 O 0.5901(4) 0.0721(6) 0.1879(4) 0.0374(16) Uani 1 1 d . . . . .
O2 O 0.4721(5) -0.0774(5) 0.1839(4) 0.0387(16) Uani 1 1 d . . . . .
O3 O 0.1766(4) 0.1730(6) 0.1933(4) 0.0360(15) Uani 1 1 d . . . . .
O4 O 0.7049(8) 0.2567(10) 0.1424(7) 0.042(3) Uani 0.618(11) 1 d . U P A 1
O4' O 0.7179(14) 0.300(2) 0.2010(12) 0.056(6) Uani 0.382(11) 1 d . U P A 2
O5 O 0.6595(8) 0.3790(11) 0.2620(7) 0.043(3) Uani 0.618(11) 1 d . U P A 1
O5' O 0.6065(19) 0.453(2) 0.2540(13) 0.060(5) Uani 0.382(11) 1 d . U P A 2
O6 O 0.5113(8) 0.4838(10) 0.1566(7) 0.037(3) Uani 0.618(11) 1 d . . P A 1
O6' O 0.4563(19) 0.463(2) 0.1225(14) 0.044(4) Uani 0.382(11) 1 d . U P A 2
O7 O 0.4135(7) 0.3432(10) 0.0371(6) 0.032(3) Uani 0.618(11) 1 d . U P A 1
O7' O 0.4536(12) 0.2920(16) 0.0130(11) 0.036(4) Uani 0.382(11) 1 d . U P A 2
O8 O 0.5600(8) 0.2559(11) 0.0080(7) 0.037(3) Uani 0.618(11) 1 d . U P A 1
O8' O 0.6319(12) 0.2742(16) 0.0406(9) 0.034(4) Uani 0.382(11) 1 d . U P A 2
N1 N 0.4472(5) 0.1449(6) 0.1940(4) 0.0256(16) Uani 1 1 d . . . . .
C1 C 0.5569(6) 0.0199(8) 0.3191(5) 0.032(2) Uani 1 1 d . . . . .
C2 C 0.5320(7) -0.0769(9) 0.3587(6) 0.043(3) Uani 1 1 d . . . . .
H2 H 0.4938 -0.1358 0.3296 0.052 Uiso 1 1 calc R . . . .
C3 C 0.5656(8) -0.0827(12) 0.4425(7) 0.057(4) Uani 1 1 d . . . . .
H3 H 0.5486 -0.1454 0.4692 0.068 Uiso 1 1 calc R . . . .
C4 C 0.6234(7) 0.0025(11) 0.4864(7) 0.048(3) Uani 1 1 d . . . . .
C5 C 0.6479(7) 0.0951(10) 0.4485(6) 0.047(3) Uani 1 1 d . . . . .
H5 H 0.6875 0.1522 0.4781 0.057 Uiso 1 1 calc R . . . .
C6 C 0.6139(7) 0.1048(8) 0.3649(6) 0.036(2) Uani 1 1 d . . . . .
H6 H 0.6300 0.1699 0.3396 0.044 Uiso 1 1 calc R . . . .
C7 C 0.6579(8) -0.0078(13) 0.5768(6) 0.067(4) Uani 1 1 d . . . . .
H7A H 0.6094 0.0054 0.5984 0.101 Uiso 1 1 calc GR . . . .
H7B H 0.7040 0.0505 0.5980 0.101 Uiso 1 1 calc GR . . . .
H7C H 0.6824 -0.0858 0.5915 0.101 Uiso 1 1 calc GR . . . .
C8 C 0.3589(5) 0.1243(7) 0.2018(5) 0.0247(18) Uani 1 1 d . . . . .
H8 H 0.3600 0.0443 0.2242 0.030 Uiso 1 1 calc R . . . .
C9 C 0.2828(6) 0.1261(8) 0.1235(5) 0.030(2) Uani 1 1 d . . . . .
C10 C 0.2956(8) 0.1002(8) 0.0507(5) 0.040(2) Uani 1 1 d . . . . .
H10 H 0.3536 0.0891 0.0482 0.048 Uiso 1 1 calc R . . . .
C11 C 0.2228(10) 0.0905(10) -0.0185(6) 0.059(4) Uani 1 1 d . . . . .
H11 H 0.2329 0.0733 -0.0669 0.071 Uiso 1 1 calc R . . . .
C12 C 0.1368(9) 0.1056(11) -0.0178(7) 0.061(4) Uani 1 1 d . . . . .
H12 H 0.0886 0.0971 -0.0646 0.073 Uiso 1 1 calc R . . . .
C13 C 0.1226(7) 0.1344(9) 0.0554(7) 0.050(3) Uani 1 1 d . . . . .
H13 H 0.0648 0.1454 0.0581 0.060 Uiso 1 1 calc R . . . .
C14 C 0.1955(6) 0.1458(8) 0.1222(5) 0.036(2) Uani 1 1 d . . . . .
C15 C 0.2464(6) 0.2250(7) 0.2546(5) 0.0263(18) Uani 1 1 d . . . . .
C16 C 0.2207(6) 0.2924(8) 0.3097(5) 0.032(2) Uani 1 1 d . . . . .
H16 H 0.1601 0.3027 0.3043 0.038 Uiso 1 1 calc R . . . .
C17 C 0.2861(7) 0.3437(9) 0.3724(6) 0.040(2) Uani 1 1 d . . . . .
H17 H 0.2699 0.3868 0.4110 0.048 Uiso 1 1 calc R . . . .
C18 C 0.3751(7) 0.3318(10) 0.3785(6) 0.046(3) Uani 1 1 d . . . . .
H18 H 0.4189 0.3682 0.4205 0.055 Uiso 1 1 calc R . . . .
C19 C 0.4002(6) 0.2647(9) 0.3212(6) 0.037(2) Uani 1 1 d . . . . .
H19 H 0.4606 0.2580 0.3250 0.045 Uiso 1 1 calc R . . . .
C20 C 0.3353(6) 0.2086(7) 0.2591(5) 0.0271(18) Uani 1 1 d . . . . .
C21 C 0.7686(12) 0.3337(19) 0.1891(13) 0.052(5) Uani 0.618(11) 1 d . U P A 1
H21A H 0.7647 0.4096 0.1620 0.062 Uiso 0.618(11) 1 calc R . P A 1
H21B H 0.8283 0.3015 0.1976 0.062 Uiso 0.618(11) 1 calc R . P A 1
C21' C 0.764(2) 0.303(3) 0.1410(19) 0.052(6) Uani 0.382(11) 1 d . U P A 2
H21C H 0.8240 0.2702 0.1642 0.063 Uiso 0.382(11) 1 calc R . P A 2
H21D H 0.7700 0.3843 0.1260 0.063 Uiso 0.382(11) 1 calc R . P A 2
C22 C 0.7519(8) 0.3507(14) 0.2697(7) 0.066(4) Uani 1 1 d . . . . .
H22C H 0.8165 0.3600 0.2823 0.079 Uiso 0.382(11) 1 calc R . P A 2
H22D H 0.7397 0.3049 0.3120 0.079 Uiso 0.382(11) 1 calc R . P A 2
H22A H 0.7687 0.2785 0.3010 0.079 Uiso 0.618(11) 1 calc R . P A 1
H22B H 0.7903 0.4142 0.2989 0.079 Uiso 0.618(11) 1 calc R . P A 1
C23 C 0.6516(14) 0.5055(18) 0.2599(11) 0.044(4) Uani 0.618(11) 1 d . U P A 1
H23A H 0.6841 0.5384 0.3120 0.052 Uiso 0.618(11) 1 calc R . P A 1
H23B H 0.6773 0.5378 0.2206 0.052 Uiso 0.618(11) 1 calc R . P A 1
C23' C 0.704(3) 0.475(3) 0.260(2) 0.062(6) Uani 0.382(11) 1 d . U P A 2
H23C H 0.7327 0.5256 0.3053 0.074 Uiso 0.382(11) 1 calc R . P A 2
H23D H 0.7073 0.5141 0.2113 0.074 Uiso 0.382(11) 1 calc R . P A 2
C25 C 0.4170(13) 0.5011(18) 0.1262(12) 0.047(5) Uani 0.618(11) 1 d . U P A 1
H25A H 0.4025 0.5839 0.1314 0.057 Uiso 0.618(11) 1 calc R . P A 1
H25B H 0.3871 0.4532 0.1562 0.057 Uiso 0.618(11) 1 calc R . P A 1
C25' C 0.448(2) 0.495(3) 0.1980(18) 0.056(5) Uani 0.382(11) 1 d . U P A 2
H25C H 0.4042 0.5586 0.1916 0.067 Uiso 0.382(11) 1 calc R . P A 2
H25D H 0.4276 0.4274 0.2223 0.067 Uiso 0.382(11) 1 calc R . P A 2
C26 C 0.3856(11) 0.4648(17) 0.0383(11) 0.039(4) Uani 0.618(11) 1 d . U P A 1
H26A H 0.3208 0.4715 0.0161 0.047 Uiso 0.618(11) 1 calc R . P A 1
H26B H 0.4131 0.5147 0.0073 0.047 Uiso 0.618(11) 1 calc R . P A 1
C26' C 0.375(2) 0.429(3) 0.0680(19) 0.043(5) Uani 0.382(11) 1 d . U P A 2
H26C H 0.3328 0.4945 0.0574 0.052 Uiso 0.382(11) 1 calc R . P A 2
H26D H 0.3493 0.3634 0.0899 0.052 Uiso 0.382(11) 1 calc R . P A 2
C27 C 0.4074(11) 0.3044(16) -0.0413(10) 0.041(4) Uani 0.618(11) 1 d . U P A 1
H27A H 0.4205 0.3701 -0.0718 0.049 Uiso 0.618(11) 1 calc R . P A 1
H27B H 0.3468 0.2770 -0.0687 0.049 Uiso 0.618(11) 1 calc R . P A 1
C27' C 0.3914(17) 0.389(3) -0.0104(18) 0.038(4) Uani 0.382(11) 1 d . U P A 2
H27C H 0.3357 0.3640 -0.0499 0.045 Uiso 0.382(11) 1 calc R . P A 2
H27D H 0.4170 0.4538 -0.0329 0.045 Uiso 0.382(11) 1 calc R . P A 2
C28 C 0.4710(12) 0.2082(18) -0.0369(9) 0.040(4) Uani 0.618(11) 1 d . U P A 1
H28A H 0.4696 0.1838 -0.0903 0.048 Uiso 0.618(11) 1 calc R . P A 1
H28B H 0.4566 0.1401 -0.0092 0.048 Uiso 0.618(11) 1 calc R . P A 1
C28' C 0.4870(19) 0.265(3) -0.0513(17) 0.038(4) Uani 0.382(11) 1 d . U P A 2
H28C H 0.4994 0.3368 -0.0763 0.046 Uiso 0.382(11) 1 calc R . P A 2
H28D H 0.4440 0.2171 -0.0916 0.046 Uiso 0.382(11) 1 calc R . P A 2
C29 C 0.6310(12) 0.1754(14) 0.0145(11) 0.041(4) Uani 0.618(11) 1 d . U P A 1
H29A H 0.6365 0.1590 -0.0381 0.050 Uiso 0.618(11) 1 calc R . P A 1
H29B H 0.6200 0.1011 0.0379 0.050 Uiso 0.618(11) 1 calc R . P A 1
C29' C 0.569(2) 0.199(3) -0.0148(16) 0.035(4) Uani 0.382(11) 1 d . U P A 2
H29C H 0.5561 0.1298 0.0131 0.042 Uiso 0.382(11) 1 calc R . P A 2
H29D H 0.5937 0.1714 -0.0559 0.042 Uiso 0.382(11) 1 calc R . P A 2
C30 C 0.7162(6) 0.2337(10) 0.0681(6) 0.043(2) Uani 1 1 d . . . . .
H30A H 0.7673 0.1814 0.0746 0.052 Uiso 0.618(11) 1 calc R . P A 1
H30B H 0.7274 0.3073 0.0439 0.052 Uiso 0.618(11) 1 calc R . P A 1
H30C H 0.7460 0.2436 0.0275 0.052 Uiso 0.382(11) 1 calc R . P A 2
H30D H 0.7162 0.1499 0.0809 0.052 Uiso 0.382(11) 1 calc R . P A 2
loop_
_atom_site_aniso_label
_atom_site_aniso_U_11
_atom_site_aniso_U_22
_atom_site_aniso_U_33
_atom_site_aniso_U_23
_atom_site_aniso_U_13
_atom_site_aniso_U_12
C24 0.039(9) 0.036(10) 0.051(10) -0.011(8) 0.020(9) -0.008(7)
C24' 0.084(12) 0.050(10) 0.043(9) -0.004(8) 0.013(9) -0.012(10)
S1 0.0427(13) 0.0236(11) 0.0308(11) 0.0042(9) 0.0208(10) 0.0102(10)
Na1 0.0245(16) 0.0257(17) 0.0275(17) 0.0052(14) 0.0069(13) 0.0019(14)
O1 0.045(4) 0.033(4) 0.045(4) 0.011(3) 0.029(3) 0.012(3)
O2 0.060(4) 0.024(3) 0.041(4) -0.001(3) 0.028(3) 0.005(3)
O3 0.026(3) 0.038(4) 0.039(4) 0.000(3) 0.003(3) 0.004(3)
O4 0.043(7) 0.041(7) 0.043(8) 0.010(6) 0.015(5) -0.002(5)
O4' 0.037(11) 0.085(14) 0.035(11) -0.021(10) -0.007(9) -0.027(10)
O5 0.046(7) 0.040(6) 0.039(6) 0.010(5) 0.010(5) -0.005(5)
O5' 0.083(11) 0.048(10) 0.042(9) -0.004(8) 0.011(9) -0.015(10)
O6 0.029(6) 0.040(7) 0.037(6) 0.003(5) 0.004(5) 0.007(5)
O6' 0.053(9) 0.041(9) 0.042(8) -0.002(7) 0.022(7) -0.011(8)
O7 0.028(5) 0.036(6) 0.030(6) 0.008(5) 0.007(5) -0.008(5)
O7' 0.033(7) 0.038(8) 0.030(7) 0.003(6) 0.001(6) 0.005(6)
O8 0.037(7) 0.033(6) 0.041(7) 0.002(5) 0.014(5) 0.004(5)
O8' 0.035(9) 0.036(9) 0.028(7) -0.006(7) 0.005(6) -0.006(7)
N1 0.027(4) 0.024(4) 0.030(4) 0.003(3) 0.014(3) 0.004(3)
C1 0.039(5) 0.034(5) 0.027(4) 0.007(4) 0.013(4) 0.015(4)
C2 0.056(6) 0.036(6) 0.047(6) 0.015(5) 0.030(5) 0.022(5)
C3 0.054(7) 0.069(8) 0.064(7) 0.042(7) 0.043(6) 0.044(7)
C4 0.043(6) 0.062(7) 0.048(6) 0.023(6) 0.028(5) 0.033(6)
C5 0.051(6) 0.050(7) 0.041(6) 0.013(5) 0.014(5) 0.029(5)
C6 0.047(6) 0.027(5) 0.036(5) 0.009(4) 0.015(4) 0.012(4)
C7 0.061(7) 0.107(11) 0.036(6) 0.034(7) 0.018(5) 0.037(8)
C8 0.028(4) 0.018(4) 0.027(4) 0.011(3) 0.007(3) 0.006(3)
C9 0.038(5) 0.025(4) 0.021(4) -0.004(3) 0.001(4) -0.001(4)
C10 0.066(7) 0.028(5) 0.022(4) 0.003(4) 0.007(4) 0.013(5)
C11 0.108(11) 0.038(6) 0.019(5) -0.002(4) 0.003(6) 0.005(7)
C12 0.067(8) 0.053(7) 0.041(6) -0.005(5) -0.016(6) 0.025(6)
C13 0.041(6) 0.036(6) 0.055(7) 0.000(5) -0.011(5) 0.013(5)
C14 0.039(5) 0.023(5) 0.030(5) 0.003(4) -0.010(4) 0.012(4)
C15 0.034(4) 0.022(4) 0.023(4) 0.001(3) 0.009(3) 0.004(4)
C16 0.032(5) 0.027(5) 0.040(5) 0.004(4) 0.016(4) 0.006(4)
C17 0.043(6) 0.044(6) 0.039(5) -0.001(5) 0.018(5) 0.011(5)
C18 0.044(6) 0.054(7) 0.038(5) -0.021(5) 0.009(5) 0.001(5)
C19 0.033(5) 0.044(6) 0.041(5) -0.020(5) 0.020(4) -0.011(4)
C20 0.031(5) 0.023(4) 0.029(4) -0.001(4) 0.012(4) 0.001(4)
C21 0.019(9) 0.070(13) 0.060(13) 0.016(10) 0.005(8) -0.022(9)
C21' 0.031(12) 0.079(15) 0.035(11) -0.017(11) -0.007(10) -0.018(11)
C22 0.041(6) 0.100(11) 0.047(7) -0.004(7) -0.001(5) -0.021(7)
C23 0.038(9) 0.035(8) 0.035(9) 0.003(7) -0.021(8) -0.002(8)
C23' 0.082(13) 0.054(13) 0.043(11) -0.005(10) 0.009(11) -0.023(12)
C25 0.042(11) 0.043(11) 0.054(10) 0.003(7) 0.011(9) 0.018(9)
C25' 0.076(11) 0.049(10) 0.044(8) -0.006(8) 0.020(8) -0.006(9)
C26 0.022(8) 0.046(9) 0.048(9) 0.009(7) 0.009(7) 0.010(7)
C26' 0.043(9) 0.043(9) 0.046(8) -0.002(8) 0.017(7) -0.002(7)
C27 0.033(7) 0.050(10) 0.041(9) -0.012(7) 0.014(8) -0.016(7)
C27' 0.029(8) 0.040(9) 0.040(8) 0.000(8) 0.006(7) -0.001(7)
C28 0.048(8) 0.052(11) 0.020(8) -0.009(7) 0.011(6) -0.012(7)
C28' 0.038(8) 0.042(9) 0.029(8) -0.003(8) 0.002(7) -0.001(7)
C29 0.051(9) 0.028(9) 0.052(10) 0.010(8) 0.026(8) 0.009(7)
C29' 0.035(9) 0.039(9) 0.029(8) -0.008(7) 0.007(7) -0.004(7)
C30 0.035(5) 0.038(6) 0.059(7) -0.004(5) 0.020(5) 0.004(5)
loop_
_atom_type_symbol
_atom_type_description
_atom_type_scat_dispersion_real
_atom_type_scat_dispersion_imag
_atom_type_scat_source
C C 0.0033 0.0016 'International Tables Vol C Tables 4.2.6.8 and 6.1.1.4'
H H 0.0000 0.0000 'International Tables Vol C Tables 4.2.6.8 and 6.1.1.4'
N N 0.0061 0.0033 'International Tables Vol C Tables 4.2.6.8 and 6.1.1.4'
Na Na 0.0362 0.0249 'International Tables Vol C Tables 4.2.6.8 and 6.1.1.4'
O O 0.0106 0.0060 'International Tables Vol C Tables 4.2.6.8 and 6.1.1.4'
S S 0.1246 0.1234 'International Tables Vol C Tables 4.2.6.8 and 6.1.1.4'
loop_
_geom_angle_atom_site_label_1
_geom_angle_atom_site_label_2
_geom_angle_atom_site_label_3
_geom_angle
H24A C24 H24B 108.5
O6 C24 H24A 110.2
O6 C24 H24B 110.2
C23 C24 H24A 110.2
C23 C24 H24B 110.2
C23 C24 O6 107.8(16)
H24C C24' H24D 106.8
O5' C24' H24C 107.1
O5' C24' H24D 107.1
C25' C24' H24C 107.1
C25' C24' H24D 107.1
C25' C24' O5' 121(4)
O1 S1 Na1 51.5(3)
O1 S1 O2 116.1(4)
O1 S1 N1 106.5(4)
O1 S1 C1 105.0(4)
O2 S1 Na1 139.7(3)
O2 S1 N1 115.2(4)
O2 S1 C1 104.4(4)
N1 S1 Na1 55.1(3)
N1 S1 C1 109.1(4)
C1 S1 Na1 115.8(3)
O1 Na1 O4 76.1(3)
O1 Na1 O4' 81.3(6)
O1 Na1 O5 99.0(3)
O1 Na1 O5' 120.0(6)
O1 Na1 O6' 156.7(5)
O1 Na1 O7 125.6(3)
O1 Na1 O8 96.1(3)
O1 Na1 O8' 93.5(4)
O1 Na1 N1 58.4(2)
O4 Na1 O5 68.7(4)
O4 Na1 O7 127.9(4)
O4 Na1 O8 66.3(4)
O4 Na1 N1 134.2(3)
O4' Na1 O5' 65.6(8)
O4' Na1 O6' 117.9(8)
O4' Na1 O8' 64.9(6)
O4' Na1 N1 130.1(6)
O5 Na1 O7 134.0(4)
O5 Na1 O8 126.9(4)
O5 Na1 N1 111.2(3)
O6 Na1 O1 159.4(3)
O6 Na1 O4 111.4(4)
O6 Na1 O5 68.0(4)
O6 Na1 O7 66.0(4)
O6 Na1 O8 104.5(4)
O6 Na1 N1 110.0(3)
O6' Na1 O5' 63.4(8)
O6' Na1 O8' 106.4(6)
O6' Na1 N1 98.3(5)
O7 Na1 N1 86.7(3)
O7' Na1 O1 112.3(5)
O7' Na1 O4' 129.3(7)
O7' Na1 O5' 127.5(7)
O7' Na1 O6' 67.1(7)
O7' Na1 O8' 65.6(6)
O7' Na1 N1 94.9(5)
O8 Na1 O7 64.8(4)
O8 Na1 N1 120.0(3)
O8' Na1 O5' 113.0(7)
N1 Na1 O5' 108.3(6)
N1 Na1 O8' 138.0(4)
S1 O1 Na1 100.4(3)
C15 O3 C14 116.3(7)
C21 O4 Na1 117.1(13)
C21 O4 C30 113.1(15)
C30 O4 Na1 117.7(8)
C21' O4' Na1 115.5(16)
C22 O4' Na1 118.3(15)
C22 O4' C21' 121(2)
C22 O5 Na1 112.9(8)
C23 O5 Na1 114.2(10)
C23 O5 C22 107.3(14)
C24' O5' Na1 105(2)
C24' O5' C23' 135(3)
C23' O5' Na1 105.5(18)
C24 O6 Na1 112.2(11)
C25 O6 C24 116.7(13)
C25 O6 Na1 111.3(11)
C25' O6' Na1 106(2)
C26' O6' Na1 104.6(18)
C26' O6' C25' 112(3)
C26 O7 Na1 117.4(9)
C27 O7 Na1 116.0(10)
C27 O7 C26 112.2(14)
C27' O7' Na1 120.2(17)
C28' O7' Na1 119.6(16)
C28' O7' C27' 109(2)
C28 O8 Na1 102.8(8)
C29 O8 Na1 105.5(10)
C29 O8 C28 113.5(15)
C29' O8' Na1 96.2(15)
C30 O8' Na1 113.6(10)
C30 O8' C29' 116(2)
S1 N1 Na1 94.5(3)
C8 N1 S1 116.2(6)
C8 N1 Na1 148.8(5)
C2 C1 S1 121.7(8)
C6 C1 S1 119.8(7)
C6 C1 C2 118.4(9)
C1 C2 H2 120.6
C3 C2 C1 118.8(11)
C3 C2 H2 120.6
C2 C3 H3 119.3
C4 C3 C2 121.3(11)
C4 C3 H3 119.3
C3 C4 C7 119.3(11)
C5 C4 C3 120.0(11)
C5 C4 C7 120.6(13)
C4 C5 H5 120.0
C4 C5 C6 120.0(12)
C6 C5 H5 120.0
C1 C6 C5 121.3(9)
C1 C6 H6 119.3
C5 C6 H6 119.3
C4 C7 H7A 109.5
C4 C7 H7B 109.5
C4 C7 H7C 109.5
H7A C7 H7B 109.5
H7A C7 H7C 109.5
H7B C7 H7C 109.5
N1 C8 H8 106.7
N1 C8 C9 114.6(7)
N1 C8 C20 113.6(7)
C9 C8 H8 106.7
C20 C8 H8 106.7
C20 C8 C9 108.0(7)
C10 C9 C8 122.3(8)
C14 C9 C8 120.9(8)
C14 C9 C10 116.6(8)
C9 C10 H10 119.8
C9 C10 C11 120.5(11)
C11 C10 H10 119.8
C10 C11 H11 119.1
C12 C11 C10 121.8(11)
C12 C11 H11 119.1
C11 C12 H12 120.8
C11 C12 C13 118.5(10)
C13 C12 H12 120.8
C12 C13 H13 120.7
C14 C13 C12 118.5(11)
C14 C13 H13 120.7
C9 C14 O3 120.3(7)
C13 C14 O3 115.6(9)
C13 C14 C9 124.0(10)
C16 C15 O3 116.0(8)
C20 C15 O3 121.2(7)
C20 C15 C16 122.8(8)
C15 C16 H16 120.6
C17 C16 C15 118.8(9)
C17 C16 H16 120.6
C16 C17 H17 119.8
C18 C17 C16 120.4(9)
C18 C17 H17 119.8
C17 C18 H18 119.9
C17 C18 C19 120.1(9)
C19 C18 H18 119.9
C18 C19 H19 119.8
C20 C19 C18 120.3(9)
C20 C19 H19 119.8
C15 C20 C8 119.8(8)
C15 C20 C19 117.5(8)
C19 C20 C8 122.5(8)
O4 C21 H21A 109.9
O4 C21 H21B 109.9
O4 C21 C22 109.1(16)
H21A C21 H21B 108.3
C22 C21 H21A 109.9
C22 C21 H21B 109.9
O4' C21' H21C 109.1
O4' C21' H21D 109.1
O4' C21' C30 113(3)
H21C C21' H21D 107.8
C30 C21' H21C 109.1
C30 C21' H21D 109.1
O4' C22 H22C 110.9
O4' C22 H22D 110.9
O4' C22 C23' 104.2(18)
O5 C22 C21 113.4(11)
O5 C22 H22A 108.9
O5 C22 H22B 108.9
C21 C22 H22A 108.9
C21 C22 H22B 108.9
H22C C22 H22D 108.9
H22A C22 H22B 107.7
C23' C22 H22C 110.9
C23' C22 H22D 110.9
C24 C23 O5 109(2)
C24 C23 H23A 109.9
C24 C23 H23B 109.9
O5 C23 H23A 109.9
O5 C23 H23B 109.9
H23A C23 H23B 108.3
O5' C23' C22 107(2)
O5' C23' H23C 110.3
O5' C23' H23D 110.3
C22 C23' H23C 110.3
C22 C23' H23D 110.3
H23C C23' H23D 108.5
O6 C25 H25A 110.0
O6 C25 H25B 110.0
O6 C25 C26 108.3(16)
H25A C25 H25B 108.4
C26 C25 H25A 110.0
C26 C25 H25B 110.0
C24' C25' O6' 107(3)
C24' C25' H25C 110.4
C24' C25' H25D 110.4
O6' C25' H25C 110.4
O6' C25' H25D 110.4
H25C C25' H25D 108.6
O7 C26 C25 105.5(14)
O7 C26 H26A 110.6
O7 C26 H26B 110.6
C25 C26 H26A 110.6
C25 C26 H26B 110.6
H26A C26 H26B 108.8
O6' C26' H26C 110.0
O6' C26' H26D 110.0
O6' C26' C27' 109(2)
H26C C26' H26D 108.3
C27' C26' H26C 110.0
C27' C26' H26D 110.0
O7 C27 H27A 109.7
O7 C27 H27B 109.7
O7 C27 C28 109.8(15)
H27A C27 H27B 108.2
C28 C27 H27A 109.7
C28 C27 H27B 109.7
O7' C27' C26' 105(3)
O7' C27' H27C 110.8
O7' C27' H27D 110.8
C26' C27' H27C 110.8
C26' C27' H27D 110.8
H27C C27' H27D 108.9
O8 C28 H28A 110.5
O8 C28 H28B 110.5
C27 C28 O8 105.9(14)
C27 C28 H28A 110.5
C27 C28 H28B 110.5
H28A C28 H28B 108.7
O7' C28' H28C 110.8
O7' C28' H28D 110.8
O7' C28' C29' 105(2)
H28C C28' H28D 108.9
C29' C28' H28C 110.8
C29' C28' H28D 110.8
O8 C29 H29A 110.4
O8 C29 H29B 110.4
O8 C29 C30 106.8(13)
H29A C29 H29B 108.6
C30 C29 H29A 110.4
C30 C29 H29B 110.4
O8' C29' C28' 109(3)
O8' C29' H29C 109.9
O8' C29' H29D 109.9
C28' C29' H29C 109.9
C28' C29' H29D 109.9
H29C C29' H29D 108.3
O4 C30 C29 108.3(10)
O4 C30 H30A 110.0
O4 C30 H30B 110.0
O8' C30 C21' 108.0(16)
O8' C30 H30C 110.1
O8' C30 H30D 110.1
C21' C30 H30C 110.1
C21' C30 H30D 110.1
C29 C30 H30A 110.0
C29 C30 H30B 110.0
H30A C30 H30B 108.4
H30C C30 H30D 108.4
loop_
_geom_bond_atom_site_label_1
_geom_bond_atom_site_label_2
_geom_bond_distance
C24 H24A 0.9700
C24 H24B 0.9700
C24 O6 1.53(3)
C24 C23 1.42(3)
C24' H24C 0.9700
C24' H24D 0.9700
C24' O5' 1.48(5)
C24' C25' 1.30(5)
S1 Na1 3.058(4)
S1 O1 1.462(6)
S1 O2 1.464(7)
S1 N1 1.552(7)
S1 C1 1.779(9)
Na1 O1 2.435(7)
Na1 O4 2.454(12)
Na1 O4' 2.50(2)
Na1 O5 2.470(12)
Na1 O5' 2.67(2)
Na1 O6 2.424(12)
Na1 O6' 2.52(3)
Na1 O7 2.511(11)
Na1 O7' 2.377(18)
Na1 O8 2.505(13)
Na1 O8' 2.573(17)
Na1 N1 2.516(7)
O3 C14 1.401(11)
O3 C15 1.399(11)
O4 C21 1.38(2)
O4 C30 1.394(15)
O4' C21' 1.45(4)
O4' C22 1.29(2)
O5 C22 1.446(17)
O5 C23 1.43(2)
O5' C23' 1.52(5)
O6 C25 1.42(2)
O6' C25' 1.42(4)
O6' C26' 1.39(4)
O7 C26 1.44(2)
O7 C27 1.417(19)
O7' C27' 1.44(3)
O7' C28' 1.42(3)
O8 C28 1.47(2)
O8 C29 1.41(2)
O8' C29' 1.43(3)
O8' C30 1.33(2)
N1 C8 1.449(10)
C1 C2 1.410(13)
C1 C6 1.381(14)
C2 H2 0.9300
C2 C3 1.399(15)
C3 H3 0.9300
C3 C4 1.375(17)
C4 C5 1.354(15)
C4 C7 1.511(14)
C5 H5 0.9300
C5 C6 1.397(13)
C6 H6 0.9300
C7 H7A 0.9600
C7 H7B 0.9600
C7 H7C 0.9600
C8 H8 0.9800
C8 C9 1.509(11)
C8 C20 1.509(11)
C9 C10 1.384(12)
C9 C14 1.378(13)
C10 H10 0.9300
C10 C11 1.385(15)
C11 H11 0.9300
C11 C12 1.360(18)
C12 H12 0.9300
C12 C13 1.406(16)
C13 H13 0.9300
C13 C14 1.361(13)
C15 C16 1.382(12)
C15 C20 1.383(12)
C16 H16 0.9300
C16 C17 1.373(13)
C17 H17 0.9300
C17 C18 1.370(14)
C18 H18 0.9300
C18 C19 1.407(13)
C19 H19 0.9300
C19 C20 1.387(12)
C21 H21A 0.9700
C21 H21B 0.9700
C21 C22 1.53(3)
C21' H21C 0.9700
C21' H21D 0.9700
C21' C30 1.48(3)
C22 H22C 0.9700
C22 H22D 0.9700
C22 H22A 0.9700
C22 H22B 0.9700
C22 C23' 1.57(4)
C23 H23A 0.9700
C23 H23B 0.9700
C23' H23C 0.9700
C23' H23D 0.9700
C25 H25A 0.9700
C25 H25B 0.9700
C25 C26 1.52(3)
C25' H25C 0.9700
C25' H25D 0.9700
C26 H26A 0.9700
C26 H26B 0.9700
C26' H26C 0.9700
C26' H26D 0.9700
C26' C27' 1.54(4)
C27 H27A 0.9700
C27 H27B 0.9700
C27 C28 1.46(3)
C27' H27C 0.9700
C27' H27D 0.9700
C28 H28A 0.9700
C28 H28B 0.9700
C28' H28C 0.9700
C28' H28D 0.9700
C28' C29' 1.45(4)
C29 H29A 0.9700
C29 H29B 0.9700
C29 C30 1.52(2)
C29' H29C 0.9700
C29' H29D 0.9700
C30 H30A 0.9700
C30 H30B 0.9700
C30 H30C 0.9700
C30 H30D 0.9700
loop_
_geom_torsion_atom_site_label_1
_geom_torsion_atom_site_label_2
_geom_torsion_atom_site_label_3
_geom_torsion_atom_site_label_4
_geom_torsion
C24 O6 C25 C26 168.6(15)
C24' O5' C23' C22 -178(3)
S1 N1 C8 C9 -111.9(7)
S1 N1 C8 C20 123.3(7)
S1 C1 C2 C3 -176.9(7)
S1 C1 C6 C5 178.4(7)
Na1 S1 N1 C8 174.5(7)
Na1 S1 C1 C2 169.1(6)
Na1 S1 C1 C6 -8.1(8)
Na1 O4 C21 C22 39.5(17)
Na1 O4 C30 C29 -24.1(12)
Na1 O4' C21' C30 -29(3)
Na1 O4' C22 C23' -56(2)
Na1 O5 C22 C21 35.3(15)
Na1 O5 C23 C24 45(2)
Na1 O5' C23' C22 -48(2)
Na1 O6 C25 C26 -60.9(16)
Na1 O6' C25' C24' 69(3)
Na1 O6' C26' C27' -63(3)
Na1 O7 C26 C25 -28.4(17)
Na1 O7 C27 C28 15.3(16)
Na1 O7' C27' C26' -25(3)
Na1 O7' C28' C29' 17(3)
Na1 O8 C28 C27 69.6(13)
Na1 O8 C29 C30 -63.3(11)
Na1 O8' C29' C28' 72(2)
Na1 O8' C30 C21' -53(2)
Na1 N1 C8 C9 57.4(13)
Na1 N1 C8 C20 -67.5(12)
O1 S1 N1 Na1 -4.2(4)
O1 S1 N1 C8 170.3(6)
O1 S1 C1 C2 -136.8(7)
O1 S1 C1 C6 46.1(8)
O2 S1 O1 Na1 134.1(4)
O2 S1 N1 Na1 -134.4(3)
O2 S1 N1 C8 40.1(7)
O2 S1 C1 C2 -14.2(8)
O2 S1 C1 C6 168.7(7)
O3 C15 C16 C17 178.5(8)
O3 C15 C20 C8 -5.6(12)
O3 C15 C20 C19 179.1(8)
O4 C21 C22 O5 -50(2)
O4' C21' C30 O8' 54(3)
O4' C22 C23' O5' 70(3)
O5' C24' C25' O6' -53(5)
O6 C24 C23 O5 -60(2)
O6 C25 C26 O7 57.3(18)
O6' C26' C27' O7' 60(3)
O7 C27 C28 O8 -57.2(16)
O7' C28' C29' O8' -64(3)
O8 C29 C30 O4 59.4(14)
N1 S1 O1 Na1 4.4(4)
N1 S1 C1 C2 109.4(8)
N1 S1 C1 C6 -67.7(8)
N1 C8 C9 C10 25.5(12)
N1 C8 C9 C14 -159.2(8)
N1 C8 C20 C15 160.0(7)
N1 C8 C20 C19 -25.0(11)
C1 S1 O1 Na1 -111.2(4)
C1 S1 N1 Na1 108.6(4)
C1 S1 N1 C8 -76.9(7)
C1 C2 C3 C4 -1.2(14)
C2 C1 C6 C5 1.2(14)
C2 C3 C4 C5 0.8(15)
C2 C3 C4 C7 -179.9(9)
C3 C4 C5 C6 0.7(15)
C4 C5 C6 C1 -1.7(15)
C6 C1 C2 C3 0.3(13)
C7 C4 C5 C6 -178.6(9)
C8 C9 C10 C11 173.2(9)
C8 C9 C14 O3 4.6(13)
C8 C9 C14 C13 -171.7(9)
C9 C8 C20 C15 31.6(10)
C9 C8 C20 C19 -153.3(9)
C9 C10 C11 C12 -0.2(17)
C10 C9 C14 O3 -179.8(8)
C10 C9 C14 C13 3.9(15)
C10 C11 C12 C13 1.4(18)
C11 C12 C13 C14 0.0(17)
C12 C13 C14 O3 -179.2(9)
C12 C13 C14 C9 -2.8(16)
C14 O3 C15 C16 155.8(8)
C14 O3 C15 C20 -24.6(11)
C14 C9 C10 C11 -2.4(14)
C15 O3 C14 C9 25.1(12)
C15 O3 C14 C13 -158.4(8)
C15 C16 C17 C18 2.4(15)
C16 C15 C20 C8 174.0(8)
C16 C15 C20 C19 -1.3(13)
C16 C17 C18 C19 -1.3(17)
C17 C18 C19 C20 -1.1(17)
C18 C19 C20 C8 -172.8(9)
C18 C19 C20 C15 2.3(14)
C20 C8 C9 C10 153.3(8)
C20 C8 C9 C14 -31.4(11)
C20 C15 C16 C17 -1.1(14)
C21 O4 C30 C29 -165.7(13)
C21' O4' C22 C23' 97(3)
C22 O4' C21' C30 177(2)
C22 O5 C23 C24 170.5(14)
C23 C24 O6 Na1 47.4(19)
C23 C24 O6 C25 177.5(17)
C23 O5 C22 C21 -91.4(16)
C25' C24' O5' Na1 10(4)
C25' C24' O5' C23' 141(4)
C25' O6' C26' C27' -177(3)
C26 O7 C27 C28 154.1(14)
C26' O6' C25' C24' -178(3)
C27 O7 C26 C25 -166.7(14)
C27' O7' C28' C29' 161(2)
C28 O8 C29 C30 -175.2(11)
C28' O7' C27' C26' -169(2)
C29 O8 C28 C27 -176.9(13)
C29' O8' C30 C21' -163(2)
C30 O4 C21 C22 -178.6(12)
C30 O8' C29' C28' -168(2)
loop_
_smtbx_masks_void_nr
_smtbx_masks_void_average_x
_smtbx_masks_void_average_y
_smtbx_masks_void_average_z
_smtbx_masks_void_volume
_smtbx_masks_void_count_electrons
1 -0.084 0.151 0.068 10.3 0.3
2 0.084 0.849 0.932 10.3 0.3
3 0.416 0.349 0.568 10.3 0.3
4 0.584 0.651 0.432 10.3 0.3
