#------------------------------------------------------------------------------
#$Date: 2017-07-25 13:25:27 +0300 (Tue, 25 Jul 2017) $
#$Revision: 199254 $
#$URL: file:///home/coder/svn-repositories/cod/cif/1/54/66/1546660.cif $
#------------------------------------------------------------------------------
#
# This file is available in the Crystallography Open Database (COD),
# http://www.crystallography.net/. The original data for this entry
# were provided by IUCr Journals, http://journals.iucr.org/.
#
# The file may be used within the scientific community so long as
# proper attribution is given to the journal article from which the
# data were obtained.
#
data_1546660
loop_
_publ_author_name
'Sebbar, Nada Kheira'
'Ellouz, Mohamed'
'Lahmidi, Sanae'
'Hlimi, Fouzia'
'Essassi, El Mokhtar'
'Mague, Joel T.'
_publ_section_title
;
 (2<i>Z</i>)-2-Benzylidene-4-octadecyl-3,4-dihydro-2<i>H</i>-1,4-benzothiazin-3-one
;
_journal_coeditor_code           ZQ4019
_journal_issue                   5
_journal_name_full               IUCrData
_journal_page_first              x170695
_journal_paper_doi               10.1107/S2414314617006952
_journal_volume                  2
_journal_year                    2017
_chemical_formula_iupac          'C33 H47 N O S'
_chemical_formula_moiety         'C33 H47 N O S'
_chemical_formula_sum            'C33 H47 N O S'
_chemical_formula_weight         505.77
_chemical_name_systematic
(2<i>Z</i>)-2-Benzylidene-4-octadecyl-3,4-dihydro-2<i>H</i>-1,4-benzothiazin-3-one
_space_group_crystal_system      monoclinic
_space_group_IT_number           14
_space_group_name_Hall           '-P 2ybc'
_space_group_name_H-M_alt        'P 1 21/c 1'
_symmetry_space_group_name_Hall  '-P 2ybc'
_symmetry_space_group_name_H-M   'P 1 21/c 1'
_atom_sites_solution_hydrogens   mixed
_atom_sites_solution_primary     direct
_atom_sites_solution_secondary   difmap
_audit_creation_method           SHELXL-2014/7
_cell_angle_alpha                90
_cell_angle_beta                 90.4700(10)
_cell_angle_gamma                90
_cell_formula_units_Z            4
_cell_length_a                   33.8411(7)
_cell_length_b                   4.71060(10)
_cell_length_c                   18.0987(4)
_cell_measurement_reflns_used    9991
_cell_measurement_temperature    150(2)
_cell_measurement_theta_max      74.7
_cell_measurement_theta_min      2.6
_cell_volume                     2885.05(11)
_computing_cell_refinement
;
<i>SAINT</i> (Bruker, 2016)
;
_computing_data_collection
;
<i>APEX3</i> (Bruker, 2016)
;
_computing_data_reduction
;
<i>SAINT</i> (Bruker, 2016)
;
_computing_molecular_graphics
;
<i>DIAMOND</i> (Brandenburg & Putz, 2012)
;
_computing_publication_material
;
<i>SHELXTL</i> (Sheldrick, 2008)
;
_computing_structure_refinement
;
<i>SHELXL2014</i> (Sheldrick, 2015<i>b</i>)
;
_computing_structure_solution
;
<i>SHELXT</i> (Sheldrick, 2015<i>a</i>)
;
_diffrn_ambient_temperature      150(2)
_diffrn_detector_area_resol_mean 10.4167
_diffrn_measured_fraction_theta_full 0.991
_diffrn_measured_fraction_theta_max 0.979
_diffrn_measurement_device_type  'Bruker D8 VENTURE PHOTON 100 CMOS'
_diffrn_measurement_method       '\w scans'
_diffrn_radiation_monochromator  mirror
_diffrn_radiation_type           CuK\a
_diffrn_radiation_wavelength     1.54178
_diffrn_reflns_av_R_equivalents  0.0403
_diffrn_reflns_limit_h_max       42
_diffrn_reflns_limit_h_min       -42
_diffrn_reflns_limit_k_max       5
_diffrn_reflns_limit_k_min       -5
_diffrn_reflns_limit_l_max       22
_diffrn_reflns_limit_l_min       -21
_diffrn_reflns_number            21375
_diffrn_reflns_theta_full        71.000
_diffrn_reflns_theta_max         74.692
_diffrn_reflns_theta_min         2.611
_exptl_absorpt_coefficient_mu    1.171
_exptl_absorpt_correction_T_max  0.97
_exptl_absorpt_correction_T_min  0.81
_exptl_absorpt_correction_type   multi-scan
_exptl_absorpt_process_details
;
(<i>SADABS</i>; Bruker, 2016)
;
_exptl_crystal_colour            colourless
_exptl_crystal_density_diffrn    1.164
_exptl_crystal_density_method    'not measured'
_exptl_crystal_description       plate
_exptl_crystal_F_000             1104
_exptl_crystal_size_max          0.238
_exptl_crystal_size_mid          0.108
_exptl_crystal_size_min          0.026
_refine_diff_density_max         0.339
_refine_diff_density_min         -0.461
_refine_ls_extinction_method     none
_refine_ls_goodness_of_fit_ref   1.062
_refine_ls_hydrogen_treatment    mixed
_refine_ls_matrix_type           full
_refine_ls_number_parameters     524
_refine_ls_number_reflns         5792
_refine_ls_number_restraints     0
_refine_ls_restrained_S_all      1.062
_refine_ls_R_factor_all          0.0544
_refine_ls_R_factor_gt           0.0456
_refine_ls_shift/su_max          0.000
_refine_ls_shift/su_mean         0.000
_refine_ls_structure_factor_coef Fsqd
_refine_ls_weighting_details
'w=1/[\s^2^(Fo^2^)+(0.0511P)^2^+1.3651P] where P=(Fo^2^+2Fc^2^)/3'
_refine_ls_weighting_scheme      calc
_refine_ls_wR_factor_gt          0.1134
_refine_ls_wR_factor_ref         0.1195
_reflns_number_gt                4927
_reflns_number_total             5792
_reflns_threshold_expression     'I > 2\s(I)'
_cod_data_source_file            zq4019sup1.cif
_cod_data_source_block           I
_cod_database_code               1546660
_shelx_space_group_comment
;
The symmetry employed for this shelxl refinement is uniquely defined
by the following loop, which should always be used as a source of
symmetry information in preference to the above space-group names.
They are only intended as comments.
;
_shelx_estimated_absorpt_t_min   0.768
_shelx_estimated_absorpt_t_max   0.970
_shelx_hkl_file
;
   0   0  -1    0.00    0.00
   0   0   2   48.26    1.88
   0   0  -2   45.89    1.88
   0   0   3   -0.02    0.01
   0   0  -3   -0.01    0.01
   0   0   4   26.57    1.06
   0   0  -4   26.18    1.06
   0   0  -5   -0.02    0.02
   0   0   5   -0.01    0.02
   0   0   6   14.90    0.61
   0   0  -6   14.53    0.61
   0   0  -7   -0.03    0.03
   0   0   7    0.00    0.03
   0   0  -8   26.80    1.09
   0   0  -8   26.79    1.07
   0   0   8   26.11    1.08
   0   0   9    0.02    0.06
   0   0  -9   -0.01    0.04
   0   0  -9    0.03    0.06
   0   0 -10   15.33    0.64
   0   0 -10   15.46    0.67
   0   0 -11   -0.06    0.05
   0   0 -11   -0.02    0.12
   0   0 -11    0.01    0.04
   0   0 -12    0.21    0.06
   0   0 -12    0.16    0.05
   0   0 -13   -0.02    0.05
   0   0 -13    0.05    0.05
   0   0 -13   -0.07    0.08
   0   0 -14    5.37    0.26
   0   0 -14    5.34    0.25
   0   0 -15    0.05    0.06
   0   0 -15    0.04    0.04
   0   0 -16   14.42    0.55
   0   0 -16   11.41    0.56
   0   0 -17   -0.01    0.06
   0   0 -17    0.06    0.04
   0   0 -18    1.04    0.10
   0   0 -18    1.36    0.09
   0   0 -19    0.02    0.05
   0   0 -19    0.03    0.04
   0   0 -20    1.16    0.10
   0   0 -21   -0.01    0.06
   0  -1   0    0.11    0.03
   0  -1   0    0.11    0.03
   0  -1  -1  247.14   10.49
   0  -1   1  281.72   10.52
   0   1   2   19.86    0.80
   0  -1  -2   19.93    0.80
   0  -1   2   20.65    0.82
   0   1   3    6.50    0.27
   0   1  -3    6.51    0.28
   0  -1  -3    6.36    0.27
   0  -1   3    6.84    0.28
   0   1   4    4.98    0.21
   0   1  -4    5.05    0.23
   0  -1  -4    4.93    0.21
   0  -1   4    5.21    0.23
   0   1   5    1.41    0.08
   0   1  -5    1.44    0.10
   0  -1  -5    1.46    0.08
   0  -1   5    1.50    0.10
   0   1   6   17.63    0.75
   0   1  -6   18.46    0.77
   0  -1  -6   18.74    0.75
   0  -1   6   18.83    0.77
   0   1  -7   16.08    0.67
   0   1   7   15.68    0.65
   0   1  -7   15.49    0.65
   0  -1  -7   16.04    0.65
   0  -1   7   16.33    0.67
   0  -1  -7   15.34    0.65
   0   1  -8    4.64    0.24
   0   1  -8    4.46    0.21
   0   1   8    4.46    0.21
   0  -1  -8    4.30    0.21
   0  -1   8    4.42    0.25
   0  -1  -8    4.29    0.20
   0   1   9    0.25    0.07
   0   1  -9    0.28    0.06
   0   1  -9    0.57    0.13
   0  -1  -9    0.20    0.07
   0  -1  -9    0.40    0.06
   0   1  10    0.46    0.13
   0   1 -10    0.35    0.12
   0   1 -10    0.32    0.07
   0  -1 -10    0.36    0.10
   0  -1 -10    0.46    0.06
   0   1 -11    1.29    0.10
   0  -1 -11    1.27    0.09
   0  -1 -11    1.15    0.11
   0  -1 -11    1.06    0.11
   0   1 -12    2.46    0.14
   0   1 -12    2.14    0.15
   0  -1 -12    2.63    0.14
   0  -1 -12    2.46    0.14
   0  -1 -12    2.64    0.14
   0   1 -13    2.62    0.16
   0   1 -13    2.75    0.16
   0  -1 -13    2.69    0.15
   0  -1 -13    2.66    0.15
   0  -1 -13    2.84    0.16
   0   1 -14    6.29    0.30
   0   1 -14    6.75    0.31
   0  -1 -14    6.60    0.30
   0  -1 -14    6.35    0.29
   0  -1 -14    6.86    0.31
   0   1 -15    1.97    0.14
   0   1 -15    2.06    0.14
   0  -1 -15    2.20    0.13
   0  -1 -15    2.46    0.15
   0  -1 -15    2.23    0.13
   0   1 -16    2.13    0.13
   0   1 -16    1.78    0.14
   0  -1 -16    1.86    0.13
   0  -1 -16    2.05    0.12
   0   1 -17    0.13    0.06
   0  -1 -17    0.24    0.07
   0  -1 -17    0.11    0.06
   0   1 -18    0.21    0.07
   0  -1 -18    0.23    0.08
   0  -1 -18    0.28    0.07
   0   1 -19   -0.07    0.06
   0  -1 -19    0.03    0.06
   0  -1 -19    0.00    0.03
   0   1 -20    0.29    0.08
   0   1  20    0.30    0.09
   0  -1 -20    0.39    0.08
   0  -1 -20    0.35    0.05
   0   1 -21   -0.07    0.06
   0  -1 -21    0.00    0.06
   0  -2   0   43.01    1.82
   0  -2   0   47.67    1.82
   0  -2  -1    0.04    0.03
   0  -2   1    0.08    0.04
   0  -2  -1    0.07    0.04
   0  -2  -1    0.07    0.04
   0  -2   1    0.08    0.05
   0  -2  -2    4.45    0.21
   0  -2   2    4.55    0.22
   0  -2  -2    4.38    0.20
   0  -2   2    4.55    0.21
   0  -2  -2    4.25    0.20
   0   2  -3    1.74    0.11
   0  -2   3    1.62    0.13
   0  -2  -3    1.65    0.10
   0  -2  -3    1.68    0.10
   0  -2  -3    1.60    0.09
   0   2  -4    0.51    0.07
   0  -2  -4    0.52    0.05
   0  -2  -4    0.52    0.06
   0  -2  -4    0.46    0.07
   0  -2   4    0.46    0.11
   0   2  -5    0.85    0.08
   0  -2   5    0.89    0.14
   0  -2  -5    0.99    0.08
   0   2  -6    3.22    0.17
   0  -2  -6    3.25    0.16
   0   2  -7    0.26    0.07
   0  -2  -7    0.30    0.06
   0   2  -8   30.75    1.24
   0   2  -8   29.54    1.24
   0  -2  -8   32.32    1.24
   0  -2  -8   29.31    1.23
   0   2  -9    0.19    0.07
   0   2  -9    0.23    0.08
   0  -2  -9    0.07    0.05
   0  -2  -9    0.07    0.05
   0  -2  -9   -0.04    0.07
   0   2 -10    5.94    0.28
   0  -2 -10    6.25    0.28
   0  -2 -10    5.79    0.28
   0  -2 -10    5.92    0.27
   0   2 -11    0.48    0.11
   0   2 -11    0.24    0.07
   0  -2 -11    0.27    0.08
   0  -2 -11    0.30    0.07
   0  -2 -11    0.19    0.06
   0   2 -12   10.40    0.46
   0   2 -12   10.79    0.47
   0  -2 -12   10.42    0.45
   0  -2 -12   11.28    0.46
   0  -2 -12    9.96    0.45
   0   2 -13    0.15    0.07
   0   2 -13    0.29    0.09
   0  -2 -13    0.25    0.07
   0  -2 -13    0.19    0.06
   0  -2 -13    0.35    0.08
   0   2 -14    2.48    0.16
   0   2 -14    2.06    0.15
   0  -2 -14    1.92    0.14
   0  -2 -14    2.66    0.14
   0  -2 -14    2.34    0.13
   0   2 -15    1.79    0.14
   0   2 -15    1.93    0.15
   0  -2 -15    1.78    0.12
   0  -2 -15    2.10    0.12
   0  -2 -15    1.79    0.13
   0   2 -16    1.92    0.14
   0  -2 -16    2.25    0.12
   0  -2 -16    1.90    0.14
   0   2 -17    1.39    0.12
   0  -2 -17    1.41    0.09
   0  -2 -17    1.31    0.11
   0   2 -18    1.19    0.11
   0  -2 -18    1.22    0.09
   0  -2 -18    1.37    0.11
   0   2 -19    0.23    0.08
   0  -2 -19    0.36    0.08
   0  -2 -19    0.32    0.05
   0   2 -20    2.28    0.14
   0   2  20    2.51    0.12
   0  -2 -20    2.44    0.14
   0  -2 -20    2.19    0.11
   0   3   0    0.07    0.07
   0  -3   0    0.07    0.04
   0   3   1    1.04    0.12
   0   3  -1    1.09    0.12
   0  -3   1    1.09    0.09
   0  -3  -1    0.98    0.09
   0   3  -2    2.20    0.15
   0   3   2    2.21    0.16
   0   3  -2    2.19    0.16
   0  -3   2    2.41    0.14
   0  -3   2    2.20    0.25
   0  -3  -2    2.33    0.13
   0   3  -3    1.67    0.14
   0   3  -3    1.88    0.14
   0   3   3    2.08    0.16
   0  -3  -3    1.91    0.12
   0   3  -4    5.98    0.28
   0   3  -4    5.85    0.28
   0   3   4    5.74    0.29
   0  -3  -4    6.27    0.28
   0   3   5    0.58    0.15
   0   3  -5    0.48    0.10
   0   3  -5    0.53    0.11
   0  -3  -5    0.42    0.12
   0  -3  -5    0.40    0.07
   0   3  -6    3.87    0.20
   0   3  -6    3.72    0.20
   0   3   6    3.76    0.24
   0  -3  -6    3.65    0.20
   0  -3  -6    3.92    0.19
   0   3  -7    1.07    0.11
   0   3  -7    1.10    0.13
   0  -3  -7    1.29    0.10
   0  -3  -7    1.40    0.12
   0   3  -8    0.15    0.08
   0   3  -8    0.10    0.06
   0   3  -8    0.03    0.06
   0  -3  -8    0.02    0.05
   0  -3  -8    0.00    0.05
   0  -3  -8    0.08    0.10
   0   3  -9    0.36    0.09
   0   3  -9    0.37    0.09
   0   3  -9    0.48    0.09
   0  -3  -9    0.28    0.06
   0  -3  -9    0.21    0.09
   0  -3  -9    0.37    0.08
   0   3 -10    0.06    0.06
   0   3 -10    0.00    0.06
   0  -3 -10    0.09    0.08
   0  -3 -10    0.03    0.05
   0  -3 -10   -0.02    0.05
   0   3 -11    0.07    0.06
   0   3 -11    0.03    0.06
   0  -3 -11    0.18    0.07
   0  -3 -11    0.07    0.06
   0  -3 -11    0.02    0.05
   0   3 -12    0.07    0.06
   0   3 -12    0.07    0.06
   0  -3 -12    0.16    0.06
   0  -3 -12    0.08    0.06
   0  -3 -12    0.07    0.05
   0   3 -13    0.15    0.06
   0   3 -13    0.22    0.06
   0  -3 -13    0.15    0.06
   0  -3 -13    0.19    0.07
   0  -3 -13    0.24    0.06
   0   3 -14   19.32    0.74
   0   3 -14   16.44    0.76
   0  -3 -14   18.66    0.73
   0  -3 -14   16.65    0.75
   0   3 -15    0.59    0.10
   0   3 -15    0.79    0.08
   0  -3 -15    0.67    0.08
   0  -3 -15    0.62    0.09
   0   3 -16    1.42    0.10
   0  -3 -16    1.55    0.10
   0  -3 -16    1.41    0.11
   0   3 -17    0.74    0.09
   0  -3 -17    0.75    0.09
   0  -3 -17    0.80    0.07
   0  -3 -18    0.22    0.06
   0  -3 -18    0.19    0.08
   0   3  19    0.08    0.03
   0   4   0    2.41    0.15
   0  -4   0    2.62    0.16
   0   4  -1    2.96    0.17
   0   4   1    3.09    0.17
   0   4  -1    2.45    0.19
   0  -4   1    3.00    0.17
   0  -4  -1    3.07    0.17
   0   4  -2    4.88    0.26
   0   4   2    5.43    0.26
   0   4  -2    5.14    0.25
   0  -4  -2    5.30    0.26
   0  -4   2    5.54    0.27
   0   4   3    0.38    0.10
   0   4  -3    0.25    0.07
   0   4  -3    0.34    0.07
   0  -4  -3    0.39    0.08
   0  -4   3    0.33    0.09
   0   4  -4    0.50    0.10
   0   4   4    0.67    0.11
   0   4  -4    0.55    0.11
   0  -4   4    0.82    0.10
   0  -4  -4    0.62    0.09
   0   4   5    1.31    0.14
   0   4  -5    1.35    0.12
   0   4  -5    1.30    0.12
   0  -4  -5    1.31    0.11
   0  -4   5    1.45    0.12
   0   4  -6   -0.01    0.05
   0   4  -6    0.09    0.06
   0   4   6    0.01    0.08
   0  -4  -6    0.20    0.07
   0  -4   6   -0.01    0.06
   0   4  -7    1.53    0.12
   0   4  -7    1.58    0.12
   0   4   7    1.66    0.16
   0  -4  -7    1.37    0.11
   0  -4   7    1.46    0.13
   0   4  -8    7.39    0.32
   0   4  -8    7.60    0.33
   0  -4  -8    6.89    0.33
   0  -4   8    6.81    0.34
   0   4  -9    0.13    0.05
   0   4  -9    0.08    0.06
   0  -4  -9    0.08    0.06
   0   4 -10    0.41    0.08
   0   4 -10    0.21    0.07
   0  -4 -10    0.35    0.08
   0   4 -11    1.80    0.11
   0  -4 -11    1.72    0.12
   0   4 -12    0.20    0.06
   0  -4 -12    0.21    0.07
   0   4 -13    0.50    0.06
   0  -4 -13    0.44    0.08
   0   4 -14    0.44    0.06
   0  -4 -14    0.35    0.08
   0  -4  14    0.44    0.09
   0   4 -15   -0.02    0.03
   0   4  15    0.05    0.04
   0  -4  15   -0.04    0.06
   0  -4 -15    0.11    0.07
   0   4 -16    0.11    0.04
   0   4  16    0.08    0.03
   0   5   0    0.24    0.08
   0   5   1    0.29    0.08
   0   5  -1    0.23    0.08
   0  -5   1    0.10    0.06
   0  -5  -1    0.21    0.08
   0   5   2    2.55    0.14
   0   5  -2    2.32    0.13
   0  -5   2    2.19    0.15
   0  -5  -2    2.37    0.15
   0   5   3    0.47    0.08
   0   5  -3    0.55    0.08
   0   5  -3    0.49    0.10
   0  -5   3    0.46    0.09
   0  -5  -3    0.35    0.08
   0   5  -4    2.22    0.13
   0   5  -4    2.31    0.14
   0   5   4    2.30    0.14
   0  -5  -4    2.31    0.14
   0  -5   4    2.45    0.15
   0   5  -5    1.10    0.09
   0   5   5    1.05    0.10
   0   5  -5    0.93    0.09
   0  -5  -5    1.08    0.10
   0  -5   5    0.92    0.10
   0   5   6    1.29    0.11
   0   5  -6    1.20    0.09
   0   5  -6    1.14    0.09
   0  -5   6    1.25    0.11
   0  -5  -6    1.25    0.10
   0   5  -7    0.03    0.04
   0   5  -7   -0.03    0.04
   0  -5   7   -0.09    0.06
   0  -5  -7    0.07    0.06
   0   5  -8    0.23    0.06
   0   5  -8    0.19    0.06
   0  -5  -8    0.22    0.08
   0  -5   8    0.21    0.07
   0   5  -9    0.91    0.07
   0   5  -9    0.79    0.08
   0  -5  -9    0.87    0.09
   0  -5   9    0.87    0.10
   0   5 -10    0.71    0.06
   0   5 -11    1.00    0.07
   1   0 -21   -0.01    0.06
   1   0 -20    0.67    0.09
   1   0 -19    0.01    0.05
   1   0 -19    0.06    0.04
   1   0 -18    0.16    0.05
   1   0 -18    0.22    0.08
   1   0 -17   -0.04    0.04
   1   0 -17   -0.05    0.06
   1   0 -16    6.49    0.27
   1   0 -16    5.18    0.28
   1   0 -15    0.04    0.04
   1   0 -15   -0.04    0.05
   1   0 -14    2.90    0.16
   1   0 -14    2.79    0.16
   1   0 -13   -0.01    0.05
   1   0 -13    0.08    0.08
   1   0 -12    0.58    0.10
   1   0 -12    0.78    0.08
   1   0 -11    0.55    0.20
   1   0 -10    9.89    0.47
   1   0 -10   10.21    0.43
   1   0  -9    0.03    0.06
  -1   0   9    0.04    0.06
   1   0  -9   -0.03    0.03
   1   0  -8   11.64    0.49
  -1   0   8   11.80    0.50
   1   0  -8   12.03    0.51
   1   0  -7    0.02    0.03
  -1   0   7    0.06    0.03
   1   0  -6    5.18    0.24
  -1   0   6    5.72    0.24
   1   0  -5   -0.01    0.02
  -1   0   5    0.00    0.02
   1   0  -4   10.85    0.46
  -1   0   4   11.42    0.46
  -1   0   3   -0.01    0.01
   1   0  -3    0.01    0.01
   1   0  -2   80.20    3.41
  -1   0   2   90.47    3.41
   1   0  -1    0.01    0.00
  -1   0   1    0.00    0.00
   1   0   1    0.00    0.00
  -1   0  -1    0.00    0.00
  -1   0  -2    0.09    0.02
   1   0   2    0.07    0.01
  -1   0  -3    0.01    0.01
   1   0   3    0.01    0.01
  -1   0  -4    4.22    0.18
   1   0   4    4.27    0.18
   1   0   5   -0.04    0.02
  -1   0  -5    0.00    0.02
  -1   0  -6    5.01    0.23
   1   0   6    4.97    0.22
   1   0   7    0.01    0.03
  -1   0  -7    0.00    0.03
  -1   0  -8   16.18    0.67
   1   0   8   15.65    0.67
  -1   0  -8   16.06    0.65
   1   0   9    0.02    0.06
  -1   0  -9    0.06    0.06
  -1   0  -9    0.00    0.04
  -1   0 -10    7.26    0.35
  -1   0 -10    6.83    0.30
   1   0  10    6.10    0.33
  -1   0 -11    0.07    0.12
  -1   0 -11    0.00    0.04
  -1   0 -11   -0.06    0.05
  -1   0 -12    0.07    0.05
  -1   0 -12    0.14    0.06
  -1   0 -13    0.04    0.05
  -1   0 -13    0.01    0.05
  -1   0 -13    0.21    0.08
  -1   0 -14   38.48    1.60
  -1   0 -14   41.21    1.62
  -1   0 -15    0.02    0.05
  -1   0 -15    0.07    0.06
  -1   0 -16    2.63    0.14
  -1   0 -16    2.46    0.16
  -1   0 -17    0.03    0.04
  -1   0 -17    0.01    0.06
  -1   0 -18    1.78    0.13
  -1   0 -18    2.28    0.12
  -1   0 -19    0.01    0.04
  -1   0 -19    0.04    0.05
  -1   0 -20    0.82    0.09
  -1   0 -21   -0.03    0.06
   1   1 -21    0.46    0.09
  -1  -1  21    0.45    0.09
   1   1 -20   -0.03    0.05
   1  -1 -20    0.03    0.06
   1  -1 -20    0.06    0.03
   1   1 -19    0.33    0.09
   1  -1 -19    0.37    0.06
   1  -1 -19    0.46    0.08
   1   1 -18    0.23    0.08
   1  -1 -18    0.28    0.07
   1  -1 -18    0.14    0.06
   1   1 -17    0.67    0.10
   1  -1 -17    0.82    0.08
   1  -1 -17    0.70    0.09
   1   1 -16    0.90    0.10
   1   1 -16    1.03    0.10
   1  -1 -16    0.77    0.09
   1  -1 -16    0.90    0.10
   1   1 -15    2.85    0.17
   1   1 -15    2.61    0.15
   1  -1 -15    2.71    0.15
   1  -1 -15    2.85    0.16
   1  -1 -15    2.48    0.15
   1   1 -14    0.24    0.09
   1   1 -14    0.31    0.08
   1  -1 -14    0.32    0.07
   1  -1 -14    0.31    0.08
   1  -1 -14    0.34    0.08
   1   1 -13    0.44    0.10
   1   1 -13    0.54    0.08
   1  -1 -13    0.64    0.09
   1  -1 -13    0.54    0.08
   1  -1 -13    0.46    0.09
   1   1 -12    0.00    0.05
   1   1 -12    0.01    0.06
   1  -1 -12   -0.02    0.05
   1  -1 -12    0.03    0.05
   1  -1 -12    0.03    0.05
   1   1 -11    0.92    0.09
   1   1 -11    0.70    0.10
   1  -1 -11    0.89    0.08
   1  -1 -11    0.86    0.10
   1  -1 -11    0.85    0.10
  -1   1  10    0.54    0.17
   1   1 -10    0.73    0.08
   1   1 -10    1.27    0.19
   1  -1 -10    0.97    0.08
   1  -1 -10    1.24    0.17
   1   1  -9    0.16    0.08
   1   1  -9    0.23    0.05
  -1   1   9    0.22    0.07
   1  -1  -9    0.40    0.11
   1  -1  -9    0.23    0.05
  -1   1   8    1.29    0.10
   1   1  -8    1.30    0.09
   1   1  -8    1.16    0.13
   1  -1  -8    1.23    0.10
  -1  -1   8    1.07    0.14
   1  -1  -8    1.29    0.08
  -1   1   7    0.66    0.07
   1   1  -7    0.68    0.10
   1   1  -7    0.69    0.07
   1  -1  -7    0.78    0.07
   1  -1  -7    0.83    0.06
  -1  -1   7    0.84    0.11
  -1   1   6    1.55    0.09
   1   1  -6    1.53    0.11
   1  -1  -6    1.25    0.08
  -1  -1   6    1.53    0.11
   1  -1  -6    1.50    0.08
   1   1  -5    0.74    0.07
  -1   1   5    0.58    0.05
   1  -1  -5    0.62    0.05
  -1  -1   5    0.71    0.07
   1   1  -4    0.04    0.03
  -1   1   4    0.07    0.02
  -1  -1   4    0.06    0.03
   1  -1  -4    0.05    0.02
   1   1  -3   47.18    1.89
  -1   1   3   46.85    1.87
  -1  -1   3   49.91    1.89
   1  -1  -3   44.54    1.87
  -1   1   2   37.02    1.46
   1   1  -2   36.17    1.47
   1  -1  -2   35.99    1.46
  -1  -1   2   37.86    1.47
  -1  -1   1    1.82    0.09
   1  -1  -1    1.68    0.08
   1  -1   0   31.61    1.31
  -1  -1   0   33.94    1.31
  -1  -1  -1    5.89    0.25
   1  -1   1    6.19    0.26
  -1  -1  -1    6.29    0.25
   1  -1   2    1.05    0.07
  -1  -1  -2    1.09    0.05
   1   1   3    1.40    0.06
   1  -1   3    1.43    0.08
  -1  -1  -3    1.32    0.06
   1   1   4    1.23    0.06
  -1   1  -4    1.30    0.09
   1  -1   4    1.40    0.09
  -1  -1  -4    1.27    0.06
  -1   1  -5    0.20    0.06
   1   1   5    0.24    0.03
   1  -1   5    0.17    0.06
  -1  -1  -5    0.15    0.03
   1   1   6   20.34    0.80
  -1   1  -6   17.51    0.81
  -1   1  -6   20.73    0.83
   1  -1   6   20.77    0.83
  -1  -1  -6   20.21    0.80
  -1   1  -7   19.64    0.80
   1   1   7   19.85    0.80
  -1   1  -7   20.22    0.83
  -1  -1  -7   19.13    0.80
   1  -1   7   19.43    0.82
  -1  -1  -7   19.96    0.80
   1   1   8    2.83    0.15
  -1   1  -8    2.65    0.14
  -1   1  -8    2.63    0.18
  -1  -1  -8    2.60    0.14
   1  -1   8    2.69    0.19
  -1  -1  -8    2.79    0.15
  -1   1  -9    2.70    0.14
  -1   1  -9    2.45    0.19
   1   1   9    2.29    0.16
  -1  -1  -9    2.50    0.13
  -1  -1  -9    2.23    0.16
  -1   1 -10    0.46    0.07
  -1  -1 -10    0.46    0.11
  -1  -1 -10    0.45    0.06
  -1   1 -11    1.33    0.10
  -1  -1 -11    1.22    0.09
  -1  -1 -11    1.16    0.11
  -1  -1 -11    0.95    0.11
  -1   1 -12    5.75    0.29
  -1   1 -12    6.42    0.30
  -1  -1 -12    6.50    0.29
  -1  -1 -12    6.41    0.29
  -1  -1 -12    6.82    0.29
  -1   1 -13    0.26    0.06
  -1   1 -13    0.33    0.08
  -1  -1 -13    0.28    0.07
  -1  -1 -13    0.21    0.06
  -1  -1 -13    0.34    0.08
  -1   1 -14    5.69    0.28
  -1  -1 -14    6.15    0.28
  -1  -1 -14    5.66    0.27
  -1  -1 -14    5.78    0.27
  -1   1 -15    3.71    0.19
  -1   1 -15    3.81    0.21
  -1  -1 -15    4.18    0.21
  -1  -1 -15    3.62    0.19
  -1  -1 -15    3.72    0.19
  -1   1 -16    6.26    0.28
  -1   1 -16    5.66    0.29
  -1  -1 -16    5.98    0.29
  -1  -1 -16    6.07    0.27
  -1  -1 -16    6.01    0.27
  -1   1 -17    0.03    0.06
  -1  -1 -17    0.10    0.04
  -1  -1 -17    0.11    0.06
  -1   1 -18    0.00    0.06
  -1  -1 -18    0.05    0.04
  -1  -1 -18    0.05    0.06
  -1   1 -19    0.20    0.07
  -1  -1 -19    0.22    0.08
  -1   1 -20    1.03    0.10
   1   1  20    0.79    0.10
  -1  -1 -20    1.11    0.10
  -1  -1 -20    1.15    0.07
  -1   1 -21    0.01    0.06
  -1  -1 -21    0.06    0.03
  -1  -1 -21   -0.01    0.06
  -1   2  20    1.66    0.09
   1   2 -20    1.59    0.11
   1  -2 -20    1.46    0.09
   1  -2 -20    1.59    0.12
   1   2 -19    1.26    0.11
   1  -2 -19    1.20    0.08
   1  -2 -19    1.22    0.10
   1   2 -18    0.93    0.10
   1  -2 -18    0.90    0.10
   1  -2 -18    0.92    0.07
   1   2 -17    0.88    0.10
   1  -2 -17    0.75    0.09
   1  -2 -17    0.81    0.08
   1   2 -16    0.35    0.09
   1   2 -16    0.02    0.08
   1  -2 -16    0.21    0.08
   1  -2 -16    0.27    0.08
   1   2 -15    0.24    0.08
   1   2 -15    0.14    0.07
   1  -2 -15    0.22    0.08
   1   2 -14    0.14    0.06
   1   2 -14    0.15    0.07
   1  -2 -14    0.18    0.05
   1  -2 -14    0.27    0.08
   1  -2 -14    0.05    0.06
   1   2 -13    2.48    0.16
   1   2 -13    2.52    0.16
   1  -2 -13    2.53    0.14
   1  -2 -13    2.46    0.15
   1  -2 -13    2.49    0.15
   1   2 -12    9.86    0.44
   1   2 -12    9.90    0.45
   1  -2 -12   10.04    0.43
   1  -2 -12    9.82    0.43
   1  -2 -12   10.55    0.44
   1   2 -11    0.06    0.05
   1   2 -11    0.04    0.06
   1  -2 -11    0.06    0.05
   1  -2 -11    0.04    0.04
   1  -2 -11    0.04    0.06
   1   2 -10    4.70    0.24
   1  -2 -10    4.57    0.22
   1  -2 -10    4.76    0.22
   1  -2 -10    4.51    0.23
   1   2  -9    0.66    0.12
   1   2  -9    0.58    0.08
   1  -2  -9    0.63    0.09
   1  -2  -9    0.58    0.12
   1  -2  -9    0.69    0.07
   1   2  -8   12.13    0.53
   1   2  -8   12.70    0.54
   1  -2  -8   12.10    0.53
   1  -2  -8   13.12    0.53
   1   2  -7    1.76    0.12
   1  -2  -7    1.83    0.11
   1   2  -6    1.70    0.12
   1  -2  -6    1.73    0.10
   1  -2  -6    1.84    0.11
   1   2  -5    0.75    0.08
  -1  -2   5    0.95    0.14
   1  -2  -5    0.95    0.07
   1  -2  -5    0.95    0.07
   1   2  -4    3.73    0.18
   1  -2  -4    3.72    0.18
   1  -2  -4    3.93    0.17
  -1  -2   4    3.64    0.21
   1   2  -3    0.20    0.05
   1  -2  -3    0.08    0.03
  -1  -2   3    0.08    0.06
   1  -2  -3    0.15    0.05
   1  -2  -2   21.04    0.87
  -1  -2   2   22.47    0.89
   1  -2  -2   21.62    0.88
   1  -2  -2   20.98    0.87
   1  -2  -1    0.52    0.06
  -1  -2   1    0.44    0.06
  -1  -2   1    0.49    0.08
   1  -2  -1    0.46    0.06
   1  -2  -1    0.42    0.08
   1  -2   0    4.01    0.19
  -1  -2   0    4.23    0.19
  -1  -2   0    3.77    0.19
  -1  -2   0    3.92    0.19
   1  -2   0    4.24    0.20
   1  -2   1    3.83    0.19
  -1  -2  -1    3.47    0.16
  -1  -2  -1    3.70    0.17
   1  -2   1    3.59    0.18
  -1  -2  -1    3.41    0.17
  -1  -2  -2   -0.02    0.03
  -1  -2  -2   -0.02    0.03
   1  -2   2    0.02    0.04
  -1  -2  -2   -0.02    0.03
   1  -2   2    0.09    0.05
  -1   2  -3    3.27    0.17
  -1  -2  -3    3.21    0.16
  -1  -2  -3    3.37    0.15
   1  -2   3    3.44    0.19
   1  -2   3    3.47    0.18
  -1  -2  -3    3.37    0.15
  -1   2  -4    0.45    0.07
   1  -2   4    0.44    0.12
  -1  -2  -4    0.40    0.06
  -1   2  -5    0.64    0.08
  -1  -2  -5    0.67    0.07
   1  -2   5    0.55    0.14
  -1   2  -6   16.10    0.66
  -1  -2  -6   15.71    0.66
  -1   2  -7    0.07    0.05
  -1  -2  -7    0.00    0.04
  -1   2  -8    9.59    0.41
  -1   2  -8    8.71    0.41
  -1  -2  -8    9.97    0.40
  -1  -2  -8    9.21    0.41
  -1   2  -9    0.03    0.04
  -1   2  -9    0.07    0.07
  -1  -2  -9    0.04    0.07
  -1  -2  -9    0.00    0.04
  -1  -2  -9   -0.02    0.05
  -1   2 -10    4.86    0.25
  -1   2 -10    5.05    0.25
  -1  -2 -10    5.29    0.24
  -1  -2 -10    5.13    0.25
  -1  -2 -10    5.14    0.24
  -1   2 -11   -0.05    0.07
  -1   2 -11    0.02    0.04
  -1  -2 -11   -0.02    0.05
  -1  -2 -11    0.06    0.06
  -1  -2 -11    0.01    0.04
  -1   2 -12    0.22    0.08
  -1   2 -12    0.47    0.11
  -1  -2 -12    0.24    0.07
  -1  -2 -12    0.29    0.08
  -1   2 -13    0.77    0.11
  -1   2 -13    0.71    0.10
  -1  -2 -13    0.82    0.09
  -1  -2 -13    0.87    0.10
  -1  -2 -13    0.70    0.09
  -1   2 -14   11.30    0.45
  -1  -2 -14   10.66    0.44
  -1  -2 -14   10.25    0.44
  -1  -2 -14    8.64    0.45
  -1   2 -15    1.18    0.13
  -1   2 -15    0.98    0.11
  -1  -2 -15    1.00    0.09
  -1  -2 -15    0.94    0.10
  -1  -2 -15    1.03    0.09
  -1   2 -16    2.86    0.18
  -1  -2 -16    3.55    0.17
  -1  -2 -16    3.02    0.18
  -1   2 -17   -0.01    0.06
  -1  -2 -17    0.05    0.04
  -1  -2 -17    0.05    0.06
  -1   2 -18    0.33    0.08
  -1  -2 -18    0.42    0.09
  -1  -2 -18    0.34    0.06
  -1   2 -19    0.18    0.06
  -1  -2 -19    0.18    0.07
  -1  -2 -19    0.22    0.05
  -1   2 -20    0.72    0.09
   1   2  20    0.69    0.06
  -1  -2 -20    0.63    0.06
  -1  -2 -20    0.71    0.10
  -1   3  19    0.14    0.04
   1  -3 -18    0.75    0.09
   1  -3 -18    0.66    0.07
   1   3 -17    0.06    0.06
   1  -3 -17    0.06    0.04
   1  -3 -17    0.11    0.06
   1   3 -16    0.67    0.08
   1  -3 -16    0.60    0.08
   1  -3 -16    0.52    0.08
   1   3 -15    3.99    0.19
   1   3 -15    3.65    0.21
   1  -3 -15    3.51    0.20
   1  -3 -15    3.73    0.18
   1   3 -14    2.18    0.13
   1   3 -14    1.83    0.14
   1  -3 -14    1.75    0.13
   1  -3 -14    2.31    0.14
   1   3 -13    0.09    0.06
   1   3 -13    0.24    0.08
   1  -3 -13    0.09    0.05
   1  -3 -13    0.13    0.06
   1   3 -12    0.05    0.06
   1   3 -12    0.03    0.05
   1  -3 -12    0.00    0.06
   1  -3 -12    0.07    0.05
   1  -3 -12    0.06    0.06
   1   3 -11    0.50    0.09
   1   3 -11    0.32    0.09
   1  -3 -11    0.49    0.11
   1  -3 -11    0.39    0.08
   1  -3 -11    0.48    0.08
   1   3 -10    0.53    0.10
   1   3 -10    0.56    0.10
   1  -3 -10    0.40    0.08
   1  -3 -10    0.66    0.13
   1  -3 -10    0.47    0.08
   1   3  -9    0.02    0.06
   1   3  -9    0.12    0.06
   1   3  -9    0.13    0.09
   1  -3  -9   -0.01    0.05
   1  -3  -9   -0.05    0.09
   1  -3  -9    0.01    0.05
   1   3  -8    0.20    0.08
   1   3  -8    0.28    0.09
   1   3  -8    0.25    0.08
   1  -3  -8    0.21    0.07
   1  -3  -8    0.25    0.06
   1   3  -7    0.38    0.08
   1   3  -7    0.25    0.07
   1  -3  -7    0.33    0.07
   1  -3  -7    0.24    0.06
   1   3  -6    2.65    0.17
  -1   3   6    2.72    0.22
   1   3  -6    2.83    0.17
   1  -3  -6    3.09    0.16
   1  -3  -6    2.77    0.17
   1   3  -5    0.10    0.06
  -1   3   5   -0.04    0.09
   1   3  -5    0.03    0.06
   1  -3  -5   -0.04    0.04
   1  -3  -5   -0.08    0.08
   1   3  -4    2.37    0.15
   1   3  -4    2.27    0.16
  -1   3   4    2.03    0.18
   1  -3  -4    2.43    0.13
   1   3  -3    1.79    0.15
  -1   3   3    1.70    0.15
   1   3  -3    1.93    0.14
   1  -3  -3    1.82    0.11
   1   3  -2    0.06    0.08
  -1   3   2    0.23    0.08
   1   3  -2    0.11    0.07
   1  -3  -2    0.21    0.06
  -1  -3   2    0.19    0.07
  -1   3   1    2.90    0.18
   1   3  -1    2.68    0.17
  -1  -3   1    3.12    0.16
   1  -3  -1    2.98    0.16
   1   3   0    4.99    0.24
  -1   3   0    4.86    0.25
   1  -3   0    5.15    0.24
  -1  -3   0    4.99    0.24
   1   3   1    3.16    0.19
  -1   3  -1    3.49    0.19
   1  -3   1    3.62    0.18
  -1  -3  -1    3.77    0.18
  -1   3  -2    2.90    0.17
   1   3   2    2.77    0.17
  -1   3  -2    2.61    0.18
   1  -3   2    2.94    0.16
  -1  -3  -2    2.92    0.15
   1  -3   2    3.13    0.26
  -1   3  -3    0.46    0.08
   1   3   3    0.42    0.12
  -1   3  -3    0.39    0.08
  -1  -3  -3    0.40    0.07
   1  -3   3    0.52    0.16
  -1   3  -4    3.08    0.18
   1   3   4    3.09    0.20
  -1   3  -4    3.32    0.18
  -1  -3  -4    3.22    0.17
  -1   3  -5    0.55    0.10
   1   3   5    0.37    0.10
  -1  -3  -5    0.35    0.07
  -1  -3  -5    0.34    0.08
  -1   3  -6    2.93    0.17
   1   3   6    2.54    0.21
  -1   3  -6    2.79    0.17
  -1  -3  -6    3.11    0.16
  -1  -3  -6    2.92    0.17
  -1   3  -7    2.90    0.17
  -1   3  -7    3.04    0.18
   1   3   7    2.75    0.23
  -1  -3  -7    3.01    0.17
  -1  -3  -7    3.15    0.17
  -1   3  -8    0.29    0.08
  -1   3  -8    0.42    0.10
  -1   3  -8    0.48    0.09
  -1  -3  -8    0.43    0.15
  -1  -3  -8    0.28    0.09
  -1  -3  -8    0.26    0.08
  -1   3  -9    0.58    0.10
  -1   3  -9    0.65    0.10
  -1   3  -9    0.69    0.13
  -1  -3  -9    0.39    0.13
  -1  -3  -9    0.53    0.09
  -1  -3  -9    0.52    0.08
  -1   3 -10    0.30    0.09
  -1   3 -10    0.10    0.06
  -1   3 -10    0.13    0.09
  -1  -3 -10    0.13    0.08
  -1  -3 -10    0.10    0.05
  -1  -3 -10    0.14    0.06
  -1   3 -11    0.05    0.06
  -1   3 -11    0.11    0.06
  -1  -3 -11    0.30    0.11
  -1  -3 -11    0.21    0.08
  -1  -3 -11    0.11    0.05
  -1   3 -12    2.16    0.14
  -1   3 -12    1.67    0.14
  -1  -3 -12    1.95    0.14
  -1  -3 -12    2.07    0.12
  -1  -3 -12    1.95    0.13
  -1   3 -13    0.12    0.06
  -1   3 -13    0.37    0.09
  -1  -3 -13    0.40    0.09
  -1  -3 -13    0.22    0.08
  -1   3 -14    0.37    0.08
  -1   3 -14    0.30    0.09
  -1  -3 -14    0.27    0.08
  -1   3 -15    2.12    0.13
  -1   3 -15    2.11    0.15
  -1  -3 -15    2.09    0.13
  -1  -3 -15    2.10    0.14
  -1   3 -16    1.38    0.10
  -1  -3 -16    1.18    0.09
  -1  -3 -16    1.18    0.11
  -1   3 -17    0.42    0.09
  -1  -3 -17    0.42    0.06
  -1  -3 -17    0.49    0.08
  -1  -3 -18   -0.02    0.03
  -1  -3 -18    0.03    0.08
   1   3  19    0.01    0.03
   1   4 -16    0.68    0.06
  -1   4  16    0.60    0.06
  -1   4  15    1.56    0.09
   1   4 -15    1.84    0.09
  -1  -4  15    1.75    0.12
   1  -4 -15    1.64    0.12
   1   4 -14    0.28    0.05
  -1  -4  14    0.25    0.07
   1  -4 -14    0.18    0.07
   1   4 -13    2.90    0.15
   1  -4 -13    2.97    0.16
  -1  -4  13    2.98    0.17
   1   4 -12    0.33    0.06
   1  -4 -12    0.33    0.08
   1   4 -11    0.53    0.08
   1  -4 -11    0.56    0.08
   1   4 -10   -0.02    0.06
   1   4 -10    0.10    0.05
   1  -4 -10    0.00    0.05
   1   4  -9    1.57    0.12
   1   4  -9    1.53    0.11
  -1  -4   9    1.39    0.13
   1  -4  -9    1.31    0.11
   1   4  -8    3.92    0.20
   1   4  -8    3.86    0.20
  -1  -4   8    3.78    0.21
   1  -4  -8    3.66    0.20
  -1   4   7    1.67    0.16
   1   4  -7    1.46    0.12
   1   4  -7    1.47    0.12
   1  -4  -7    1.33    0.11
  -1  -4   7    1.47    0.13
   1   4  -6    1.59    0.12
  -1   4   6    1.66    0.15
   1   4  -6    1.86    0.12
  -1  -4   6    1.70    0.13
   1  -4  -6    1.62    0.12
   1   4  -5    0.40    0.10
   1   4  -5    0.60    0.10
  -1   4   5    0.36    0.12
   1  -4  -5    0.64    0.09
  -1  -4   5    0.70    0.10
  -1   4   4    0.10    0.07
   1   4  -4    0.26    0.09
   1   4  -4    0.24    0.07
  -1  -4   4    0.30    0.09
   1  -4  -4    0.24    0.08
  -1   4   3    0.17    0.07
   1   4  -3    0.07    0.06
   1   4  -3    0.15    0.07
  -1  -4   3    0.27    0.09
   1  -4  -3    0.14    0.06
   1   4  -2    0.59    0.10
  -1   4   2    0.52    0.11
   1   4  -2    0.40    0.11
   1  -4  -2    0.48    0.09
  -1  -4   2    0.52    0.09
  -1   4   1    1.19    0.12
   1   4  -1    1.25    0.11
   1   4  -1    1.19    0.14
   1  -4  -1    1.34    0.11
  -1  -4   1    1.27    0.11
  -1   4   0    0.02    0.06
   1   4   0    0.05    0.05
   1  -4   0    0.05    0.05
  -1  -4   0   -0.01    0.05
  -1   4  -1    0.54    0.10
   1   4   1    0.61    0.10
  -1   4  -1    0.39    0.09
   1  -4   1    0.44    0.08
  -1  -4  -1    0.40    0.08
   1   4   2    5.24    0.26
  -1   4  -2    5.15    0.26
  -1   4  -2    4.95    0.25
   1  -4   2    5.44    0.26
  -1  -4  -2    5.39    0.26
   1   4   3    1.94    0.14
  -1   4  -3    2.06    0.15
  -1   4  -3    1.87    0.14
  -1  -4  -3    2.10    0.14
   1  -4   3    2.33    0.15
  -1   4  -4    0.62    0.10
   1   4   4    0.54    0.11
  -1   4  -4    0.46    0.10
   1  -4   4    0.46    0.10
  -1  -4  -4    0.46    0.09
   1   4   5    0.69    0.12
  -1   4  -5    0.74    0.10
  -1   4  -5    0.83    0.10
   1  -4   5    0.86    0.10
  -1  -4  -5    0.91    0.09
  -1   4  -6    2.96    0.17
  -1   4  -6    3.13    0.17
   1   4   6    3.11    0.19
   1  -4   6    3.08    0.18
  -1  -4  -6    2.96    0.17
  -1   4  -7    0.51    0.09
  -1   4  -7    0.35    0.09
   1   4   7    0.35    0.09
   1  -4   7    0.34    0.10
  -1  -4  -7    0.21    0.07
  -1   4  -8    4.03    0.20
  -1   4  -8    4.02    0.20
   1  -4   8    3.91    0.22
  -1  -4  -8    3.63    0.20
  -1   4  -9    0.02    0.05
  -1  -4  -9    0.00    0.06
  -1   4 -10    0.38    0.07
  -1   4 -10    0.39    0.09
  -1  -4 -10    0.37    0.08
  -1   4 -11    0.67    0.08
  -1  -4 -11    0.45    0.08
  -1   4 -12    0.24    0.06
  -1  -4 -12    0.32    0.08
  -1   4 -13    2.51    0.13
  -1  -4 -13    2.47    0.15
  -1   4 -14    0.09    0.04
  -1  -4 -14    0.12    0.07
   1  -4  14    0.11    0.07
  -1   4 -15    0.69    0.06
  -1  -4 -15    0.52    0.09
   1  -4  15    0.49    0.09
   1   4  16    0.97    0.07
  -1   4 -16    1.04    0.07
   1   5 -11    0.83    0.06
   1   5 -10   -0.03    0.03
   1   5  -9    0.02    0.05
   1   5  -9    0.01    0.03
   1  -5  -9    0.08    0.07
  -1  -5   9    0.12    0.07
   1   5  -8    0.57    0.07
   1   5  -8    0.76    0.07
  -1  -5   8    0.67    0.09
   1  -5  -8    0.67    0.08
   1   5  -7   -0.01    0.04
   1   5  -7   -0.03    0.04
  -1  -5   7    0.04    0.06
   1  -5  -7   -0.06    0.05
   1   5  -6    1.56    0.10
   1   5  -6    1.57    0.10
  -1   5   6    1.44    0.12
  -1  -5   6    1.55    0.12
   1  -5  -6    1.64    0.11
  -1   5   5   -0.02    0.06
   1   5  -5    0.12    0.05
   1   5  -5   -0.01    0.05
  -1  -5   5    0.00    0.06
   1  -5  -5    0.06    0.06
   1   5  -4    1.53    0.10
  -1   5   4    1.57    0.11
   1   5  -4    1.36    0.11
  -1  -5   4    1.60    0.12
   1  -5  -4    1.44    0.11
  -1   5   3    3.39    0.17
   1   5  -3    3.44    0.17
   1   5  -3    3.22    0.18
  -1  -5   3    3.26    0.18
   1  -5  -3    3.34    0.18
   1   5  -2    1.38    0.10
  -1   5   2    1.30    0.10
   1  -5  -2    1.09    0.10
  -1  -5   2    1.21    0.11
  -1   5   1    1.08    0.09
   1   5  -1    1.21    0.09
  -1  -5   1    0.74    0.10
   1  -5  -1    0.87    0.10
   1   5   0    5.33    0.23
  -1   5   0    4.98    0.23
  -1  -5   0    4.84    0.25
   1  -5   0    4.78    0.25
   1   5   1    0.25    0.08
  -1   5  -1    0.30    0.07
   1  -5   1    0.20    0.07
  -1  -5  -1    0.16    0.07
  -1   5  -2    1.38    0.10
   1   5   2    1.32    0.10
   1  -5   2    1.30    0.11
  -1  -5  -2    1.35    0.11
   1   5   3    0.43    0.08
  -1   5  -3    0.32    0.10
  -1   5  -3    0.27    0.07
   1  -5   3    0.37    0.08
  -1  -5  -3    0.27    0.08
  -1   5  -4    1.40    0.10
  -1   5  -4    1.36    0.11
   1   5   4    1.39    0.11
  -1  -5  -4    1.52    0.11
   1  -5   4    1.42    0.11
  -1   5  -5    1.20    0.09
   1   5   5    1.11    0.11
  -1   5  -5    1.21    0.10
  -1  -5  -5    1.17    0.10
   1  -5   5    1.14    0.10
   1   5   6    0.37    0.10
  -1   5  -6    0.24    0.07
  -1   5  -6    0.19    0.05
   1  -5   6    0.19    0.06
  -1  -5  -6    0.21    0.08
  -1   5  -7    0.11    0.04
  -1   5  -7    0.00    0.04
   1  -5   7    0.00    0.05
  -1  -5  -7    0.12    0.06
  -1   5  -8    0.21    0.06
  -1   5  -8    0.07    0.04
   1  -5   8    0.11    0.06
  -1  -5  -8    0.11    0.07
  -1   5  -9    2.71    0.14
  -1   5  -9    2.83    0.13
  -1  -5  -9    2.61    0.15
   1  -5   9    2.84    0.16
  -1   5 -10    0.47    0.06
  -1   5 -11    0.28    0.04
   2   0 -21   -0.01    0.06
   2   0 -20    0.06    0.06
   2   0 -19   -0.05    0.03
   2   0 -19    0.00    0.05
   2   0 -18    5.24    0.23
   2   0 -18    4.42    0.24
   2   0 -17   -0.03    0.04
   2   0 -17   -0.01    0.06
   2   0 -16    1.95    0.14
   2   0 -16    2.26    0.13
   2   0 -15   -0.05    0.05
   2   0 -15    0.09    0.06
   2   0 -14   37.15    1.51
   2   0 -14   38.04    1.53
   2   0 -13   -0.01    0.05
   2   0 -13    0.06    0.05
   2   0 -12    0.37    0.07
   2   0 -12    0.31    0.09
   2   0 -11   -0.04    0.12
   2   0 -11    0.00    0.04
   2   0 -11   -0.07    0.05
   2   0 -10    0.53    0.14
   2   0 -10    0.47    0.06
  -2   0   9    0.07    0.06
   2   0  -9   -0.09    0.06
   2   0  -9    0.00    0.04
  -2   0   8    1.55    0.12
   2   0  -8    1.84    0.10
  -2   0   7    0.02    0.03
   2   0  -7    0.00    0.03
  -2   0   6    2.38    0.12
   2   0  -6    2.44    0.12
  -2   0   5    0.02    0.02
   2   0  -5    0.00    0.02
  -2   0   4    7.08    0.29
   2   0  -4    6.77    0.29
   2   0  -3    0.00    0.01
  -2   0   3    0.00    0.01
  -2   0   2   22.57    0.86
   2   0  -2   20.70    0.86
   2   0  -1    0.00    0.01
  -2   0   1    0.00    0.01
   2   0   0    6.19    0.25
  -2   0   0    6.01    0.24
  -2   0  -2   19.06    0.79
   2   0   2   20.34    0.79
  -2   0  -3    0.00    0.01
   2   0   3   -0.01    0.01
   2   0   4    0.96    0.06
  -2   0  -4    1.01    0.06
   2   0   5   -0.01    0.02
  -2   0  -5    0.02    0.02
  -2   0  -6    0.27    0.05
   2   0   6    0.22    0.05
  -2   0  -7    0.01    0.03
  -2   0  -7    0.01    0.06
   2   0   7    0.04    0.03
   2   0   8    6.66    0.31
  -2   0  -8    6.94    0.30
  -2   0  -8    6.91    0.31
  -2   0  -9    0.01    0.04
  -2   0  -9    0.04    0.06
   2   0   9    0.01    0.06
   2   0  10    0.44    0.15
  -2   0 -10    0.61    0.14
  -2   0 -10    0.57    0.07
  -2   0 -11    0.03    0.05
  -2   0 -11   -0.05    0.12
  -2   0 -11   -0.01    0.04
  -2   0 -12    2.80    0.15
  -2   0 -12    2.74    0.15
  -2   0 -13   -0.05    0.08
  -2   0 -13    0.05    0.05
  -2   0 -13    0.01    0.05
  -2   0 -14   26.52    1.11
  -2   0 -14   28.11    1.12
  -2   0 -15    0.00    0.05
  -2   0 -15    0.00    0.05
  -2   0 -16    2.00    0.14
  -2   0 -16    1.85    0.12
  -2   0 -17   -0.04    0.05
  -2   0 -17    0.00    0.04
  -2   0 -18    0.59    0.09
  -2   0 -18    0.78    0.08
  -2   0 -19    0.02    0.04
  -2   0 -19    0.00    0.05
  -2   0 -20    0.07    0.06
  -2   0 -20    0.18    0.05
  -2   0 -21   -0.05    0.06
   2   1 -21    0.61    0.09
  -2  -1  21    0.50    0.09
   2  -1 -21    0.58    0.08
   2   1 -20    0.11    0.06
  -2   1  20    0.01    0.05
   2  -1 -20    0.07    0.06
   2  -1 -20    0.07    0.03
   2   1 -19    0.69    0.09
   2  -1 -19    0.72    0.09
   2  -1 -19    0.69    0.07
   2   1 -18    0.67    0.10
   2  -1 -18    0.67    0.09
   2  -1 -18    0.82    0.08
   2   1 -17    0.27    0.09
   2  -1 -17    0.08    0.04
   2  -1 -17    0.10    0.06
   2   1 -16    0.50    0.09
   2  -1 -16    0.53    0.08
   2  -1 -16    0.60    0.08
   2   1 -15    4.59    0.22
   2   1 -15    4.59    0.24
   2  -1 -15    4.61    0.23
   2  -1 -15    4.58    0.22
   2   1 -14    0.36    0.09
   2   1 -14    0.36    0.08
   2  -1 -14    0.42    0.08
   2  -1 -14    0.48    0.08
   2  -1 -14    0.28    0.07
   2   1 -13    1.06    0.11
   2   1 -13    1.20    0.10
   2  -1 -13    1.22    0.10
   2  -1 -13    1.25    0.10
   2  -1 -13    1.08    0.10
   2   1 -12    4.45    0.22
   2   1 -12    4.64    0.23
   2  -1 -12    4.57    0.22
   2  -1 -12    4.96    0.22
   2  -1 -12    4.45    0.22
   2   1 -11    0.12    0.05
   2   1 -11    0.05    0.06
   2  -1 -11    0.15    0.06
   2  -1 -11    0.04    0.05
   2  -1 -11    0.10    0.04
   2   1 -10    0.42    0.07
  -2   1  10    0.63    0.18
   2   1 -10    0.62    0.13
   2  -1 -10    0.59    0.06
   2  -1 -10    0.89    0.16
   2   1  -9    0.99    0.16
  -2   1   9    1.12    0.13
   2   1  -9    1.07    0.09
   2  -1  -9    0.91    0.12
   2  -1  -9    1.15    0.08
   2   1  -8    1.32    0.13
   2   1  -8    1.10    0.09
  -2   1   8    1.10    0.11
   2  -1  -8    1.17    0.10
  -2  -1   8    0.96    0.13
   2  -1  -8    1.13    0.08
  -2   1   7    5.53    0.25
   2   1  -7    5.46    0.25
   2   1  -7    5.75    0.27
   2  -1  -7    5.47    0.24
  -2  -1   7    5.80    0.27
   2  -1  -7    5.54    0.25
   2   1  -6    0.32    0.07
  -2   1   6    0.21    0.05
   2  -1  -6    0.40    0.05
  -2  -1   6    0.35    0.07
   2  -1  -6    0.25    0.05
   2   1  -5    0.00    0.03
  -2   1   5    0.04    0.03
   2  -1  -5    0.02    0.02
  -2  -1   5    0.04    0.03
  -2   1   4    8.66    0.36
   2   1  -4    9.04    0.38
  -2  -1   4    9.10    0.38
   2  -1  -4    8.39    0.36
   2   1  -3   54.01    2.14
  -2   1   3   53.05    2.13
  -2  -1   3   55.59    2.14
   2  -1  -3   51.17    2.13
   2   1  -2  379.24   15.06
  -2   1   2  380.74   15.03
  -2  -1   2  393.23   15.06
   2  -1  -2  361.82   15.03
  -2   1   1   75.42    3.00
   2   1  -1   76.58    3.00
  -2  -1   1   79.64    3.00
   2  -1  -1   70.73    3.00
  -2  -1   0    0.90    0.05
   2  -1   0    0.86    0.05
   2  -1   1   11.33    0.45
   2  -1   1   10.56    0.45
  -2  -1  -1   11.54    0.44
  -2  -1  -1   10.20    0.44
   2  -1   2    6.35    0.27
   2  -1   3    3.03    0.15
   2   1   4    3.14    0.13
   2  -1   4    3.25    0.16
   2   1   5    7.45    0.31
   2  -1   5    7.89    0.34
  -2  -1  -5    7.43    0.31
   2   1   6    0.45    0.04
  -2   1  -6    0.49    0.06
   2  -1   6    0.46    0.08
  -2  -1  -6    0.46    0.05
  -2   1  -7    5.33    0.24
   2   1   7    5.17    0.23
  -2  -1  -7    5.20    0.23
  -2  -1  -7    5.27    0.23
   2  -1   7    5.61    0.27
   2   1   8    1.01    0.09
  -2   1  -8    1.01    0.08
   2  -1   8    0.83    0.13
  -2  -1  -8    0.96    0.10
  -2  -1  -8    1.13    0.08
  -2   1  -9    6.18    0.27
   2   1   9    5.69    0.28
  -2  -1  -9    5.82    0.28
  -2  -1  -9    6.38    0.27
  -2   1 -10    4.16    0.20
  -2  -1 -10    4.15    0.20
  -2   1 -11    0.51    0.07
  -2  -1 -11    0.66    0.10
  -2  -1 -11    0.33    0.09
  -2  -1 -11    0.57    0.07
  -2   1 -12    0.16    0.07
  -2   1 -12    0.13    0.05
  -2  -1 -12    0.18    0.06
  -2  -1 -12    0.13    0.05
  -2  -1 -12    0.20    0.06
  -2   1 -13   10.17    0.44
  -2   1 -13    9.47    0.43
  -2  -1 -13   10.20    0.43
  -2  -1 -13   10.12    0.43
  -2  -1 -13    9.65    0.43
  -2   1 -14    2.99    0.19
  -2   1 -14    3.71    0.20
  -2  -1 -14    4.01    0.20
  -2  -1 -14    3.52    0.18
  -2  -1 -14    3.75    0.18
  -2   1 -15    0.52    0.10
  -2   1 -15    0.57    0.09
  -2  -1 -15    0.56    0.09
  -2  -1 -15    0.65    0.08
  -2  -1 -15    0.63    0.09
  -2   1 -16    0.55    0.09
  -2   1 -16    0.63    0.09
  -2  -1 -16    0.48    0.08
  -2  -1 -16    0.55    0.08
  -2  -1 -16    0.76    0.09
  -2   1 -17    0.31    0.09
  -2   1 -17    0.64    0.09
  -2  -1 -17    0.48    0.08
  -2  -1 -17    0.39    0.08
  -2   1 -18    0.11    0.06
  -2  -1 -18    0.25    0.06
  -2  -1 -18    0.07    0.06
  -2   1 -19   -0.01    0.05
  -2  -1 -19    0.02    0.03
  -2  -1 -19    0.03    0.06
  -2   1 -20    1.64    0.12
   2   1  20    1.85    0.12
  -2  -1 -20    1.75    0.10
  -2  -1 -20    1.74    0.12
  -2   1 -21    0.67    0.09
  -2  -1 -21    0.69    0.06
  -2  -1 -21    0.77    0.09
  -2   2  20    0.04    0.03
   2   2 -20    0.10    0.06
   2  -2 -20    0.03    0.03
   2  -2 -20    0.24    0.08
   2   2 -19    0.09    0.06
   2  -2 -19    0.07    0.06
   2  -2 -19    0.10    0.03
   2   2 -18    0.35    0.08
   2  -2 -18    0.22    0.06
   2  -2 -18    0.34    0.08
   2   2 -17    0.28    0.09
   2  -2 -17    0.21    0.08
   2  -2 -17    0.20    0.06
   2   2 -16    3.99    0.22
   2  -2 -16    4.04    0.22
   2  -2 -16    4.58    0.20
   2   2 -15    6.40    0.29
   2   2 -15    5.67    0.30
   2  -2 -15    6.29    0.28
   2  -2 -15    5.75    0.29
   2   2 -14    0.37    0.09
   2   2 -14    0.35    0.12
   2  -2 -14    0.28    0.08
   2  -2 -14    0.34    0.09
   2  -2 -14    0.41    0.08
   2   2 -13    0.38    0.12
   2   2 -13    0.39    0.09
   2  -2 -13    0.37    0.07
   2  -2 -13    0.23    0.07
   2  -2 -13    0.50    0.09
   2   2 -12    3.87    0.21
   2   2 -12    3.87    0.21
   2  -2 -12    4.20    0.20
   2  -2 -12    3.99    0.20
   2  -2 -12    3.82    0.20
   2   2 -11    0.37    0.08
   2   2 -11    0.30    0.08
   2  -2 -11    0.46    0.08
   2  -2 -11    0.41    0.09
   2  -2 -11    0.43    0.07
   2   2 -10    2.22    0.14
   2   2 -10    2.31    0.15
   2  -2 -10    1.99    0.13
   2  -2 -10    2.16    0.13
   2  -2 -10    1.97    0.14
   2   2  -9    1.94    0.15
   2   2  -9    1.80    0.12
   2  -2  -9    1.63    0.14
   2  -2  -9    1.87    0.11
   2  -2  -9    1.77    0.12
   2   2  -8    1.95    0.15
   2   2  -8    1.84    0.12
   2  -2  -8    1.86    0.13
   2  -2  -8    1.86    0.11
   2   2  -7    2.38    0.14
   2  -2  -7    2.46    0.13
   2   2  -6   17.02    0.69
  -2   2   6   15.34    0.69
   2  -2  -6   17.21    0.69
   2  -2  -6   16.97    0.68
   2   2  -5    0.66    0.07
   2  -2  -5    0.51    0.06
   2  -2  -5    0.53    0.07
  -2  -2   5    0.59    0.13
   2   2  -4    7.24    0.32
  -2  -2   4    7.43    0.34
   2  -2  -4    7.50    0.32
   2  -2  -4    7.18    0.32
   2   2  -3    4.82    0.23
  -2  -2   3    5.26    0.25
   2  -2  -3    4.98    0.22
   2  -2  -3    4.98    0.22
  -2  -2   2   19.92    0.79
   2  -2  -2   18.25    0.77
   2  -2  -2   18.88    0.78
   2  -2  -1   41.35    1.64
   2  -2  -1   39.93    1.64
  -2  -2   1   42.74    1.64
  -2  -2   1   41.38    1.64
   2  -2  -1   38.52    1.63
   2  -2   0    3.51    0.17
  -2  -2   0    3.87    0.17
  -2  -2   0    3.62    0.17
   2  -2   0    3.56    0.19
  -2  -2   0    3.36    0.17
   2  -2   1    3.32    0.17
  -2  -2  -1    3.15    0.16
   2  -2   1    3.48    0.18
  -2  -2  -1    3.16    0.15
  -2  -2  -1    3.61    0.16
  -2  -2  -2    5.92    0.25
   2  -2   2    5.86    0.28
  -2  -2  -2    5.55    0.24
  -2  -2  -2    5.42    0.25
   2  -2   2    6.00    0.27
  -2   2  -3    2.04    0.12
   2  -2   3    2.01    0.13
   2  -2   3    2.00    0.15
  -2  -2  -3    1.94    0.11
  -2   2  -4    3.23    0.17
   2  -2   4    3.41    0.20
  -2  -2  -4    3.20    0.16
  -2   2  -5    0.21    0.07
  -2  -2  -5    0.13    0.04
   2  -2   5    0.06    0.08
  -2   2  -6   21.62    0.89
  -2  -2  -6   21.63    0.88
  -2   2  -7    0.07    0.05
  -2  -2  -7    0.06    0.04
  -2   2  -8    1.83    0.15
  -2   2  -8    2.33    0.13
  -2  -2  -8    2.09    0.14
  -2   2  -9    0.10    0.07
  -2   2  -9    0.20    0.07
  -2  -2  -9    0.17    0.07
  -2  -2  -9    0.18    0.05
  -2  -2  -9    0.14    0.06
  -2   2 -10    0.57    0.08
  -2   2 -10    0.38    0.11
  -2  -2 -10    0.51    0.07
  -2  -2 -10    0.41    0.08
  -2  -2 -10    0.53    0.11
  -2   2 -11    1.50    0.13
  -2   2 -11    1.63    0.12
  -2  -2 -11    1.66    0.12
  -2  -2 -11    1.77    0.12
  -2  -2 -11    1.66    0.13
  -2   2 -12   19.81    0.82
  -2   2 -12   20.14    0.84
  -2  -2 -12   19.39    0.82
  -2  -2 -12   19.37    0.82
  -2  -2 -12   20.21    0.82
  -2   2 -13    4.03    0.22
  -2   2 -13    3.93    0.21
  -2  -2 -13    3.98    0.20
  -2  -2 -13    3.96    0.20
  -2  -2 -13    4.14    0.21
  -2   2 -14    0.65    0.10
  -2   2 -14    0.91    0.12
  -2  -2 -14    0.72    0.09
  -2  -2 -14    0.55    0.09
  -2  -2 -14    0.56    0.08
  -2   2 -15    1.39    0.13
  -2   2 -15    1.08    0.11
  -2  -2 -15    1.49    0.11
  -2  -2 -15    1.10    0.11
  -2  -2 -15    1.31    0.10
  -2   2 -16    0.50    0.09
  -2  -2 -16    0.67    0.08
  -2  -2 -16    0.51    0.09
  -2  -2 -16    0.47    0.07
  -2   2 -17    1.60    0.13
  -2  -2 -17    1.70    0.11
  -2  -2 -17    1.80    0.12
  -2   2 -18    0.05    0.06
  -2  -2 -18    0.02    0.03
  -2  -2 -18   -0.11    0.06
  -2   2 -19    0.13    0.06
  -2  -2 -19    0.20    0.05
  -2  -2 -19    0.12    0.07
  -2   2 -20    0.20    0.06
  -2  -2 -20    0.23    0.05
  -2  -2 -20    0.15    0.08
  -2   3  19    0.74    0.06
  -2   3  18    1.95    0.10
   2  -3 -18    1.87    0.10
   2  -3 -18    1.82    0.13
   2   3 -17    2.35    0.13
   2  -3 -17    2.38    0.14
   2  -3 -17    2.26    0.12
   2   3 -16    4.80    0.22
   2  -3 -16    4.63    0.23
   2  -3 -16    4.82    0.22
   2   3 -15    6.37    0.28
   2   3 -15    5.98    0.29
   2  -3 -15    5.98    0.27
   2  -3 -15    5.86    0.29
   2   3 -14    0.47    0.10
   2   3 -14    0.60    0.09
   2  -3 -14    0.52    0.09
   2  -3 -14    0.61    0.09
   2   3 -13    0.08    0.06
   2   3 -13    0.00    0.06
   2  -3 -13    0.00    0.05
   2  -3 -13    0.07    0.06
   2   3 -12    3.00    0.17
   2   3 -12    2.77    0.18
   2  -3 -12    3.01    0.17
   2  -3 -12    2.81    0.17
   2   3 -11    1.67    0.13
   2   3 -11    1.38    0.12
   2  -3 -11    1.48    0.11
   2  -3 -11    1.57    0.14
   2  -3 -11    1.18    0.11
   2   3 -10    1.69    0.13
   2   3 -10    1.96    0.14
   2  -3 -10    1.78    0.12
   2  -3 -10    1.90    0.13
   2  -3 -10    1.51    0.15
   2   3  -9    0.16    0.07
   2   3  -9    0.10    0.09
   2  -3  -9    0.01    0.10
   2  -3  -9    0.12    0.05
   2  -3  -9    0.02    0.05
   2   3  -8    0.78    0.13
   2   3  -8    0.79    0.10
   2  -3  -8    0.68    0.08
   2  -3  -8    0.48    0.09
   2   3  -7    0.18    0.06
   2   3  -7    0.35    0.12
   2  -3  -7    0.19    0.06
   2  -3  -7    0.16    0.06
   2   3  -6    1.11    0.11
   2   3  -6    1.19    0.12
  -2   3   6    0.95    0.17
   2  -3  -6    1.23    0.10
   2  -3  -6    1.43    0.12
   2   3  -5    0.48    0.11
   2   3  -5    0.32    0.11
  -2   3   5    0.19    0.10
   2  -3  -5    0.21    0.08
   2  -3  -5    0.29    0.07
   2   3  -4    0.38    0.11
   2   3  -4    0.33    0.11
  -2   3   4    0.50    0.13
   2  -3  -4    0.37    0.07
   2   3  -3    0.07    0.07
  -2   3   3    0.09    0.08
   2   3  -3   -0.04    0.07
   2  -3  -3   -0.03    0.04
   2   3  -2    3.96    0.22
   2   3  -2    4.02    0.21
  -2   3   2    3.88    0.22
  -2  -3   2    4.15    0.20
   2  -3  -2    4.08    0.20
  -2   3   1    0.33    0.11
   2   3  -1    0.28    0.10
   2  -3  -1    0.33    0.07
  -2  -3   1    0.27    0.07
   2   3   0    1.80    0.14
  -2   3   0    2.03    0.14
   2  -3   0    1.90    0.12
  -2  -3   0    2.00    0.12
  -2   3  -1    6.34    0.30
   2   3   1    5.96    0.30
   2  -3   1    6.15    0.36
   2  -3   1    6.65    0.29
  -2  -3  -1    6.47    0.29
  -2   3  -2    1.67    0.13
  -2   3  -2    1.52    0.15
   2   3   2    1.77    0.14
   2  -3   2    1.92    0.24
  -2  -3  -2    1.62    0.11
   2  -3   2    1.61    0.11
  -2   3  -3    0.07    0.06
   2   3   3    0.06    0.08
  -2   3  -3    0.08    0.07
  -2  -3  -3    0.02    0.05
  -2   3  -4    0.08    0.06
  -2   3  -4    0.10    0.06
   2   3   4    0.19    0.08
  -2  -3  -4    0.05    0.05
  -2   3  -5    0.28    0.07
   2   3   5    0.21    0.09
  -2   3  -5    0.21    0.07
  -2  -3  -5    0.19    0.08
  -2  -3  -5    0.19    0.05
  -2   3  -6    0.39    0.11
   2   3   6    0.35    0.10
  -2   3  -6    0.31    0.10
  -2  -3  -6    0.30    0.07
  -2  -3  -6    0.31    0.07
  -2   3  -7    3.04    0.18
  -2   3  -7    3.20    0.18
   2   3   7    2.97    0.23
  -2  -3  -7    3.37    0.18
  -2  -3  -7    3.49    0.22
  -2  -3  -7    3.29    0.18
  -2   3  -8    3.12    0.19
  -2   3  -8    3.33    0.19
  -2   3  -8    2.85    0.17
  -2  -3  -8    3.34    0.21
  -2  -3  -8    3.24    0.18
  -2  -3  -8    3.25    0.17
  -2   3  -9    1.01    0.11
  -2   3  -9    0.99    0.11
  -2   3  -9    0.77    0.12
  -2  -3  -9    0.91    0.14
  -2  -3  -9    0.84    0.10
  -2  -3  -9    0.95    0.09
  -2   3 -10    1.55    0.17
  -2   3 -10    2.04    0.14
  -2   3 -10    1.76    0.13
  -2  -3 -10    1.77    0.15
  -2  -3 -10    1.62    0.12
  -2  -3 -10    1.82    0.13
  -2   3 -11   20.97    0.83
  -2  -3 -11   16.48    0.83
  -2  -3 -11   20.63    0.82
  -2  -3 -11   21.86    0.83
  -2   3 -12    2.83    0.16
  -2   3 -12    2.44    0.17
  -2  -3 -12    2.89    0.15
  -2  -3 -12    2.52    0.16
  -2  -3 -12    2.88    0.16
  -2   3 -13    2.54    0.17
  -2   3 -13    3.16    0.16
  -2  -3 -13    2.89    0.15
  -2  -3 -13    2.55    0.16
  -2  -3 -13    2.73    0.16
  -2   3 -14    0.16    0.07
  -2   3 -14    0.13    0.06
  -2  -3 -14    0.12    0.05
  -2  -3 -14    0.21    0.08
  -2   3 -15    0.16    0.05
  -2   3 -15    0.03    0.06
  -2  -3 -15    0.09    0.05
  -2  -3 -15    0.13    0.06
  -2   3 -16    0.05    0.05
  -2  -3 -16    0.12    0.06
  -2  -3 -16    0.09    0.04
  -2   3 -17    0.78    0.09
  -2  -3 -17    1.05    0.10
  -2  -3 -17    1.06    0.08
  -2  -3 -18    0.01    0.03
  -2  -3 -18    0.02    0.08
   2   3  19    0.44    0.05
  -2  -3 -19    0.29    0.06
   2   4 -16    0.02    0.04
  -2   4  16    0.02    0.03
  -2   4  15    0.07    0.03
   2   4 -15    0.04    0.04
  -2  -4  15    0.12    0.11
   2  -4 -15   -0.06    0.06
   2   4 -14    1.53    0.09
  -2   4  14    1.40    0.09
   2  -4 -14    1.47    0.11
  -2  -4  14    1.32    0.12
   2   4 -13    0.18    0.06
   2  -4 -13    0.28    0.07
  -2  -4  13    0.17    0.07
   2   4 -12   -0.02    0.04
   2  -4 -12    0.10    0.06
   2   4 -11    0.10    0.05
   2  -4 -11    0.06    0.06
   2   4 -10    0.06    0.07
   2   4 -10   -0.02    0.04
   2  -4 -10   -0.02    0.05
   2   4  -9    3.52    0.18
   2   4  -9    3.26    0.18
  -2  -4   9    3.48    0.20
   2  -4  -9    3.33    0.19
   2   4  -8    0.06    0.06
   2   4  -8    0.04    0.05
   2  -4  -8    0.11    0.06
  -2  -4   8    0.05    0.06
   2   4  -7    0.31    0.09
  -2   4   7    0.25    0.09
   2   4  -7    0.27    0.10
  -2  -4   7    0.43    0.09
   2  -4  -7    0.34    0.08
  -2   4   6    2.37    0.16
   2   4  -6    2.33    0.15
   2   4  -6    2.38    0.15
   2  -4  -6    2.25    0.14
  -2  -4   6    2.20    0.15
   2   4  -5    0.08    0.06
  -2   4   5    0.22    0.08
   2   4  -5    0.15    0.06
   2  -4  -5    0.09    0.06
  -2  -4   5    0.15    0.07
   2   4  -4    0.16    0.07
  -2   4   4    0.17    0.07
   2   4  -4    0.10    0.06
   2  -4  -4    0.07    0.06
  -2  -4   4    0.16    0.07
   2   4  -3    0.19    0.06
  -2   4   3    0.19    0.07
   2   4  -3    0.16    0.07
  -2  -4   3    0.14    0.06
   2  -4  -3    0.19    0.06
   2   4  -2    0.91    0.12
  -2   4   2    0.63    0.11
   2   4  -2    0.66    0.10
  -2  -4   2    0.77    0.10
   2  -4  -2    0.84    0.10
   2   4  -1    0.65    0.10
   2   4  -1    0.81    0.13
  -2   4   1    0.57    0.10
  -2  -4   1    0.52    0.09
   2  -4  -1    0.63    0.09
  -2   4   0    1.63    0.13
   2   4   0    1.73    0.14
  -2  -4   0    1.86    0.13
   2  -4   0    1.94    0.13
  -2   4  -1    1.72    0.15
   2   4   1    1.68    0.14
  -2   4  -1    1.69    0.13
   2  -4   1    1.70    0.13
  -2  -4  -1    1.70    0.13
  -2   4  -2    0.00    0.07
   2   4   2    0.12    0.06
  -2   4  -2    0.12    0.06
  -2  -4  -2    0.11    0.06
   2  -4   2    0.15    0.07
   2   4   3    2.45    0.16
  -2   4  -3    2.60    0.15
  -2   4  -3    2.35    0.15
   2  -4   3    2.36    0.16
  -2  -4  -3    2.54    0.15
  -2   4  -4   -0.05    0.05
   2   4   4    0.06    0.07
  -2   4  -4    0.10    0.06
  -2  -4  -4    0.04    0.06
   2  -4   4    0.12    0.06
  -2   4  -5    0.00    0.05
  -2   4  -5    0.11    0.06
   2   4   5    0.09    0.07
   2  -4   5    0.12    0.06
  -2  -4  -5    0.10    0.06
  -2   4  -6    5.79    0.27
  -2   4  -6    6.19    0.28
   2   4   6    5.63    0.28
  -2  -4  -6    5.80    0.28
   2  -4   6    5.70    0.29
  -2   4  -7    0.05    0.06
   2   4   7    0.09    0.09
  -2   4  -7    0.06    0.05
   2  -4   7    0.02    0.06
  -2  -4  -7    0.04    0.06
  -2   4  -8    0.12    0.05
  -2   4  -8    0.25    0.09
   2   4   8    0.18    0.11
  -2  -4  -8    0.15    0.06
   2  -4   8    0.13    0.07
  -2   4  -9    0.40    0.08
  -2   4  -9    0.28    0.10
  -2  -4  -9    0.34    0.08
  -2   4 -10    0.75    0.10
  -2   4 -10    1.02    0.09
  -2  -4 -10    0.91    0.10
  -2   4 -11    1.29    0.10
  -2  -4 -11    1.13    0.11
  -2   4 -12    0.10    0.04
  -2  -4 -12    0.06    0.06
  -2   4 -13    3.90    0.18
  -2  -4 -13    3.59    0.19
  -2   4 -14    0.85    0.07
  -2  -4 -14    0.81    0.10
   2  -4  14    1.01    0.10
  -2   4 -15   -0.02    0.03
  -2  -4 -15    0.01    0.07
   2  -4  15   -0.05    0.06
  -2   4 -16    2.13    0.10
   2   4  16    1.73    0.10
   2   5 -11    0.19    0.05
   2   5 -10    0.50    0.06
   2  -5 -10    0.35    0.11
   2   5  -9    1.00    0.07
   2   5  -9    0.79    0.08
  -2  -5   9    0.90    0.11
   2  -5  -9    0.90    0.09
   2   5  -8    1.15    0.08
   2   5  -8    1.03    0.08
   2  -5  -8    1.17    0.10
  -2  -5   8    1.21    0.11
   2   5  -7    0.11    0.04
   2   5  -7    0.03    0.04
  -2  -5   7    0.13    0.07
   2  -5  -7    0.10    0.06
   2   5  -6    0.37    0.07
   2   5  -6    0.39    0.07
  -2   5   6    0.48    0.10
  -2  -5   6    0.27    0.08
   2  -5  -6    0.36    0.07
  -2   5   5    0.71    0.10
   2   5  -5    0.70    0.08
   2   5  -5    0.78    0.08
  -2  -5   5    0.74    0.09
   2  -5  -5    0.82    0.09
   2   5  -4    0.70    0.09
  -2   5   4    0.68    0.09
   2   5  -4    0.85    0.08
  -2  -5   4    0.81    0.10
   2  -5  -4    0.56    0.09
   2   5  -3    0.41    0.08
  -2   5   3    0.51    0.08
  -2  -5   3    0.31    0.09
  -2   5   2    0.02    0.05
   2   5  -2    0.11    0.05
  -2  -5   2    0.00    0.06
   2  -5  -2   -0.01    0.06
  -2   5   1    2.33    0.13
   2   5  -1    2.36    0.13
  -2  -5   1    1.98    0.14
   2  -5  -1    2.14    0.14
  -2   5   0    0.60    0.08
   2   5   0    0.42    0.08
  -2  -5   0    0.38    0.09
   2  -5   0    0.59    0.09
  -2   5  -1    0.66    0.08
   2   5   1    0.81    0.09
   2  -5   1    0.68    0.09
  -2  -5  -1    0.49    0.09
   2   5   2    0.62    0.08
  -2   5  -2    0.48    0.08
  -2  -5  -2    0.48    0.08
   2  -5   2    0.58    0.09
  -2   5  -3    0.53    0.08
  -2   5  -3    0.65    0.10
   2  -5   3    0.53    0.09
  -2  -5  -3    0.66    0.09
  -2   5  -4    0.27    0.06
   2   5   4    0.13    0.06
  -2   5  -4    0.22    0.07
   2  -5   4    0.29    0.08
  -2  -5  -4    0.28    0.08
   2   5   5    0.12    0.06
  -2   5  -5    0.26    0.06
  -2   5  -5    0.25    0.07
   2  -5   5    0.18    0.07
  -2   5  -6    0.06    0.05
  -2   5  -6    0.13    0.04
   2   5   6    0.07    0.06
   2  -5   6    0.13    0.06
  -2  -5  -6    0.06    0.06
  -2   5  -7    0.04    0.04
  -2   5  -7    0.11    0.04
  -2  -5  -7   -0.04    0.06
   2  -5   7    0.17    0.06
  -2   5  -8    0.17    0.06
  -2   5  -8    0.00    0.04
   2  -5   8    0.07    0.06
  -2  -5  -8    0.05    0.07
  -2   5  -9    2.45    0.13
  -2   5  -9    2.55    0.12
   2  -5   9    2.32    0.14
  -2  -5  -9    2.46    0.15
  -2   5 -10    0.07    0.03
  -2   5 -11    0.71    0.06
   3   0 -21   -0.07    0.06
   3   0 -20    0.12    0.06
   3   0 -19   -0.02    0.05
   3   0 -18    6.66    0.27
   3   0 -18    5.40    0.28
   3   0 -17    0.05    0.04
   3   0 -17   -0.02    0.06
   3   0 -16   16.23    0.69
   3   0 -16   16.94    0.71
   3   0 -15   -0.01    0.05
   3   0 -15    0.00    0.04
   3   0 -14   34.25    1.40
   3   0 -14   35.23    1.42
   3   0 -13    0.01    0.05
   3   0 -13   -0.01    0.05
   3   0 -12   -0.04    0.05
   3   0 -12    0.04    0.05
   3   0 -11    0.00    0.05
   3   0 -11   -0.07    0.11
   3   0 -11    0.00    0.04
   3   0 -10    4.20    0.20
   3   0 -10    3.97    0.24
   3   0  -9    0.03    0.05
   3   0  -9   -0.01    0.04
  -3   0   9    0.05    0.06
  -3   0   8   25.16    1.07
   3   0  -8   26.71    1.07
   3   0  -8   26.30    1.05
   3   0  -7   -0.02    0.03
  -3   0   7   -0.04    0.03
  -3   0   6   16.04    0.65
   3   0  -6   15.84    0.66
  -3   0   5   -0.02    0.02
   3   0  -5    0.00    0.02
  -3   0   4    3.03    0.14
   3   0  -4    3.12    0.14
   3   0  -3   -0.01    0.01
  -3   0   3   -0.01    0.01
   3   0  -2    3.80    0.16
  -3   0   2    3.95    0.16
   3   0  -1    0.00    0.01
  -3   0   1    0.00    0.01
   3   0   0   21.92    0.91
  -3   0   0   23.73    0.91
   3   0   1    0.00    0.01
  -3   0  -1    0.01    0.01
   3   0   2    7.23    0.30
   3   0   3    0.01    0.01
  -3   0  -4   22.39    0.92
   3   0   4   23.14    0.92
   3   0   5    0.02    0.02
  -3   0  -5    0.01    0.02
  -3   0  -6    2.98    0.15
   3   0   6    2.91    0.14
   3   0   7    0.02    0.04
  -3   0  -7    0.05    0.03
  -3   0  -7    0.00    0.03
  -3   0  -8    5.66    0.27
   3   0   8    5.45    0.26
  -3   0  -8    6.06    0.25
  -3   0  -9    0.07    0.04
   3   0   9    0.02    0.06
  -3   0  -9   -0.08    0.06
  -3   0 -10    0.06    0.04
   3   0  10    0.01    0.08
  -3   0 -10    0.10    0.08
  -3   0 -11    0.02    0.06
  -3   0 -11   -0.01    0.04
  -3   0 -12    7.72    0.33
  -3   0 -12    6.84    0.32
  -3   0 -13    0.01    0.05
  -3   0 -13    0.08    0.05
  -3   0 -13    0.05    0.08
  -3   0 -14    3.81    0.20
  -3   0 -14    4.17    0.21
  -3   0 -15    0.23    0.08
  -3   0 -15    0.09    0.05
  -3   0 -16    5.32    0.24
  -3   0 -16    5.04    0.26
  -3   0 -17   -0.04    0.04
  -3   0 -17   -0.02    0.05
  -3   0 -18   -0.03    0.04
  -3   0 -18   -0.05    0.05
  -3   0 -19   -0.01    0.05
  -3   0 -19   -0.06    0.04
  -3   0 -20    0.11    0.06
  -3   0 -20    0.06    0.04
  -3   0 -21    0.00    0.06
   3   1 -21    0.13    0.07
  -3  -1  21    0.01    0.05
   3  -1 -21    0.02    0.06
   3   1 -20    0.82    0.09
  -3   1  20    0.93    0.09
   3  -1 -20    0.83    0.09
   3  -1 -20    0.66    0.06
  -3   1  19    0.10    0.05
   3   1 -19   -0.02    0.06
   3  -1 -19   -0.06    0.06
   3  -1 -19   -0.01    0.03
   3   1 -18    0.88    0.10
   3  -1 -18    0.81    0.10
   3  -1 -18    1.02    0.08
   3   1 -17    2.61    0.17
   3  -1 -17    3.01    0.15
   3  -1 -17    2.58    0.16
   3   1 -16    0.16    0.06
   3  -1 -16    0.21    0.08
   3  -1 -16    0.19    0.07
   3   1 -15    6.78    0.32
   3   1 -15    6.77    0.31
   3  -1 -15    6.77    0.31
   3  -1 -15    7.11    0.32
   3   1 -14    0.34    0.08
   3   1 -14    0.31    0.08
   3  -1 -14    0.31    0.08
   3  -1 -14    0.22    0.05
   3   1 -13    0.28    0.08
   3   1 -13    0.31    0.08
   3  -1 -13    0.45    0.08
   3  -1 -13    0.39    0.07
   3  -1 -13    0.29    0.08
   3   1 -12    9.11    0.41
   3   1 -12    9.70    0.42
   3  -1 -12   10.17    0.41
   3  -1 -12    9.29    0.41
   3  -1 -12    9.02    0.40
   3   1 -11    0.22    0.07
   3   1 -11    0.15    0.06
   3  -1 -11    0.13    0.05
   3  -1 -11    0.25    0.08
   3  -1 -11    0.14    0.05
   3   1 -10    0.61    0.19
   3   1 -10    0.45    0.07
  -3   1  10    0.80    0.19
   3  -1 -10    0.54    0.06
   3  -1 -10    0.43    0.11
   3   1  -9    0.48    0.07
  -3   1   9    0.69    0.13
   3   1  -9    0.42    0.14
   3  -1  -9    0.40    0.06
   3  -1  -9    0.40    0.11
  -3   1   8    6.92    0.32
   3   1  -8    6.79    0.31
   3   1  -8    7.46    0.34
   3  -1  -8    7.18    0.30
   3  -1  -8    6.78    0.32
  -3   1   7    9.28    0.40
   3   1  -7    9.68    0.42
   3   1  -7    9.01    0.40
  -3  -1   7    9.27    0.42
   3  -1  -7    9.29    0.39
   3  -1  -7    9.49    0.40
   3   1  -6    1.43    0.11
  -3   1   6    1.61    0.10
   3  -1  -6    1.58    0.09
  -3  -1   6    1.66    0.11
   3  -1  -6    1.40    0.09
  -3   1   5    1.26    0.08
   3   1  -5    1.29    0.09
   3  -1  -5    1.24    0.07
  -3  -1   5    1.24    0.09
   3   1  -4   27.79    1.13
  -3   1   4   27.95    1.12
  -3  -1   4   28.41    1.12
   3  -1  -4   26.99    1.11
  -3   1   3    0.57    0.05
   3   1  -3    0.51    0.05
  -3  -1   3    0.60    0.05
   3  -1  -3    0.56    0.04
   3   1  -2  393.48   15.69
  -3   1   2  391.00   15.67
   3  -1  -2  379.32   15.67
  -3  -1   2  414.42   15.68
   3   1  -1   -0.02    0.02
  -3   1   1   -0.01    0.01
   3  -1  -1    0.00    0.02
  -3  -1   1   -0.02    0.01
   3   1   0   46.85    1.86
   3  -1   0   44.23    1.86
  -3  -1   0   49.35    1.86
  -3  -1  -1    4.51    0.17
  -3  -1  -1    4.07    0.17
   3  -1   1    4.04    0.18
   3  -1   2    0.42    0.05
   3  -1   3    0.06    0.03
   3  -1   4    9.76    0.42
   3   1   5   11.07    0.45
   3  -1   5   11.12    0.48
   3   1   6   20.42    0.81
  -3   1  -6   19.32    0.82
  -3  -1  -6   19.75    0.81
   3  -1   6   21.10    0.84
  -3   1  -7    0.16    0.06
   3   1   7    0.19    0.05
   3  -1   7    0.25    0.07
  -3  -1  -7    0.17    0.05
  -3  -1  -7    0.18    0.05
  -3   1  -8   18.63    0.75
   3   1   8   18.42    0.75
   3  -1   8   17.80    0.78
  -3  -1  -8   18.85    0.75
  -3  -1  -8   17.75    0.75
  -3   1  -9    8.74    0.37
   3   1   9    8.17    0.38
  -3  -1  -9    8.88    0.37
  -3   1 -10    6.65    0.30
  -3  -1 -10    6.60    0.29
  -3   1 -11    4.42    0.21
  -3  -1 -11    4.13    0.21
  -3  -1 -11    4.46    0.21
  -3  -1 -11    4.19    0.21
  -3   1 -12    5.10    0.24
  -3   1 -12    4.47    0.24
  -3  -1 -12    5.01    0.24
  -3  -1 -12    5.04    0.24
  -3  -1 -12    5.32    0.24
  -3   1 -13    2.10    0.16
  -3   1 -13    2.69    0.15
  -3  -1 -13    2.69    0.15
  -3  -1 -13    2.80    0.15
  -3  -1 -13    2.60    0.15
  -3   1 -14    0.14    0.06
  -3   1 -14    0.16    0.05
  -3  -1 -14    0.15    0.06
  -3  -1 -14    0.12    0.05
  -3  -1 -14    0.10    0.05
  -3   1 -15    2.26    0.15
  -3   1 -15    2.36    0.15
  -3  -1 -15    2.39    0.14
  -3  -1 -15    2.52    0.15
  -3  -1 -15    2.44    0.14
  -3   1 -16    3.40    0.18
  -3   1 -16    3.30    0.19
  -3  -1 -16    3.42    0.17
  -3  -1 -16    3.44    0.17
  -3  -1 -16    3.32    0.19
  -3   1 -17    0.12    0.06
  -3  -1 -17    0.17    0.06
  -3   1 -18    0.91    0.10
  -3  -1 -18    1.06    0.08
  -3  -1 -18    0.80    0.10
  -3   1 -19    0.03    0.05
  -3  -1 -19   -0.08    0.06
  -3  -1 -19    0.02    0.03
  -3   1 -20    1.18    0.10
  -3  -1 -20    1.36    0.08
  -3  -1 -20    1.40    0.11
  -3   1 -21    1.28    0.11
  -3  -1 -21    1.22    0.07
  -3  -1 -21    1.21    0.11
  -3   2  20    0.30    0.06
   3   2 -20    0.39    0.09
   3  -2 -20    0.48    0.09
  -3   2  19    0.28    0.06
   3  -2 -19    0.09    0.06
   3  -2 -19    0.22    0.05
   3   2 -18    3.67    0.19
   3  -2 -18    3.55    0.17
   3  -2 -18    3.41    0.19
   3   2 -17    2.84    0.17
   3  -2 -17    2.88    0.15
   3  -2 -17    2.72    0.16
   3   2 -16   12.67    0.55
   3  -2 -16   13.51    0.53
   3  -2 -16   11.62    0.54
   3   2 -15    0.25    0.08
   3   2 -15    0.15    0.06
   3  -2 -15    0.35    0.08
   3  -2 -15    0.17    0.06
   3   2 -14    0.11    0.06
   3   2 -14    0.14    0.08
   3  -2 -14    0.22    0.06
   3  -2 -14    0.33    0.09
   3   2 -13    0.20    0.07
   3   2 -13    0.25    0.08
   3  -2 -13    0.15    0.05
   3  -2 -13    0.19    0.07
   3  -2 -13    0.15    0.06
   3   2 -12    0.31    0.08
   3   2 -12    0.17    0.07
   3  -2 -12    0.33    0.09
   3  -2 -12    0.20    0.05
   3  -2 -12    0.21    0.07
   3   2 -11    2.10    0.15
   3   2 -11    2.00    0.14
   3  -2 -11    2.19    0.13
   3  -2 -11    1.91    0.13
   3  -2 -11    2.06    0.14
   3   2 -10    0.03    0.05
   3   2 -10    0.15    0.07
   3  -2 -10   -0.06    0.05
   3  -2 -10    0.02    0.07
   3  -2 -10    0.05    0.04
   3   2  -9    2.66    0.17
   3   2  -9    2.54    0.15
   3  -2  -9    2.53    0.14
   3  -2  -9    2.60    0.14
   3  -2  -9    2.53    0.17
   3   2  -8   26.97    1.11
   3   2  -8   27.15    1.11
   3  -2  -8   28.14    1.10
   3  -2  -8   26.24    1.10
   3   2  -7    0.56    0.08
   3  -2  -7    0.53    0.06
   3  -2  -7    0.60    0.11
   3   2  -6   20.20    0.83
  -3   2   6   19.29    0.83
   3  -2  -6   20.47    0.82
   3  -2  -6   20.21    0.82
  -3   2   5    0.05    0.05
   3   2  -5    0.09    0.05
   3  -2  -5    0.09    0.04
   3  -2  -5    0.05    0.04
  -3  -2   5    0.12    0.08
   3   2  -4    4.32    0.21
  -3  -2   4    4.48    0.23
   3  -2  -4    4.38    0.20
   3  -2  -4    4.44    0.20
   3   2  -3    2.33    0.13
   3  -2  -3    2.19    0.12
   3  -2  -3    2.26    0.12
  -3  -2   3    2.26    0.14
   3  -2  -2    4.89    0.22
  -3  -2   2    5.16    0.24
   3  -2  -2    4.93    0.23
   3  -2  -1    2.99    0.15
   3  -2  -1    3.03    0.15
  -3  -2   1    3.30    0.16
  -3  -2   0   11.17    0.46
  -3  -2   0   11.81    0.46
   3  -2   0   11.05    0.48
  -3  -2   0   10.32    0.46
   3  -2   0   11.11    0.47
  -3  -2  -1    0.54    0.05
  -3  -2  -1    0.44    0.06
   3  -2   1    0.42    0.07
  -3  -2  -1    0.49    0.06
   3  -2   1    0.28    0.10
  -3  -2  -2   17.01    0.69
   3  -2   2   18.84    0.72
   3  -2   2   17.03    0.73
  -3  -2  -2   15.85    0.70
  -3   2  -3    0.12    0.04
  -3  -2  -3    0.05    0.04
   3  -2   3    0.05    0.05
   3  -2   3   -0.03    0.07
  -3   2  -4    7.08    0.31
   3  -2   4    6.57    0.34
   3  -2   4    7.32    0.33
  -3  -2  -4    6.42    0.30
  -3   2  -5    0.15    0.05
  -3  -2  -5    0.19    0.06
   3  -2   5    0.16    0.06
  -3   2  -6   10.75    0.46
  -3  -2  -6   10.78    0.45
  -3   2  -7    0.11    0.05
  -3  -2  -7    0.10    0.04
  -3   2  -8   14.28    0.66
  -3   2  -8   16.79    0.67
  -3  -2  -8   15.72    0.66
  -3  -2  -8   16.75    0.66
  -3   2  -9    0.05    0.07
  -3   2  -9    0.00    0.04
  -3  -2  -9    0.02    0.05
  -3  -2  -9    0.00    0.07
  -3  -2  -9   -0.06    0.04
  -3   2 -10    0.63    0.11
  -3   2 -10    0.92    0.09
  -3  -2 -10    0.62    0.11
  -3  -2 -10    0.84    0.10
  -3  -2 -10    0.88    0.08
  -3   2 -11    5.44    0.27
  -3   2 -11    5.59    0.27
  -3  -2 -11    5.74    0.27
  -3  -2 -11    5.67    0.26
  -3  -2 -11    5.69    0.27
  -3   2 -12   12.45    0.56
  -3   2 -12   13.61    0.57
  -3  -2 -12   13.68    0.56
  -3  -2 -12   12.95    0.55
  -3  -2 -12   12.70    0.55
  -3   2 -13    3.95    0.21
  -3   2 -13    3.73    0.21
  -3  -2 -13    3.90    0.20
  -3  -2 -13    3.60    0.19
  -3  -2 -13    3.57    0.19
  -3   2 -14    0.14    0.08
  -3   2 -14    0.19    0.06
  -3  -2 -14    0.34    0.08
  -3  -2 -14    0.11    0.05
  -3  -2 -14    0.13    0.06
  -3   2 -15    1.89    0.15
  -3   2 -15    1.85    0.14
  -3  -2 -15    1.81    0.13
  -3  -2 -15    2.14    0.13
  -3  -2 -15    2.09    0.12
  -3   2 -16    0.01    0.06
  -3   2 -16    0.07    0.11
  -3  -2 -16    0.07    0.06
  -3  -2 -16    0.01    0.04
  -3  -2 -16    0.09    0.04
  -3   2 -17    1.06    0.11
  -3  -2 -17    1.18    0.09
  -3  -2 -17    1.06    0.10
  -3   2 -18    0.15    0.06
  -3  -2 -18    0.14    0.06
  -3  -2 -18    0.14    0.04
  -3   2 -19    0.01    0.06
  -3  -2 -19   -0.08    0.06
  -3  -2 -19    0.06    0.03
  -3   2 -20    2.18    0.13
  -3  -2 -20    2.24    0.11
  -3  -2 -20    1.96    0.14
  -3   3  19    0.04    0.03
  -3   3  18    1.41    0.08
   3  -3 -18    1.38    0.11
   3   3 -17    0.39    0.08
   3  -3 -17    0.30    0.08
   3  -3 -17    0.45    0.07
   3   3 -16    0.08    0.05
   3  -3 -16    0.04    0.05
   3  -3 -16    0.09    0.06
   3   3 -15    0.74    0.10
   3   3 -15    0.89    0.09
   3  -3 -15    0.77    0.09
   3  -3 -15    0.77    0.09
   3   3 -14    0.19    0.07
   3   3 -14    0.25    0.08
   3  -3 -14    0.39    0.09
   3   3 -13    0.56    0.10
   3   3 -13    0.53    0.10
   3  -3 -13    0.42    0.08
   3  -3 -13    0.30    0.10
   3   3 -12    6.29    0.31
   3   3 -12    6.48    0.30
   3  -3 -12    6.11    0.30
   3  -3 -12    6.71    0.30
   3   3 -11    1.87    0.13
   3   3 -11    1.82    0.14
   3  -3 -11    1.53    0.12
   3  -3 -11    2.07    0.15
   3   3 -10    2.71    0.17
   3   3 -10    2.49    0.16
   3  -3 -10    2.05    0.17
   3  -3 -10    2.61    0.15
   3  -3 -10    2.65    0.15
   3   3  -9    0.61    0.10
   3   3  -9    0.60    0.14
   3   3  -9    0.60    0.10
   3  -3  -9    0.66    0.09
   3  -3  -9    0.59    0.08
   3   3  -8    1.31    0.12
   3   3  -8    1.65    0.15
   3  -3  -8    1.80    0.12
   3  -3  -8    1.56    0.12
   3   3  -7    0.27    0.07
   3   3  -7    0.14    0.08
   3  -3  -7    0.09    0.06
   3  -3  -7    0.12    0.06
   3   3  -6   -0.04    0.07
  -3   3   6   -0.08    0.10
   3   3  -6    0.04    0.06
   3  -3  -6   -0.01    0.07
   3  -3  -6   -0.06    0.04
  -3   3   5    0.48    0.10
   3   3  -5    0.57    0.10
   3   3  -5    0.55    0.11
   3  -3  -5    0.45    0.07
   3  -3  -5    0.63    0.12
   3   3  -4    7.19    0.33
   3   3  -4    7.22    0.33
  -3   3   4    7.00    0.33
   3  -3  -4    7.44    0.32
  -3   3   3    0.09    0.08
   3   3  -3    0.31    0.11
   3   3  -3    0.09    0.07
   3  -3  -3    0.09    0.04
   3   3  -2    9.96    0.45
  -3   3   2   10.10    0.45
   3   3  -2    9.83    0.44
   3  -3  -2   10.59    0.44
  -3  -3   2   10.71    0.45
  -3   3   1    0.83    0.12
   3   3  -1    0.57    0.11
  -3  -3   1    0.72    0.08
   3  -3  -1    0.64    0.08
   3   3   0    2.57    0.17
  -3   3   0    2.95    0.17
   3  -3   0    2.81    0.15
  -3  -3   0    2.84    0.15
  -3   3  -1    3.35    0.19
   3   3   1    3.12    0.19
   3  -3   1    3.36    0.27
  -3  -3  -1    3.53    0.18
   3  -3   1    3.72    0.18
  -3   3  -2    0.26    0.08
  -3   3  -2    0.28    0.07
   3   3   2    0.24    0.08
   3  -3   2    0.70    0.23
   3  -3   2    0.35    0.07
  -3  -3  -2    0.23    0.07
   3   3   3    0.75    0.13
  -3   3  -3    0.78    0.12
  -3   3  -3    0.76    0.11
  -3  -3  -3    0.88    0.08
  -3   3  -4    0.51    0.10
  -3   3  -4    0.33    0.11
   3   3   4    0.42    0.13
  -3  -3  -4    0.64    0.08
  -3  -3  -4    0.51    0.14
  -3   3  -5    0.38    0.10
  -3   3  -5    0.35    0.10
   3   3   5    0.46    0.14
  -3  -3  -5    0.19    0.07
  -3   3  -6    1.32    0.12
   3   3   6    1.47    0.17
  -3   3  -6    1.54    0.13
  -3  -3  -6    1.68    0.13
  -3  -3  -6    1.61    0.11
  -3   3  -7    1.35    0.11
   3   3   7    0.90    0.18
  -3   3  -7    1.12    0.12
  -3  -3  -7    1.00    0.12
  -3  -3  -7    1.03    0.17
  -3  -3  -7    1.18    0.10
  -3   3  -8    8.96    0.40
  -3   3  -8    7.76    0.40
  -3  -3  -8    9.91    0.41
  -3  -3  -8    9.20    0.40
  -3  -3  -8    9.56    0.41
  -3   3  -9    0.00    0.06
  -3   3  -9    0.04    0.06
  -3  -3  -9   -0.06    0.07
  -3  -3  -9    0.01    0.05
  -3  -3  -9   -0.04    0.05
  -3   3 -10   12.34    0.56
  -3   3 -10   13.81    0.58
  -3   3 -10   12.86    0.56
  -3  -3 -10   14.06    0.57
  -3  -3 -10   13.04    0.56
  -3  -3 -10   13.26    0.56
  -3   3 -11    1.05    0.12
  -3   3 -11    1.59    0.12
  -3  -3 -11    1.49    0.13
  -3  -3 -11    1.39    0.11
  -3   3 -12    1.08    0.12
  -3   3 -12    1.16    0.11
  -3  -3 -12    0.97    0.11
  -3  -3 -12    1.02    0.11
  -3  -3 -12    1.34    0.10
  -3   3 -13    0.55    0.09
  -3   3 -13    0.35    0.09
  -3  -3 -13    0.29    0.08
  -3  -3 -13    0.51    0.08
  -3  -3 -13    0.30    0.09
  -3   3 -14    0.80    0.11
  -3   3 -14    1.21    0.10
  -3  -3 -14    1.16    0.09
  -3  -3 -14    1.01    0.10
  -3  -3 -14    0.95    0.10
  -3   3 -15    3.46    0.17
  -3   3 -15    3.27    0.19
  -3  -3 -15    3.35    0.17
  -3  -3 -15    3.27    0.18
  -3   3 -16    2.42    0.13
  -3  -3 -16    2.34    0.15
  -3  -3 -16    2.47    0.13
  -3   3 -17    0.97    0.10
  -3  -3 -17    1.16    0.10
  -3  -3 -17    1.09    0.08
  -3  -3 -18    0.26    0.09
  -3  -3 -18    0.35    0.05
  -3  -3 -19    0.22    0.05
   3   4 -16    1.35    0.08
  -3   4  16    1.28    0.08
   3   4 -15   -0.01    0.03
  -3   4  15    0.04    0.03
   3  -4 -15   -0.07    0.06
   3   4 -14    0.02    0.03
  -3   4  14    0.06    0.04
  -3  -4  14    0.12    0.07
   3  -4 -14    0.14    0.07
   3   4 -13    0.04    0.04
  -3  -4  13    0.03    0.07
   3  -4 -13    0.12    0.06
   3   4 -12    0.01    0.04
   3  -4 -12    0.15    0.06
  -3  -4  12    0.06    0.07
   3   4 -11    0.14    0.05
  -3  -4  11    0.13    0.07
   3  -4 -11    0.27    0.07
   3   4 -10   -0.11    0.07
   3   4 -10    0.09    0.05
  -3  -4  10   -0.01    0.07
   3  -4 -10    0.00    0.05
   3   4  -9    2.85    0.16
   3   4  -9    2.82    0.16
  -3  -4   9    2.71    0.17
   3  -4  -9    2.38    0.16
   3   4  -8    1.61    0.13
   3   4  -8    2.12    0.13
   3  -4  -8    1.77    0.13
  -3  -4   8    1.95    0.14
  -3   4   7    0.17    0.09
   3   4  -7    0.11    0.06
   3   4  -7    0.09    0.05
  -3  -4   7    0.02    0.06
   3   4  -6    0.56    0.10
  -3   4   6    0.96    0.13
   3   4  -6    0.92    0.10
   3  -4  -6    0.76    0.09
  -3  -4   6    0.69    0.10
   3   4  -5    0.05    0.06
  -3   4   5    0.16    0.07
   3   4  -5    0.06    0.06
  -3  -4   5    0.06    0.06
   3  -4  -5    0.11    0.06
   3   4  -4    3.02    0.17
   3   4  -4    3.02    0.17
  -3   4   4    3.02    0.17
   3  -4  -4    2.58    0.16
  -3  -4   4    2.66    0.17
  -3   4   3    1.68    0.13
   3   4  -3    1.51    0.13
   3   4  -3    1.44    0.12
  -3  -4   3    1.67    0.13
   3  -4  -3    1.63    0.12
   3   4  -2    1.02    0.13
   3   4  -2    0.98    0.11
  -3   4   2    1.10    0.12
   3  -4  -2    1.16    0.11
  -3  -4   2    1.09    0.11
  -3   4   1    0.90    0.11
   3   4  -1    1.00    0.11
   3   4  -1    0.96    0.14
   3  -4  -1    0.94    0.10
  -3  -4   1    0.91    0.10
  -3   4   0   -0.02    0.06
   3   4   0   -0.06    0.06
  -3   4   0    0.05    0.09
   3  -4   0    0.01    0.05
  -3  -4   0    0.03    0.05
   3   4   1    0.99    0.11
  -3   4  -1    0.61    0.12
  -3   4  -1    0.79    0.10
   3  -4   1    0.86    0.10
  -3  -4  -1    0.87    0.10
  -3   4  -2    2.64    0.17
   3   4   2    2.69    0.17
  -3   4  -2    2.57    0.16
  -3  -4  -2    2.72    0.16
   3  -4   2    2.86    0.17
  -3   4  -3    0.29    0.09
  -3   4  -3    0.32    0.07
   3   4   3    0.30    0.11
   3  -4   3    0.40    0.09
  -3  -4  -3    0.25    0.08
  -3   4  -4    1.61    0.12
  -3   4  -4    1.33    0.11
   3   4   4    1.66    0.14
   3  -4   4    1.39    0.12
  -3  -4  -4    1.22    0.11
  -3   4  -5    2.56    0.16
   3   4   5    2.91    0.18
  -3   4  -5    2.64    0.16
  -3  -4  -5    2.53    0.16
   3  -4   5    2.60    0.17
   3   4   6    3.04    0.18
  -3   4  -6    2.94    0.16
  -3   4  -6    2.75    0.16
  -3  -4  -6    2.55    0.16
   3  -4   6    3.01    0.18
  -3   4  -7    0.16    0.06
  -3   4  -7    0.11    0.06
   3   4   7    0.28    0.09
  -3  -4  -7    0.15    0.06
   3  -4   7    0.06    0.07
  -3   4  -8    1.28    0.11
   3   4   8    1.32    0.16
  -3   4  -8    1.23    0.11
  -3  -4  -8    1.12    0.10
   3  -4   8    1.33    0.13
  -3   4  -9    0.73    0.10
  -3   4  -9    0.80    0.09
  -3  -4  -9    0.75    0.09
  -3   4 -10    0.69    0.09
  -3  -4 -10    0.71    0.09
  -3   4 -11    0.04    0.07
  -3   4 -11    0.39    0.07
  -3  -4 -11    0.22    0.08
  -3   4 -12    5.20    0.23
  -3  -4 -12    5.05    0.25
  -3   4 -13    0.65    0.07
  -3  -4 -13    0.70    0.09
  -3   4 -14    1.26    0.08
   3  -4  14    1.29    0.11
  -3  -4 -14    1.25    0.11
  -3   4 -15    0.51    0.05
   3  -4  15    0.38    0.09
  -3   4 -16    1.63    0.09
   3   4  16    1.32    0.08
   3   5 -11    0.04    0.03
   3   5 -10    1.45    0.08
   3   5  -9    1.20    0.08
   3  -5  -9    0.94    0.10
  -3  -5   9    1.07    0.11
   3   5  -8    0.29    0.07
   3   5  -8    0.47    0.06
   3  -5  -8    0.48    0.08
  -3  -5   8    0.59    0.10
   3   5  -7    0.10    0.04
   3   5  -7    0.01    0.04
   3  -5  -7   -0.02    0.06
  -3  -5   7   -0.03    0.06
   3   5  -6    0.51    0.07
   3   5  -6    0.60    0.07
   3  -5  -6    0.43    0.08
  -3  -5   6    0.43    0.09
   3   5  -5    1.48    0.10
  -3   5   5    1.48    0.11
   3   5  -5    1.49    0.10
  -3  -5   5    1.59    0.12
   3  -5  -5    1.45    0.11
   3   5  -4    5.99    0.27
  -3   5   4    6.44    0.27
   3   5  -4    6.23    0.27
  -3  -5   4    5.96    0.29
   3  -5  -4    5.99    0.29
  -3   5   3    1.23    0.10
   3   5  -3    1.21    0.09
   3   5  -3    1.08    0.12
   3  -5  -3    1.04    0.10
  -3  -5   3    1.18    0.11
  -3   5   2    2.66    0.15
   3   5  -2    2.88    0.15
  -3  -5   2    2.87    0.16
   3  -5  -2    2.79    0.16
  -3   5   1    1.89    0.12
   3   5  -1    1.91    0.12
  -3  -5   1    1.90    0.13
   3  -5  -1    1.95    0.13
   3   5   0    0.11    0.05
  -3  -5   0    0.13    0.06
   3  -5   0    0.20    0.08
   3   5   1    0.92    0.09
  -3   5  -1    0.70    0.08
   3  -5   1    0.85    0.10
  -3  -5  -1    0.81    0.10
   3   5   2    0.02    0.05
  -3   5  -2    0.02    0.04
   3  -5   2    0.09    0.06
  -3  -5  -2    0.06    0.06
  -3   5  -3    0.21    0.06
  -3   5  -3    0.17    0.05
   3   5   3    0.20    0.06
   3  -5   3    0.16    0.06
  -3  -5  -3    0.16    0.06
   3   5   4    0.10    0.05
  -3   5  -4    0.16    0.05
  -3   5  -4    0.30    0.08
   3  -5   4    0.21    0.07
  -3  -5  -4    0.09    0.06
  -3   5  -5    0.09    0.05
  -3   5  -5    0.08    0.04
   3   5   5    0.03    0.06
  -3  -5  -5    0.15    0.07
   3  -5   5    0.06    0.06
   3   5   6    0.75    0.10
  -3   5  -6    0.68    0.07
  -3   5  -6    0.66    0.08
  -3  -5  -6    0.66    0.09
   3  -5   6    0.71    0.09
  -3   5  -7    0.71    0.07
  -3   5  -7    0.78    0.07
   3   5   7    0.64    0.15
   3  -5   7    0.68    0.09
  -3  -5  -7    0.89    0.10
  -3   5  -8    0.01    0.04
  -3   5  -8    0.05    0.04
  -3  -5  -8    0.02    0.07
   3  -5   8   -0.01    0.06
  -3   5  -9    0.06    0.04
  -3   5  -9   -0.07    0.05
   3  -5   9    0.02    0.06
  -3  -5  -9    0.18    0.08
  -3   5 -10    0.23    0.05
  -3   5 -11    0.12    0.03
   4   0 -21    0.09    0.06
   4   0 -20    0.32    0.08
   4   0 -19    0.06    0.05
   4   0 -18    0.17    0.06
   4   0 -17    0.12    0.07
   4   0 -17   -0.02    0.04
   4   0 -16   21.81    0.92
   4   0 -16   22.51    0.91
   4   0 -15    0.02    0.04
   4   0 -15    0.02    0.06
   4   0 -14    3.60    0.19
   4   0 -14    4.16    0.20
   4   0 -13    0.02    0.05
   4   0 -13    0.04    0.05
   4   0 -12    1.29    0.10
   4   0 -12    1.23    0.10
   4   0 -11   -0.17    0.12
   4   0 -11    0.05    0.04
   4   0 -11    0.05    0.05
   4   0 -10    9.89    0.41
   4   0 -10    9.17    0.45
   4   0  -9   -0.03    0.06
  -4   0   9    0.06    0.07
   4   0  -9   -0.01    0.04
   4   0  -8   12.88    0.55
   4   0  -8   13.65    0.53
  -4   0   8   12.14    0.55
  -4   0   7   -0.02    0.03
   4   0  -7    0.04    0.03
   4   0  -6   10.59    0.45
  -4   0   6   10.87    0.45
   4   0  -5    0.00    0.02
  -4   0   5    0.01    0.02
   4   0  -4  907.88   37.82
  -4   0   4 1000.00   37.83
   4   0  -3    0.01    0.01
  -4   0   3    0.00    0.02
   4   0  -2   34.46    1.46
  -4   0   2   38.97    1.46
  -4   0   1    0.00    0.01
   4   0  -1    0.00    0.01
  -4   0   0   50.41    1.95
   4   0   0   47.99    1.97
   4   0   1    0.01    0.01
  -4   0  -1    0.00    0.01
   4   0   2    5.96    0.24
   4   0   3    0.02    0.02
   4   0   4   63.79    2.54
   4   0   5   -0.01    0.02
   4   0   6    0.18    0.05
  -4   0  -7   -0.03    0.04
   4   0   7    0.00    0.03
  -4   0  -8    5.30    0.24
   4   0   8    5.34    0.25
  -4   0  -9   -0.01    0.04
   4   0   9    0.04    0.06
  -4   0 -10    0.58    0.07
   4   0  10    0.32    0.10
  -4   0 -11   -0.02    0.06
  -4   0 -11   -0.03    0.04
  -4   0 -12    9.80    0.42
  -4   0 -12   10.74    0.43
  -4   0 -12    8.86    0.42
  -4   0 -13    0.00    0.05
  -4   0 -13    0.01    0.04
  -4   0 -13    0.12    0.08
  -4   0 -14    0.50    0.09
  -4   0 -14    0.41    0.08
  -4   0 -15    0.05    0.05
  -4   0 -15    0.06    0.06
  -4   0 -16    1.08    0.11
  -4   0 -16    1.01    0.10
  -4   0 -17    0.01    0.05
  -4   0 -17    0.02    0.04
  -4   0 -18    0.76    0.10
  -4   0 -18    0.99    0.08
  -4   0 -19   -0.04    0.05
  -4   0 -19    0.01    0.04
  -4   0 -20    1.16    0.11
  -4   0 -20    1.22    0.08
  -4   0 -21    0.03    0.06
   4   1 -21    0.66    0.09
  -4  -1  21    0.66    0.09
   4  -1 -21    0.69    0.09
  -4   1  20    1.68    0.11
   4   1 -20    1.70    0.12
   4  -1 -20    1.63    0.12
   4   1 -19    0.07    0.05
  -4   1  19    0.15    0.05
   4  -1 -19    0.17    0.05
   4  -1 -19    0.21    0.08
   4   1 -18    0.05    0.06
   4  -1 -18    0.07    0.06
   4  -1 -18   -0.03    0.04
   4   1 -17    1.23    0.11
   4  -1 -17    1.25    0.09
   4  -1 -17    1.02    0.10
   4   1 -16    1.74    0.13
   4  -1 -16    1.85    0.12
   4  -1 -16    1.76    0.13
   4   1 -15    4.69    0.24
   4  -1 -15    4.64    0.23
   4  -1 -15    4.90    0.24
   4   1 -14    1.08    0.10
   4   1 -14    1.02    0.10
   4  -1 -14    1.14    0.10
   4  -1 -14    1.10    0.10
   4   1 -13    0.07    0.05
   4   1 -13    0.12    0.06
   4  -1 -13    0.07    0.05
   4  -1 -13    0.04    0.05
   4   1 -12    5.34    0.26
   4   1 -12    5.78    0.27
   4  -1 -12    6.13    0.27
   4  -1 -12    5.51    0.26
   4  -1 -12    5.70    0.26
   4   1 -11    0.47    0.09
   4   1 -11    0.54    0.08
   4  -1 -11    0.51    0.09
   4  -1 -11    0.47    0.09
   4  -1 -11    0.06    0.18
   4  -1 -11    0.46    0.07
   4   1 -10    0.80    0.08
   4  -1 -10    1.14    0.17
  -4   1   9    0.76    0.14
   4   1  -9    0.86    0.08
   4   1  -9    0.77    0.15
   4  -1  -9    0.90    0.07
   4  -1  -9    0.96    0.12
   4   1  -8   15.72    0.66
  -4   1   8   15.57    0.67
   4   1  -8   15.98    0.69
   4  -1  -8   16.25    0.66
   4  -1  -8   16.32    0.67
   4   1  -7    0.32    0.08
   4   1  -7    0.36    0.07
  -4   1   7    0.31    0.08
   4  -1  -7    0.38    0.07
   4  -1  -7    0.40    0.05
  -4  -1   7    0.27    0.09
  -4   1   6    7.74    0.34
   4   1  -6    7.71    0.35
   4  -1  -6    7.46    0.33
  -4  -1   6    8.04    0.35
   4  -1  -6    7.76    0.33
  -4   1   5    8.12    0.35
   4   1  -5    8.04    0.36
  -4  -1   5    8.43    0.36
   4  -1  -5    8.17    0.35
   4   1  -4   83.69    3.39
  -4   1   4   86.25    3.38
   4  -1  -4   81.41    3.38
  -4  -1   4   88.67    3.39
   4   1  -3  193.50    7.67
  -4   1   3  180.73    7.63
  -4  -1   3  205.88    7.66
   4  -1  -3  190.26    7.67
   4   1  -2  107.40    4.38
  -4   1   2  106.56    4.38
  -4  -1   2  118.15    4.38
   4  -1  -2  109.21    4.40
   4   1  -1   48.41    1.92
  -4   1   1   48.33    1.93
   4  -1  -1   46.07    1.92
  -4  -1   1   50.37    1.92
   4   1   0   90.39    3.66
  -4   1   0   90.24    3.67
  -4  -1   0   99.90    3.67
   4  -1   0   89.11    3.68
   4  -1   1    3.63    0.16
   4  -1   2   23.13    0.92
   4  -1   2   22.38    0.92
   4  -1   3    0.82    0.07
   4  -1   4    5.17    0.24
   4  -1   5    3.51    0.18
  -4   1  -6   48.69    2.02
   4   1   6   51.10    2.01
   4  -1   6   51.93    2.04
  -4   1  -7    4.85    0.22
   4   1   7    4.67    0.20
   4  -1   7    4.68    0.24
  -4  -1  -7    4.60    0.21
  -4   1  -8   29.62    1.14
   4   1   8   27.58    1.13
   4  -1   8   25.78    1.16
  -4  -1  -8   28.90    1.13
  -4   1  -9   10.76    0.44
   4   1   9    9.49    0.44
  -4  -1  -9   10.87    0.44
  -4   1 -10    1.91    0.11
  -4  -1 -10    1.78    0.11
  -4  -1 -10    1.58    0.13
  -4   1 -11    0.29    0.07
  -4  -1 -11    0.20    0.06
  -4  -1 -11    0.21    0.06
  -4  -1 -11    0.35    0.09
  -4   1 -12    1.92    0.15
  -4   1 -12    1.97    0.13
  -4  -1 -12    2.19    0.13
  -4  -1 -12    1.94    0.13
  -4  -1 -12    2.18    0.13
  -4   1 -13    0.46    0.08
  -4   1 -13    0.35    0.11
  -4  -1 -13    0.58    0.09
  -4  -1 -13    0.56    0.09
  -4  -1 -13    0.58    0.08
  -4   1 -14    8.00    0.37
  -4   1 -14    8.34    0.38
  -4  -1 -14    8.47    0.37
  -4  -1 -14    8.80    0.38
  -4  -1 -14    8.57    0.37
  -4   1 -15    5.92    0.28
  -4   1 -15    6.49    0.30
  -4  -1 -15    5.97    0.28
  -4  -1 -15    6.72    0.30
  -4  -1 -15    5.84    0.28
  -4   1 -16    7.06    0.35
  -4   1 -16    7.56    0.33
  -4  -1 -16    7.61    0.33
  -4  -1 -16    7.19    0.34
  -4  -1 -16    7.44    0.32
  -4   1 -17    0.26    0.09
  -4   1 -17    0.20    0.07
  -4  -1 -17    0.15    0.05
  -4  -1 -17    0.16    0.06
  -4  -1 -17    0.23    0.07
  -4   1 -18    1.10    0.11
  -4  -1 -18    0.99    0.11
  -4  -1 -18    1.27    0.09
  -4   1 -19    0.04    0.05
  -4  -1 -19   -0.01    0.03
  -4  -1 -19    0.09    0.06
  -4   1 -20    0.28    0.08
  -4  -1 -20    0.27    0.05
  -4  -1 -20    0.22    0.08
  -4   1 -21    0.27    0.07
  -4  -1 -21    0.40    0.05
  -4  -1 -21    0.44    0.09
  -4   2  20    0.36    0.06
   4   2 -20    0.28    0.10
   4  -2 -20    0.56    0.09
  -4   2  19    0.01    0.04
   4   2 -19    0.02    0.06
   4  -2 -19    0.09    0.06
   4  -2 -19    0.02    0.03
   4   2 -18    0.34    0.09
   4  -2 -18    0.28    0.08
   4  -2 -18    0.30    0.06
   4   2 -17    0.41    0.09
   4  -2 -17    0.39    0.07
   4  -2 -17    0.47    0.08
   4   2 -16    0.05    0.06
   4   2 -16    0.00    0.08
   4  -2 -16    0.02    0.04
  -4  -2  16   -0.03    0.08
   4  -2 -16    0.07    0.05
   4   2 -15    1.03    0.11
   4   2 -15    0.95    0.13
  -4  -2  15    1.26    0.15
   4  -2 -15    1.13    0.11
   4  -2 -15    1.32    0.10
   4   2 -14   -0.04    0.06
   4   2 -14   -0.01    0.07
   4  -2 -14   -0.02    0.06
   4  -2 -14    0.09    0.05
   4   2 -13    0.18    0.08
   4   2 -13    0.28    0.09
   4  -2 -13    0.15    0.06
   4  -2 -13    0.08    0.05
   4   2 -12    0.36    0.11
   4   2 -12    0.44    0.09
   4  -2 -12    0.39    0.10
   4  -2 -12    0.30    0.08
   4  -2 -12    0.49    0.08
   4   2 -11    2.36    0.15
   4   2 -11    2.17    0.16
   4  -2 -11    2.07    0.13
   4  -2 -11    2.25    0.14
   4  -2 -11    2.22    0.13
   4   2 -10    0.97    0.10
   4   2 -10    0.88    0.12
   4  -2 -10    0.83    0.09
   4  -2 -10    0.92    0.08
   4  -2 -10    0.97    0.12
   4   2  -9    1.51    0.12
   4   2  -9    1.45    0.14
   4  -2  -9    1.62    0.10
   4  -2  -9    1.33    0.11
   4  -2  -9    1.51    0.14
   4   2  -8   23.12    0.96
   4   2  -8   24.29    0.97
   4  -2  -8   21.86    0.95
   4  -2  -8   24.59    0.96
   4   2  -7    0.30    0.08
   4   2  -7    0.25    0.10
   4  -2  -7    0.21    0.05
   4  -2  -7    0.25    0.07
   4   2  -6    1.29    0.15
  -4   2   6    1.32    0.13
   4   2  -6    1.10    0.10
   4  -2  -6    1.28    0.11
   4  -2  -6    1.07    0.08
   4   2  -5    0.81    0.08
  -4   2   5    0.76    0.11
  -4  -2   5    0.89    0.14
   4  -2  -5    0.82    0.07
   4  -2  -5    0.60    0.09
   4   2  -4    0.02    0.05
  -4   2   4    0.08    0.05
   4  -2  -4    0.02    0.04
   4  -2  -4    0.02    0.03
  -4  -2   4    0.00    0.06
   4   2  -3    1.28    0.09
   4  -2  -3    1.29    0.09
  -4  -2   3    1.34    0.12
   4  -2  -3    1.29    0.08
   4  -2  -2   20.46    0.87
   4  -2  -2   21.28    0.87
  -4  -2   2   22.33    0.88
  -4  -2   1    3.29    0.17
   4  -2  -1    3.68    0.17
   4  -2  -1    3.74    0.18
   4  -2   0    2.90    0.16
   4  -2   0    3.01    0.18
  -4  -2   0    3.08    0.15
  -4  -2   0    2.91    0.15
  -4  -2   0    3.34    0.15
   4  -2   1    0.00    0.04
   4  -2   1    0.05    0.05
  -4  -2  -1    0.00    0.03
  -4  -2  -1   -0.01    0.04
   4  -2   2   12.89    0.54
   4  -2   2   12.37    0.55
  -4  -2  -2   12.23    0.52
  -4   2  -3    1.86    0.11
   4  -2   3    1.92    0.13
  -4  -2  -3    1.76    0.11
   4  -2   3    1.93    0.16
  -4   2  -4    6.88    0.30
   4  -2   4    7.19    0.32
   4  -2   4    6.23    0.34
  -4  -2  -4    6.64    0.29
  -4   2  -5    1.16    0.09
   4  -2   5    1.37    0.14
  -4  -2  -5    1.23    0.09
  -4   2  -6    0.10    0.05
   4  -2   6    0.13    0.08
  -4  -2  -6    0.10    0.04
  -4   2  -7    0.26    0.07
  -4  -2  -7    0.16    0.06
  -4   2  -8    7.42    0.32
  -4   2  -8    6.78    0.32
  -4  -2  -8    7.50    0.32
  -4  -2  -8    6.68    0.33
  -4  -2  -8    7.11    0.32
  -4   2  -9    3.66    0.19
  -4   2  -9    3.35    0.19
  -4  -2  -9    3.82    0.20
  -4  -2  -9    3.71    0.18
  -4  -2  -9    3.36    0.19
  -4   2 -10   12.94    0.57
  -4   2 -10   13.41    0.58
  -4  -2 -10   13.85    0.57
  -4  -2 -10   14.02    0.57
  -4  -2 -10   13.47    0.57
  -4   2 -11    1.21    0.11
  -4   2 -11    1.10    0.12
  -4  -2 -11    1.12    0.11
  -4  -2 -11    1.05    0.12
  -4  -2 -11    1.25    0.10
  -4   2 -12    6.77    0.31
  -4   2 -12    5.90    0.30
  -4  -2 -12    6.31    0.29
  -4  -2 -12    6.86    0.30
  -4  -2 -12    6.39    0.30
  -4   2 -13    2.16    0.15
  -4   2 -13    1.97    0.15
  -4  -2 -13    2.01    0.14
  -4  -2 -13    2.12    0.14
  -4  -2 -13    1.99    0.13
  -4   2 -14    2.41    0.16
  -4   2 -14    2.27    0.16
  -4  -2 -14    2.53    0.14
  -4  -2 -14    2.39    0.14
  -4  -2 -14    2.40    0.15
  -4   2 -15    0.06    0.06
  -4   2 -15   -0.03    0.08
  -4  -2 -15    0.05    0.05
  -4  -2 -15    0.03    0.06
  -4  -2 -15   -0.04    0.04
  -4   2 -16    0.06    0.06
  -4  -2 -16   -0.03    0.06
  -4  -2 -16    0.19    0.07
  -4  -2 -16    0.02    0.04
  -4   2 -17    0.22    0.08
  -4  -2 -17    0.15    0.07
  -4  -2 -17    0.14    0.04
  -4   2 -18    0.42    0.08
  -4  -2 -18    0.43    0.08
  -4  -2 -18    0.45    0.06
  -4   2 -19    0.36    0.08
  -4  -2 -19    0.26    0.05
  -4  -2 -19    0.31    0.09
  -4   2 -20    2.89    0.16
  -4  -2 -20    2.27    0.18
  -4  -2 -20    3.01    0.13
  -4  -2 -21    0.18    0.04
  -4   3  19    1.65    0.09
  -4   3  18    1.36    0.08
   4  -3 -18    1.32    0.11
   4   3 -17    0.24    0.08
   4  -3 -17    0.41    0.08
   4  -3 -17    0.39    0.07
   4   3 -16   -0.02    0.05
   4  -3 -16    0.01    0.06
   4  -3 -16    0.05    0.05
   4   3 -15    0.73    0.08
   4  -3 -15    0.74    0.09
   4  -3 -15    0.55    0.09
   4   3 -14    1.00    0.11
   4   3 -14    1.06    0.10
   4  -3 -14    0.98    0.10
   4  -3 -14    1.11    0.11
   4   3 -13    0.68    0.10
   4   3 -13    0.55    0.10
   4  -3 -13    0.59    0.10
   4  -3 -13    0.56    0.08
   4   3 -12    4.08    0.21
   4   3 -12    4.00    0.22
   4  -3 -12    4.23    0.21
   4  -3 -12    3.76    0.21
   4   3 -11    1.41    0.12
   4   3 -11    1.16    0.12
   4  -3 -11    1.19    0.14
   4  -3 -11    1.23    0.10
   4   3 -10    1.23    0.11
   4   3 -10    1.45    0.13
   4  -3 -10    1.28    0.11
   4  -3 -10    1.16    0.19
   4   3  -9    1.15    0.12
   4   3  -9    1.26    0.11
   4  -3  -9    1.07    0.10
   4   3  -8    1.81    0.14
   4   3  -8    1.62    0.16
   4  -3  -8    2.09    0.13
   4   3  -7    0.10    0.06
   4   3  -7    0.05    0.07
   4  -3  -7   -0.02    0.06
   4  -3  -7    0.03    0.05
  -4   3   6    1.48    0.19
   4   3  -6    1.82    0.15
   4   3  -6    1.90    0.14
   4  -3  -6    2.25    0.13
  -4   3   5    0.52    0.15
   4   3  -5    0.35    0.10
   4   3  -5    0.53    0.11
   4  -3  -5    0.42    0.07
   4   3  -4    1.11    0.13
   4   3  -4    1.04    0.12
  -4   3   4    1.08    0.15
   4  -3  -4    1.15    0.09
   4   3  -3    4.47    0.23
   4   3  -3    4.31    0.22
  -4   3   3    4.31    0.23
   4  -3  -3    4.43    0.21
  -4   3   2    5.45    0.27
   4   3  -2    5.53    0.27
   4   3  -2    5.19    0.27
  -4  -3   2    5.76    0.26
   4  -3  -2    5.60    0.26
   4   3  -1    0.89    0.12
  -4   3   1    0.74    0.11
   4  -3  -1    0.75    0.08
  -4  -3   1    0.99    0.09
   4   3   0    1.49    0.13
  -4   3   0    1.45    0.13
   4  -3   0    1.66    0.11
   4  -3   0    0.96    0.24
  -4  -3   0    1.62    0.11
  -4   3  -1    0.34    0.10
   4   3   1    0.51    0.10
  -4   3  -1    0.34    0.09
  -4  -3  -1    0.25    0.07
   4  -3   1    0.24    0.07
   4  -3   1    0.07    0.14
  -4   3  -2    0.59    0.12
  -4   3  -2    0.30    0.10
   4   3   2    0.22    0.07
   4  -3   2    0.32    0.07
  -4  -3  -2    0.22    0.07
   4  -3   2    0.34    0.15
  -4   3  -3    0.73    0.12
  -4   3  -3    0.49    0.10
   4   3   3    0.55    0.12
  -4  -3  -3    0.72    0.08
   4   3   4    0.68    0.13
  -4   3  -4    0.97    0.11
  -4   3  -4    0.80    0.12
  -4  -3  -4    0.93    0.09
  -4  -3  -4    1.16    0.15
  -4   3  -5    0.60    0.10
   4   3   5    0.66    0.14
  -4   3  -5    0.45    0.10
  -4  -3  -5    0.54    0.13
  -4  -3  -5    0.67    0.08
   4   3   6    6.95    0.34
  -4   3  -6    7.11    0.32
  -4   3  -6    7.11    0.33
  -4  -3  -6    7.45    0.33
  -4  -3  -6    7.03    0.35
  -4  -3  -6    7.34    0.33
  -4   3  -7    0.06    0.06
   4   3   7    0.05    0.11
  -4   3  -7   -0.06    0.05
  -4  -3  -7    0.02    0.05
  -4  -3  -7    0.13    0.09
  -4  -3  -7   -0.12    0.06
  -4   3  -8   15.81    0.70
  -4   3  -8   16.26    0.70
  -4  -3  -8   16.96    0.71
  -4  -3  -8   18.52    0.71
  -4  -3  -8   16.79    0.70
  -4   3  -9    0.44    0.12
  -4   3  -9    0.41    0.09
  -4   3  -9    0.54    0.10
  -4  -3  -9    0.49    0.09
  -4  -3  -9    0.39    0.08
  -4  -3  -9    0.48    0.13
  -4   3 -10   10.16    0.44
  -4   3 -10    9.45    0.42
  -4   3 -10    9.41    0.42
  -4  -3 -10    9.34    0.43
  -4  -3 -10   10.16    0.43
  -4  -3 -10    9.29    0.42
  -4   3 -11    1.40    0.13
  -4   3 -11    1.67    0.12
  -4  -3 -11    1.70    0.13
  -4  -3 -11    1.47    0.12
  -4  -3 -11    1.65    0.12
  -4   3 -12    1.52    0.12
  -4   3 -12    1.35    0.13
  -4  -3 -12    1.50    0.11
  -4  -3 -12    1.55    0.12
  -4  -3 -12    1.46    0.12
  -4   3 -13    0.64    0.10
  -4   3 -13    0.37    0.09
  -4  -3 -13    0.49    0.08
  -4  -3 -13    0.55    0.09
  -4  -3 -13    0.53    0.09
  -4   3 -14    2.47    0.17
  -4   3 -14    2.63    0.15
  -4  -3 -14    2.28    0.16
  -4  -3 -14    2.73    0.15
  -4  -3 -14    2.85    0.14
  -4   3 -15    2.99    0.18
  -4   3 -15    3.27    0.16
  -4  -3 -15    3.01    0.18
  -4  -3 -15    3.27    0.16
  -4  -3 -15    2.97    0.16
  -4   3 -16    2.87    0.15
  -4  -3 -16    2.83    0.14
  -4  -3 -16    2.64    0.16
  -4   3 -17    0.02    0.06
  -4  -3 -17    0.01    0.03
  -4  -3 -17    0.03    0.07
  -4  -3 -18    0.35    0.05
  -4  -3 -19    0.04    0.04
   4   4 -16    0.01    0.04
  -4   4  16   -0.02    0.03
  -4   4  15    0.65    0.06
   4   4 -15    0.75    0.06
   4  -4 -15    0.66    0.09
   4   4 -14    0.83    0.07
  -4   4  14    0.85    0.07
  -4  -4  14    0.69    0.11
   4  -4 -14    0.91    0.09
   4   4 -13    0.21    0.06
  -4   4  13    0.19    0.05
  -4  -4  13    0.24    0.08
   4  -4 -13    0.35    0.07
   4   4 -12    0.09    0.04
  -4  -4  12    0.17    0.07
   4  -4 -12    0.19    0.06
   4   4 -11    1.25    0.10
  -4  -4  11    1.34    0.12
   4  -4 -11    1.20    0.10
   4   4 -10    0.05    0.05
   4   4 -10    0.02    0.07
  -4  -4  10   -0.04    0.06
   4  -4 -10    0.00    0.05
   4   4  -9    0.40    0.10
   4  -4  -9    0.23    0.08
  -4  -4   9    0.25    0.08
   4   4  -8    4.59    0.22
   4   4  -8    4.44    0.22
  -4  -4   8    4.20    0.23
   4  -4  -8    4.03    0.22
   4   4  -7    0.38    0.09
  -4   4   7    0.39    0.10
   4   4  -7    0.59    0.10
   4  -4  -7    0.30    0.08
  -4  -4   7    0.48    0.10
  -4   4   6    0.77    0.14
   4   4  -6    0.85    0.11
   4   4  -6    0.99    0.11
   4  -4  -6    0.87    0.10
  -4  -4   6    1.01    0.11
   4   4  -5    2.80    0.17
  -4   4   5    2.97    0.18
   4   4  -5    3.09    0.17
   4  -4  -5    2.79    0.17
  -4  -4   5    3.04    0.18
  -4   4   4    0.08    0.07
   4   4  -4   -0.01    0.05
   4   4  -4    0.00    0.06
  -4  -4   4    0.02    0.06
   4  -4  -4    0.05    0.05
   4   4  -3    0.30    0.10
  -4   4   3    0.11    0.06
   4   4  -3    0.15    0.06
  -4  -4   3    0.08    0.06
   4  -4  -3    0.10    0.06
  -4   4   2    5.51    0.27
   4   4  -2    5.60    0.27
   4   4  -2    5.51    0.28
  -4  -4   2    6.12    0.28
   4  -4  -2    6.01    0.28
   4   4  -1    0.96    0.13
   4   4  -1    0.89    0.10
  -4   4   1    0.82    0.11
  -4  -4   1    0.57    0.09
   4  -4  -1    0.66    0.09
  -4   4   0    0.99    0.14
  -4   4   0    0.84    0.10
   4   4   0    0.69    0.10
  -4  -4   0    0.89    0.10
   4  -4   0    0.88    0.10
  -4   4  -1    0.10    0.08
  -4   4  -1    0.03    0.06
   4   4   1    0.07    0.06
   4  -4   1    0.02    0.05
  -4  -4  -1    0.10    0.06
  -4   4  -2    5.46    0.28
   4   4   2    5.66    0.28
  -4   4  -2    5.72    0.27
   4  -4   2    6.51    0.29
  -4  -4  -2    5.92    0.28
  -4   4  -3    0.69    0.10
  -4   4  -3    0.78    0.11
   4   4   3    0.65    0.11
   4  -4   3    0.81    0.10
  -4  -4  -3    0.76    0.10
  -4   4  -4    2.77    0.16
  -4   4  -4    2.78    0.16
   4   4   4    2.91    0.17
  -4  -4  -4    2.64    0.16
   4  -4   4    2.75    0.17
  -4   4  -5    6.18    0.29
   4   4   5    6.57    0.30
  -4   4  -5    6.45    0.29
  -4  -4  -5    6.23    0.30
   4  -4   5    6.15    0.31
  -4   4  -6    0.09    0.05
   4   4   6    0.01    0.08
  -4   4  -6    0.11    0.06
  -4  -4  -6    0.02    0.06
   4  -4   6    0.08    0.06
  -4   4  -7    0.24    0.08
  -4   4  -7    0.06    0.05
   4   4   7    0.06    0.08
   4  -4   7    0.05    0.06
  -4  -4  -7    0.16    0.06
  -4  -4  -7    0.14    0.07
   4   4   8    1.05    0.15
  -4   4  -8    0.85    0.09
  -4   4  -8    0.78    0.10
  -4  -4  -8    0.85    0.11
  -4  -4  -8    0.71    0.09
   4  -4   8    0.83    0.11
  -4   4  -9    3.02    0.16
  -4   4  -9    3.05    0.16
  -4  -4  -9    2.49    0.16
  -4  -4  -9    3.02    0.16
   4  -4   9    2.62    0.17
  -4   4 -10    2.64    0.14
  -4   4 -10    2.20    0.14
  -4  -4 -10    2.27    0.15
  -4   4 -11    0.68    0.07
  -4  -4 -11    0.70    0.09
  -4   4 -12    1.73    0.10
  -4  -4 -12    1.47    0.12
  -4   4 -13    0.81    0.07
   4  -4  13    0.79    0.10
  -4  -4 -13    0.72    0.09
  -4   4 -14    1.52    0.09
   4  -4  14    1.45    0.11
  -4  -4 -14    1.40    0.12
  -4   4 -15    0.18    0.05
   4  -4  15    0.15    0.07
  -4   4 -16    0.08    0.04
   4   4  16    0.10    0.04
   4   5 -11    0.71    0.06
   4   5 -10    0.59    0.06
   4   5  -9    0.27    0.08
   4   5  -9    0.30    0.05
   4  -5  -9    0.42    0.08
   4   5  -8    0.17    0.06
   4   5  -8    0.07    0.05
  -4  -5   8    0.14    0.07
   4  -5  -8    0.12    0.06
   4   5  -7    0.01    0.04
   4   5  -7   -0.02    0.04
   4  -5  -7    0.04    0.06
  -4  -5   7   -0.08    0.07
  -4   5   6    1.89    0.13
   4   5  -6    1.88    0.11
   4   5  -6    1.99    0.11
  -4  -5   6    1.97    0.13
   4   5  -5    4.81    0.22
   4   5  -5    4.64    0.22
  -4   5   5    4.76    0.22
  -4  -5   5    4.75    0.24
   4  -5  -5    4.71    0.23
   4   5  -4    0.05    0.05
  -4   5   4    0.02    0.05
   4   5  -4    0.05    0.06
   4  -5  -4   -0.02    0.05
  -4  -5   4    0.03    0.07
   4   5  -3    0.53    0.10
  -4   5   3    0.32    0.08
   4   5  -3    0.40    0.07
   4  -5  -3    0.34    0.08
  -4  -5   3    0.45    0.09
  -4   5   2    0.49    0.08
   4   5  -2    0.60    0.08
   4  -5  -2    0.63    0.08
   4   5  -1    0.50    0.07
  -4   5   1    0.36    0.08
   4  -5  -1    0.52    0.08
  -4  -5   1    0.40    0.09
  -4   5   0    0.32    0.07
   4   5   0    0.41    0.07
  -4  -5   0    0.38    0.09
   4  -5   0    0.36    0.08
  -4   5  -1    0.55    0.08
   4   5   1    0.60    0.08
   4  -5   1    0.59    0.09
  -4  -5  -1    0.72    0.09
   4   5   2    0.03    0.05
  -4   5  -2   -0.05    0.04
  -4  -5  -2   -0.04    0.06
   4  -5   2    0.06    0.06
   4   5   3    0.23    0.08
  -4   5  -3    0.04    0.04
  -4   5  -3   -0.03    0.06
   4  -5   3    0.01    0.06
  -4  -5  -3    0.11    0.06
   4   5   4    1.78    0.12
  -4   5  -4    1.80    0.11
  -4   5  -4    1.64    0.11
  -4  -5  -4    1.55    0.12
   4  -5   4    1.81    0.12
  -4   5  -5    0.31    0.06
   4   5   5    0.50    0.08
  -4   5  -5    0.50    0.08
   4  -5   5    0.32    0.08
  -4  -5  -5    0.42    0.08
  -4   5  -6    1.00    0.09
  -4   5  -6    0.96    0.08
   4   5   6    1.03    0.10
  -4  -5  -6    1.01    0.10
   4  -5   6    1.14    0.10
  -4   5  -7    0.37    0.06
   4   5   7    0.61    0.11
  -4   5  -7    0.46    0.06
   4  -5   7    0.48    0.08
  -4  -5  -7    0.38    0.09
  -4   5  -8    0.28    0.06
  -4   5  -8    0.22    0.06
   4  -5   8    0.29    0.08
  -4  -5  -8    0.20    0.08
  -4   5  -9    0.60    0.08
  -4   5  -9    0.78    0.06
   4  -5   9    0.76    0.09
  -4   5 -10    0.52    0.05
  -4   5 -11    0.36    0.05
   5   0 -21    0.03    0.06
   5   0 -20   -0.01    0.06
   5   0 -19    0.03    0.05
   5   0 -18    0.06    0.05
   5   0 -18    0.06    0.04
   5   0 -17   -0.03    0.05
   5   0 -17    0.02    0.04
   5   0 -16    1.09    0.11
   5   0 -16    1.24    0.10
   5   0 -15    0.05    0.06
   5   0 -15   -0.05    0.04
   5   0 -14    5.81    0.26
   5   0 -14    5.67    0.27
   5   0 -13   -0.03    0.05
   5   0 -13    0.10    0.05
   5   0 -12    2.78    0.15
   5   0 -12    2.83    0.15
   5   0 -11   -0.07    0.11
   5   0 -11    0.06    0.05
   5   0 -11   -0.01    0.04
   5   0 -10    3.97    0.25
   5   0 -10    4.10    0.19
   5   0  -9    0.02    0.04
   5   0  -9   -0.03    0.06
  -5   0   9   -0.07    0.07
   5   0  -8    4.02    0.18
  -5   0   8    3.50    0.20
   5   0  -8    3.65    0.19
   5   0  -7   -0.01    0.03
  -5   0   7   -0.02    0.04
   5   0  -6    7.71    0.33
  -5   0   6    7.42    0.33
   5   0  -5   -0.03    0.02
  -5   0   5   -0.03    0.02
   5   0  -4  318.14   13.57
  -5   0   4  363.62   13.58
   5   0  -3    0.00    0.02
  -5   0   3    0.01    0.02
  -5   0   2   52.64    2.09
   5   0  -1    0.01    0.01
  -5   0   1    0.01    0.01
   5   0   0    4.34    0.19
  -5   0   0    4.59    0.19
  -5   0  -1    0.00    0.01
   5   0   1    0.01    0.01
   5   0   2   24.91    0.99
   5   0   3   -0.01    0.02
   5   0   3   -0.02    0.01
   5   0   4   30.40    1.22
   5   0   5    0.04    0.03
   5   0   6    0.71    0.06
   5   0   7   -0.01    0.04
  -5   0  -7    0.02    0.04
  -5   0  -8    0.12    0.04
   5   0   8    0.10    0.06
   5   0   9   -0.04    0.06
  -5   0  -9   -0.04    0.04
  -5   0 -10    4.72    0.22
   5   0  10    4.57    0.27
  -5   0 -11    0.14    0.06
  -5   0 -11    0.06    0.05
  -5   0 -12    4.63    0.25
  -5   0 -12    5.57    0.24
  -5   0 -12    4.93    0.24
  -5   0 -13    0.09    0.08
  -5   0 -13   -0.01    0.05
  -5   0 -13   -0.05    0.04
  -5   0 -14    2.33    0.14
  -5   0 -14    1.81    0.13
  -5   0 -15    0.00    0.05
  -5   0 -15    0.03    0.06
  -5   0 -16    0.29    0.08
  -5   0 -16    0.27    0.07
  -5   0 -17    0.03    0.04
  -5   0 -17    0.08    0.05
  -5   0 -18    3.44    0.16
  -5   0 -18    2.83    0.17
  -5   0 -19    0.05    0.05
  -5   0 -19    0.02    0.04
  -5   0 -20    1.88    0.13
  -5   0 -20    1.89    0.11
  -5   0 -21    0.12    0.07
   5   1 -21    1.91    0.14
  -5  -1  21    2.25    0.12
   5   1 -20    0.40    0.08
  -5   1  20    0.25    0.08
   5  -1 -20    0.37    0.08
   5   1 -19    0.03    0.05
  -5   1  19   -0.01    0.05
   5  -1 -19    0.04    0.06
   5  -1 -19    0.01    0.03
   5   1 -18    0.39    0.09
   5  -1 -18    0.25    0.08
   5  -1 -18    0.34    0.07
   5   1 -17    0.84    0.10
   5  -1 -17    0.93    0.09
   5  -1 -17    0.94    0.09
   5   1 -16    0.77    0.10
   5  -1 -16    0.82    0.09
   5  -1 -16    0.70    0.09
   5   1 -15    0.32    0.09
   5  -1 -15    0.25    0.06
   5   1 -14    5.85    0.28
   5  -1 -14    5.90    0.28
   5  -1 -14    5.84    0.27
   5   1 -13    0.03    0.05
   5  -1 -13    0.05    0.05
   5  -1 -13    0.08    0.05
   5   1 -12    0.39    0.09
   5   1 -12    0.52    0.08
   5  -1 -12    0.55    0.08
   5  -1 -12    0.56    0.09
   5  -1 -12    0.46    0.09
   5   1 -11    0.30    0.06
   5   1 -11    0.21    0.07
   5  -1 -11    0.20    0.06
   5  -1 -11    0.20    0.06
   5  -1 -11    0.35    0.16
   5  -1 -11    0.27    0.06
   5   1 -10    0.73    0.08
   5  -1 -10    0.67    0.09
   5  -1 -10    0.61    0.09
   5  -1 -10    0.70    0.07
   5  -1 -10    0.99    0.17
   5   1  -9    5.27    0.24
  -5   1   9    4.66    0.28
   5   1  -9    4.83    0.28
   5  -1  -9    5.26    0.23
   5  -1  -9    5.13    0.27
  -5   1   8    3.41    0.21
   5   1  -8    3.65    0.21
   5   1  -8    3.77    0.18
   5  -1  -8    3.76    0.20
   5  -1  -8    3.67    0.17
   5   1  -7    7.03    0.31
   5   1  -7    7.10    0.33
  -5   1   7    7.07    0.32
   5  -1  -7    7.07    0.31
  -5  -1   7    7.21    0.33
   5  -1  -7    7.37    0.32
  -5   1   6    5.01    0.23
   5   1  -6    5.21    0.24
  -5  -1   6    5.04    0.24
   5  -1  -6    4.80    0.22
   5  -1  -6    4.77    0.22
  -5   1   5   54.60    2.19
   5   1  -5   52.47    2.19
   5  -1  -5   53.00    2.18
  -5  -1   5   58.50    2.19
   5   1  -4   57.21    2.37
  -5   1   4   58.98    2.36
  -5  -1   4   63.52    2.37
   5  -1  -4   57.18    2.36
   5   1  -3    0.38    0.05
  -5   1   3    0.38    0.05
   5  -1  -3    0.33    0.04
  -5  -1   3    0.47    0.05
  -5   1   2   42.08    1.65
   5   1  -2   39.32    1.65
   5  -1  -2   40.52    1.65
  -5  -1   2   43.33    1.65
   5   1  -1   57.91    2.36
  -5   1   1   60.50    2.36
   5  -1  -1   56.03    2.36
  -5  -1   1   62.88    2.36
   5   1   0   17.91    0.72
  -5   1   0   18.47    0.73
  -5  -1   0   18.83    0.72
   5  -1   0   16.94    0.73
   5   1   1   21.77    0.84
  -5  -1  -1   21.88    0.83
   5  -1   1   19.28    0.85
   5  -1   2   40.56    1.63
   5  -1   3    2.57    0.13
   5  -1   3    2.49    0.13
   5  -1   4    1.46    0.10
   5  -1   5    0.34    0.08
  -5   1  -6   28.57    1.18
   5  -1   6   30.08    1.20
  -5   1  -7    5.86    0.26
   5   1   7    5.66    0.24
   5  -1   7    5.99    0.29
  -5  -1  -7    5.76    0.25
  -5   1  -8    8.40    0.36
   5   1   8    8.02    0.35
  -5  -1  -8    8.27    0.35
  -5   1  -9    9.09    0.38
   5   1   9    8.62    0.39
  -5  -1  -9    8.95    0.38
  -5   1 -10    0.25    0.06
  -5  -1 -10    0.26    0.06
  -5  -1 -10    0.33    0.10
  -5  -1 -10    0.12    0.06
  -5   1 -11    6.63    0.30
  -5  -1 -11    6.38    0.30
  -5  -1 -11    6.47    0.30
  -5  -1 -11    6.55    0.29
  -5   1 -12    7.61    0.34
  -5   1 -12    7.00    0.34
  -5  -1 -12    7.70    0.34
  -5  -1 -12    7.97    0.34
  -5  -1 -12    7.75    0.34
  -5   1 -13    1.55    0.11
  -5   1 -13    1.44    0.13
  -5  -1 -13    1.60    0.11
  -5  -1 -13    1.38    0.11
  -5  -1 -13    1.48    0.11
  -5   1 -14   12.85    0.56
  -5   1 -14   12.33    0.54
  -5  -1 -14   12.39    0.54
  -5  -1 -14   12.88    0.54
  -5  -1 -14   13.56    0.55
  -5   1 -15    1.25    0.12
  -5   1 -15    1.42    0.12
  -5  -1 -15    1.21    0.11
  -5  -1 -15    1.24    0.11
  -5  -1 -15    1.22    0.10
  -5   1 -16    0.97    0.11
  -5   1 -16    1.00    0.11
  -5  -1 -16    1.18    0.09
  -5  -1 -16    1.15    0.10
  -5  -1 -16    1.04    0.11
  -5   1 -17    0.62    0.10
  -5   1 -17    0.73    0.09
  -5  -1 -17    0.73    0.08
  -5  -1 -17    0.84    0.10
  -5  -1 -17    0.63    0.09
  -5   1 -18    0.40    0.09
  -5  -1 -18    0.42    0.09
  -5  -1 -18    0.47    0.07
  -5   1 -19    0.07    0.05
  -5  -1 -19    0.04    0.03
  -5  -1 -19   -0.06    0.06
  -5   1 -20    0.11    0.06
  -5  -1 -20    0.03    0.06
  -5  -1 -20    0.02    0.03
  -5   1 -21   -0.02    0.07
  -5  -1 -21   -0.01    0.07
  -5  -1 -21    0.02    0.03
  -5   2  20    1.04    0.07
   5  -2 -20    1.10    0.10
   5   2 -19    0.03    0.06
  -5   2  19    0.06    0.04
   5  -2 -19    0.00    0.03
   5  -2 -19    0.00    0.06
   5   2 -18    2.56    0.16
   5  -2 -18    2.46    0.13
   5  -2 -18    2.49    0.15
   5   2 -17    3.05    0.18
   5  -2 -17    3.31    0.16
  -5  -2  17    3.17    0.19
   5  -2 -17    3.07    0.17
   5   2 -16   -0.02    0.08
   5   2 -16    0.19    0.07
  -5  -2  16    0.19    0.08
   5  -2 -16    0.12    0.05
   5  -2 -16    0.11    0.06
   5   2 -15    0.20    0.07
   5   2 -15    0.31    0.09
   5  -2 -15    0.26    0.08
   5  -2 -15    0.24    0.05
  -5  -2  15    0.29    0.09
   5   2 -14    2.37    0.17
   5   2 -14    2.39    0.16
   5  -2 -14    2.33    0.15
   5  -2 -14    2.62    0.14
   5   2 -13    0.77    0.12
   5   2 -13    0.68    0.10
   5  -2 -13    0.44    0.08
   5  -2 -13    0.49    0.09
   5   2 -12    1.90    0.14
   5   2 -12    1.83    0.14
   5  -2 -12    1.79    0.13
   5  -2 -12    2.02    0.13
   5   2 -11    0.89    0.10
   5   2 -11    0.45    0.11
   5  -2 -11    0.63    0.10
   5  -2 -11    0.53    0.08
   5  -2 -11    0.70    0.08
   5   2 -10    1.35    0.11
   5   2 -10    1.17    0.13
   5  -2 -10    1.19    0.10
   5  -2 -10    1.24    0.09
   5  -2 -10    1.19    0.12
   5   2  -9    0.31    0.08
   5   2  -9    0.12    0.08
   5  -2  -9    0.10    0.05
   5  -2  -9    0.41    0.12
   5  -2  -9    0.11    0.04
   5   2  -8    1.09    0.13
   5   2  -8    1.33    0.10
   5  -2  -8    1.13    0.09
   5  -2  -8    0.94    0.10
   5   2  -7    0.37    0.11
   5   2  -7    0.26    0.08
   5  -2  -7    0.17    0.08
   5  -2  -7    0.30    0.06
   5   2  -6   16.74    0.73
   5   2  -6   17.19    0.70
  -5   2   6   16.31    0.71
   5  -2  -6   16.40    0.70
   5  -2  -6   17.00    0.69
   5   2  -5    5.39    0.28
  -5   2   5    5.21    0.26
   5   2  -5    5.24    0.25
  -5  -2   5    5.14    0.28
   5  -2  -5    5.43    0.25
   5  -2  -5    5.45    0.24
   5   2  -4    8.69    0.39
  -5   2   4    9.48    0.41
   5   2  -4    9.49    0.42
   5  -2  -4    9.36    0.40
   5  -2  -4    9.03    0.39
  -5  -2   4    9.36    0.42
   5   2  -3    2.49    0.14
   5  -2  -3    2.49    0.13
  -5  -2   3    2.52    0.15
   5  -2  -3    2.76    0.14
   5  -2  -2    4.69    0.22
  -5  -2   2    4.84    0.22
   5  -2  -2    4.53    0.21
  -5  -2   1   14.97    0.61
   5  -2  -1   14.03    0.60
   5  -2  -1   14.98    0.61
  -5  -2   0    0.53    0.07
  -5  -2   0    0.49    0.06
   5  -2   0    0.32    0.06
   5  -2   0    0.44    0.07
  -5  -2   0    0.46    0.06
  -5  -2  -1    0.13    0.04
  -5  -2  -1    0.29    0.06
   5  -2   1    0.13    0.06
   5  -2   1    0.14    0.05
  -5  -2  -1    0.19    0.04
   5  -2   2    0.51    0.08
  -5  -2  -2    0.46    0.06
   5  -2   2    0.39    0.12
  -5   2  -3    7.60    0.33
  -5  -2  -3    7.25    0.32
   5  -2   3    7.25    0.36
   5  -2   3    8.06    0.35
  -5   2  -4    1.71    0.11
   5  -2   4    1.74    0.14
   5  -2   4    2.19    0.18
  -5  -2  -4    1.62    0.10
  -5   2  -5    1.39    0.10
   5  -2   5    1.43    0.14
  -5  -2  -5    1.28    0.09
  -5   2  -6    5.07    0.24
  -5  -2  -6    5.13    0.23
   5  -2   6    5.03    0.29
  -5   2  -7    0.27    0.06
  -5  -2  -7    0.28    0.06
   5  -2   7    0.34    0.11
  -5   2  -8    1.71    0.11
  -5   2  -8    1.25    0.14
  -5  -2  -8    1.26    0.12
  -5  -2  -8    1.40    0.14
  -5  -2  -8    1.48    0.10
  -5   2  -9    0.40    0.08
  -5   2  -9    0.55    0.10
  -5  -2  -9    0.49    0.11
  -5  -2  -9    0.37    0.09
  -5  -2  -9    0.51    0.07
  -5   2 -10    4.13    0.23
  -5   2 -10    4.50    0.23
  -5  -2 -10    4.57    0.23
  -5  -2 -10    4.59    0.22
  -5  -2 -10    4.52    0.22
  -5   2 -11    0.23    0.08
  -5   2 -11    0.22    0.08
  -5  -2 -11    0.38    0.10
  -5  -2 -11    0.12    0.05
  -5  -2 -11    0.15    0.06
  -5   2 -12    1.83    0.13
  -5   2 -12    1.62    0.14
  -5  -2 -12    1.89    0.13
  -5  -2 -12    1.79    0.12
  -5  -2 -12    1.71    0.12
  -5   2 -13    0.81    0.12
  -5   2 -13    0.86    0.10
  -5  -2 -13    0.64    0.10
  -5  -2 -13    0.87    0.10
  -5  -2 -13    0.74    0.09
  -5   2 -14    2.69    0.17
  -5   2 -14    2.85    0.17
  -5  -2 -14    2.99    0.16
  -5  -2 -14    2.82    0.16
  -5  -2 -14    2.68    0.17
  -5   2 -15    0.53    0.12
  -5   2 -15    0.62    0.10
  -5  -2 -15    0.67    0.09
  -5  -2 -15    0.71    0.08
  -5  -2 -15    0.72    0.08
  -5   2 -16    0.04    0.06
  -5  -2 -16   -0.01    0.04
  -5  -2 -16   -0.01    0.06
  -5  -2 -16    0.00    0.04
  -5   2 -17    0.15    0.06
  -5  -2 -17    0.12    0.04
  -5  -2 -17    0.08    0.04
  -5  -2 -17    0.16    0.07
  -5   2 -18    0.59    0.09
  -5  -2 -18    0.65    0.07
  -5  -2 -18    0.79    0.09
  -5   2 -19    0.17    0.06
  -5  -2 -19    0.22    0.05
  -5  -2 -19    0.24    0.09
  -5   2 -20    1.32    0.11
  -5  -2 -20    1.12    0.07
  -5  -2 -21    0.02    0.03
  -5   3  19    0.21    0.04
  -5   3  18    1.25    0.07
   5  -3 -18    1.06    0.10
   5   3 -17    0.10    0.06
  -5   3  17    0.16    0.05
   5  -3 -17    0.03    0.06
   5   3 -16    1.73    0.11
   5  -3 -16    1.68    0.11
   5  -3 -16    1.76    0.12
   5   3 -15    1.19    0.10
   5  -3 -15    1.22    0.10
   5  -3 -15    1.27    0.10
   5   3 -14    0.55    0.10
   5   3 -14    0.79    0.09
   5  -3 -14    0.44    0.09
   5  -3 -14    0.62    0.09
   5   3 -13    0.33    0.09
   5   3 -13    0.47    0.10
   5  -3 -13    0.48    0.11
   5  -3 -13    0.40    0.08
   5   3 -12    0.54    0.10
   5   3 -12    0.66    0.10
   5  -3 -12    0.42    0.08
   5  -3 -12    0.59    0.11
   5   3 -11    1.17    0.12
   5   3 -11    1.16    0.11
   5  -3 -11    1.06    0.10
   5  -3 -11    0.80    0.14
   5   3 -10    0.00    0.06
   5   3 -10   -0.07    0.05
   5  -3 -10   -0.02    0.05
   5   3  -9    1.56    0.13
   5   3  -9    1.46    0.16
   5  -3  -9    1.52    0.11
   5   3  -8    0.11    0.08
   5   3  -8    0.05    0.06
   5  -3  -8    0.05    0.05
   5   3  -7    0.61    0.10
   5   3  -7    0.62    0.13
   5  -3  -7    0.76    0.08
   5   3  -6    5.73    0.28
   5   3  -6    5.96    0.28
  -5   3   6    5.20    0.30
   5  -3  -6    5.96    0.27
  -5   3   5    0.96    0.16
   5   3  -5    1.16    0.13
   5   3  -5    0.93    0.12
   5  -3  -5    1.02    0.09
   5   3  -4    0.69    0.11
   5   3  -4    0.97    0.12
  -5   3   4    0.79    0.14
   5  -3  -4    1.00    0.08
   5   3  -3    6.38    0.30
   5   3  -3    6.51    0.31
  -5   3   3    6.16    0.30
   5  -3  -3    6.61    0.29
   5   3  -2    0.25    0.07
   5   3  -2    0.33    0.09
  -5   3   2    0.42    0.12
  -5  -3   2    0.22    0.08
   5  -3  -2    0.25    0.06
  -5   3   1    2.73    0.17
   5   3  -1    2.95    0.17
   5   3  -1    2.53    0.19
   5  -3  -1    2.83    0.15
  -5  -3   1    3.03    0.16
  -5   3   0    0.03    0.06
   5   3   0    0.03    0.07
  -5  -3   0   -0.01    0.05
   5  -3   0    0.17    0.15
   5  -3   0    0.00    0.04
  -5   3  -1    7.21    0.35
  -5   3  -1    7.63    0.35
   5   3   1    7.85    0.35
  -5  -3  -1    8.50    0.35
   5  -3   1    7.41    0.42
   5  -3   1    7.92    0.35
  -5   3  -2    2.56    0.17
   5   3   2    2.47    0.17
  -5   3  -2    2.58    0.16
  -5  -3  -2    2.57    0.15
   5  -3   2    2.66    0.15
  -5   3  -3    0.29    0.09
   5   3   3    0.20    0.08
  -5   3  -3    0.31    0.10
  -5  -3  -3    0.14    0.05
  -5   3  -4    0.37    0.09
  -5   3  -4    0.36    0.11
   5   3   4    0.70    0.13
  -5  -3  -4    0.43    0.09
  -5  -3  -4    0.55    0.08
  -5   3  -5    0.44    0.10
   5   3   5    0.12    0.09
  -5   3  -5    0.23    0.06
  -5  -3  -5    0.19    0.12
  -5  -3  -5    0.24    0.07
  -5  -3  -5    0.53    0.12
   5   3   6    5.67    0.31
  -5   3  -6    6.28    0.29
  -5   3  -6    6.28    0.29
  -5  -3  -6    6.15    0.31
  -5  -3  -6    6.46    0.29
  -5  -3  -6    6.48    0.30
   5   3   7    0.11    0.10
  -5   3  -7    0.09    0.06
  -5   3  -7    0.01    0.05
  -5  -3  -7    0.10    0.05
  -5  -3  -7    0.14    0.06
  -5  -3  -7    0.08    0.09
  -5   3  -8    0.80    0.10
   5   3   8    0.79    0.26
  -5   3  -8    0.94    0.11
  -5  -3  -8    0.85    0.11
  -5  -3  -8    0.90    0.14
  -5  -3  -8    1.04    0.10
  -5   3  -9    0.51    0.09
  -5   3  -9    0.36    0.10
  -5   3  -9    0.47    0.13
  -5  -3  -9    0.29    0.09
  -5  -3  -9    0.36    0.12
  -5  -3  -9    0.59    0.09
  -5   3 -10    9.94    0.44
  -5   3 -10    9.50    0.44
  -5   3 -10   10.68    0.46
  -5  -3 -10    9.89    0.44
  -5  -3 -10   10.11    0.44
  -5  -3 -10   10.42    0.45
  -5   3 -11    9.04    0.43
  -5   3 -11    8.98    0.41
  -5  -3 -11    8.95    0.41
  -5  -3 -11    9.64    0.41
  -5  -3 -11    9.58    0.41
  -5   3 -12    2.98    0.16
  -5   3 -12    2.58    0.17
  -5  -3 -12    2.91    0.17
  -5  -3 -12    2.89    0.16
  -5  -3 -12    2.45    0.16
  -5   3 -13    1.24    0.10
  -5   3 -13    0.87    0.10
  -5  -3 -13    0.90    0.10
  -5  -3 -13    0.91    0.10
  -5  -3 -13    1.03    0.09
  -5   3 -14    1.75    0.14
  -5   3 -14    1.91    0.13
  -5  -3 -14    1.91    0.12
  -5  -3 -14    1.91    0.12
  -5  -3 -14    1.67    0.13
  -5   3 -15    0.17    0.05
  -5  -3 -15    0.19    0.06
  -5  -3 -15    0.17    0.07
  -5  -3 -15    0.15    0.05
  -5   3 -16    1.09    0.09
  -5  -3 -16    0.91    0.10
  -5  -3 -16    0.76    0.08
  -5   3 -17    1.54    0.11
  -5  -3 -17    1.18    0.11
  -5  -3 -17    1.20    0.08
  -5  -3 -18    0.24    0.05
  -5  -3 -19    0.39    0.05
  -5   4  16    0.06    0.03
   5   4 -16    0.10    0.04
  -5   4  15    0.28    0.05
   5   4 -15    0.24    0.05
  -5   4  14    0.83    0.07
   5   4 -14    0.84    0.07
  -5  -4  14    0.84    0.11
   5  -4 -14    0.74    0.09
   5   4 -13    0.05    0.04
  -5   4  13    0.05    0.04
   5  -4 -13    0.07    0.06
  -5  -4  13    0.00    0.08
   5   4 -12   -0.07    0.04
  -5   4  12    0.02    0.04
  -5  -4  12   -0.03    0.07
   5  -4 -12    0.01    0.05
   5   4 -11    0.82    0.09
  -5  -4  11    0.89    0.11
   5  -4 -11    0.89    0.09
   5   4 -10    0.60    0.09
  -5  -4  10    0.41    0.10
   5  -4 -10    0.45    0.08
   5   4  -9    0.65    0.11
   5   4  -9    0.80    0.09
   5  -4  -9    0.63    0.09
  -5  -4   9    0.49    0.10
   5   4  -8    3.09    0.17
   5   4  -8    3.22    0.18
  -5  -4   8    3.13    0.18
   5  -4  -8    2.97    0.17
   5   4  -7    0.50    0.10
   5   4  -7    0.67    0.10
  -5   4   7    0.65    0.15
  -5  -4   7    0.66    0.10
   5  -4  -7    0.59    0.08
   5   4  -6    1.77    0.13
   5   4  -6    1.84    0.13
  -5   4   6    1.69    0.15
  -5  -4   6    1.70    0.14
   5  -4  -6    1.54    0.12
   5   4  -5    0.45    0.10
   5   4  -5    0.36    0.10
  -5   4   5    0.53    0.12
   5  -4  -5    0.42    0.08
  -5  -4   5    0.27    0.09
   5   4  -4    0.35    0.10
  -5   4   4    0.48    0.11
   5   4  -4    0.42    0.09
  -5  -4   4    0.40    0.09
   5  -4  -4    0.23    0.06
   5   4  -3    1.12    0.12
   5   4  -3    1.16    0.12
  -5   4   3    1.08    0.11
  -5  -4   3    1.12    0.11
   5  -4  -3    1.09    0.10
   5   4  -2    3.73    0.21
   5   4  -2    3.76    0.20
  -5   4   2    3.86    0.20
   5  -4  -2    3.99    0.21
  -5  -4   2    3.87    0.21
   5   4  -1    0.10    0.06
   5   4  -1    0.27    0.09
  -5   4   1    0.12    0.07
  -5  -4   1    0.03    0.06
  -5   4   0    3.50    0.19
  -5   4   0    3.55    0.21
   5   4   0    3.67    0.20
  -5  -4   0    3.64    0.20
   5  -4   0    3.76    0.20
  -5   4  -1    0.21    0.08
  -5   4  -1    0.01    0.06
   5   4   1    0.08    0.06
   5  -4   1    0.04    0.05
  -5  -4  -1   -0.03    0.06
  -5   4  -2    3.52    0.19
  -5   4  -2    3.25    0.19
   5   4   2    3.53    0.20
   5  -4   2    3.94    0.21
  -5  -4  -2    3.95    0.20
  -5   4  -3    3.06    0.18
   5   4   3    3.18    0.19
  -5   4  -3    3.40    0.18
   5  -4   3    3.78    0.20
  -5  -4  -3    3.46    0.19
   5   4   4    1.00    0.13
  -5   4  -4    1.07    0.11
  -5   4  -4    1.00    0.11
  -5  -4  -4    1.05    0.11
   5  -4   4    1.00    0.11
  -5   4  -5    5.85    0.28
   5   4   5    6.03    0.29
  -5   4  -5    6.13    0.28
  -5  -4  -5    5.89    0.29
   5  -4   5    5.99    0.29
   5   4   6    1.03    0.13
  -5   4  -6    0.98    0.10
  -5   4  -6    0.77    0.10
   5  -4   6    0.76    0.10
  -5  -4  -6    0.75    0.10
  -5   4  -7    0.02    0.06
   5   4   7    0.07    0.08
  -5   4  -7    0.02    0.05
  -5  -4  -7    0.02    0.06
   5  -4   7    0.06    0.07
  -5  -4  -7   -0.05    0.07
   5   4   8    0.16    0.09
  -5   4  -8    0.06    0.05
  -5   4  -8    0.05    0.05
  -5  -4  -8   -0.04    0.06
   5  -4   8    0.05    0.06
  -5  -4  -8    0.05    0.06
  -5   4  -9    5.22    0.24
  -5   4  -9    5.32    0.24
  -5  -4  -9    5.16    0.24
   5  -4   9    4.86    0.26
  -5  -4  -9    4.71    0.25
  -5   4 -10    0.58    0.09
  -5   4 -10    0.39    0.07
  -5  -4 -10    0.36    0.08
  -5  -4 -10    0.21    0.07
  -5   4 -11    3.15    0.16
  -5  -4 -11    2.61    0.16
  -5   4 -12    0.62    0.07
  -5  -4 -12    0.52    0.09
  -5   4 -13    0.06    0.04
  -5  -4 -13    0.08    0.08
   5  -4  13    0.00    0.06
  -5   4 -14    0.55    0.06
  -5  -4 -14    0.43    0.10
   5  -4  14    0.74    0.09
  -5   4 -15    0.04    0.04
   5  -4  15    0.02    0.06
  -5   4 -16    0.44    0.06
   5   5 -11    0.78    0.06
   5   5 -10   -0.03    0.03
   5   5  -9    0.01    0.03
   5  -5  -9    0.02    0.06
   5   5  -8    1.08    0.09
   5   5  -8    1.04    0.08
  -5  -5   8    1.00    0.11
   5  -5  -8    1.01    0.09
   5   5  -7    0.50    0.07
   5   5  -7    0.56    0.07
   5  -5  -7    0.48    0.08
  -5  -5   7    0.48    0.10
  -5   5   6    0.00    0.07
  -5  -5   6    0.10    0.08
   5   5  -5    0.24    0.07
  -5   5   5    0.27    0.09
   5   5  -5    0.10    0.06
   5  -5  -5    0.11    0.05
  -5  -5   5   -0.01    0.07
  -5   5   4    1.38    0.11
   5   5  -4    1.42    0.10
   5   5  -4    1.44    0.11
   5  -5  -4    1.44    0.11
  -5  -5   4    1.39    0.12
   5   5  -3    1.60    0.11
   5   5  -3    1.83    0.13
  -5   5   3    1.49    0.11
  -5  -5   3    1.41    0.12
   5  -5  -3    1.75    0.12
  -5   5   2    0.08    0.05
   5   5  -2    0.20    0.07
  -5  -5   2    0.13    0.07
   5  -5  -2    0.22    0.07
  -5   5   1    0.70    0.08
   5   5  -1    0.99    0.09
  -5  -5   1    0.69    0.10
   5  -5  -1    0.92    0.09
  -5   5   0    0.01    0.04
   5   5   0   -0.01    0.05
  -5  -5   0    0.16    0.07
   5  -5   0   -0.01    0.06
   5   5   1    0.14    0.05
  -5   5  -1    0.24    0.07
   5  -5   1    0.23    0.08
  -5  -5  -1    0.14    0.07
   5   5   2    0.33    0.08
  -5   5  -2    0.30    0.07
   5  -5   2    0.36    0.08
  -5  -5  -2    0.33    0.09
  -5   5  -3   -0.03    0.04
   5   5   3   -0.04    0.05
  -5   5  -3    0.10    0.07
   5  -5   3   -0.02    0.05
  -5  -5  -3    0.07    0.07
   5   5   4    3.28    0.16
  -5   5  -4    3.09    0.16
  -5   5  -4    3.06    0.15
   5  -5   4    3.26    0.17
  -5  -5  -4    2.92    0.17
  -5   5  -5    0.63    0.07
  -5   5  -5    0.53    0.07
   5   5   5    0.55    0.09
  -5  -5  -5    0.60    0.09
   5  -5   5    0.56    0.09
  -5   5  -6    0.96    0.08
   5   5   6    0.91    0.10
  -5   5  -6    0.90    0.08
  -5  -5  -6    1.00    0.11
   5  -5   6    1.11    0.10
  -5   5  -7    0.03    0.03
   5   5   7    0.01    0.07
  -5   5  -7    0.07    0.04
   5  -5   7    0.00    0.06
  -5  -5  -7   -0.01    0.07
  -5   5  -8    0.31    0.06
  -5   5  -8    0.35    0.06
  -5  -5  -8    0.16    0.08
   5  -5   8    0.32    0.08
  -5   5  -9    4.07    0.19
  -5   5  -9    4.19    0.19
   5  -5   9    4.23    0.21
  -5   5 -10    0.30    0.05
  -5   5 -11    0.50    0.05
  -6   0  22    0.28    0.06
   6   0 -21    0.07    0.07
   6   0 -20   -0.06    0.06
   6   0 -19    0.03    0.05
   6   0 -18    3.45    0.19
   6   0 -17   -0.02    0.04
   6   0 -17    0.05    0.06
  -6   0  16    5.04    0.29
   6   0 -16    5.55    0.25
   6   0 -16    5.21    0.26
   6   0 -15    0.10    0.06
   6   0 -15   -0.07    0.04
   6   0 -14   16.66    0.69
   6   0 -14   15.97    0.68
   6   0 -13    0.01    0.05
   6   0 -13    0.02    0.04
   6   0 -12    0.88    0.09
   6   0 -12    0.92    0.10
   6   0 -11   -0.05    0.04
   6   0 -11    0.02    0.05
   6   0 -10    0.07    0.09
   6   0 -10    0.04    0.04
   6   0  -9    0.06    0.04
   6   0  -9    0.04    0.06
   6   0  -8   17.49    0.67
  -6   0   8   15.06    0.69
   6   0  -8   16.47    0.69
   6   0  -7   -0.01    0.03
  -6   0   7   -0.02    0.04
   6   0  -6    2.10    0.12
  -6   0   6    2.23    0.12
  -6   0   5    0.03    0.03
   6   0  -5   -0.03    0.02
  -6   0   4   43.62    1.69
   6   0  -4   40.88    1.69
   6   0  -3   -0.01    0.02
  -6   0   3    0.02    0.02
   6   0  -2   33.68    1.38
  -6   0   2   35.27    1.38
  -6   0   1    0.01    0.02
   6   0  -1    0.00    0.01
   6   0   0   34.36    1.41
  -6   0   0   36.47    1.41
   6   0   1    0.01    0.01
  -6   0  -1   -0.01    0.01
   6   0   2   11.71    0.47
   6   0   3    0.00    0.01
   6   0   4    3.73    0.17
   6   0   4    3.81    0.17
   6   0   5    0.02    0.03
   6   0   6    0.68    0.07
  -6   0  -7   -0.03    0.04
   6   0   7   -0.01    0.04
   6   0   8    3.94    0.21
  -6   0  -8    4.06    0.19
   6   0   9    0.06    0.08
  -6   0  -9   -0.04    0.04
   6   0  10    1.77    0.20
  -6   0 -10    1.68    0.11
  -6   0 -11    0.07    0.06
  -6   0 -11    0.07    0.05
  -6   0 -12    0.00    0.04
  -6   0 -12   -0.06    0.08
  -6   0 -12    0.04    0.06
  -6   0 -13    0.11    0.07
  -6   0 -13   -0.03    0.04
  -6   0 -14    2.01    0.13
  -6   0 -14    2.32    0.14
  -6   0 -15    0.01    0.05
  -6   0 -15    0.03    0.06
  -6   0 -16    0.23    0.08
  -6   0 -17    0.07    0.05
  -6   0 -17    0.04    0.04
  -6   0 -18    6.14    0.25
  -6   0 -18    4.91    0.26
  -6   0 -19   -0.04    0.04
  -6   0 -19   -0.03    0.06
  -6   0 -20    0.30    0.08
  -6   0 -20    0.26    0.06
  -6   0 -21    0.12    0.08
  -6  -1  21    0.51    0.08
   6  -1 -21    0.41    0.09
   6   1 -20    3.21    0.18
  -6   1  20    3.39    0.16
  -6  -1  20    3.27    0.16
   6  -1 -20    3.11    0.17
  -6   1  19    2.40    0.13
   6   1 -19    2.17    0.14
   6  -1 -19    2.20    0.14
   6  -1 -19    2.31    0.12
  -6   1  18    1.62    0.11
   6   1 -18    1.64    0.13
   6  -1 -18    1.39    0.12
   6  -1 -18    1.52    0.10
   6   1 -17    0.97    0.10
   6  -1 -17    0.99    0.09
   6  -1 -17    0.93    0.10
   6   1 -16    0.83    0.11
   6  -1 -16    1.03    0.09
   6  -1 -16    0.92    0.10
   6   1 -15    1.54    0.13
   6  -1 -15    1.68    0.12
   6  -1 -15    1.65    0.12
   6   1 -14   12.33    0.52
   6  -1 -14   11.63    0.51
   6  -1 -14   12.03    0.52
   6   1 -13    0.56    0.09
   6  -1 -13    0.49    0.08
   6  -1 -13    0.63    0.08
   6   1 -12    1.80    0.12
   6   1 -12    1.68    0.12
   6  -1 -12    1.80    0.12
   6  -1 -12    1.66    0.12
   6   1 -11    0.26    0.09
   6   1 -11    0.22    0.07
   6  -1 -11    0.03    0.16
   6  -1 -11    0.22    0.06
   6  -1 -11    0.47    0.09
   6   1 -10    1.89    0.12
   6  -1 -10    1.55    0.12
   6  -1 -10    1.56    0.12
   6  -1 -10    1.81    0.11
   6  -1 -10    1.72    0.20
   6   1  -9    3.46    0.17
   6   1  -9    3.22    0.23
   6  -1  -9    3.58    0.17
   6  -1  -9    3.40    0.21
   6   1  -8    7.07    0.35
  -6   1   8    6.79    0.35
   6   1  -8    7.68    0.32
   6  -1  -8    7.62    0.34
   6  -1  -8    7.60    0.32
  -6   1   7   10.66    0.47
   6   1  -7   10.69    0.45
   6   1  -7   10.99    0.48
  -6  -1   7   10.56    0.48
   6  -1  -7   10.91    0.45
   6  -1  -7   10.94    0.46
   6   1  -6  140.85    5.66
  -6   1   6  144.38    5.65
   6  -1  -6  140.05    5.65
   6  -1  -6  137.71    5.64
  -6  -1   6  147.80    5.66
  -6   1   5    1.59    0.10
   6   1  -5    1.20    0.09
  -6  -1   5    1.42    0.10
   6  -1  -5    1.20    0.08
   6   1  -4    0.50    0.06
  -6   1   4    0.54    0.06
  -6  -1   4    0.61    0.06
   6  -1  -4    0.50    0.05
   6   1  -3    0.15    0.04
  -6   1   3    0.12    0.04
  -6  -1   3    0.15    0.04
   6  -1  -3    0.16    0.04
  -6   1   2   10.26    0.42
   6   1  -2    9.51    0.42
  -6  -1   2   10.79    0.42
   6  -1  -2   10.00    0.42
  -6   1   1    8.13    0.33
   6   1  -1    7.54    0.33
   6  -1  -1    7.49    0.33
  -6  -1   1    8.25    0.33
   6   1   0   44.12    1.84
  -6   1   0   47.45    1.85
  -6  -1   0   48.53    1.84
   6  -1   0   45.44    1.85
   6   1   1   21.94    0.88
  -6  -1  -1   23.26    0.88
   6  -1   1   21.17    0.90
   6  -1   2   21.46    0.87
   6  -1   3    4.46    0.21
   6  -1   3    4.45    0.20
   6  -1   4    1.79    0.11
   6  -1   4    1.74    0.12
   6  -1   5    1.05    0.10
  -6   1  -6    1.60    0.10
  -6  -1  -6    1.24    0.09
   6  -1   6    1.71    0.13
  -6   1  -7    0.01    0.04
   6  -1   7   -0.09    0.07
  -6  -1  -7    0.03    0.04
  -6   1  -8    0.34    0.07
   6   1   8    0.38    0.06
   6   1   8    0.29    0.06
  -6  -1  -8    0.41    0.06
   6   1   9   23.92    0.99
  -6   1  -9   24.73    1.00
  -6  -1  -9   24.73    0.99
  -6   1 -10   12.27    0.50
  -6  -1 -10   12.03    0.49
  -6  -1 -10   10.96    0.49
  -6  -1 -10   11.13    0.49
  -6   1 -11    3.16    0.17
  -6  -1 -11    3.17    0.17
  -6  -1 -11    3.12    0.16
  -6  -1 -11    3.01    0.17
  -6   1 -12    6.33    0.33
  -6   1 -12    7.50    0.33
  -6  -1 -12    7.47    0.33
  -6  -1 -12    7.10    0.33
  -6  -1 -12    7.79    0.33
  -6   1 -13    0.13    0.05
  -6   1 -13    0.23    0.07
  -6  -1 -13    0.24    0.08
  -6  -1 -13    0.15    0.05
  -6  -1 -13    0.18    0.05
  -6   1 -14    4.00    0.20
  -6   1 -14    3.16    0.20
  -6  -1 -14    3.88    0.20
  -6  -1 -14    3.75    0.19
  -6  -1 -14    3.84    0.19
  -6   1 -15    1.38    0.12
  -6   1 -15    1.16    0.12
  -6  -1 -15    1.17    0.11
  -6  -1 -15    1.26    0.11
  -6  -1 -15    1.27    0.10
  -6   1 -16    2.34    0.15
  -6  -1 -16    2.32    0.15
  -6  -1 -16    2.65    0.14
  -6  -1 -16    2.47    0.14
  -6   1 -17   -0.02    0.06
  -6   1 -17    0.01    0.06
  -6  -1 -17   -0.02    0.04
  -6  -1 -17    0.10    0.06
  -6  -1 -17    0.03    0.05
  -6   1 -18    0.00    0.06
  -6  -1 -18    0.00    0.04
  -6  -1 -18    0.05    0.06
  -6   1 -19    0.04    0.05
  -6  -1 -19    0.07    0.06
  -6  -1 -19    0.08    0.03
  -6   1 -20    0.70    0.09
  -6  -1 -20    0.73    0.09
  -6  -1 -20    0.68    0.06
  -6  -1 -21    1.76    0.09
  -6   2  20    3.06    0.13
   6  -2 -20    2.40    0.20
   6   2 -19    1.91    0.13
  -6   2  19    1.90    0.10
   6  -2 -19    1.79    0.12
   6   2 -18    0.30    0.09
  -6   2  18    0.28    0.06
   6  -2 -18    0.36    0.06
   6  -2 -18    0.33    0.08
   6   2 -17    1.63    0.13
   6  -2 -17    1.72    0.12
   6  -2 -17    1.85    0.11
  -6  -2  17    1.68    0.14
   6   2 -16    0.59    0.10
  -6  -2  16    0.76    0.13
   6  -2 -16    0.69    0.09
   6  -2 -16    0.69    0.08
   6   2 -15    1.50    0.13
   6   2 -15    1.33    0.14
   6  -2 -15    1.40    0.11
  -6  -2  15    1.50    0.14
   6  -2 -15    1.27    0.11
   6   2 -14    5.21    0.27
   6   2 -14    5.39    0.27
   6  -2 -14    5.20    0.26
   6  -2 -14    5.57    0.25
  -6  -2  14    5.20    0.27
   6   2 -13    1.57    0.13
   6   2 -13    1.58    0.14
   6  -2 -13    1.55    0.12
   6  -2 -13    1.57    0.12
   6   2 -12    2.57    0.16
   6   2 -12    2.54    0.17
   6  -2 -12    2.50    0.15
   6  -2 -12    2.61    0.15
   6   2 -11    0.10    0.06
   6   2 -11    0.08    0.07
   6  -2 -11    0.09    0.06
   6   2 -10    0.12    0.06
   6   2 -10    0.14    0.07
   6  -2 -10    0.12    0.07
   6  -2 -10    0.14    0.05
   6  -2 -10    0.13    0.05
   6   2  -9    0.28    0.08
   6   2  -9    0.33    0.08
   6  -2  -9    0.25    0.06
   6  -2  -9    0.21    0.05
   6  -2  -9    0.22    0.08
  -6  -2   9    0.15    0.11
   6   2  -8    3.54    0.20
   6   2  -8    3.95    0.20
   6  -2  -8    3.57    0.19
   6  -2  -8    3.88    0.18
   6   2  -7    0.43    0.11
   6   2  -7    0.48    0.08
  -6   2   7    0.44    0.16
   6  -2  -7    0.45    0.06
   6  -2  -7    0.56    0.13
  -6   2   6   15.82    0.72
   6   2  -6   16.81    0.74
   6   2  -6   17.54    0.70
   6  -2  -6   17.21    0.69
   6  -2  -6   16.87    0.71
   6   2  -5   28.78    1.13
   6   2  -5   28.10    1.16
  -6   2   5   27.30    1.14
   6  -2  -5   27.13    1.14
  -6  -2   5   26.48    1.15
   6  -2  -5   29.03    1.13
   6   2  -4    4.09    0.22
   6   2  -4    3.74    0.19
  -6   2   4    3.85    0.21
   6  -2  -4    3.82    0.18
   6  -2  -4    3.75    0.20
  -6  -2   4    3.87    0.22
   6   2  -3    3.91    0.20
  -6   2   3    3.68    0.20
   6  -2  -3    3.58    0.18
  -6  -2   3    4.09    0.20
   6  -2  -3    3.75    0.19
  -6  -2   2    0.31    0.08
   6  -2  -2    0.22    0.05
   6  -2  -2    0.34    0.07
   6  -2  -1    7.11    0.32
  -6  -2   1    7.88    0.32
   6  -2  -1    7.29    0.33
   6  -2   0    1.49    0.11
  -6  -2   0    1.61    0.09
  -6  -2   0    1.41    0.10
   6  -2   0    1.43    0.09
  -6  -2  -1    2.67    0.11
   6  -2   1    2.26    0.17
   6  -2   1    2.43    0.14
  -6  -2  -1    2.37    0.13
   6  -2   2    5.66    0.27
  -6  -2  -2    5.34    0.24
   6  -2   2    5.29    0.28
  -6   2  -3    9.43    0.40
   6  -2   3    9.43    0.42
  -6  -2  -3    9.09    0.39
   6  -2   3    8.98    0.43
  -6   2  -4    1.21    0.09
  -6  -2  -4    1.32    0.09
   6  -2   4    1.35    0.13
  -6   2  -5    0.29    0.07
  -6  -2  -5    0.29    0.06
  -6   2  -6    6.64    0.30
  -6  -2  -6    6.48    0.29
   6  -2   6    6.33    0.34
  -6   2  -7    0.46    0.08
  -6   2  -7    0.34    0.10
   6  -2   7    0.18    0.13
  -6  -2  -7    0.43    0.07
  -6   2  -8   36.90    1.56
  -6   2  -8   41.17    1.57
  -6  -2  -8   38.64    1.57
  -6  -2  -8   36.83    1.57
  -6  -2  -8   40.42    1.57
  -6   2  -9   11.37    0.48
  -6   2  -9   10.97    0.48
  -6  -2  -9   10.83    0.48
  -6  -2  -9   11.44    0.47
  -6  -2  -9   10.89    0.48
  -6   2 -10    8.86    0.39
  -6   2 -10    8.53    0.39
  -6  -2 -10    8.65    0.39
  -6  -2 -10    8.77    0.39
  -6  -2 -10    9.02    0.39
  -6   2 -11    3.32    0.19
  -6   2 -11    3.46    0.19
  -6  -2 -11    3.69    0.18
  -6  -2 -11    3.22    0.18
  -6  -2 -11    3.50    0.19
  -6   2 -12    0.04    0.06
  -6   2 -12    0.04    0.07
  -6  -2 -12   -0.06    0.05
  -6  -2 -12    0.02    0.06
  -6  -2 -12    0.01    0.05
  -6   2 -13    3.20    0.19
  -6   2 -13    3.01    0.18
  -6  -2 -13    3.39    0.18
  -6  -2 -13    3.36    0.18
  -6  -2 -13    2.98    0.17
  -6   2 -14   -0.02    0.06
  -6   2 -14    0.10    0.07
  -6  -2 -14    0.03    0.05
  -6  -2 -14   -0.05    0.04
  -6  -2 -14    0.05    0.06
  -6   2 -15    0.32    0.09
  -6   2 -15    0.08    0.08
  -6  -2 -15    0.20    0.05
  -6  -2 -15    0.23    0.08
  -6  -2 -15    0.24    0.07
  -6   2 -16    0.00    0.06
  -6  -2 -16   -0.03    0.06
  -6  -2 -16   -0.05    0.04
  -6   2 -17    0.28    0.08
  -6  -2 -17    0.31    0.06
  -6  -2 -17    0.23    0.06
  -6  -2 -17    0.25    0.09
  -6   2 -18    0.25    0.08
  -6  -2 -18    0.16    0.07
  -6  -2 -18    0.23    0.06
  -6   2 -19    0.02    0.05
  -6  -2 -19    0.02    0.03
  -6  -2 -19    0.12    0.07
  -6  -2 -20    0.07    0.03
  -6  -2 -21    0.02    0.03
  -6   3  19    0.15    0.04
  -6   3  18    3.48    0.15
   6  -3 -18    3.07    0.17
  -6   3  17    0.15    0.05
   6   3 -17   -0.01    0.05
   6  -3 -17   -0.03    0.06
   6   3 -16    0.79    0.09
   6  -3 -16    0.86    0.09
   6  -3 -16    0.88    0.09
   6   3 -15    1.17    0.10
   6  -3 -15    1.19    0.10
   6  -3 -15    1.12    0.10
   6   3 -14    0.25    0.08
   6  -3 -14    0.07    0.06
   6  -3 -14   -0.03    0.06
   6   3 -13    0.19    0.06
   6   3 -13    0.13    0.07
   6  -3 -13    0.05    0.05
   6  -3 -13   -0.01    0.07
   6   3 -12    0.31    0.07
   6   3 -12    0.41    0.10
   6  -3 -12    0.35    0.08
   6  -3 -12    0.23    0.08
   6   3 -11    1.84    0.14
   6   3 -11    1.80    0.13
   6  -3 -11    1.66    0.12
   6   3 -10    0.75    0.10
   6  -3 -10    0.86    0.09
   6   3  -9    1.53    0.18
   6   3  -9    1.91    0.13
   6  -3  -9    1.84    0.12
   6   3  -8    4.06    0.23
   6   3  -8    4.25    0.22
   6  -3  -8    4.57    0.22
   6   3  -7    1.36    0.14
   6   3  -7    1.23    0.12
   6  -3  -7    1.26    0.10
  -6   3   6    5.57    0.31
   6   3  -6    6.66    0.30
   6   3  -6    6.23    0.30
   6  -3  -6    6.72    0.29
   6   3  -5   -0.04    0.06
   6   3  -5    0.00    0.07
   6  -3  -5    0.08    0.05
  -6   3   4    0.15    0.08
   6   3  -4    0.48    0.11
   6   3  -4    0.13    0.07
   6  -3  -4    0.24    0.06
   6   3  -3    5.88    0.29
   6   3  -3    5.92    0.29
  -6   3   3    5.68    0.29
   6  -3  -3    6.18    0.28
  -6  -3   3    6.68    0.29
   6   3  -2    2.47    0.18
   6   3  -2    2.38    0.16
  -6   3   2    2.46    0.16
  -6  -3   2    2.62    0.15
   6  -3  -2    2.46    0.14
   6   3  -1    5.62    0.27
  -6   3   1    5.72    0.27
   6   3  -1    5.64    0.29
  -6  -3   1    5.87    0.27
   6  -3  -1    5.74    0.27
   6   3   0    3.12    0.18
  -6   3   0    3.51    0.18
   6  -3   0    3.26    0.17
   6  -3   0    2.91    0.29
  -6  -3   0    3.50    0.18
  -6   3  -1    8.09    0.37
   6   3   1    8.31    0.38
  -6   3  -1    7.93    0.37
   6  -3   1    8.68    0.37
  -6  -3  -1    8.98    0.37
  -6   3  -2    4.90    0.25
  -6   3  -2    4.88    0.24
   6   3   2    5.28    0.26
   6  -3   2    5.22    0.25
  -6  -3  -2    5.15    0.24
  -6   3  -3    0.00    0.05
   6   3   3   -0.07    0.07
  -6   3  -3   -0.06    0.07
  -6  -3  -3    0.00    0.05
   6   3   4    0.38    0.09
  -6   3  -4    0.42    0.10
  -6   3  -4    0.42    0.10
  -6  -3  -4    0.53    0.13
  -6  -3  -4    0.56    0.13
  -6  -3  -4    0.47    0.08
   6   3   5    0.10    0.08
  -6   3  -5    0.14    0.06
  -6   3  -5    0.27    0.10
  -6  -3  -5    0.10    0.10
  -6  -3  -5    0.09    0.05
  -6  -3  -5    0.29    0.08
  -6   3  -6   -0.06    0.06
  -6   3  -6    0.04    0.06
   6   3   6    0.00    0.09
  -6  -3  -6    0.03    0.05
  -6  -3  -6    0.02    0.10
  -6  -3  -6    0.12    0.06
  -6   3  -7    7.68    0.35
  -6   3  -7    7.56    0.35
   6   3   7    7.41    0.37
  -6  -3  -7    7.85    0.35
  -6  -3  -7    8.10    0.37
  -6  -3  -7    8.44    0.36
  -6   3  -8    0.10    0.06
   6   3   8    0.04    0.11
  -6   3  -8    0.08    0.07
  -6  -3  -8    0.07    0.06
  -6  -3  -8    0.12    0.08
  -6  -3  -8    0.08    0.06
  -6   3  -9    0.17    0.06
  -6   3  -9    0.13    0.07
  -6  -3  -9    0.13    0.07
  -6  -3  -9    0.23    0.08
  -6  -3  -9    0.16    0.06
  -6   3 -10    1.18    0.11
  -6   3 -10    1.50    0.13
  -6   3 -10    1.59    0.14
  -6  -3 -10    1.57    0.14
  -6  -3 -10    1.42    0.12
  -6  -3 -10    1.39    0.12
  -6   3 -11    0.02    0.05
  -6   3 -11    0.03    0.10
  -6   3 -11    0.08    0.06
  -6  -3 -11    0.22    0.08
  -6  -3 -11    0.04    0.05
  -6  -3 -11   -0.02    0.06
  -6   3 -12    0.62    0.09
  -6   3 -12    0.50    0.10
  -6  -3 -12    0.51    0.09
  -6  -3 -12    0.68    0.09
  -6  -3 -12    0.58    0.10
  -6   3 -13    0.35    0.08
  -6   3 -13    0.28    0.09
  -6  -3 -13    0.37    0.07
  -6  -3 -13    0.29    0.09
  -6   3 -14    0.33    0.09
  -6   3 -14    0.17    0.06
  -6  -3 -14    0.22    0.07
  -6  -3 -14    0.38    0.08
  -6  -3 -14    0.30    0.09
  -6   3 -15    4.27    0.20
  -6  -3 -15    3.72    0.21
  -6  -3 -15    3.92    0.19
  -6  -3 -15    4.13    0.19
  -6   3 -16    0.08    0.05
  -6  -3 -16   -0.01    0.07
  -6  -3 -16    0.02    0.04
  -6   3 -17    1.84    0.12
  -6  -3 -17    1.73    0.13
  -6  -3 -17    1.60    0.10
  -6  -3 -18    0.00    0.03
  -6  -3 -19    0.32    0.05
   6   4 -16    0.32    0.06
  -6   4  16    0.28    0.05
  -6   4  15    0.01    0.03
   6   4 -15    0.01    0.03
   6  -4 -15    0.02    0.08
   6   4 -14    0.08    0.04
  -6   4  14    0.06    0.04
  -6  -4  14    0.19    0.09
  -6   4  13    0.01    0.04
   6   4 -13    0.09    0.04
  -6  -4  13    0.16    0.08
   6  -4 -13    0.15    0.06
   6   4 -12    0.60    0.07
  -6   4  12    0.60    0.07
   6  -4 -12    0.45    0.08
  -6  -4  12    0.53    0.10
  -6   4  11    0.04    0.05
   6   4 -11    0.00    0.04
   6  -4 -11    0.01    0.06
  -6  -4  11   -0.07    0.07
   6   4 -10    3.16    0.16
  -6   4  10    2.63    0.15
  -6  -4  10    2.75    0.17
   6  -4 -10    2.67    0.16
   6   4  -9    2.24    0.15
  -6   4   9    2.36    0.14
   6   4  -9    2.68    0.15
   6  -4  -9    2.28    0.15
  -6  -4   9    2.30    0.16
   6   4  -8    0.08    0.06
  -6   4   8    0.05    0.07
   6   4  -8    0.11    0.06
  -6  -4   8    0.04    0.07
   6  -4  -8    0.09    0.05
   6   4  -7    0.11    0.06
   6   4  -7    0.29    0.09
   6  -4  -7    0.16    0.06
  -6  -4   7    0.25    0.09
   6   4  -6    6.32    0.30
   6   4  -6    6.62    0.30
  -6   4   6    6.48    0.30
  -6  -4   6    6.43    0.31
   6  -4  -6    6.08    0.30
  -6   4   5    0.22    0.08
   6   4  -5    0.43    0.10
   6   4  -5    0.29    0.07
   6  -4  -5    0.26    0.08
  -6  -4   5    0.40    0.09
   6   4  -4    3.10    0.18
  -6   4   4    3.09    0.18
   6   4  -4    3.41    0.18
  -6  -4   4    3.14    0.18
   6  -4  -4    2.95    0.18
   6   4  -3    0.75    0.10
  -6   4   3    0.70    0.11
   6   4  -3    0.44    0.11
  -6  -4   3    0.46    0.09
   6  -4  -3    0.52    0.09
  -6   4   2    1.46    0.13
   6   4  -2    1.41    0.14
   6   4  -2    1.42    0.12
  -6  -4   2    1.48    0.12
   6  -4  -2    1.56    0.12
   6   4  -1    0.40    0.13
  -6   4   1    0.38    0.10
   6   4  -1    0.32    0.10
  -6  -4   1    0.21    0.07
   6  -4  -1    0.22    0.08
   6   4   0    4.14    0.22
  -6   4   0    4.30    0.22
  -6   4   0    3.76    0.23
   6  -4   0    4.56    0.22
  -6  -4   0    4.24    0.22
   6   4   1   -0.04    0.06
  -6   4  -1    0.08    0.06
  -6   4  -1   -0.05    0.07
   6  -4   1    0.05    0.05
  -6  -4  -1    0.02    0.07
  -6   4  -2    0.36    0.10
   6   4   2    0.28    0.07
  -6   4  -2    0.20    0.06
   6  -4   2    0.16    0.07
  -6  -4  -2    0.36    0.09
   6   4   3    2.62    0.17
  -6   4  -3    2.85    0.16
  -6   4  -3    2.95    0.16
  -6  -4  -3    2.28    0.16
   6  -4   3    2.29    0.16
   6   4   4    0.23    0.07
  -6   4  -4    0.34    0.09
  -6   4  -4    0.29    0.09
  -6  -4  -4    0.32    0.08
   6  -4   4    0.24    0.07
   6   4   5    1.89    0.16
  -6   4  -5    2.01    0.13
  -6   4  -5    2.02    0.13
   6  -4   5    1.93    0.14
  -6  -4  -5    1.85    0.13
  -6   4  -6    1.68    0.12
   6   4   6    1.59    0.15
  -6   4  -6    1.70    0.12
   6  -4   6    1.54    0.13
  -6  -4  -6    1.68    0.12
  -6   4  -7    0.12    0.05
  -6   4  -7    0.12    0.06
   6   4   7    0.09    0.08
   6  -4   7    0.01    0.06
  -6  -4  -7    0.11    0.06
  -6  -4  -7    0.04    0.07
   6   4   8    0.37    0.14
  -6   4  -8    0.48    0.08
  -6  -4  -8    0.44    0.10
   6  -4   8    0.40    0.10
  -6  -4  -8    0.31    0.08
  -6   4  -9    2.04    0.13
  -6   4  -9    2.02    0.13
   6  -4   9    1.79    0.14
  -6  -4  -9    1.92    0.13
  -6  -4  -9    1.88    0.13
  -6   4 -10    0.19    0.06
  -6   4 -10    0.26    0.08
  -6  -4 -10    0.36    0.09
  -6  -4 -10    0.43    0.08
   6  -4  10    0.30    0.09
  -6   4 -11    0.53    0.07
  -6   4 -11    0.36    0.07
  -6  -4 -11    0.52    0.09
  -6   4 -12    0.26    0.06
   6  -4  12    0.31    0.09
  -6  -4 -12    0.23    0.08
  -6   4 -13    0.10    0.04
   6  -4  13    0.09    0.06
  -6  -4 -13    0.04    0.08
  -6   4 -14    0.09    0.04
   6  -4  14    0.23    0.08
  -6  -4 -14    0.13    0.08
  -6   4 -15    0.20    0.05
   6  -4  15    0.38    0.11
  -6   4 -16    1.55    0.11
   6   5 -11    0.15    0.04
   6   5 -10    0.35    0.05
   6   5  -9    0.00    0.03
   6  -5  -9   -0.07    0.06
   6   5  -8    0.04    0.05
   6   5  -8    0.10    0.04
   6  -5  -8    0.03    0.06
   6   5  -7    4.40    0.19
   6   5  -7    4.08    0.19
   6  -5  -7    4.13    0.20
  -6  -5   7    3.85    0.22
   6   5  -6    1.48    0.10
   6   5  -6    1.60    0.10
  -6  -5   6    1.65    0.13
   6  -5  -6    1.61    0.11
   6   5  -5    1.24    0.10
   6   5  -5    1.21    0.09
  -6   5   5    1.25    0.11
   6  -5  -5    1.14    0.10
  -6  -5   5    1.14    0.12
   6   5  -4   -0.07    0.06
  -6   5   4    0.06    0.05
   6   5  -4    0.10    0.05
   6  -5  -4    0.06    0.06
  -6  -5   4    0.10    0.08
   6   5  -3    0.35    0.07
  -6   5   3    0.38    0.08
   6   5  -3    0.52    0.07
   6  -5  -3    0.41    0.08
  -6  -5   3    0.35    0.09
   6   5  -2    0.08    0.05
  -6   5   2   -0.01    0.05
   6  -5  -2    0.14    0.06
  -6  -5   2   -0.04    0.07
   6   5  -1    1.62    0.11
  -6   5   1    1.57    0.11
   6  -5  -1    1.70    0.12
  -6  -5   1    1.52    0.13
   6   5   0    0.12    0.05
  -6   5   0    0.15    0.05
   6  -5   0    0.11    0.06
  -6  -5   0    0.19    0.08
   6   5   1    0.00    0.05
  -6   5  -1   -0.03    0.04
   6  -5   1    0.01    0.06
  -6  -5  -1    0.07    0.06
  -6   5  -2    0.53    0.07
   6   5   2    0.57    0.08
  -6  -5  -2    0.61    0.10
   6  -5   2    0.53    0.09
  -6   5  -3    0.19    0.07
  -6   5  -3    0.13    0.04
   6   5   3    0.13    0.05
  -6  -5  -3    0.19    0.08
   6  -5   3    0.16    0.06
   6   5   4    2.09    0.12
  -6   5  -4    1.84    0.12
  -6   5  -4    1.96    0.11
  -6  -5  -4    1.97    0.14
   6  -5   4    2.01    0.13
   6   5   5    0.40    0.08
  -6   5  -5    0.38    0.06
  -6   5  -5    0.48    0.07
   6  -5   5    0.62    0.08
  -6  -5  -5    0.39    0.10
  -6   5  -6    0.25    0.06
  -6   5  -6    0.24    0.06
   6   5   6    0.35    0.09
   6  -5   6    0.32    0.08
  -6  -5  -6    0.38    0.10
  -6   5  -7    0.33    0.06
   6   5   7    0.49    0.11
  -6   5  -7    0.38    0.06
   6  -5   7    0.28    0.08
  -6  -5  -7    0.30    0.10
  -6   5  -8    0.07    0.04
  -6   5  -8    0.01    0.04
   6  -5   8    0.09    0.06
  -6  -5  -8   -0.04    0.10
  -6   5  -9    1.62    0.10
  -6   5  -9    1.69    0.09
   6  -5   9    1.72    0.12
  -6   5 -10    0.30    0.05
  -6   5 -11    0.09    0.03
  -7   0  22    0.04    0.04
   7   0 -21    0.01    0.07
   7   0 -20    0.09    0.06
   7   0 -19    0.05    0.05
   7   0 -18    2.16    0.14
   7   0 -17    0.00    0.04
   7   0 -17   -0.05    0.06
   7   0 -16   11.95    0.49
  -7   0  16   11.37    0.50
   7   0 -16   11.38    0.51
   7   0 -15    0.10    0.06
  -7   0  15   -0.08    0.07
   7   0 -15    0.01    0.04
   7   0 -14    5.37    0.26
   7   0 -14    5.14    0.24
   7   0 -13    0.01    0.05
   7   0 -13    0.02    0.06
   7   0 -12   -0.02    0.05
   7   0 -12    0.02    0.04
   7   0 -11    0.01    0.05
   7   0 -11   -0.02    0.05
   7   0 -10   -0.02    0.04
   7   0 -10   -0.06    0.09
   7   0  -9    0.01    0.04
   7   0  -9   -0.03    0.06
  -7   0   8    6.83    0.35
   7   0  -8    7.93    0.32
   7   0  -8    7.50    0.34
   7   0  -7    0.04    0.04
  -7   0   7    0.02    0.05
   7   0  -7    0.03    0.05
   7   0  -6    1.50    0.10
  -7   0   6    1.61    0.11
  -7   0   5    0.01    0.03
   7   0  -5    0.01    0.02
   7   0  -4   39.92    1.60
  -7   0   3    0.03    0.02
   7   0  -3   -0.01    0.02
  -7   0   2   28.65    1.09
   7   0  -2   25.49    1.08
  -7   0   1    0.02    0.02
   7   0  -1   -0.01    0.01
  -7   0   0   98.17    3.94
   7   0   0  100.47    3.98
   7   0   1    0.01    0.01
  -7   0  -1   -0.01    0.01
  -7   0  -2    0.13    0.03
   7   0   2    0.18    0.03
   7   0   3    0.01    0.02
   7   0   4   48.40    1.86
   7   0   4   44.76    1.86
   7   0   5   -0.01    0.02
   7   0   5    0.00    0.03
   7   0   6   30.35    1.23
  -7   0  -7    0.04    0.04
   7   0   7   -0.04    0.04
  -7   0  -8   25.72    1.05
   7   0   8   26.19    1.07
  -7   0  -9   -0.05    0.04
   7   0   9    0.05    0.08
   7   0  10    1.23    0.20
  -7   0 -10    1.85    0.11
  -7   0 -11   -0.08    0.06
  -7   0 -11    0.06    0.05
  -7   0 -12    3.56    0.22
  -7   0 -12    4.18    0.20
  -7   0 -12    4.26    0.20
  -7   0 -13    0.01    0.05
  -7   0 -13   -0.05    0.08
  -7   0 -13    0.02    0.05
  -7   0 -14    1.94    0.13
  -7   0 -14    2.11    0.14
  -7   0 -15    0.09    0.05
  -7   0 -15   -0.09    0.06
  -7   0 -16    0.59    0.08
  -7   0 -16    0.37    0.08
  -7   0 -17    0.01    0.04
  -7   0 -17    0.00    0.05
  -7   0 -18    3.93    0.21
  -7   0 -18    4.02    0.19
  -7   0 -19   -0.03    0.04
  -7   0 -19    0.06    0.06
  -7   0 -20    0.51    0.09
  -7   0 -20    0.31    0.06
  -7   0 -21    0.05    0.06
  -7  -1  21    0.21    0.07
   7   1 -20    0.72    0.10
  -7   1  20    0.83    0.09
  -7  -1  20    0.89    0.08
   7  -1 -20    0.84    0.09
   7   1 -19    0.25    0.08
  -7   1  19    0.26    0.07
   7  -1 -19    0.30    0.08
   7   1 -18    2.20    0.15
  -7   1  18    2.43    0.13
   7  -1 -18    2.14    0.14
   7  -1 -18    2.30    0.13
   7   1 -17    1.28    0.12
   7  -1 -17    1.37    0.10
   7  -1 -17    1.28    0.11
   7   1 -16    6.72    0.33
   7  -1 -16    6.65    0.32
   7  -1 -16    7.48    0.31
   7   1 -15    3.44    0.19
   7  -1 -15    3.34    0.18
   7  -1 -15    3.46    0.19
   7   1 -14    5.97    0.29
   7  -1 -14    6.25    0.28
   7  -1 -14    6.03    0.29
   7   1 -13    3.25    0.18
   7  -1 -13    3.11    0.17
   7  -1 -13    3.50    0.18
   7   1 -12    7.57    0.34
   7  -1 -12    7.63    0.34
   7  -1 -12    7.45    0.33
   7   1 -11    0.40    0.08
   7   1 -11    0.69    0.19
   7  -1 -11    0.47    0.07
   7  -1 -11    0.41    0.09
   7   1 -10   19.29    0.74
   7   1 -10   16.59    0.73
   7  -1 -10   18.82    0.74
   7  -1 -10   17.95    0.79
   7  -1 -10   16.84    0.73
   7   1  -9    0.13    0.05
   7   1  -9    0.19    0.09
   7  -1  -9    0.14    0.04
   7  -1  -9    0.09    0.08
   7   1  -8   18.65    0.77
  -7   1   8   17.74    0.79
   7   1  -8   18.26    0.80
   7  -1  -8   19.56    0.76
   7  -1  -8   19.00    0.78
  -7   1   7    5.56    0.28
   7   1  -7    5.91    0.28
   7   1  -7    6.12    0.26
   7  -1  -7    5.85    0.27
  -7  -1   7    5.66    0.29
   7  -1  -7    5.79    0.25
   7   1  -6  105.37    4.28
  -7   1   6  108.68    4.27
   7  -1  -6  105.73    4.25
   7  -1  -6  103.61    4.27
  -7  -1   6  112.36    4.28
   7   1  -5   13.81    0.58
  -7   1   5   13.07    0.57
  -7  -1   5   14.44    0.58
   7  -1  -5   13.32    0.57
   7   1  -4    0.19    0.05
  -7   1   4    0.15    0.06
  -7  -1   4    0.23    0.05
   7  -1  -4    0.17    0.04
  -7   1   3    0.06    0.03
   7   1  -3    0.08    0.03
  -7  -1   3    0.04    0.03
   7  -1  -3    0.07    0.03
  -7   1   2    0.22    0.05
   7   1  -2    0.15    0.04
  -7  -1   2    0.21    0.04
   7  -1  -2    0.16    0.04
   7   1  -1    5.09    0.23
  -7   1   1    5.36    0.24
  -7  -1   1    5.72    0.23
   7  -1  -1    5.20    0.23
   7   1   0  178.89    7.33
  -7   1   0  183.10    7.37
  -7  -1   0  193.86    7.35
   7  -1   0  183.57    7.39
   7   1   1    7.55    0.31
   7  -1   1    7.28    0.33
  -7  -1  -1    8.23    0.31
   7  -1   2    1.20    0.08
   7  -1   3    6.74    0.30
   7  -1   4    2.82    0.16
   7  -1   4    2.89    0.15
   7  -1   5    3.10    0.18
   7  -1   5    3.31    0.17
  -7   1  -6    3.17    0.16
   7  -1   6    3.28    0.18
   7  -1   6    3.11    0.19
  -7   1  -7   18.22    0.74
   7  -1   7   17.63    0.77
  -7  -1  -7   17.93    0.73
   7   1   8   63.07    2.49
  -7   1  -8   64.10    2.51
  -7  -1  -8   60.84    2.50
  -7   1  -9    0.03    0.04
  -7  -1  -9    0.01    0.04
  -7   1 -10   14.29    0.58
  -7  -1 -10   13.67    0.58
  -7  -1 -10   14.32    0.58
  -7  -1 -10   13.22    0.58
  -7   1 -11    0.14    0.05
  -7   1 -11    0.02    0.10
  -7  -1 -11    0.16    0.06
  -7  -1 -11    0.30    0.09
  -7  -1 -11    0.20    0.06
  -7   1 -12    5.38    0.26
  -7  -1 -12    5.32    0.25
  -7  -1 -12    5.17    0.25
  -7  -1 -12    5.43    0.25
  -7   1 -13    0.16    0.06
  -7   1 -13    0.16    0.07
  -7  -1 -13    0.05    0.05
  -7  -1 -13    0.19    0.06
  -7  -1 -13    0.18    0.06
  -7   1 -14    0.37    0.07
  -7  -1 -14    0.30    0.06
  -7  -1 -14    0.39    0.08
  -7  -1 -14    0.48    0.09
  -7   1 -15    3.54    0.21
  -7  -1 -15    4.53    0.20
  -7  -1 -15    4.41    0.20
  -7  -1 -15    3.76    0.21
  -7   1 -16    7.46    0.36
  -7  -1 -16    7.44    0.36
  -7  -1 -16    8.15    0.34
  -7  -1 -16    8.20    0.34
  -7   1 -17    0.79    0.10
  -7  -1 -17    0.99    0.09
  -7  -1 -17    0.78    0.09
  -7  -1 -17    0.59    0.10
  -7   1 -18    0.56    0.08
  -7  -1 -18    0.63    0.10
  -7  -1 -18    0.65    0.07
  -7   1 -19    0.57    0.09
  -7  -1 -19    0.52    0.09
  -7  -1 -19    0.73    0.06
  -7   1 -20    3.19    0.17
  -7  -1 -20    3.07    0.17
  -7  -1 -20    3.10    0.15
  -7  -1 -21    0.41    0.05
  -7   2  20    1.56    0.09
   7   2 -19   -0.04    0.07
  -7   2  19    0.06    0.03
   7  -2 -19    0.01    0.06
   7   2 -18    0.32    0.09
  -7   2  18    0.28    0.06
   7  -2 -18    0.28    0.06
  -7  -2  18    0.13    0.08
   7  -2 -18    0.33    0.08
   7   2 -17    0.84    0.10
   7  -2 -17    0.90    0.08
  -7  -2  17    0.78    0.12
   7  -2 -17    0.87    0.09
   7   2 -16    0.18    0.07
  -7  -2  16    0.05    0.07
   7  -2 -16    0.18    0.06
   7  -2 -16    0.12    0.05
   7   2 -15    6.51    0.33
   7   2 -15    7.10    0.32
  -7  -2  15    6.76    0.32
   7  -2 -15    7.46    0.31
   7  -2 -15    6.34    0.32
   7   2 -14    3.22    0.19
   7   2 -14    3.51    0.19
  -7  -2  14    3.06    0.20
   7  -2 -14    3.29    0.17
   7  -2 -14    2.93    0.17
   7   2 -13    1.22    0.14
   7   2 -13    1.47    0.13
   7  -2 -13    1.46    0.11
   7  -2 -13    1.47    0.11
  -7  -2  13    1.38    0.15
   7   2 -12    1.88    0.15
   7  -2 -12    1.95    0.13
   7  -2 -12    2.01    0.13
   7   2 -11    0.21    0.07
   7   2 -11    0.22    0.07
   7  -2 -11    0.14    0.05
   7  -2 -11    0.19    0.07
   7   2 -10    0.18    0.07
   7   2 -10    0.00    0.06
  -7  -2  10    0.06    0.09
   7  -2 -10    0.06    0.07
   7  -2 -10   -0.02    0.04
   7   2  -9    0.43    0.09
   7   2  -9    0.44    0.11
  -7  -2   9    0.45    0.16
   7  -2  -9    0.39    0.06
   7  -2  -9    0.36    0.13
   7   2  -8    1.88    0.14
   7   2  -8    2.00    0.13
   7  -2  -8    2.06    0.12
  -7   2   7   17.46    0.87
   7   2  -7   18.24    0.84
   7   2  -7   20.00    0.79
   7   2  -7   18.70    0.79
   7  -2  -7   19.33    0.81
   7  -2  -7   20.21    0.78
  -7   2   6   12.94    0.63
   7   2  -6   14.50    0.65
   7   2  -6   14.95    0.61
   7  -2  -6   15.03    0.60
   7  -2  -6   14.69    0.62
   7   2  -5    2.27    0.14
   7   2  -5    2.33    0.18
  -7   2   5    2.25    0.18
   7  -2  -5    2.30    0.12
   7  -2  -5    2.24    0.15
   7   2  -4   28.29    1.14
  -7   2   4   27.11    1.15
   7   2  -4   28.30    1.16
   7  -2  -4   28.32    1.13
  -7  -2   4   28.52    1.15
   7  -2  -4   27.65    1.15
  -7   2   3    5.15    0.26
   7   2  -3    5.32    0.26
   7  -2  -3    5.21    0.23
   7  -2  -3    5.26    0.25
  -7  -2   3    5.45    0.26
   7   2  -2    0.46    0.08
   7  -2  -2    0.36    0.06
  -7  -2   2    0.49    0.08
   7  -2  -2    0.36    0.08
  -7  -2   1    0.51    0.07
   7  -2  -1    0.26    0.08
   7  -2  -1    0.35    0.06
   7  -2   0   -0.02    0.04
  -7  -2   0    0.03    0.03
  -7  -2   0   -0.01    0.05
   7  -2   0    0.03    0.05
  -7  -2  -1    2.62    0.14
   7  -2   1    2.88    0.16
   7  -2   2   11.30    0.47
   7  -2   2    9.85    0.48
  -7  -2  -2   10.35    0.44
   7  -2   3    4.63    0.23
   7  -2   3    4.19    0.26
  -7  -2  -3    4.10    0.20
  -7   2  -4   14.44    0.59
  -7  -2  -4   13.29    0.58
   7  -2   4   14.38    0.62
  -7   2  -5    0.81    0.09
   7  -2   5    0.65    0.14
  -7  -2  -5    0.82    0.08
  -7   2  -6    4.11    0.21
  -7  -2  -6    4.10    0.20
   7  -2   6    4.53    0.27
  -7   2  -7   38.33    1.62
  -7   2  -7   43.08    1.63
  -7  -2  -7   38.90    1.62
  -7  -2  -7   40.62    1.62
  -7   2  -8   23.55    1.00
  -7   2  -8   25.85    1.01
  -7  -2  -8   24.35    1.01
  -7  -2  -8   25.35    1.00
  -7  -2  -8   23.89    1.01
  -7   2  -9    3.87    0.24
  -7   2  -9    4.82    0.23
  -7   2  -9    4.93    0.23
  -7  -2  -9    4.67    0.23
  -7  -2  -9    4.55    0.23
  -7  -2  -9    4.91    0.22
  -7   2 -10    0.93    0.11
  -7   2 -10    1.07    0.10
  -7  -2 -10    1.03    0.10
  -7  -2 -10    0.94    0.10
  -7  -2 -10    0.80    0.11
  -7   2 -11    1.46    0.12
  -7   2 -11    1.25    0.12
  -7  -2 -11    1.35    0.12
  -7  -2 -11    1.35    0.11
  -7  -2 -11    1.24    0.10
  -7   2 -12    2.17    0.15
  -7   2 -12    2.22    0.15
  -7  -2 -12    2.41    0.15
  -7  -2 -12    2.30    0.14
  -7  -2 -12    2.34    0.14
  -7   2 -13    0.44    0.11
  -7   2 -13    0.40    0.09
  -7  -2 -13    0.39    0.08
  -7  -2 -13    0.50    0.09
  -7  -2 -13    0.51    0.09
  -7   2 -14    2.95    0.18
  -7   2 -14    2.75    0.18
  -7  -2 -14    3.08    0.16
  -7  -2 -14    2.87    0.17
  -7  -2 -14    2.94    0.16
  -7   2 -15    3.04    0.19
  -7   2 -15    3.48    0.19
  -7  -2 -15    3.41    0.17
  -7  -2 -15    3.58    0.18
  -7  -2 -15    3.29    0.19
  -7   2 -16    0.72    0.09
  -7  -2 -16    0.76    0.10
  -7  -2 -16    0.70    0.08
  -7  -2 -16    0.93    0.08
  -7   2 -17   -0.03    0.05
  -7  -2 -17    0.07    0.04
  -7  -2 -17    0.08    0.07
  -7  -2 -17    0.03    0.04
  -7   2 -18    0.06    0.06
  -7  -2 -18    0.10    0.07
  -7  -2 -18    0.09    0.04
  -7   2 -19    0.05    0.05
  -7  -2 -19    0.02    0.03
  -7  -2 -19    0.09    0.08
  -7  -2 -20    0.46    0.05
  -7   3  19    0.88    0.06
  -7   3  18    0.89    0.06
  -7   3  17    0.37    0.05
   7   3 -17    0.53    0.08
   7  -3 -17    0.47    0.08
   7   3 -16    0.37    0.08
  -7   3  16    0.41    0.06
   7  -3 -16    0.40    0.08
   7   3 -15    0.11    0.05
   7  -3 -15    0.11    0.06
   7  -3 -15    0.07    0.06
   7   3 -14    0.16    0.05
   7  -3 -14    0.10    0.06
   7  -3 -14    0.16    0.06
   7   3 -13    0.24    0.06
   7  -3 -13    0.06    0.07
   7  -3 -13    0.17    0.06
   7   3 -12    1.27    0.11
   7  -3 -12    1.39    0.16
   7  -3 -12    1.24    0.11
   7   3 -11    2.50    0.15
   7  -3 -11    2.15    0.14
   7   3 -10    1.33    0.12
   7  -3 -10    1.46    0.11
   7   3  -9    1.05    0.11
   7  -3  -9    1.01    0.09
   7   3  -8   14.72    0.62
   7   3  -8   13.87    0.62
   7  -3  -8   15.16    0.62
   7   3  -7    0.09    0.08
   7   3  -7    0.03    0.06
   7  -3  -7   -0.01    0.04
   7   3  -6    1.90    0.14
  -7   3   6    1.46    0.20
   7   3  -6    1.65    0.15
   7  -3  -6    1.67    0.11
  -7   3   5    0.17    0.09
   7   3  -5    0.15    0.08
   7   3  -5    0.31    0.11
   7  -3  -5    0.13    0.05
   7   3  -4    0.20    0.07
   7   3  -4    0.13    0.07
  -7   3   4    0.29    0.08
   7  -3  -4    0.13    0.05
  -7   3   3    2.05    0.15
   7   3  -3    2.15    0.15
   7   3  -3    2.02    0.16
   7  -3  -3    2.10    0.12
  -7  -3   3    2.11    0.14
   7   3  -2    5.82    0.30
   7   3  -2    6.35    0.29
  -7   3   2    5.79    0.29
   7  -3  -2    6.26    0.28
  -7  -3   2    6.49    0.29
   7   3  -1    4.57    0.25
  -7   3   1    4.47    0.23
   7   3  -1    4.33    0.23
  -7  -3   1    4.80    0.22
   7  -3  -1    4.74    0.22
  -7   3   0    6.54    0.32
   7   3   0    6.68    0.32
  -7   3   0    6.84    0.31
   7   3   0    6.60    0.35
  -7  -3   0    7.38    0.31
   7  -3   0    7.36    0.31
  -7   3  -1    0.39    0.09
   7   3   1    0.47    0.11
  -7   3  -1    0.33    0.09
  -7  -3  -1    0.32    0.07
   7  -3   1    0.48    0.07
  -7   3  -2    4.79    0.24
  -7   3  -2    4.81    0.24
   7   3   2    4.85    0.25
   7  -3   2    5.18    0.24
  -7  -3  -2    5.02    0.24
  -7   3  -3    0.55    0.09
  -7   3  -3    0.37    0.10
   7   3   3    0.59    0.12
  -7  -3  -3    0.49    0.08
  -7  -3  -3    0.38    0.14
  -7   3  -4    0.47    0.10
   7   3   4    0.33    0.09
  -7   3  -4    0.38    0.07
  -7  -3  -4    0.33    0.11
  -7  -3  -4    0.38    0.08
  -7  -3  -4    0.39    0.13
  -7   3  -5    0.82    0.10
   7   3   5    0.91    0.14
  -7   3  -5    0.65    0.10
  -7  -3  -5    0.77    0.09
  -7  -3  -5    0.90    0.17
  -7  -3  -5    0.85    0.12
  -7   3  -6    6.75    0.32
  -7   3  -6    7.12    0.32
   7   3   6    6.71    0.33
  -7  -3  -6    7.53    0.32
  -7  -3  -6    6.87    0.34
  -7  -3  -6    6.90    0.32
  -7   3  -7   10.85    0.47
  -7   3  -7   11.21    0.48
   7   3   7   11.04    0.49
  -7  -3  -7   11.75    0.48
  -7  -3  -7   10.65    0.49
  -7  -3  -7   10.89    0.48
  -7   3  -8   36.12    1.44
  -7   3  -8   35.64    1.43
   7   3   8   32.93    1.44
  -7  -3  -8   38.33    1.44
  -7  -3  -8   36.69    1.44
  -7  -3  -8   32.85    1.44
  -7   3  -9    2.05    0.15
  -7   3  -9    2.11    0.14
  -7  -3  -9    2.21    0.14
  -7  -3  -9    2.32    0.15
  -7  -3  -9    2.12    0.16
  -7   3 -10    1.91    0.15
  -7   3 -10    1.92    0.13
  -7  -3 -10    2.12    0.15
  -7  -3 -10    1.97    0.13
  -7  -3 -10    2.12    0.14
  -7   3 -11    5.01    0.24
  -7   3 -11    4.75    0.25
  -7  -3 -11    4.92    0.23
  -7  -3 -11    4.44    0.24
  -7  -3 -11    4.91    0.24
  -7   3 -12    0.58    0.10
  -7   3 -12    0.44    0.08
  -7  -3 -12    0.36    0.09
  -7  -3 -12    0.53    0.10
  -7   3 -13    2.70    0.15
  -7   3 -13    2.45    0.16
  -7  -3 -13    2.54    0.16
  -7  -3 -13    2.73    0.16
  -7  -3 -13    2.68    0.15
  -7   3 -14   -0.08    0.05
  -7  -3 -14    0.00    0.04
  -7  -3 -14    0.05    0.07
  -7  -3 -14    0.05    0.05
  -7   3 -15    3.10    0.16
  -7  -3 -15    3.01    0.17
  -7  -3 -15    2.89    0.15
  -7  -3 -15    3.19    0.15
  -7  -3 -16    0.26    0.08
  -7  -3 -16    0.39    0.06
  -7  -3 -16    0.29    0.06
  -7   3 -17    0.35    0.09
  -7  -3 -17    0.09    0.09
  -7  -3 -17    0.22    0.06
  -7  -3 -18    0.25    0.05
  -7  -3 -19   -0.01    0.03
  -7   4  16    0.76    0.06
   7   4 -16    0.88    0.08
  -7   4  15    0.18    0.05
   7   4 -15    0.13    0.04
  -7   4  14    0.79    0.07
   7   4 -14    0.84    0.07
   7  -4 -14    0.93    0.09
   7   4 -13    0.52    0.06
  -7   4  13    0.73    0.07
  -7  -4  13    0.55    0.11
   7  -4 -13    0.60    0.08
  -7   4  12    1.30    0.09
   7   4 -12    1.38    0.09
  -7  -4  12    1.30    0.12
   7  -4 -12    1.23    0.10
   7   4 -11    1.50    0.11
  -7   4  11    1.57    0.10
  -7  -4  11    1.64    0.13
   7  -4 -11    1.61    0.11
  -7   4  10    2.56    0.14
   7   4 -10    2.30    0.14
  -7  -4  10    2.50    0.16
   7  -4 -10    2.39    0.14
  -7   4   9    0.52    0.09
   7   4  -9    0.78    0.09
   7   4  -9    0.48    0.11
   7  -4  -9    0.59    0.08
  -7  -4   9    0.64    0.10
   7   4  -8    3.09    0.17
   7   4  -8    3.20    0.17
  -7  -4   8    2.96    0.18
   7  -4  -8    2.94    0.17
   7   4  -7    1.06    0.11
   7   4  -7    1.26    0.11
   7  -4  -7    1.03    0.10
  -7  -4   7    1.17    0.12
   7   4  -6    2.46    0.15
   7   4  -6    2.48    0.15
  -7   4   6    2.33    0.17
  -7  -4   6    2.41    0.16
   7  -4  -6    2.23    0.15
  -7   4   5    0.21    0.08
   7   4  -5    0.02    0.06
   7   4  -5    0.02    0.06
   7  -4  -5    0.07    0.06
  -7  -4   5    0.02    0.06
   7   4  -4    1.10    0.11
   7   4  -4    0.96    0.11
  -7   4   4    1.04    0.12
   7  -4  -4    0.99    0.10
  -7  -4   4    0.99    0.11
   7   4  -3    1.74    0.14
  -7   4   3    1.66    0.13
   7   4  -3    1.62    0.13
   7  -4  -3    1.71    0.13
  -7  -4   3    1.71    0.13
  -7   4   2    0.40    0.10
   7   4  -2    0.45    0.09
   7   4  -2    0.57    0.10
   7  -4  -2    0.66    0.09
  -7  -4   2    0.60    0.09
   7   4  -1    0.10    0.06
   7   4  -1    0.08    0.08
  -7   4   1    0.00    0.06
  -7  -4   1   -0.09    0.05
   7  -4  -1   -0.01    0.05
  -7   4   0    1.60    0.15
   7   4   0    1.49    0.13
  -7   4   0    1.70    0.13
  -7  -4   0    1.71    0.13
   7  -4   0    1.65    0.12
  -7   4  -1    0.22    0.06
   7   4   1    0.05    0.06
  -7   4  -1    0.15    0.08
   7  -4   1    0.15    0.06
  -7  -4  -1    0.10    0.06
  -7   4  -2    1.10    0.11
   7   4   2    1.10    0.12
  -7   4  -2    1.10    0.12
   7  -4   2    1.12    0.11
  -7  -4  -2    1.00    0.11
  -7   4  -3    0.70    0.10
   7   4   3    0.66    0.11
  -7   4  -3    0.86    0.11
   7  -4   3    0.58    0.10
  -7  -4  -3    0.68    0.10
   7   4   4    3.15    0.19
  -7   4  -4    3.28    0.18
  -7   4  -4    3.31    0.18
  -7  -4  -4    3.29    0.18
   7  -4   4    3.29    0.19
  -7   4  -5    0.55    0.09
  -7   4  -5    0.40    0.09
   7   4   5    0.32    0.08
   7  -4   5    0.31    0.09
  -7  -4  -5    0.50    0.09
  -7   4  -6    8.61    0.38
  -7   4  -6    8.83    0.38
   7   4   6    9.33    0.39
  -7  -4  -6    8.07    0.38
   7  -4   6    8.54    0.40
  -7  -4  -6    7.95    0.41
  -7   4  -7    2.10    0.13
   7   4   7    2.49    0.17
  -7   4  -7    2.13    0.13
  -7  -4  -7    1.98    0.15
  -7  -4  -7    1.95    0.14
   7  -4   7    2.18    0.15
  -7   4  -8    4.42    0.21
  -7   4  -8    4.51    0.21
   7   4   8    3.95    0.23
  -7  -4  -8    4.08    0.22
  -7  -4  -8    4.18    0.21
   7  -4   8    3.99    0.23
  -7   4  -9    1.32    0.11
  -7   4  -9    1.46    0.11
   7  -4   9    1.22    0.12
  -7  -4  -9    1.33    0.11
  -7  -4  -9    1.30    0.12
  -7   4 -10    0.04    0.04
  -7   4 -10    0.14    0.06
  -7  -4 -10    0.10    0.07
   7  -4  10    0.16    0.07
  -7  -4 -10    0.06    0.05
  -7   4 -11    0.02    0.04
  -7   4 -11    0.02    0.06
  -7  -4 -11    0.03    0.05
  -7  -4 -11    0.04    0.07
  -7  -4 -11   -0.04    0.09
   7  -4  11    0.03    0.06
  -7   4 -12    1.89    0.11
   7  -4  12    1.72    0.13
  -7  -4 -12    1.78    0.13
  -7  -4 -12    1.94    0.16
  -7   4 -13    0.74    0.07
  -7  -4 -13    0.86    0.11
   7  -4  13    0.74    0.09
  -7   4 -14    1.28    0.08
   7  -4  14    1.43    0.11
  -7   4 -15    0.67    0.06
   7   5 -11    0.06    0.03
   7   5 -10    0.19    0.05
   7   5  -9    0.06    0.04
   7  -5  -9    0.08    0.07
   7   5  -8    0.01    0.04
   7   5  -8    0.04    0.05
   7  -5  -8    0.05    0.06
   7   5  -7    0.57    0.07
   7   5  -7    0.54    0.07
   7  -5  -7    0.59    0.08
  -7  -5   7    0.42    0.12
   7   5  -6    0.20    0.07
   7   5  -6    0.30    0.07
   7  -5  -6    0.36    0.07
  -7  -5   6    0.47    0.12
  -7   5   5    0.27    0.09
   7   5  -5    0.34    0.08
   7   5  -5    0.39    0.07
   7  -5  -5    0.32    0.08
  -7  -5   5    0.44    0.11
  -7   5   4    0.15    0.06
   7   5  -4    0.28    0.09
   7   5  -4    0.25    0.07
  -7  -5   4    0.13    0.09
   7  -5  -4    0.22    0.07
   7   5  -3    1.66    0.10
  -7   5   3    1.50    0.11
   7   5  -3    1.35    0.12
   7  -5  -3    1.65    0.12
  -7  -5   3    1.50    0.13
   7   5  -2    0.24    0.07
  -7   5   2    0.27    0.07
   7  -5  -2    0.20    0.07
  -7  -5   2    0.22    0.08
   7   5  -1    0.54    0.08
  -7   5   1    0.57    0.07
  -7  -5   1    0.47    0.10
   7  -5  -1    0.44    0.08
  -7   5   0    0.23    0.06
   7   5   0    0.23    0.06
   7  -5   0    0.27    0.08
  -7  -5   0    0.21    0.08
  -7   5  -1    0.24    0.06
   7   5   1    0.27    0.08
  -7  -5  -1    0.17    0.08
   7  -5   1    0.23    0.06
  -7   5  -2    0.40    0.07
   7   5   2    0.46    0.08
  -7  -5  -2    0.40    0.10
   7  -5   2    0.54    0.08
  -7   5  -3    0.30    0.09
   7   5   3    0.40    0.08
  -7   5  -3    0.40    0.07
  -7  -5  -3    0.42    0.10
   7  -5   3    0.55    0.08
  -7   5  -4    0.11    0.06
   7   5   4    0.26    0.08
  -7   5  -4    0.12    0.04
  -7  -5  -4    0.03    0.07
   7  -5   4    0.20    0.07
   7   5   5    0.27    0.08
  -7   5  -5    0.21    0.06
  -7   5  -5    0.28    0.07
   7  -5   5    0.23    0.08
  -7   5  -6    0.15    0.05
   7   5   6    0.15    0.06
  -7   5  -6    0.10    0.04
  -7  -5  -6    0.11    0.09
   7  -5   6    0.07    0.06
  -7   5  -7    3.67    0.17
  -7   5  -7    3.68    0.17
   7   5   7    3.31    0.18
   7  -5   7    3.93    0.19
  -7  -5  -7    3.38    0.20
  -7   5  -8    0.29    0.06
  -7   5  -8    0.21    0.04
   7  -5   8    0.25    0.08
  -7   5  -9    0.30    0.05
   7  -5   9    0.36    0.08
  -7   5 -10    0.21    0.05
  -7   5 -11    0.35    0.05
  -8   0  22    0.10    0.04
   8   0 -20    0.09    0.07
   8   0 -19    0.02    0.06
   8   0 -18    0.76    0.09
   8   0 -17    0.14    0.06
  -8   0  16    4.54    0.23
   8   0 -16    4.77    0.24
   8   0 -16    4.95    0.23
   8   0 -15    0.01    0.04
   8   0 -15   -0.02    0.06
  -8   0  15   -0.05    0.07
  -8   0  14    0.10    0.08
   8   0 -14    0.24    0.08
   8   0 -14    0.30    0.08
   8   0 -13    0.02    0.05
   8   0 -13   -0.07    0.04
   8   0 -12    0.08    0.05
   8   0 -12    0.01    0.05
   8   0 -11   -0.01    0.05
   8   0 -11    0.00    0.05
   8   0 -10    0.10    0.05
   8   0 -10    0.04    0.10
   8   0 -10    0.12    0.05
   8   0  -9    0.39    0.12
   8   0  -8   99.71    4.11
   8   0  -8  106.05    4.09
   8   0  -7    0.00    0.04
  -8   0   7    0.00    0.05
   8   0  -7    0.03    0.05
   8   0  -6   10.70    0.44
  -8   0   6    9.78    0.44
   8   0  -5   -0.02    0.02
  -8   0   5    0.00    0.03
  -8   0   4    5.61    0.25
   8   0  -4    5.50    0.24
   8   0  -3    0.01    0.02
  -8   0   3    0.02    0.02
   8   0  -2   11.34    0.47
  -8   0   2   11.56    0.47
  -8   0   1    0.01    0.02
   8   0  -1    0.01    0.02
   8   0   0   61.15    2.46
  -8   0   0   62.63    2.46
  -8   0  -1    0.01    0.02
   8   0   1    0.02    0.02
  -8   0  -2    0.44    0.04
   8   0   2    0.46    0.04
   8   0   3    0.02    0.02
   8   0   4   29.87    1.20
   8   0   4   29.92    1.21
   8   0   5    0.04    0.02
   8   0   5    0.03    0.03
   8   0   6   49.06    1.95
   8   0   6   48.10    1.95
  -8   0  -7    0.00    0.04
   8   0   7    0.03    0.05
   8   0   7    0.01    0.04
   8   0   8   10.85    0.46
   8   0   8   10.28    0.46
  -8   0  -8   10.56    0.44
   8   0   9    0.03    0.07
  -8   0  -9    0.02    0.05
   8   0   9   -0.02    0.08
   8   0  10    2.18    0.23
  -8   0 -10    2.94    0.15
   8   0  10    3.05    0.21
  -8   0 -11   -0.02    0.06
  -8   0 -11   -0.01    0.04
   8   0  11    0.06    0.14
  -8   0 -12    5.93    0.27
  -8   0 -12    6.01    0.27
  -8   0 -12    5.24    0.28
  -8   0 -13    0.06    0.05
  -8   0 -13    0.08    0.05
  -8   0 -13    0.12    0.08
  -8   0 -14    1.28    0.13
  -8   0 -14    1.27    0.11
  -8   0 -14    1.29    0.11
  -8   0 -15    0.02    0.05
  -8   0 -15   -0.06    0.06
  -8   0 -16    2.47    0.16
  -8   0 -16    2.71    0.15
  -8   0 -17    0.02    0.05
  -8   0 -17   -0.06    0.05
  -8   0 -18    0.54    0.09
  -8   0 -18    0.60    0.07
  -8   0 -19    0.00    0.04
  -8   0 -19    0.04    0.06
  -8   0 -20    1.12    0.08
  -8   0 -20    0.99    0.11
  -8  -1  21    0.29    0.07
   8   1 -20    3.06    0.18
  -8   1  20    3.37    0.16
  -8  -1  20    3.08    0.16
   8  -1 -20    2.79    0.17
   8   1 -19    0.09    0.06
  -8   1  19    0.31    0.07
   8  -1 -19    0.21    0.07
   8   1 -18    0.37    0.10
  -8   1  18    0.49    0.07
   8  -1 -18    0.31    0.06
   8  -1 -18    0.53    0.09
  -8   1  17    0.90    0.09
   8   1 -17    0.80    0.10
   8  -1 -17    0.88    0.08
   8  -1 -17    0.78    0.09
   8   1 -16    5.33    0.27
   8  -1 -16    5.22    0.27
   8  -1 -16    5.93    0.26
   8   1 -15    1.15    0.11
   8  -1 -15    0.85    0.10
   8  -1 -15    1.09    0.10
   8   1 -14    0.47    0.09
   8  -1 -14    0.62    0.08
   8  -1 -14    0.50    0.09
   8   1 -13    3.52    0.19
   8  -1 -13    3.51    0.19
   8   1 -12    6.36    0.38
   8   1 -12    7.81    0.34
   8  -1 -12    7.62    0.33
   8  -1 -12    7.85    0.33
   8   1 -11    1.30    0.10
   8   1 -11    1.44    0.18
   8  -1 -11    1.15    0.10
   8  -1 -11    1.24    0.10
   8   1 -10   16.05    0.65
   8  -1 -10   14.74    0.70
   8  -1 -10   16.21    0.65
   8  -1 -10   15.15    0.64
   8   1  -9    0.77    0.16
   8   1  -9    1.15    0.09
   8  -1  -9    0.98    0.16
   8  -1  -9    1.24    0.09
   8   1  -8    0.26    0.07
   8   1  -8    0.16    0.07
  -8   1   8    0.25    0.10
   8  -1  -8    0.11    0.06
   8  -1  -8    0.25    0.06
   8   1  -7   48.97    1.92
   8   1  -7   48.55    1.94
  -8   1   7   46.03    1.94
   8  -1  -7   47.37    1.91
   8  -1  -7   48.60    1.93
   8   1  -6    1.20    0.11
  -8   1   6    1.28    0.12
  -8  -1   6    1.44    0.12
   8  -1  -6    1.30    0.08
   8  -1  -6    1.44    0.10
  -8   1   5   17.71    0.75
   8   1  -5   17.71    0.75
   8  -1  -5   17.31    0.74
  -8  -1   5   19.40    0.75
   8   1  -4    2.23    0.12
  -8   1   4    2.14    0.13
  -8  -1   4    2.32    0.12
   8  -1  -4    2.29    0.12
   8   1  -3    0.52    0.05
  -8   1   3    0.56    0.06
  -8  -1   3    0.58    0.06
   8  -1  -3    0.49    0.06
   8   1  -2    2.93    0.14
  -8   1   2    2.87    0.15
  -8  -1   2    3.14    0.14
   8  -1  -2    2.91    0.14
  -8   1   1   11.79    0.48
   8   1  -1   10.85    0.47
   8  -1  -1   11.07    0.48
  -8  -1   1   12.07    0.47
  -8   1   0  113.02    4.47
   8   1   0  109.72    4.46
  -8  -1   0  119.30    4.46
   8  -1   0  108.00    4.47
  -8   1  -1    0.35    0.05
   8   1   1    0.34    0.03
   8  -1   1    0.34    0.05
  -8  -1  -1    0.35    0.03
   8  -1   2    3.92    0.18
   8  -1   3    4.10    0.20
   8  -1   4    0.04    0.04
   8  -1   4    0.10    0.04
   8  -1   5    0.28    0.09
   8  -1   5    0.27    0.07
  -8   1  -6    9.98    0.41
   8  -1   6   10.58    0.43
  -8  -1  -6    8.71    0.40
   8  -1   6    9.61    0.44
  -8   1  -7    0.33    0.07
   8  -1   7    0.23    0.09
  -8  -1  -7    0.43    0.06
   8  -1   7    0.31    0.10
  -8   1  -8    0.06    0.04
   8  -1   8   -0.03    0.07
  -8  -1  -8    0.06    0.04
  -8   1  -9    1.22    0.09
  -8  -1  -9    1.29    0.09
   8  -1   9    1.26    0.18
  -8   1 -10    4.82    0.23
  -8  -1 -10    4.93    0.23
  -8  -1 -10    4.53    0.23
  -8  -1 -10    4.89    0.24
  -8   1 -11    2.03    0.13
  -8  -1 -11    2.00    0.14
  -8  -1 -11    2.31    0.14
  -8  -1 -11    2.14    0.13
  -8   1 -12    2.60    0.15
  -8  -1 -12    2.66    0.15
  -8  -1 -12    2.56    0.16
  -8  -1 -12    2.53    0.16
  -8   1 -13    0.30    0.08
  -8  -1 -13    0.43    0.09
  -8  -1 -13    0.44    0.08
  -8   1 -14    7.56    0.34
  -8  -1 -14    7.28    0.33
  -8  -1 -14    7.21    0.33
  -8  -1 -14    6.88    0.32
  -8   1 -15    2.27    0.15
  -8  -1 -15    2.19    0.13
  -8  -1 -15    2.03    0.13
  -8  -1 -15    2.27    0.15
  -8   1 -16    3.43    0.20
  -8  -1 -16    3.74    0.18
  -8  -1 -16    3.41    0.20
  -8  -1 -16    3.86    0.18
  -8   1 -17    1.27    0.11
  -8  -1 -17    1.43    0.10
  -8  -1 -17    1.29    0.12
  -8  -1 -17    1.26    0.10
  -8   1 -18    2.31    0.15
  -8  -1 -18    2.43    0.13
  -8  -1 -18    2.59    0.16
  -8   1 -19    1.49    0.12
  -8  -1 -19    1.66    0.10
  -8  -1 -19    1.67    0.12
  -8   1 -20    0.24    0.09
  -8  -1 -20    0.16    0.07
  -8  -1 -20    0.24    0.05
  -8  -1 -21    1.46    0.08
  -8   2  20    0.76    0.06
  -8   2  19    0.03    0.04
   8   2 -19    0.03    0.08
   8  -2 -19    0.06    0.07
  -8   2  18    0.05    0.04
   8   2 -18    0.04    0.07
   8  -2 -18    0.02    0.06
  -8  -2  18   -0.05    0.07
  -8   2  17    0.04    0.04
   8   2 -17    0.02    0.07
   8  -2 -17    0.00    0.05
   8  -2 -17   -0.02    0.04
  -8  -2  17   -0.10    0.06
   8   2 -16   -0.04    0.08
   8   2 -16    0.15    0.07
  -8  -2  16    0.03    0.06
   8  -2 -16    0.11    0.06
   8  -2 -16    0.07    0.05
   8   2 -15    5.17    0.27
   8   2 -15    5.81    0.27
   8  -2 -15    5.73    0.25
  -8  -2  15    5.52    0.27
   8  -2 -15    5.15    0.26
   8   2 -14    0.57    0.11
   8   2 -14    0.69    0.12
  -8  -2  14    0.80    0.13
   8  -2 -14    0.54    0.09
   8  -2 -14    0.74    0.09
   8   2 -13    0.42    0.10
   8   2 -13    0.43    0.09
   8  -2 -13    0.51    0.09
  -8  -2  13    0.36    0.09
   8  -2 -13    0.36    0.09
   8   2 -12    0.51    0.11
   8   2 -12    0.79    0.10
   8  -2 -12    0.67    0.08
  -8  -2  12    0.56    0.13
   8  -2 -12    0.67    0.10
   8   2 -11    0.44    0.10
   8   2 -11    0.35    0.08
  -8  -2  11    0.34    0.09
   8  -2 -11    0.39    0.10
   8  -2 -11    0.34    0.07
   8   2 -10    0.30    0.09
   8   2 -10    0.37    0.11
   8  -2 -10    0.19    0.05
   8  -2 -10    0.07    0.07
  -8  -2  10    0.25    0.09
   8   2  -9    0.16    0.07
   8   2  -9    0.23    0.08
  -8  -2   9    0.10    0.09
   8  -2  -9    0.13    0.08
   8  -2  -9    0.11    0.05
   8   2  -8    0.02    0.06
   8   2  -8    0.02    0.06
   8  -2  -8    0.11    0.04
   8   2  -7    2.80    0.15
   8   2  -7    2.23    0.25
   8   2  -7    2.15    0.17
   8  -2  -7    2.58    0.20
   8  -2  -7    2.80    0.14
  -8   2   6   35.28    1.57
   8   2  -6   39.34    1.54
   8   2  -6   38.84    1.58
   8  -2  -6   39.25    1.53
   8  -2  -6   37.70    1.55
  -8   2   5    0.07    0.09
   8   2  -5    0.01    0.05
   8   2  -5    0.02    0.08
   8  -2  -5    0.05    0.07
   8  -2  -5    0.02    0.04
   8   2  -4   28.11    1.14
  -8   2   4   26.39    1.14
   8   2  -4   27.98    1.12
   8  -2  -4   27.57    1.13
   8  -2  -4   27.66    1.11
  -8  -2   4   27.51    1.14
  -8   2   3    1.68    0.15
   8   2  -3    1.95    0.14
  -8  -2   3    1.95    0.14
   8  -2  -3    1.87    0.11
   8  -2  -3    1.83    0.13
   8   2  -2    0.82    0.10
  -8  -2   2    0.78    0.10
   8  -2  -2    0.82    0.10
   8  -2  -2    0.84    0.07
   8  -2  -1   12.22    0.52
   8  -2  -1   12.64    0.53
  -8  -2   1   12.72    0.52
  -8  -2   1   12.23    0.52
   8  -2   0    0.16    0.05
  -8  -2   0    0.16    0.06
   8  -2   0    0.19    0.06
  -8  -2   0    0.13    0.04
  -8  -2  -1    0.06    0.05
   8  -2   1   -0.06    0.05
   8  -2   2    4.61    0.27
  -8  -2  -2    4.69    0.22
   8  -2   2    4.77    0.24
   8  -2   3    0.29    0.08
  -8  -2  -3    0.24    0.07
  -8   2  -4   22.45    0.91
   8  -2   4   23.11    0.94
  -8  -2  -4   20.90    0.90
  -8   2  -5   12.07    0.52
  -8  -2  -5   11.97    0.51
   8  -2   5   12.56    0.56
  -8   2  -6    0.29    0.07
  -8  -2  -6    0.33    0.07
   8  -2   6    0.24    0.10
  -8   2  -7    0.12    0.07
  -8   2  -7    0.07    0.05
  -8  -2  -7    0.03    0.07
  -8  -2  -7    0.10    0.06
  -8  -2  -7    0.07    0.05
  -8   2  -8    1.33    0.13
  -8   2  -8    1.41    0.14
  -8   2  -8    1.60    0.11
  -8  -2  -8    1.60    0.11
  -8  -2  -8    1.46    0.13
  -8  -2  -8    1.38    0.12
  -8   2  -9    0.21    0.08
  -8   2  -9    0.17    0.06
  -8   2  -9    0.22    0.09
  -8  -2  -9    0.19    0.06
  -8  -2  -9    0.15    0.07
  -8  -2  -9    0.29    0.07
  -8   2 -10    3.70    0.20
  -8   2 -10    3.71    0.20
  -8  -2 -10    3.64    0.20
  -8  -2 -10    3.73    0.19
  -8  -2 -10    3.94    0.20
  -8   2 -11    0.34    0.07
  -8   2 -11    0.44    0.09
  -8  -2 -11    0.43    0.08
  -8  -2 -11    0.30    0.09
  -8  -2 -11    0.32    0.09
  -8   2 -12    6.78    0.32
  -8   2 -12    6.43    0.31
  -8  -2 -12    6.43    0.30
  -8  -2 -12    6.86    0.31
  -8  -2 -12    6.63    0.31
  -8   2 -13    0.46    0.09
  -8   2 -13    0.44    0.10
  -8  -2 -13    0.31    0.09
  -8  -2 -13    0.42    0.09
  -8  -2 -13    0.28    0.08
  -8   2 -14    5.84    0.30
  -8   2 -14    6.48    0.29
  -8  -2 -14    6.31    0.28
  -8  -2 -14    6.09    0.28
  -8  -2 -14    5.84    0.29
  -8   2 -15    2.81    0.17
  -8   2 -15    2.36    0.16
  -8  -2 -15    2.63    0.15
  -8  -2 -15    2.55    0.16
  -8  -2 -15    2.68    0.15
  -8   2 -16    1.02    0.11
  -8  -2 -16    1.19    0.09
  -8  -2 -16    1.05    0.11
  -8  -2 -16    1.14    0.09
  -8   2 -17    0.17    0.06
  -8  -2 -17    0.21    0.06
  -8  -2 -17    0.19    0.06
  -8  -2 -17    0.29    0.09
  -8   2 -18    0.44    0.08
  -8  -2 -18    0.33    0.09
  -8  -2 -18    0.51    0.06
  -8   2 -19    0.16    0.07
  -8  -2 -19    0.28    0.05
  -8  -2 -19    0.35    0.11
  -8  -2 -20    2.40    0.12
  -8   3  19    0.39    0.05
  -8   3  18    0.05    0.03
   8   3 -17    0.24    0.08
  -8   3  17    0.41    0.05
   8   3 -16    0.04    0.05
  -8   3  16    0.00    0.04
   8  -3 -16   -0.01    0.06
  -8   3  15    0.75    0.07
   8   3 -15    0.81    0.09
   8  -3 -15    0.73    0.09
   8   3 -14    0.33    0.08
   8  -3 -14    0.16    0.07
   8  -3 -14    0.15    0.06
   8   3 -13    0.85    0.10
   8  -3 -13    0.81    0.12
   8  -3 -13    0.73    0.09
   8   3 -12    0.72    0.09
   8  -3 -12    0.57    0.08
   8   3 -11    1.68    0.13
   8  -3 -11    1.52    0.11
   8   3 -10    0.48    0.09
   8  -3 -10    0.38    0.08
   8   3  -9    0.07    0.06
   8  -3  -9    0.03    0.05
   8   3  -8   14.04    0.62
   8   3  -8   15.22    0.62
   8  -3  -8   14.80    0.62
   8   3  -7    0.58    0.11
   8   3  -7    0.60    0.13
   8   3  -6    0.33    0.09
  -8   3   6    0.33    0.15
   8   3  -6    0.38    0.08
   8  -3  -6    0.39    0.07
   8   3  -5    0.20    0.08
   8   3  -5    0.26    0.07
  -8   3   5    0.39    0.14
   8  -3  -5    0.25    0.07
  -8   3   4    0.08    0.08
   8   3  -4    0.05    0.07
   8   3  -4    0.19    0.07
   8  -3  -4    0.01    0.04
   8   3  -3    0.19    0.07
   8   3  -3    0.09    0.07
  -8   3   3    0.10    0.07
  -8  -3   3    0.09    0.06
   8  -3  -3    0.06    0.04
   8   3  -2    3.23    0.19
  -8   3   2    3.19    0.18
   8   3  -2    3.13    0.19
   8  -3  -2    3.44    0.17
  -8  -3   2    3.23    0.18
  -8   3   1    0.90    0.15
  -8   3   1    0.74    0.11
   8   3  -1    0.68    0.11
   8   3  -1    0.74    0.12
  -8  -3   1    0.75    0.09
   8  -3  -1    0.69    0.08
   8   3   0    4.74    0.23
   8   3   0    4.29    0.25
  -8   3   0    4.28    0.22
  -8   3   0    4.15    0.23
   8  -3   0    4.58    0.22
  -8  -3   0    4.81    0.22
  -8   3  -1    4.36    0.22
   8   3   1    4.44    0.24
  -8   3  -1    4.20    0.23
  -8  -3  -1    4.84    0.22
   8  -3   1    4.91    0.22
  -8   3  -2    2.04    0.14
  -8   3  -2    2.17    0.15
   8  -3   2    2.24    0.14
  -8  -3  -2    2.18    0.24
  -8  -3  -2    2.32    0.14
  -8   3  -3    2.69    0.16
  -8   3  -3    2.63    0.17
  -8  -3  -3    2.90    0.22
  -8  -3  -3    3.04    0.16
  -8   3  -4    0.07    0.06
  -8   3  -4    0.00    0.06
  -8  -3  -4   -0.10    0.08
  -8  -3  -4    0.08    0.10
  -8  -3  -4    0.00    0.05
   8   3   5    2.47    0.17
  -8   3  -5    2.26    0.15
  -8   3  -5    2.57    0.15
  -8  -3  -5    2.36    0.14
  -8  -3  -5    2.42    0.16
  -8  -3  -5    2.18    0.19
   8   3   6    0.90    0.14
  -8   3  -6    0.78    0.10
  -8   3  -6    1.19    0.11
  -8  -3  -6    0.81    0.15
  -8  -3  -6    0.71    0.12
  -8  -3  -6    1.01    0.10
  -8   3  -7    1.57    0.12
   8   3   7    1.76    0.17
  -8   3  -7    1.75    0.13
  -8  -3  -7    1.83    0.13
  -8  -3  -7    1.46    0.15
  -8  -3  -7    1.49    0.13
  -8   3  -8    5.69    0.27
  -8   3  -8    5.57    0.27
   8   3   8    5.37    0.30
  -8  -3  -8    6.07    0.28
  -8  -3  -8    6.09    0.29
  -8  -3  -8    5.93    0.28
  -8   3  -9    2.63    0.16
  -8   3  -9    2.54    0.16
  -8  -3  -9    2.62    0.16
  -8  -3  -9    2.68    0.17
  -8  -3  -9    2.55    0.16
  -8   3 -10    1.41    0.11
  -8   3 -10    1.35    0.13
  -8  -3 -10    1.24    0.11
  -8  -3 -10    1.51    0.13
  -8  -3 -10    1.36    0.12
  -8   3 -11    2.75    0.16
  -8  -3 -11    2.67    0.15
  -8  -3 -11    2.69    0.16
  -8  -3 -11    2.57    0.16
  -8   3 -12    1.19    0.11
  -8  -3 -12    1.13    0.11
  -8  -3 -12    1.06    0.10
  -8  -3 -12    1.33    0.12
  -8   3 -13    1.17    0.11
  -8  -3 -13    1.28    0.10
  -8  -3 -13    1.03    0.10
  -8  -3 -13    1.16    0.12
  -8   3 -14    0.26    0.07
  -8  -3 -14    0.30    0.07
  -8  -3 -14    0.41    0.07
  -8  -3 -14    0.36    0.10
  -8   3 -15    0.06    0.05
  -8  -3 -15    0.05    0.08
  -8  -3 -15    0.05    0.04
  -8  -3 -15    0.08    0.04
  -8   3 -16    1.22    0.10
  -8  -3 -16    1.48    0.12
  -8  -3 -16    1.29    0.08
  -8  -3 -16    1.16    0.09
  -8   3 -17    0.51    0.10
  -8  -3 -17    0.49    0.11
  -8  -3 -17    0.48    0.06
  -8  -3 -18    0.67    0.06
  -8   4  16    0.70    0.07
   8   4 -15    0.64    0.06
  -8   4  15    0.58    0.06
  -8   4  14    1.74    0.10
   8   4 -14    1.87    0.10
   8  -4 -14    1.80    0.12
   8   4 -13    0.78    0.07
  -8   4  13    0.87    0.07
   8  -4 -13    0.82    0.09
  -8  -4  13    0.71    0.13
  -8   4  12    0.22    0.06
   8   4 -12    0.26    0.06
  -8  -4  12    0.25    0.09
   8  -4 -12    0.26    0.07
  -8   4  11    2.00    0.12
   8   4 -11    2.05    0.12
  -8  -4  11    2.04    0.15
   8  -4 -11    1.95    0.13
   8   4 -10    0.13    0.05
  -8   4  10    0.05    0.05
   8  -4 -10   -0.02    0.05
  -8  -4  10    0.12    0.08
   8   4  -9    0.76    0.12
   8   4  -9    0.99    0.10
  -8   4   9    1.00    0.09
  -8  -4   9    0.82    0.11
   8  -4  -9    1.03    0.10
   8   4  -8    0.53    0.09
  -8   4   8    0.36    0.09
   8   4  -8    0.44    0.11
  -8  -4   8    0.44    0.10
   8  -4  -8    0.43    0.08
   8   4  -7    0.08    0.06
   8   4  -7    0.06    0.06
   8  -4  -7    0.05    0.05
  -8  -4   7   -0.07    0.07
   8   4  -6    1.24    0.11
   8   4  -6    1.28    0.11
  -8   4   6    1.21    0.14
   8  -4  -6    1.19    0.11
  -8  -4   6    1.19    0.12
  -8   4   5    0.64    0.12
   8   4  -5    0.92    0.11
   8   4  -5    0.95    0.11
   8  -4  -5    0.93    0.10
  -8  -4   5    0.83    0.11
  -8   4   4   -0.07    0.07
   8   4  -4   -0.04    0.06
   8   4  -4    0.12    0.07
   8  -4  -4   -0.03    0.05
  -8  -4   4    0.04    0.07
   8   4  -3    2.56    0.17
  -8   4   3    2.68    0.16
   8   4  -3    2.71    0.16
   8  -4  -3    2.41    0.15
  -8  -4   3    2.44    0.16
   8   4  -2    0.02    0.06
  -8   4   2    0.00    0.06
   8   4  -2    0.00    0.08
  -8  -4   2    0.05    0.06
   8  -4  -2   -0.04    0.05
   8   4  -1    0.06    0.06
  -8   4   1    0.05    0.06
   8   4  -1   -0.03    0.08
  -8  -4   1    0.10    0.06
  -8   4   0    0.05    0.06
   8   4   0    0.02    0.06
   8  -4   0    0.02    0.05
  -8  -4   0    0.03    0.06
   8   4   1    0.45    0.10
  -8   4  -1    0.51    0.10
  -8   4  -1    0.47    0.12
  -8  -4  -1    0.50    0.10
   8  -4   1    0.30    0.08
  -8   4  -2    4.27    0.22
  -8   4  -2    4.13    0.21
   8   4   2    4.32    0.22
  -8  -4  -2    4.32    0.22
   8  -4   2    4.23    0.22
  -8   4  -3    0.13    0.06
   8   4   3    0.10    0.07
  -8   4  -3    0.18    0.06
   8  -4   3    0.12    0.06
  -8  -4  -3    0.19    0.07
  -8   4  -4    6.30    0.29
  -8   4  -4    6.78    0.29
   8   4   4    6.55    0.30
  -8  -4  -4    6.06    0.30
   8  -4   4    6.20    0.31
   8   4   5    5.90    0.28
  -8   4  -5    6.02    0.27
  -8   4  -5    5.77    0.27
   8  -4   5    5.54    0.28
  -8  -4  -5    5.26    0.27
  -8   4  -6    0.24    0.08
  -8  -4  -6    0.24    0.08
   8  -4   6    0.14    0.07
  -8  -4  -6    0.30    0.09
  -8   4  -7    0.11    0.05
   8   4   7    0.03    0.08
  -8  -4  -7    0.03    0.07
  -8  -4  -7    0.06    0.07
  -8   4  -8    0.26    0.07
   8   4   8    0.65    0.14
  -8   4  -8    0.33    0.08
  -8  -4  -8    0.29    0.09
  -8   4  -9    0.59    0.09
  -8   4  -9    0.81    0.09
  -8  -4  -9    0.49    0.10
   8  -4   9    0.64    0.10
  -8  -4  -9    0.55    0.09
  -8  -4  -9    0.72    0.18
  -8   4 -10    1.00    0.10
  -8   4 -10    0.85    0.08
  -8  -4 -10    0.89    0.12
  -8  -4 -10    0.90    0.09
   8  -4  10    0.92    0.11
  -8  -4 -10    0.82    0.11
  -8   4 -11    0.28    0.10
  -8   4 -11    0.10    0.04
   8  -4  11    0.06    0.06
  -8  -4 -11    0.01    0.07
  -8  -4 -11    0.06    0.05
  -8  -4 -11    0.03    0.07
  -8   4 -12    1.15    0.09
  -8  -4 -12    1.12    0.11
   8  -4  12    1.20    0.11
  -8  -4 -12    1.37    0.12
  -8   4 -13    0.73    0.07
   8  -4  13    0.88    0.10
  -8  -4 -13    0.57    0.10
  -8  -4 -13    0.94    0.12
  -8   4 -14    1.18    0.08
   8  -4  14    1.21    0.10
  -8   4 -15    0.71    0.06
   8   5 -11    0.05    0.03
   8   5 -10    0.39    0.05
   8   5  -9    1.07    0.07
   8  -5  -9    1.08    0.10
   8   5  -8    3.32    0.16
   8   5  -8    3.27    0.16
   8  -5  -8    3.25    0.17
   8   5  -7    0.88    0.08
   8   5  -7    0.79    0.08
   8  -5  -7    0.84    0.09
   8   5  -6    0.95    0.08
   8   5  -6    0.79    0.08
  -8  -5   6    1.08    0.14
   8  -5  -6    0.77    0.09
   8   5  -5    3.77    0.18
  -8   5   5    3.45    0.18
   8   5  -5    3.66    0.17
   8  -5  -5    3.67    0.19
  -8  -5   5    3.42    0.20
   8   5  -4    1.28    0.09
  -8   5   4    1.19    0.10
   8   5  -4    1.32    0.11
   8  -5  -4    1.37    0.10
  -8  -5   4    1.52    0.14
  -8   5   3    0.85    0.09
   8   5  -3    0.97    0.12
   8   5  -3    0.89    0.09
  -8  -5   3    0.77    0.12
   8  -5  -3    0.94    0.09
   8   5  -2    0.65    0.08
  -8   5   2    0.60    0.08
  -8  -5   2    0.58    0.12
   8  -5  -2    0.69    0.08
  -8   5   1    0.07    0.05
   8   5  -1    0.20    0.07
  -8  -5   1   -0.04    0.08
   8  -5  -1    0.01    0.06
  -8   5   0    0.02    0.04
   8   5   0    0.11    0.05
   8  -5   0    0.02    0.06
  -8  -5   0    0.08    0.08
  -8   5  -1    0.21    0.07
   8   5   1    0.14    0.05
   8  -5   1    0.17    0.06
  -8  -5  -1    0.10    0.08
   8   5   2    0.02    0.05
  -8   5  -2    0.10    0.04
  -8  -5  -2    0.03    0.09
   8  -5   2    0.21    0.07
  -8   5  -3    0.41    0.07
   8   5   3    0.52    0.08
  -8   5  -3    0.29    0.10
  -8  -5  -3    0.51    0.12
   8  -5   3    0.62    0.08
   8   5   4    0.38    0.08
  -8   5  -4    0.18    0.06
  -8   5  -4    0.18    0.06
  -8  -5  -4    0.10    0.09
   8  -5   4    0.17    0.06
  -8   5  -5    0.58    0.07
  -8   5  -5    0.44    0.06
   8   5   5    0.59    0.09
   8  -5   5    0.53    0.08
  -8  -5  -5    0.53    0.12
  -8   5  -6    0.10    0.04
   8   5   6    0.15    0.06
  -8   5  -6    0.08    0.04
  -8  -5  -6    0.07    0.10
   8  -5   6    0.16    0.07
  -8   5  -7    0.61    0.06
  -8   5  -7    0.62    0.07
   8   5   7    0.47    0.11
   8  -5   7    0.76    0.09
  -8   5  -8    1.34    0.09
  -8   5  -8    1.42    0.09
   8  -5   8    1.34    0.11
  -8   5  -9    0.77    0.08
  -8   5  -9    0.88    0.06
   8  -5   9    0.83    0.09
  -8   5 -10    0.33    0.05
  -8   5 -11    0.81    0.06
  -9   0  22    0.09    0.04
   9   0 -20    0.02    0.06
   9   0 -19    0.09    0.06
   9   0 -18    0.33    0.08
   9   0 -17    0.01    0.06
  -9   0  16    0.99    0.12
   9   0 -16    0.96    0.11
  -9   0  15    0.03    0.07
   9   0 -15    0.10    0.07
   9   0 -14    2.76    0.15
  -9   0  14    2.67    0.17
   9   0 -14    2.85    0.17
  -9   0  13    0.01    0.07
   9   0 -13   -0.01    0.05
   9   0 -13    0.02    0.05
   9   0 -12    0.10    0.05
   9   0 -12    0.02    0.05
   9   0 -11    0.02    0.05
   9   0 -11   -0.06    0.05
   9   0 -10    1.47    0.10
   9   0 -10    1.43    0.11
   9   0  -9   -0.05    0.05
   9   0  -9   -0.09    0.07
   9   0  -8  136.61    5.39
   9   0  -8  134.78    5.41
   9   0  -7    0.06    0.05
   9   0  -7    0.00    0.05
  -9   0   7    0.00    0.05
   9   0  -6   14.79    0.62
   9   0  -5    0.01    0.03
  -9   0   5    0.06    0.04
  -9   0   4    6.99    0.31
   9   0  -4    7.37    0.31
   9   0  -3    0.01    0.02
  -9   0   3    0.01    0.03
  -9   0   2    1.56    0.09
   9   0  -2    1.36    0.08
   9   0  -1    0.00    0.02
  -9   0   1    0.01    0.02
  -9   0   0   11.86    0.48
   9   0   0   11.63    0.48
   9   0   1    0.01    0.02
  -9   0  -1   -0.01    0.02
   9   0   2    0.28    0.04
  -9   0  -2    0.19    0.04
   9   0   3    0.00    0.02
   9   0   4    0.13    0.05
   9   0   4    0.23    0.04
   9   0   5   -0.01    0.04
   9   0   5   -0.01    0.03
   9   0   6   60.54    2.40
   9   0   6   59.69    2.41
   9   0   7    0.03    0.04
  -9   0  -7    0.02    0.05
   9   0   7   -0.01    0.05
  -9   0  -8    3.26    0.16
   9   0   8    3.29    0.20
   9   0   8    3.33    0.18
  -9   0  -9    0.05    0.05
   9   0   9    0.03    0.09
   9   0   9    0.05    0.07
   9   0  10    4.28    0.27
  -9   0 -10    4.18    0.20
  -9   0 -11   -0.02    0.08
  -9   0 -11   -0.02    0.04
  -9   0 -11   -0.08    0.06
  -9   0 -12    1.89    0.12
  -9   0 -12    1.38    0.15
  -9   0 -12    1.85    0.13
  -9   0 -13    0.06    0.05
  -9   0 -13   -0.05    0.08
  -9   0 -13   -0.02    0.06
  -9   0 -14   -0.02    0.05
  -9   0 -14    0.02    0.07
  -9   0 -15    0.04    0.05
  -9   0 -15   -0.02    0.06
  -9   0 -16    1.28    0.11
  -9   0 -16    1.48    0.11
  -9   0 -17   -0.01    0.05
  -9   0 -17   -0.01    0.05
  -9   0 -18    0.08    0.06
  -9   0 -18    0.18    0.07
  -9   0 -19   -0.01    0.04
  -9   0 -19   -0.03    0.06
  -9   0 -20    6.21    0.27
  -9   0 -20    6.68    0.30
  -9  -1  21    2.09    0.12
   9   1 -20    0.35    0.11
  -9   1  20    0.27    0.06
  -9  -1  20    0.29    0.07
   9  -1 -20    0.23    0.09
   9   1 -19    0.05    0.07
  -9   1  19    0.05    0.05
  -9  -1  19    0.02    0.05
   9  -1 -19   -0.02    0.06
  -9   1  18    0.62    0.08
   9   1 -18    0.61    0.09
   9  -1 -18    0.49    0.09
  -9   1  17    0.31    0.08
   9   1 -17    0.45    0.10
   9  -1 -17    0.38    0.09
   9  -1 -17    0.54    0.07
  -9   1  16   -0.02    0.05
   9   1 -16    0.01    0.06
   9  -1 -16    0.00    0.06
   9  -1 -16   -0.05    0.04
   9   1 -15    0.02    0.06
   9  -1 -15   -0.03    0.05
   9  -1 -15   -0.02    0.05
   9   1 -14   11.36    0.49
   9  -1 -14   10.61    0.47
   9  -1 -14   11.13    0.48
   9   1 -13    0.95    0.10
   9  -1 -13    0.81    0.09
   9  -1 -13    0.85    0.09
   9   1 -12    0.91    0.10
   9   1 -12    0.82    0.13
   9  -1 -12    0.91    0.09
   9  -1 -12    0.72    0.09
   9   1 -11    0.74    0.09
   9   1 -11    0.54    0.16
   9  -1 -11    0.81    0.08
   9  -1 -11    0.73    0.09
   9   1 -10    1.07    0.10
   9  -1 -10    0.88    0.10
   9  -1 -10    1.08    0.09
   9   1  -9    7.86    0.35
   9  -1  -9    7.74    0.39
   9  -1  -9    8.05    0.34
   9   1  -8    5.52    0.28
   9   1  -8    4.90    0.24
   9  -1  -8    5.05    0.27
   9  -1  -8    5.15    0.23
   9   1  -7   14.39    0.62
  -9   1   7   13.20    0.61
   9   1  -7   14.35    0.59
   9  -1  -7   14.23    0.61
   9  -1  -7   14.87    0.59
   9   1  -6    4.91    0.24
  -9   1   6    4.76    0.25
  -9  -1   6    4.96    0.25
   9  -1  -6    5.16    0.24
   9  -1  -6    4.92    0.22
  -9   1   5   11.16    0.49
   9   1  -5   11.07    0.48
  -9  -1   5   11.60    0.49
  -9   1   4    0.31    0.07
   9   1  -4    0.25    0.06
  -9  -1   4    0.35    0.07
   9  -1  -4    0.27    0.05
   9   1  -3    0.77    0.07
  -9   1   3    0.87    0.08
   9  -1  -3    0.84    0.07
  -9  -1   3    0.92    0.07
   9   1  -2    7.42    0.33
  -9   1   2    7.51    0.33
  -9  -1   2    8.22    0.33
   9  -1  -2    7.50    0.33
   9   1  -1    1.72    0.09
  -9   1   1    1.79    0.10
  -9  -1   1    1.88    0.10
   9  -1  -1    1.72    0.10
  -9   1   0    0.49    0.06
   9   1   0    0.39    0.04
   9  -1   0    0.50    0.06
  -9  -1   0    0.43    0.04
  -9   1  -1   15.07    0.63
   9   1   1   14.80    0.61
  -9  -1  -1   16.08    0.61
   9  -1   1   14.81    0.63
   9   1   2   10.77    0.45
  -9  -1  -2   11.42    0.45
   9  -1   2   11.04    0.47
   9  -1   3    0.29    0.06
   9  -1   4    8.15    0.36
   9  -1   4    8.07    0.37
   9  -1   5   36.76    1.48
   9  -1   5   35.88    1.49
  -9   1  -6   30.88    1.21
  -9  -1  -6   27.63    1.21
   9  -1   6   31.99    1.24
   9  -1   6   29.60    1.24
  -9   1  -7   28.33    1.15
   9  -1   7   30.64    1.18
  -9  -1  -7   26.54    1.15
  -9   1  -8    2.30    0.13
   9  -1   8    2.18    0.18
  -9  -1  -8    2.08    0.12
  -9   1  -9    0.44    0.07
   9  -1   9    0.49    0.17
  -9  -1  -9    0.47    0.10
  -9  -1  -9    0.51    0.07
  -9  -1  -9    0.40    0.12
  -9   1 -10    0.01    0.05
  -9  -1 -10    0.06    0.06
  -9  -1 -10    0.11    0.05
  -9  -1 -10   -0.01    0.06
  -9   1 -11    0.87    0.09
  -9   1 -11    0.68    0.15
  -9  -1 -11    0.87    0.09
  -9  -1 -11    0.86    0.10
  -9  -1 -11    0.90    0.10
  -9   1 -12    0.09    0.05
  -9  -1 -12    0.25    0.08
  -9  -1 -12    0.09    0.05
  -9  -1 -12    0.10    0.06
  -9   1 -13    0.59    0.09
  -9  -1 -13    0.42    0.09
  -9  -1 -13    0.42    0.09
  -9  -1 -13    0.54    0.09
  -9   1 -14    9.93    0.44
  -9  -1 -14   10.16    0.44
  -9  -1 -14    9.37    0.42
  -9  -1 -14    9.69    0.42
  -9   1 -15   -0.02    0.05
  -9  -1 -15    0.10    0.05
  -9  -1 -15    0.04    0.05
  -9  -1 -15    0.08    0.06
  -9   1 -16    0.05    0.06
  -9  -1 -16   -0.03    0.06
  -9  -1 -16   -0.04    0.04
  -9  -1 -16    0.01    0.05
  -9   1 -17    0.42    0.09
  -9  -1 -17    0.22    0.07
  -9  -1 -17    0.37    0.09
  -9  -1 -17    0.29    0.06
  -9   1 -18    1.26    0.11
  -9  -1 -18    1.37    0.12
  -9  -1 -18    1.40    0.09
  -9  -1 -18    1.23    0.10
  -9   1 -19    0.05    0.06
  -9  -1 -19    0.03    0.07
  -9  -1 -19    0.08    0.04
  -9   1 -20    6.22    0.29
  -9  -1 -20    6.06    0.26
  -9  -1 -20    6.28    0.29
  -9  -1 -21    0.05    0.03
  -9   2  20    0.88    0.07
   9   2 -19    0.00    0.09
  -9   2  19    0.00    0.03
   9  -2 -19   -0.01    0.07
   9   2 -18    0.12    0.07
  -9   2  18    0.17    0.04
  -9  -2  18    0.30    0.10
   9  -2 -18    0.17    0.06
   9   2 -17    0.20    0.08
  -9   2  17    0.24    0.06
   9  -2 -17    0.22    0.06
  -9  -2  17    0.43    0.10
   9  -2 -17    0.30    0.08
   9   2 -16    0.18    0.08
   9  -2 -16    0.31    0.07
  -9  -2  16    0.41    0.10
   9   2 -15    0.44    0.12
   9   2 -15    0.22    0.08
   9  -2 -15    0.36    0.08
  -9  -2  15    0.36    0.11
   9  -2 -15    0.39    0.08
   9   2 -14   -0.07    0.07
   9   2 -14    0.00    0.07
  -9  -2  14   -0.09    0.07
   9  -2 -14    0.00    0.06
   9  -2 -14    0.10    0.05
   9   2 -13    0.07    0.07
   9   2 -13    0.06    0.08
   9  -2 -13    0.04    0.05
  -9  -2  13    0.08    0.08
   9  -2 -13    0.03    0.06
   9   2 -12    0.36    0.11
   9   2 -12    0.39    0.10
   9  -2 -12    0.20    0.07
  -9  -2  12    0.27    0.08
   9  -2 -12    0.18    0.06
   9   2 -11    0.43    0.10
   9   2 -11    0.48    0.12
   9  -2 -11    0.45    0.08
   9  -2 -11    0.52    0.11
  -9  -2  11    0.43    0.13
   9   2 -10    0.09    0.07
   9   2 -10    0.06    0.06
   9  -2 -10    0.16    0.07
  -9  -2  10    0.12    0.08
   9  -2 -10    0.01    0.04
   9   2  -9    0.32    0.10
   9   2  -9    0.56    0.10
  -9  -2   9    0.55    0.10
   9  -2  -9    0.49    0.07
   9   2  -8   10.76    0.45
   9   2  -8    9.97    0.45
  -9  -2   8    9.77    0.46
   9  -2  -8   10.52    0.44
   9   2  -7    0.28    0.08
   9   2  -7    0.00    0.16
   9   2  -7    0.54    0.11
   9  -2  -7    0.46    0.12
   9  -2  -7    0.39    0.06
   9   2  -6    1.47    0.20
   9   2  -6    1.43    0.11
   9  -2  -6    1.55    0.17
   9  -2  -6    1.61    0.10
  -9   2   5    0.07    0.10
   9   2  -5    0.16    0.09
   9   2  -5    0.24    0.06
   9  -2  -5    0.11    0.04
   9  -2  -5    0.16    0.07
  -9   2   4    6.29    0.34
   9   2  -4    7.02    0.33
  -9  -2   4    6.79    0.33
   9  -2  -4    6.83    0.29
   9  -2  -4    6.70    0.32
  -9   2   3    0.19    0.08
   9   2  -3    0.35    0.11
  -9  -2   3    0.34    0.11
   9  -2  -3    0.41    0.09
   9  -2  -3    0.34    0.06
   9   2  -2    0.00    0.05
   9  -2  -2    0.00    0.04
  -9  -2   2    0.00    0.06
   9  -2  -2    0.04    0.05
   9   2  -1   14.43    0.60
   9  -2  -1   14.44    0.62
  -9  -2   1   14.03    0.60
   9  -2  -1   13.66    0.59
  -9  -2   1   15.53    0.60
   9  -2   0    1.15    0.09
   9  -2   0    1.14    0.12
  -9  -2   0    0.98    0.10
  -9  -2   0    1.33    0.09
  -9  -2  -1    6.94    0.32
   9  -2   1    7.73    0.34
  -9  -2  -2    1.00    0.10
   9  -2   2    1.05    0.12
   9  -2   3    0.10    0.07
  -9  -2  -3    0.07    0.05
  -9   2  -4    3.32    0.17
   9  -2   4    3.07    0.21
  -9  -2  -4    3.04    0.16
  -9   2  -5    6.27    0.28
  -9  -2  -5    5.97    0.27
   9  -2   5    5.87    0.32
  -9   2  -6   15.74    0.72
  -9   2  -6   18.77    0.73
  -9  -2  -6   17.54    0.71
  -9   2  -7    8.89    0.41
  -9   2  -7    9.91    0.41
  -9   2  -7    8.88    0.41
  -9  -2  -7   10.05    0.40
  -9  -2  -7    9.29    0.41
  -9  -2  -7    8.96    0.41
  -9   2  -8    0.00    0.07
  -9   2  -8    0.08    0.05
  -9   2  -8    0.05    0.06
  -9  -2  -8    0.02    0.05
  -9  -2  -8   -0.03    0.06
  -9  -2  -8   -0.11    0.06
  -9   2  -9    4.74    0.25
  -9   2  -9    4.85    0.24
  -9   2  -9    4.99    0.24
  -9  -2  -9    5.05    0.24
  -9  -2  -9    4.91    0.24
  -9  -2  -9    4.99    0.24
  -9   2 -10    7.57    0.35
  -9   2 -10    7.88    0.36
  -9  -2 -10    7.63    0.35
  -9  -2 -10    7.91    0.35
  -9  -2 -10    7.85    0.35
  -9   2 -11    0.43    0.10
  -9   2 -11    0.47    0.09
  -9  -2 -11    0.50    0.09
  -9  -2 -11    0.40    0.09
  -9  -2 -11    0.38    0.09
  -9   2 -12    5.40    0.26
  -9   2 -12    5.54    0.27
  -9  -2 -12    5.37    0.26
  -9  -2 -12    5.42    0.26
  -9  -2 -12    5.73    0.27
  -9   2 -13    0.70    0.10
  -9   2 -13    0.70    0.11
  -9  -2 -13    0.59    0.09
  -9  -2 -13    0.69    0.09
  -9  -2 -13    0.77    0.10
  -9   2 -14    2.48    0.16
  -9   2 -14    2.62    0.16
  -9  -2 -14    2.53    0.15
  -9  -2 -14    2.61    0.15
  -9  -2 -14    2.49    0.16
  -9   2 -15    0.00    0.06
  -9   2 -15    0.03    0.08
  -9  -2 -15    0.02    0.04
  -9  -2 -15    0.01    0.07
  -9  -2 -15   -0.01    0.04
  -9   2 -16    0.25    0.08
  -9  -2 -16    0.25    0.06
  -9  -2 -16    0.25    0.09
  -9   2 -17    1.11    0.11
  -9  -2 -17    1.09    0.11
  -9  -2 -17    1.22    0.09
  -9  -2 -17    1.31    0.09
  -9   2 -18    0.23    0.08
  -9  -2 -18    0.18    0.09
  -9  -2 -18    0.18    0.04
  -9  -2 -18    0.21    0.05
  -9   2 -19    1.81    0.13
  -9  -2 -19    1.71    0.09
  -9  -2 -19    1.61    0.15
  -9  -2 -20    1.37    0.08
  -9   3  18    0.04    0.03
   9   3 -17    0.61    0.08
  -9   3  17    0.48    0.06
   9  -3 -17    0.46    0.08
   9   3 -16    0.70    0.08
  -9   3  16    0.62    0.06
   9  -3 -16    0.56    0.08
  -9   3  15    1.00    0.08
   9   3 -15    1.09    0.09
   9  -3 -15    0.94    0.09
  -9   3  14    0.19    0.05
   9   3 -14    0.05    0.05
   9  -3 -14    0.13    0.06
   9   3 -13    0.26    0.06
   9  -3 -13    0.17    0.06
   9   3 -12    0.39    0.09
   9   3 -11    0.01    0.06
   9  -3 -11    0.01    0.05
   9   3 -10    0.09    0.06
   9  -3 -10    0.08    0.06
   9   3  -9    2.39    0.15
   9  -3  -9    2.36    0.14
   9   3  -8    0.02    0.09
   9   3  -8    0.38    0.10
   9  -3  -8    0.00    0.05
   9   3  -7    0.01    0.06
   9   3  -7    0.06    0.08
   9  -3  -7    0.03    0.05
   9   3  -6    3.95    0.20
   9   3  -6    3.40    0.21
   9  -3  -6    3.92    0.19
  -9   3   5    1.37    0.15
   9   3  -5    1.05    0.13
   9   3  -5    1.17    0.12
   9  -3  -5    1.30    0.10
  -9   3   4   -0.16    0.08
   9   3  -4   -0.02    0.06
   9   3  -4   -0.01    0.07
   9  -3  -4    0.12    0.05
  -9  -3   4    0.00    0.06
   9   3  -3    3.22    0.18
  -9   3   3    2.95    0.18
   9   3  -3    2.85    0.18
  -9  -3   3    3.20    0.17
   9  -3  -3    3.01    0.16
  -9   3   2    0.38    0.11
   9   3  -2    0.15    0.07
   9   3  -2    0.31    0.09
  -9  -3   2    0.26    0.08
   9  -3  -2    0.21    0.06
   9   3  -1    0.69    0.12
   9   3  -1    0.59    0.14
  -9   3   1    0.48    0.15
  -9   3   1    0.80    0.11
   9  -3  -1    0.66    0.08
  -9  -3   1    0.61    0.09
  -9   3   0    0.41    0.10
   9   3   0    0.47    0.16
  -9   3   0    0.44    0.09
  -9  -3   0    0.40    0.08
   9  -3   0    0.45    0.07
  -9   3  -1    9.42    0.41
  -9   3  -1    8.93    0.42
  -9  -3  -1   10.27    0.42
  -9  -3  -1    8.85    0.45
   9  -3   1   10.24    0.42
  -9   3  -2    0.25    0.07
  -9   3  -2    0.31    0.09
  -9  -3  -2    0.36    0.11
  -9  -3  -2    0.40    0.09
   9  -3   2    0.37    0.08
  -9   3  -3    8.21    0.36
  -9   3  -3    7.83    0.36
  -9  -3  -3    7.87    0.38
   9  -3   3    8.79    0.37
  -9  -3  -3    8.75    0.37
  -9  -3  -3    8.00    0.39
  -9   3  -4    0.33    0.09
  -9   3  -4    0.52    0.09
  -9  -3  -4    0.42    0.08
  -9  -3  -4    0.43    0.16
  -9  -3  -4    0.39    0.09
  -9   3  -5    1.22    0.11
  -9   3  -5    1.25    0.11
  -9  -3  -5    1.09    0.16
  -9  -3  -5    1.40    0.11
  -9  -3  -5    1.19    0.14
   9   3   6   58.32    2.32
  -9   3  -6   57.44    2.31
  -9   3  -6   55.51    2.31
  -9  -3  -6   57.92    2.32
  -9  -3  -6   58.91    2.32
  -9  -3  -6   57.87    2.31
   9   3   7   16.18    0.70
  -9   3  -7   15.72    0.69
  -9   3  -7   15.92    0.68
  -9  -3  -7   16.70    0.69
  -9  -3  -7   17.39    0.69
  -9  -3  -7   16.53    0.69
  -9   3  -8    0.33    0.07
  -9   3  -8    0.27    0.07
   9   3   8    0.31    0.11
  -9  -3  -8    0.52    0.10
  -9  -3  -8    0.27    0.08
  -9  -3  -8    0.32    0.08
  -9   3  -9    1.88    0.14
  -9   3  -9    1.82    0.13
  -9  -3  -9    1.91    0.15
  -9  -3  -9    2.06    0.14
  -9  -3  -9    1.91    0.14
  -9   3 -10    0.44    0.11
  -9   3 -10    0.30    0.09
  -9  -3 -10    0.33    0.09
  -9  -3 -10    0.44    0.11
  -9  -3 -10    0.23    0.07
  -9   3 -11    0.03    0.06
  -9   3 -11   -0.10    0.08
  -9  -3 -11    0.01    0.05
  -9  -3 -11   -0.01    0.06
  -9  -3 -11    0.05    0.06
  -9   3 -12    0.20    0.06
  -9  -3 -12    0.10    0.07
  -9  -3 -12    0.16    0.05
  -9  -3 -12    0.27    0.09
  -9   3 -13    0.09    0.05
  -9  -3 -13    0.02    0.07
  -9  -3 -13    0.00    0.05
  -9  -3 -13    0.09    0.05
  -9   3 -14    0.73    0.08
  -9  -3 -14    0.44    0.10
  -9  -3 -14    0.60    0.07
  -9  -3 -14    0.79    0.08
  -9   3 -15    1.09    0.09
  -9  -3 -15    1.01    0.12
  -9  -3 -15    1.20    0.09
  -9  -3 -15    1.30    0.09
  -9   3 -16    1.94    0.11
  -9  -3 -16    1.64    0.10
  -9  -3 -16    1.92    0.15
  -9  -3 -16    1.80    0.10
  -9   3 -17    1.80    0.14
  -9  -3 -17    1.45    0.09
  -9  -3 -18    0.15    0.05
  -9   4  15    0.50    0.06
   9   4 -15    0.39    0.05
  -9   4  14    0.46    0.06
   9   4 -14    0.39    0.06
   9  -4 -14    0.47    0.08
   9   4 -13    0.41    0.06
  -9   4  13    0.36    0.06
   9  -4 -13    0.43    0.08
   9   4 -12    0.64    0.07
  -9   4  12    0.56    0.07
   9  -4 -12    0.54    0.08
  -9  -4  12    0.49    0.12
   9   4 -11    0.81    0.08
  -9   4  11    0.74    0.08
   9  -4 -11    0.79    0.09
  -9  -4  11    0.95    0.12
   9   4 -10    2.87    0.15
  -9   4  10    2.42    0.14
   9  -4 -10    2.54    0.15
  -9  -4  10    2.62    0.17
   9   4  -9    0.16    0.07
  -9   4   9    0.15    0.06
   9   4  -9    0.30    0.08
  -9  -4   9    0.08    0.08
   9  -4  -9    0.08    0.05
   9   4  -8    3.48    0.18
   9   4  -8    2.98    0.17
   9  -4  -8    2.91    0.17
  -9  -4   8    2.94    0.18
   9   4  -7    0.15    0.06
   9   4  -7    0.14    0.06
   9  -4  -7    0.05    0.05
  -9  -4   7    0.16    0.07
   9   4  -6    0.08    0.06
  -9   4   6    0.34    0.12
   9   4  -6    0.19    0.06
   9  -4  -6    0.15    0.06
  -9  -4   6    0.22    0.08
   9   4  -5    0.98    0.11
  -9   4   5    0.87    0.13
   9   4  -5    1.15    0.12
   9  -4  -5    0.92    0.09
  -9  -4   5    0.91    0.12
   9   4  -4    1.81    0.14
   9   4  -4    2.11    0.14
  -9   4   4    1.95    0.14
   9  -4  -4    1.80    0.13
  -9  -4   4    2.03    0.14
  -9   4   3    3.00    0.17
   9   4  -3    2.98    0.17
   9   4  -3    2.90    0.18
  -9  -4   3    2.96    0.18
   9  -4  -3    2.93    0.17
   9   4  -2    0.87    0.13
  -9   4   2    0.67    0.11
   9   4  -2    0.76    0.11
  -9  -4   2    0.74    0.10
   9  -4  -2    0.62    0.09
   9   4  -1    0.10    0.06
  -9   4   1   -0.03    0.06
   9   4  -1   -0.12    0.09
  -9  -4   1    0.02    0.07
   9  -4  -1   -0.03    0.05
  -9   4   0    2.06    0.17
  -9   4   0    2.34    0.15
   9   4   0    2.00    0.15
  -9  -4   0    2.19    0.15
   9  -4   0    2.40    0.15
   9   4   1    0.58    0.11
  -9   4  -1    0.76    0.10
  -9   4  -1    0.90    0.11
   9  -4   1    0.72    0.09
  -9  -4  -1    0.71    0.10
  -9   4  -2    4.86    0.23
   9   4   2    4.58    0.24
  -9   4  -2    4.84    0.23
  -9  -4  -2    4.95    0.24
   9  -4   2    4.53    0.24
   9   4   3    2.54    0.16
  -9   4  -3    2.17    0.14
  -9   4  -3    2.35    0.15
   9  -4   3    2.39    0.15
  -9  -4  -3    2.21    0.15
   9   4   4    2.04    0.15
  -9   4  -4    1.87    0.13
  -9   4  -4    2.06    0.13
   9  -4   4    1.82    0.14
  -9  -4  -4    1.90    0.14
  -9   4  -5    3.83    0.19
  -9   4  -5    3.74    0.19
   9   4   5    4.03    0.21
   9  -4   5    3.62    0.21
  -9  -4  -5    3.41    0.20
   9   4   6    0.37    0.12
  -9   4  -6    0.01    0.05
  -9   4  -6    0.03    0.05
  -9  -4  -6    0.09    0.07
  -9  -4  -6   -0.03    0.08
   9  -4   6    0.11    0.06
  -9   4  -7    3.06    0.17
  -9   4  -7    3.10    0.17
   9   4   7    3.42    0.20
  -9  -4  -7    3.11    0.18
  -9  -4  -7    2.82    0.18
   9  -4   7    2.96    0.18
  -9   4  -8    0.29    0.08
  -9   4  -8    0.28    0.08
   9   4   8    0.39    0.13
   9  -4   8    0.20    0.07
  -9  -4  -8    0.18    0.08
  -9  -4  -8    0.41    0.10
  -9  -4  -8    0.13    0.10
  -9   4  -9    2.99    0.16
  -9   4  -9    3.09    0.16
   9  -4   9    2.87    0.17
  -9  -4  -9    2.82    0.17
  -9  -4  -9    2.71    0.16
  -9  -4  -9    2.79    0.18
  -9   4 -10    0.96    0.09
  -9   4 -10    1.03    0.10
  -9  -4 -10    0.98    0.09
  -9  -4 -10    0.83    0.12
   9  -4  10    1.11    0.11
  -9  -4 -10    1.01    0.11
  -9   4 -11    0.08    0.04
  -9   4 -11    0.13    0.07
   9  -4  11    0.09    0.06
  -9  -4 -11   -0.04    0.08
  -9  -4 -11    0.05    0.07
  -9  -4 -11    0.10    0.05
  -9   4 -12    0.07    0.04
  -9  -4 -12    0.07    0.04
   9  -4  12    0.21    0.08
  -9  -4 -12    0.01    0.06
  -9  -4 -12   -0.01    0.10
  -9   4 -13    0.04    0.04
  -9  -4 -13    0.12    0.06
   9  -4  13    0.03    0.06
  -9  -4 -13   -0.08    0.11
  -9   4 -14    0.00    0.03
   9  -4  14    0.07    0.06
  -9   4 -15    0.12    0.04
   9   5 -11    0.14    0.05
   9   5 -10    1.09    0.07
   9   5  -9    0.03    0.04
   9   5  -8    0.38    0.06
   9   5  -8    0.50    0.09
   9  -5  -8    0.48    0.08
   9   5  -7    0.26    0.07
   9   5  -7    0.18    0.05
   9  -5  -7    0.07    0.06
   9   5  -6    0.72    0.08
   9   5  -6    0.52    0.08
   9  -5  -6    0.74    0.08
   9   5  -5    0.70    0.07
  -9   5   5    0.61    0.10
   9   5  -5    0.77    0.09
   9  -5  -5    0.47    0.08
   9   5  -4    0.81    0.08
  -9   5   4    0.94    0.09
   9   5  -4    0.75    0.10
   9  -5  -4    0.94    0.09
  -9   5   3    0.03    0.05
   9   5  -3    0.07    0.05
   9   5  -3    0.02    0.08
  -9  -5   3    0.11    0.10
   9  -5  -3    0.03    0.06
   9   5  -2    1.26    0.10
  -9   5   2    1.25    0.09
   9  -5  -2    1.33    0.10
  -9  -5   2    1.30    0.14
   9   5  -1    0.75    0.08
  -9   5   1    0.71    0.08
   9  -5  -1    0.60    0.09
  -9  -5   1    0.73    0.12
   9   5   0   -0.06    0.04
  -9   5   0   -0.01    0.04
   9  -5   0    0.00    0.06
  -9  -5   0    0.15    0.10
   9   5   1    0.04    0.05
  -9   5  -1    0.04    0.04
  -9  -5  -1    0.11    0.09
   9  -5   1    0.04    0.06
  -9   5  -2    0.21    0.06
   9   5   2    0.31    0.08
   9  -5   2    0.31    0.08
  -9   5  -3    0.63    0.07
  -9   5  -3    0.58    0.10
   9   5   3    0.63    0.08
   9  -5   3    0.55    0.09
  -9  -5  -3    0.75    0.12
  -9   5  -4    0.16    0.05
   9   5   4    0.26    0.08
  -9   5  -4    0.26    0.08
  -9  -5  -4    0.17    0.10
   9  -5   4    0.07    0.06
   9   5   5    0.31    0.08
  -9   5  -5    0.11    0.05
  -9   5  -5    0.17    0.05
   9  -5   5    0.04    0.05
   9   5   6    0.49    0.08
  -9   5  -6    0.53    0.07
  -9   5  -6    0.44    0.06
   9  -5   6    0.31    0.08
   9   5   7    0.37    0.11
  -9   5  -7    0.63    0.07
  -9   5  -7    0.58    0.06
   9  -5   7    0.63    0.09
  -9   5  -8    0.15    0.05
  -9   5  -8    0.15    0.04
   9  -5   8    0.21    0.08
  -9   5  -9    2.23    0.11
  -9   5  -9    2.15    0.12
  -9   5 -10    0.14    0.05
 -10   0  22    0.85    0.07
 -10   0  21   -0.01    0.04
  10   0 -20    0.35    0.10
  10   0 -19   -0.01    0.06
  10   0 -18    0.35    0.09
  10   0 -17    0.00    0.06
  10   0 -16    1.25    0.11
 -10   0  16    1.23    0.12
  10   0 -15   -0.02    0.06
 -10   0  15   -0.05    0.06
 -10   0  14    1.65    0.13
  10   0 -14    2.08    0.14
  10   0 -14    1.86    0.12
  10   0 -13    0.03    0.04
  10   0 -13    0.03    0.06
 -10   0  13    0.00    0.07
 -10   0  12    3.12    0.18
  10   0 -12    3.43    0.18
  10   0 -12    3.30    0.17
  10   0 -11   -0.07    0.05
  10   0 -11    0.01    0.05
  10   0 -10    4.79    0.22
  10   0 -10    4.49    0.22
  10   0  -9    0.00    0.05
  10   0  -9   -0.10    0.07
  10   0  -8    0.19    0.07
  10   0  -8    0.15    0.05
  10   0  -7   -0.04    0.05
  10   0  -7    0.01    0.05
 -10   0   7    0.08    0.06
  10   0  -6    9.59    0.42
 -10   0   6    9.72    0.43
 -10   0   5    0.02    0.04
  10   0  -5    0.01    0.03
  10   0  -4   24.33    0.99
  10   0  -3    0.01    0.02
 -10   0   3   -0.01    0.02
  10   0  -2   31.66    1.32
 -10   0   2   34.26    1.33
 -10   0   1    0.01    0.03
  10   0  -1    0.01    0.02
  10   0   0    1.73    0.09
 -10   0   0    1.73    0.09
  10   0   1    0.00    0.02
 -10   0  -1    0.03    0.02
 -10   0  -2    1.32    0.08
  10   0   2    1.30    0.08
  10   0   3    0.00    0.02
  10   0   4    2.50    0.12
  10   0   5   -0.04    0.04
  10   0   5    0.02    0.03
  10   0   6    1.98    0.12
  10   0   6    1.91    0.13
  10   0   7    0.02    0.04
 -10   0  -7    0.09    0.05
  10   0   7    0.02    0.06
  10   0   8   37.08    1.55
 -10   0  -8   39.18    1.53
  10   0   9    0.04    0.10
  10   0   9    0.00    0.08
 -10   0  -9    0.02    0.04
  10   0  10    2.20    0.21
 -10   0 -10    1.84    0.12
 -10   0 -11   -0.11    0.06
 -10   0 -11   -0.13    0.08
 -10   0 -11    0.07    0.05
 -10   0 -12    0.09    0.06
 -10   0 -12    0.07    0.08
 -10   0 -12    0.04    0.05
 -10   0 -13    0.00    0.06
 -10   0 -13    0.01    0.06
 -10   0 -13    0.06    0.08
 -10   0 -14    2.37    0.15
 -10   0 -14    2.26    0.16
 -10   0 -14    2.15    0.14
 -10   0 -15    0.08    0.06
 -10   0 -15   -0.02    0.05
 -10   0 -16    0.37    0.08
 -10   0 -16    0.44    0.08
 -10   0 -17    0.08    0.06
 -10   0 -17    0.02    0.05
 -10   0 -18   12.21    0.54
 -10   0 -18   12.48    0.51
 -10   0 -19    0.02    0.07
 -10   0 -19    0.09    0.04
 -10   0 -20    0.04    0.07
 -10   0 -20    0.06    0.04
 -10  -1  21    1.02    0.08
  10   1 -20    0.11    0.09
 -10   1  20    0.07    0.06
  10  -1 -20    0.25    0.09
 -10  -1  20    0.26    0.06
 -10   1  19    0.66    0.08
  10   1 -19    0.74    0.11
 -10  -1  19    0.70    0.08
  10  -1 -19    0.55    0.09
  10   1 -18    2.55    0.16
 -10   1  18    2.65    0.14
  10  -1 -18    2.49    0.15
 -10   1  17    0.32    0.07
  10   1 -17    0.30    0.10
  10  -1 -17    0.29    0.09
  10   1 -16    4.66    0.25
 -10   1  16    5.16    0.23
  10  -1 -16    4.56    0.24
  10  -1 -16    4.90    0.23
  10   1 -15   -0.05    0.06
  10  -1 -15   -0.01    0.06
  10  -1 -15   -0.06    0.04
  10   1 -14    7.62    0.35
  10  -1 -14    7.56    0.34
  10  -1 -14    7.39    0.33
  10   1 -13   -0.01    0.06
  10  -1 -13   -0.02    0.05
  10  -1 -13    0.04    0.06
  10   1 -12    0.84    0.18
  10   1 -12    0.93    0.10
  10  -1 -12    0.97    0.09
  10  -1 -12    0.87    0.10
  10   1 -11    0.06    0.05
  10   1 -11    0.19    0.09
  10  -1 -11    0.11    0.06
  10  -1 -11    0.14    0.06
  10   1 -10   13.39    0.61
  10   1 -10   14.42    0.60
  10  -1 -10   14.10    0.59
  10  -1 -10   14.88    0.59
  10   1  -9    5.75    0.26
  10  -1  -9    5.49    0.32
  10  -1  -9    5.66    0.25
  10   1  -8   11.42    0.54
  10   1  -8   11.79    0.49
  10  -1  -8   12.18    0.49
  10  -1  -8   11.36    0.52
  10   1  -7    6.83    0.30
  10   1  -7    6.74    0.33
  10  -1  -7    6.82    0.32
  10  -1  -7    7.09    0.30
  10   1  -6   16.15    0.68
 -10   1   6   15.35    0.68
  10  -1  -6   16.70    0.68
  10  -1  -6   16.41    0.65
 -10  -1   6   15.41    0.68
 -10   1   5    0.86    0.11
  10   1  -5    0.97    0.09
 -10  -1   5    1.11    0.11
  10  -1  -5    1.08    0.09
  10   1  -4    0.23    0.06
 -10   1   4    0.24    0.08
  10  -1  -4    0.23    0.06
 -10  -1   4    0.35    0.08
  10   1  -3   -0.03    0.03
 -10   1   3   -0.02    0.04
  10  -1  -3    0.00    0.03
 -10  -1   3   -0.03    0.03
 -10   1   2    4.88    0.23
  10   1  -2    4.85    0.22
 -10  -1   2    4.98    0.22
  10  -1  -2    4.77    0.22
  10   1  -1    0.50    0.05
 -10   1   1    0.48    0.07
 -10  -1   1    0.57    0.06
  10  -1  -1    0.56    0.06
 -10   1   0   67.33    2.66
  10   1   0   62.81    2.65
  10  -1   0   64.18    2.66
 -10  -1   0   72.08    2.65
 -10   1  -1   22.23    0.91
  10   1   1   21.76    0.89
  10  -1   1   21.33    0.90
 -10  -1  -1   23.31    0.89
  10   1   2   10.51    0.43
 -10  -1  -2   10.87    0.43
  10  -1   2   10.53    0.45
  10  -1   3    0.14    0.04
  10  -1   4   19.61    0.78
  10  -1   4   18.04    0.79
  10  -1   5  189.39    7.28
  10  -1   5  176.84    7.29
 -10   1  -6    0.73    0.08
 -10  -1  -6    0.64    0.08
  10  -1   6    0.46    0.14
  10  -1   6    0.64    0.10
 -10   1  -7    1.97    0.12
  10  -1   7    1.78    0.15
 -10  -1  -7    1.62    0.11
 -10   1  -8    5.21    0.25
  10  -1   8    5.66    0.30
 -10  -1  -8    5.20    0.24
 -10   1  -9    2.50    0.14
 -10  -1  -9    2.55    0.16
 -10  -1  -9    2.73    0.14
  10  -1   9    2.62    0.23
 -10  -1  -9    2.35    0.16
 -10   1 -10    3.22    0.17
 -10  -1 -10    3.07    0.16
 -10  -1 -10    2.86    0.17
 -10  -1 -10    2.86    0.17
 -10   1 -11    0.11    0.05
 -10   1 -11    0.07    0.09
 -10  -1 -11    0.03    0.06
 -10  -1 -11    0.05    0.05
 -10  -1 -11    0.02    0.05
 -10   1 -12    2.79    0.17
 -10  -1 -12    2.71    0.16
 -10  -1 -12    3.08    0.17
 -10  -1 -12    2.93    0.16
 -10   1 -13    0.76    0.10
 -10  -1 -13    0.53    0.10
 -10  -1 -13    0.61    0.09
 -10  -1 -13    0.58    0.09
 -10   1 -14    4.93    0.24
 -10  -1 -14    4.52    0.23
 -10  -1 -14    4.49    0.23
 -10  -1 -14    5.02    0.24
 -10   1 -15    0.15    0.06
 -10  -1 -15    0.18    0.05
 -10  -1 -15    0.17    0.06
 -10  -1 -15    0.11    0.06
 -10   1 -16    0.89    0.11
 -10  -1 -16    0.92    0.11
 -10  -1 -16    1.14    0.10
 -10  -1 -16    1.17    0.09
 -10   1 -17    0.56    0.09
 -10  -1 -17    0.39    0.08
 -10  -1 -17    0.68    0.10
 -10  -1 -17    0.65    0.07
 -10   1 -18    0.35    0.09
 -10  -1 -18    0.43    0.07
 -10  -1 -18    0.38    0.09
 -10  -1 -18    0.50    0.08
 -10   1 -19   -0.05    0.06
 -10  -1 -19    0.03    0.03
 -10  -1 -19    0.09    0.07
 -10   1 -20    1.21    0.11
 -10  -1 -20    1.12    0.07
 -10  -1 -20    0.93    0.14
 -10  -1 -21    0.22    0.05
 -10   2  20    2.28    0.11
 -10   2  19    0.13    0.04
  10  -2 -19    0.17    0.08
 -10   2  18    1.04    0.08
  10   2 -18    1.06    0.12
  10  -2 -18    0.93    0.10
 -10  -2  18    0.89    0.11
  10   2 -17    0.06    0.08
 -10   2  17    0.09    0.04
 -10  -2  17    0.07    0.06
  10  -2 -17    0.04    0.06
  10   2 -16    0.01    0.07
  10   2 -16   -0.11    0.08
  10  -2 -16   -0.01    0.05
  10  -2 -16    0.05    0.04
 -10  -2  16    0.01    0.06
  10   2 -15    1.04    0.12
  10   2 -15    1.16    0.13
 -10  -2  15    1.10    0.12
  10  -2 -15    1.08    0.10
  10  -2 -15    0.97    0.10
  10   2 -14    0.18    0.07
  10   2 -14    0.24    0.08
  10  -2 -14    0.25    0.08
  10  -2 -14    0.10    0.06
 -10  -2  14    0.07    0.07
  10   2 -13    0.38    0.11
  10   2 -13    0.36    0.11
  10  -2 -13    0.45    0.08
  10  -2 -13    0.25    0.06
 -10  -2  13    0.28    0.08
  10   2 -12    6.17    0.29
  10   2 -12    5.93    0.29
  10  -2 -12    5.70    0.27
  10  -2 -12    5.76    0.27
 -10  -2  12    5.50    0.28
  10   2 -11    0.35    0.11
  10   2 -11    0.07    0.07
  10  -2 -11    0.16    0.06
  10  -2 -11    0.10    0.05
 -10  -2  11    0.16    0.08
  10   2 -10    5.16    0.25
  10   2 -10    5.07    0.25
  10  -2 -10    5.07    0.23
 -10  -2  10    4.30    0.25
  10  -2 -10    4.43    0.24
  10   2  -9   10.06    0.42
  10   2  -9    9.28    0.42
  10  -2  -9   10.01    0.41
 -10  -2   9    8.89    0.42
  10  -2  -9    9.11    0.42
  10   2  -8    0.73    0.11
  10   2  -8    0.76    0.10
  10  -2  -8    0.72    0.07
 -10  -2   8    0.75    0.14
  10   2  -7    1.89    0.13
  10   2  -7    2.02    0.15
  10  -2  -7    2.01    0.23
  10  -2  -7    2.04    0.12
  10   2  -6   -0.09    0.07
  10   2  -6   -0.04    0.06
  10   2  -6    0.16    0.12
  10  -2  -6    0.02    0.04
  10  -2  -6   -0.01    0.09
  10   2  -5    0.22    0.06
  10   2  -5    0.55    0.17
  10  -2  -5    0.21    0.06
  10  -2  -5    0.21    0.08
  10   2  -4    1.01    0.15
  10  -2  -4    0.93    0.12
  10  -2  -4    0.95    0.08
 -10  -2   4    1.22    0.16
 -10   2   3    0.13    0.09
  10   2  -3    0.19    0.08
 -10  -2   3    0.14    0.08
  10  -2  -3    0.12    0.06
  10  -2  -3    0.17    0.05
  10   2  -2    4.28    0.22
 -10   2   2    4.06    0.24
  10  -2  -2    4.22    0.20
  10  -2  -2    4.42    0.23
 -10  -2   2    4.30    0.22
  10   2  -1    1.57    0.12
  10  -2  -1    1.44    0.10
 -10  -2   1    1.62    0.12
 -10  -2   1    1.55    0.12
  10  -2  -1    1.46    0.13
 -10  -2   0    8.53    0.34
 -10  -2   0    7.68    0.35
  10  -2   0    7.65    0.34
  10  -2   0    8.39    0.38
  10  -2   1   14.33    0.60
 -10  -2  -1   13.31    0.57
  10  -2   2    0.65    0.11
 -10  -2  -2    0.40    0.08
 -10  -2  -3    1.60    0.12
  10  -2   3    1.90    0.16
 -10  -2  -4   77.38    3.17
  10  -2   4   81.93    3.21
 -10   2  -5    7.05    0.31
 -10  -2  -5    6.46    0.30
  10  -2   5    7.12    0.36
 -10   2  -6   46.29    1.83
 -10   2  -6   43.82    1.82
 -10  -2  -6   46.46    1.82
 -10  -2  -6   44.67    1.83
 -10  -2  -6   45.49    1.83
 -10   2  -7   16.22    0.62
 -10   2  -7   14.59    0.61
 -10   2  -7   13.52    0.61
 -10  -2  -7   14.46    0.62
 -10  -2  -7   15.23    0.62
 -10  -2  -7   13.56    0.61
 -10   2  -8    6.78    0.30
 -10   2  -8    6.15    0.30
 -10   2  -8    6.23    0.29
 -10  -2  -8    6.78    0.29
 -10  -2  -8    6.20    0.30
 -10  -2  -8    6.67    0.30
 -10   2  -9    2.15    0.14
 -10   2  -9    1.62    0.16
 -10   2  -9    2.04    0.14
 -10  -2  -9    2.33    0.13
 -10  -2  -9    2.00    0.14
 -10  -2  -9    2.03    0.13
 -10   2 -10    4.53    0.24
 -10   2 -10    4.41    0.22
 -10   2 -10    4.65    0.23
 -10  -2 -10    4.59    0.22
 -10  -2 -10    4.37    0.22
 -10  -2 -10    4.45    0.23
 -10   2 -11    0.35    0.10
 -10   2 -11    0.47    0.09
 -10  -2 -11    0.38    0.09
 -10  -2 -11    0.28    0.06
 -10  -2 -11    0.41    0.09
 -10   2 -12    1.04    0.11
 -10   2 -12    1.04    0.11
 -10  -2 -12    1.07    0.11
 -10  -2 -12    1.18    0.11
 -10  -2 -12    1.01    0.10
 -10   2 -13   -0.01    0.06
 -10   2 -13    0.05    0.06
 -10  -2 -13    0.06    0.05
 -10  -2 -13   -0.01    0.07
 -10  -2 -13    0.08    0.05
 -10   2 -14    0.04    0.06
 -10   2 -14    0.01    0.07
 -10  -2 -14    0.05    0.04
 -10  -2 -14   -0.05    0.07
 -10  -2 -14    0.06    0.05
 -10   2 -15    2.51    0.17
 -10   2 -15    2.91    0.17
 -10  -2 -15    2.93    0.15
 -10  -2 -15    2.70    0.17
 -10  -2 -15    2.98    0.15
 -10   2 -16    0.32    0.09
 -10  -2 -16    0.25    0.08
 -10  -2 -16    0.39    0.07
 -10  -2 -16    0.23    0.07
 -10   2 -17    0.37    0.09
 -10  -2 -17    0.40    0.06
 -10  -2 -17    0.38    0.06
 -10  -2 -17    0.40    0.10
 -10   2 -18    1.64    0.12
 -10  -2 -18    1.59    0.09
 -10  -2 -18    1.62    0.14
 -10  -2 -18    1.50    0.09
 -10   2 -19    0.65    0.10
 -10  -2 -19    0.64    0.06
 -10  -2 -20    0.13    0.04
 -10   3  18    0.24    0.05
  10   3 -17    0.12    0.06
 -10   3  17    0.16    0.05
  10  -3 -17    0.03    0.07
  10   3 -16    0.87    0.08
 -10   3  16    0.78    0.07
  10  -3 -16    0.71    0.09
 -10   3  15   -0.03    0.03
  10   3 -15   -0.03    0.05
  10  -3 -15   -0.05    0.06
  10   3 -14    0.27    0.08
 -10   3  14    0.20    0.05
  10  -3 -14    0.12    0.06
 -10   3  13    0.49    0.08
  10   3 -13    0.46    0.09
  10  -3 -13    0.36    0.08
  10   3 -12   -0.01    0.05
  10  -3 -12   -0.03    0.05
  10   3 -11    0.96    0.11
  10  -3 -11    0.86    0.10
  10   3 -10   -0.01    0.06
  10  -3 -10   -0.02    0.05
  10   3  -9    1.58    0.13
  10  -3  -9    1.87    0.12
  10   3  -8    3.44    0.22
  10   3  -8    3.82    0.20
  10  -3  -8    3.88    0.19
  10   3  -7    0.45    0.10
  10   3  -7    0.51    0.14
  10  -3  -7    0.30    0.07
  10   3  -6    5.35    0.28
  10   3  -6    5.87    0.28
  10  -3  -6    5.97    0.27
  10   3  -5    3.14    0.19
 -10   3   5    2.75    0.20
  10   3  -5    3.08    0.18
  10  -3  -5    3.27    0.17
  10   3  -4    0.00    0.06
  10   3  -4    0.09    0.07
 -10   3   4   -0.02    0.08
  10  -3  -4    0.07    0.05
 -10  -3   4    0.07    0.07
  10   3  -3    3.32    0.20
 -10   3   3    3.22    0.19
  10   3  -3    3.46    0.20
  10  -3  -3    3.57    0.18
 -10  -3   3    3.65    0.19
  10   3  -2    0.18    0.08
  10   3  -2    0.27    0.08
 -10   3   2    0.48    0.11
 -10  -3   2    0.25    0.07
  10  -3  -2    0.30    0.07
  10   3  -1    2.44    0.18
 -10   3   1    2.31    0.15
  10  -3  -1    2.68    0.15
 -10  -3   1    2.10    0.23
 -10  -3   1    2.71    0.15
 -10   3   0    0.27    0.07
  10   3   0    0.30    0.10
 -10   3   0    0.27    0.08
 -10  -3   0    0.33    0.08
  10  -3   0    0.18    0.07
 -10  -3   0    0.35    0.11
 -10   3  -1    3.49    0.18
 -10   3  -1    3.19    0.19
 -10  -3  -1    3.65    0.19
 -10  -3  -1    3.49    0.24
  10  -3   1    3.63    0.18
 -10   3  -2    0.30    0.09
 -10   3  -2    0.19    0.06
 -10  -3  -2    0.24    0.10
  10  -3   2    0.22    0.07
 -10  -3  -2    0.25    0.09
 -10   3  -3    7.78    0.35
 -10   3  -3    7.72    0.35
  10  -3   3    8.27    0.36
 -10  -3  -3    8.65    0.36
 -10  -3  -3    7.69    0.38
 -10  -3  -3    7.60    0.37
 -10   3  -4    3.06    0.17
 -10   3  -4    3.15    0.17
 -10  -3  -4    3.22    0.17
 -10  -3  -4    2.79    0.21
 -10  -3  -4    3.41    0.20
 -10   3  -5    0.71    0.10
 -10   3  -5    0.74    0.09
 -10  -3  -5    0.41    0.14
 -10  -3  -5    0.62    0.09
 -10  -3  -5    0.74    0.12
 -10   3  -6    0.88    0.09
 -10   3  -6    0.62    0.10
 -10  -3  -6    0.96    0.14
 -10  -3  -6    0.84    0.10
 -10  -3  -6    0.57    0.11
 -10   3  -7    0.08    0.06
  10   3   7    0.05    0.09
 -10   3  -7    0.03    0.05
 -10  -3  -7   -0.07    0.05
 -10  -3  -7    0.01    0.06
 -10  -3  -7    0.02    0.08
 -10   3  -8    0.92    0.10
  10   3   8    0.79    0.16
 -10   3  -8    0.79    0.09
 -10  -3  -8    0.54    0.12
 -10  -3  -8    0.70    0.10
 -10  -3  -8    0.83    0.11
 -10   3  -9    0.07    0.05
 -10   3  -9    0.18    0.07
  10   3   9   -0.06    0.11
 -10  -3  -9    0.28    0.09
 -10  -3  -9    0.28    0.09
 -10  -3  -9    0.11    0.07
 -10   3 -10    0.13    0.06
 -10   3 -10   -0.01    0.07
 -10  -3 -10    0.02    0.05
 -10  -3 -10    0.01    0.06
 -10  -3 -10    0.07    0.07
 -10   3 -11    0.74    0.13
 -10   3 -11    0.77    0.10
 -10  -3 -11    0.62    0.10
 -10  -3 -11    0.80    0.09
 -10  -3 -11    0.59    0.10
 -10   3 -12    0.79    0.10
 -10  -3 -12    0.84    0.11
 -10  -3 -12    0.63    0.10
 -10  -3 -12    0.78    0.09
 -10   3 -13    0.44    0.09
 -10  -3 -13    0.53    0.11
 -10  -3 -13    0.49    0.08
 -10  -3 -13    0.39    0.08
 -10   3 -14    1.14    0.09
 -10  -3 -14    1.11    0.09
 -10  -3 -14    1.17    0.12
 -10  -3 -14    1.10    0.09
 -10   3 -15    2.23    0.12
 -10  -3 -15    2.16    0.15
 -10  -3 -15    1.95    0.12
 -10  -3 -15    2.08    0.12
 -10   3 -16    1.16    0.09
 -10  -3 -16    0.87    0.14
 -10  -3 -16    1.04    0.08
 -10  -3 -16    1.07    0.08
 -10  -3 -17    1.13    0.08
 -10  -3 -18    0.10    0.03
  10   4 -15    0.05    0.03
 -10   4  15    0.06    0.04
  10   4 -14    0.40    0.05
 -10   4  14    0.37    0.06
  10  -4 -14    0.30    0.09
 -10   4  13    0.17    0.06
  10   4 -13    0.19    0.05
  10  -4 -13    0.13    0.07
 -10   4  12    1.75    0.10
  10   4 -12    1.88    0.11
  10  -4 -12    1.77    0.12
  10   4 -11    0.28    0.07
 -10   4  11    0.36    0.07
  10  -4 -11    0.36    0.08
 -10  -4  11    0.39    0.12
  10   4 -10    0.04    0.05
 -10   4  10    0.09    0.05
 -10  -4  10    0.09    0.09
  10  -4 -10   -0.01    0.05
  10   4  -9    1.97    0.12
 -10   4   9    1.67    0.12
  10  -4  -9    1.84    0.12
 -10  -4   9    1.68    0.15
 -10   4   8    0.09    0.06
  10   4  -8    0.02    0.07
  10   4  -8    0.04    0.05
  10  -4  -8    0.06    0.05
 -10  -4   8    0.01    0.08
  10   4  -7    2.09    0.14
  10   4  -7    2.20    0.14
  10  -4  -7    1.97    0.13
 -10  -4   7    1.73    0.15
 -10   4   6    0.41    0.13
  10   4  -6    0.16    0.06
  10   4  -6    0.34    0.07
 -10  -4   6    0.41    0.11
  10  -4  -6    0.25    0.07
  10   4  -5    3.03    0.17
  10   4  -5    2.75    0.16
 -10   4   5    2.72    0.17
 -10  -4   5    2.53    0.17
  10  -4  -5    2.55    0.16
 -10   4   4    5.18    0.24
  10   4  -4    5.00    0.24
  10   4  -4    5.02    0.25
 -10  -4   4    4.50    0.25
  10  -4  -4    4.80    0.24
  10   4  -3    2.52    0.16
  10   4  -3    2.52    0.16
 -10   4   3    2.45    0.15
 -10  -4   3    2.25    0.16
  10  -4  -3    2.21    0.15
  10   4  -2    2.57    0.17
  10   4  -2    2.37    0.15
 -10   4   2    2.41    0.15
  10  -4  -2    2.29    0.15
 -10  -4   2    2.06    0.15
 -10   4   1    0.04    0.06
  10   4  -1    0.00    0.06
  10   4  -1    0.13    0.09
 -10  -4   1    0.03    0.07
  10  -4  -1    0.00    0.05
  10   4   0    3.54    0.28
 -10   4   0    4.01    0.20
  10   4   0    4.03    0.21
 -10   4   0    3.97    0.22
 -10  -4   0    4.13    0.21
  10  -4   0    3.91    0.21
  10   4   1    0.71    0.11
 -10   4  -1    0.57    0.11
 -10   4  -1    0.53    0.10
 -10  -4  -1    0.49    0.11
  10  -4   1    0.52    0.09
 -10   4  -2    0.93    0.11
  10   4   2    0.95    0.12
 -10   4  -2    1.07    0.10
 -10  -4  -2    0.91    0.11
  10  -4   2    0.75    0.10
 -10   4  -3    2.32    0.15
 -10   4  -3    2.43    0.15
  10   4   3    2.40    0.16
 -10  -4  -3    2.35    0.16
  10  -4   3    2.43    0.16
 -10   4  -4    0.77    0.10
 -10   4  -4    0.80    0.10
  10   4   4    0.61    0.11
  10  -4   4    0.61    0.10
 -10  -4  -4    0.52    0.10
  10   4   5    0.53    0.11
 -10   4  -5    0.42    0.08
 -10   4  -5    0.45    0.09
  10  -4   5    0.30    0.09
 -10  -4  -5    0.37    0.10
 -10   4  -6    0.85    0.09
  10   4   6    0.91    0.13
 -10   4  -6    0.88    0.09
 -10  -4  -6    0.85    0.13
 -10  -4  -6    0.60    0.11
  10  -4   6    0.77    0.10
 -10   4  -7    1.87    0.12
 -10   4  -7    1.77    0.12
  10   4   7    1.87    0.15
 -10  -4  -7    1.59    0.14
 -10  -4  -7    1.82    0.14
 -10  -4  -7    1.57    0.17
  10  -4   7    1.66    0.13
 -10   4  -8    0.16    0.05
 -10   4  -8    0.05    0.05
  10   4   8   -0.12    0.08
 -10  -4  -8    0.08    0.08
 -10  -4  -8    0.14    0.06
 -10  -4  -8    0.15    0.08
  10  -4   8    0.02    0.06
 -10   4  -9    0.09    0.05
 -10   4  -9    0.05    0.05
  10   4   9    0.07    0.10
 -10  -4  -9    0.01    0.08
 -10  -4  -9   -0.03    0.08
 -10  -4  -9   -0.02    0.05
  10  -4   9    0.07    0.06
 -10   4 -10    0.33    0.08
 -10   4 -10    0.22    0.07
 -10  -4 -10    0.22    0.09
 -10  -4 -10    0.26    0.08
 -10   4 -11    1.35    0.12
 -10   4 -11    1.59    0.10
 -10  -4 -11    1.39    0.14
 -10  -4 -11    1.49    0.12
  10  -4  11    1.57    0.12
 -10  -4 -11    1.57    0.10
 -10   4 -12    0.01    0.04
 -10  -4 -12    0.05    0.04
 -10  -4 -12    0.04    0.11
  10  -4  12    0.04    0.06
 -10  -4 -12    0.05    0.06
 -10   4 -13    0.32    0.06
 -10  -4 -13    0.22    0.06
  10  -4  13    0.39    0.08
 -10   4 -14    0.84    0.06
  10  -4  14    0.67    0.09
 -10   4 -15    0.03    0.04
  10   5 -10    0.51    0.05
  10   5  -9    0.45    0.07
  10   5  -8    1.02    0.08
  10   5  -8    1.08    0.10
  10  -5  -8    0.94    0.10
  10   5  -7    0.53    0.07
  10   5  -7    0.47    0.08
  10  -5  -7    0.41    0.08
  10   5  -6    0.27    0.07
  10   5  -6    0.21    0.07
  10   5  -5    0.54    0.07
  10   5  -5    0.48    0.08
  10  -5  -5    0.48    0.08
 -10   5   4    0.95    0.09
  10   5  -4    0.91    0.09
  10   5  -4    1.02    0.10
  10  -5  -4    1.06    0.09
 -10   5   3    0.23    0.07
  10   5  -3    0.14    0.05
  10  -5  -3    0.16    0.06
 -10   5   2    1.20    0.09
  10   5  -2    1.41    0.10
  10  -5  -2    1.16    0.10
 -10   5   1    0.47    0.07
  10   5  -1    0.36    0.08
  10  -5  -1    0.54    0.08
 -10   5   0    0.13    0.04
  10   5   0    0.11    0.05
  10  -5   0    0.06    0.06
  10   5   1    0.03    0.05
 -10   5  -1    0.02    0.04
  10  -5   1    0.07    0.06
 -10   5  -2    1.08    0.08
  10   5   2    1.12    0.09
  10  -5   2    1.14    0.10
 -10   5  -3    0.20    0.07
  10   5   3    0.26    0.08
  10  -5   3    0.17    0.06
 -10   5  -4    2.62    0.13
 -10   5  -4    2.55    0.14
  10   5   4    2.71    0.15
  10  -5   4    2.64    0.15
 -10   5  -5    0.02    0.05
 -10   5  -5    0.05    0.04
  10  -5   5    0.07    0.06
 -10   5  -6    0.24    0.06
  10   5   6    0.31    0.09
 -10   5  -6    0.26    0.06
  10  -5   6    0.28    0.08
 -10   5  -7    1.09    0.08
 -10   5  -7    1.12    0.08
  10   5   7    1.00    0.11
  10  -5   7    1.24    0.10
 -10   5  -8    0.03    0.04
 -10   5  -8    0.04    0.04
  10  -5   8   -0.01    0.06
 -10   5  -9    1.23    0.09
 -10   5  -9    1.23    0.08
 -10   5 -10    0.11    0.03
 -11   0  21    0.17    0.05
  11   0 -20    1.03    0.12
  11   0 -18    0.37    0.09
  11   0 -17    0.07    0.06
  11   0 -16    1.85    0.14
 -11   0  16    1.73    0.13
 -11   0  15    0.02    0.06
  11   0 -15   -0.03    0.07
 -11   0  14    1.78    0.13
  11   0 -14    2.15    0.14
  11   0 -13   -0.01    0.04
  11   0 -13   -0.02    0.06
 -11   0  13   -0.09    0.06
  11   0 -12   28.79    1.12
 -11   0  12   25.52    1.11
  11   0 -12   27.97    1.11
  11   0 -11   -0.02    0.05
 -11   0  11    0.02    0.07
  11   0 -11   -0.03    0.05
  11   0 -10    2.61    0.15
  11   0 -10    2.91    0.15
  11   0  -9   -0.04    0.05
  11   0  -9    0.00    0.09
  11   0  -8   35.81    1.40
  11   0  -8   33.86    1.43
  11   0  -7    0.04    0.05
  11   0  -7    0.03    0.05
  11   0  -6    0.17    0.07
 -11   0   6    0.04    0.05
 -11   0   5    0.01    0.04
  11   0  -5    0.01    0.03
  11   0  -4   12.31    0.52
 -11   0   4   12.46    0.53
 -11   0   3   -0.02    0.03
  11   0  -3    0.01    0.02
 -11   0   2   49.05    1.92
  11   0  -2   46.91    1.92
 -11   0   1    0.00    0.03
  11   0  -1    0.01    0.02
  11   0   0    4.90    0.21
 -11   0   0    4.77    0.22
 -11   0  -1   -0.02    0.03
  11   0   1   -0.02    0.02
  11   0   2    0.28    0.04
 -11   0  -2    0.24    0.05
  11   0   3    0.02    0.02
  11   0   4    7.65    0.33
  11   0   5    0.00    0.03
  11   0   5    0.01    0.04
  11   0   6   30.67    1.23
  11   0   6   29.75    1.23
  11   0   7    0.02    0.05
 -11   0  -7    0.06    0.05
  11   0   7   -0.05    0.07
  11   0   8   49.05    2.04
 -11   0  -8   49.90    2.01
  11   0   8   52.06    2.03
  11   0   9   -0.05    0.09
  11   0   9   -0.09    0.11
 -11   0  -9    0.00    0.05
 -11   0 -10   -0.02    0.05
 -11   0 -10    0.06    0.07
  11   0  10   -0.07    0.12
 -11   0 -11    0.00    0.08
 -11   0 -11   -0.04    0.07
 -11   0 -11    0.02    0.05
 -11   0 -12    0.48    0.12
 -11   0 -12    0.65    0.09
 -11   0 -12    0.62    0.11
 -11   0 -13   -0.04    0.06
 -11   0 -13   -0.03    0.08
 -11   0 -14    5.98    0.28
 -11   0 -14    5.59    0.26
 -11   0 -14    5.61    0.28
 -11   0 -15    0.01    0.05
 -11   0 -15    0.02    0.06
 -11   0 -16    7.42    0.32
 -11   0 -16    6.91    0.33
 -11   0 -17    0.10    0.05
 -11   0 -17   -0.03    0.06
 -11   0 -18    3.78    0.21
 -11   0 -18    3.82    0.18
 -11   0 -19    0.06    0.04
 -11   0 -19   -0.10    0.07
 -11   0 -20    0.09    0.08
 -11   0 -20    0.03    0.04
 -11   1  21    0.33    0.06
 -11  -1  21    0.35    0.07
 -11   1  20    0.83    0.12
  11  -1 -20    0.63    0.11
 -11  -1  20    0.80    0.08
  11   1 -19    1.12    0.12
 -11   1  19    0.84    0.08
 -11  -1  19    1.01    0.09
  11  -1 -19    0.70    0.10
 -11   1  18    1.37    0.10
  11   1 -18    1.33    0.13
  11  -1 -18    1.61    0.12
 -11   1  17    0.34    0.08
  11   1 -17    0.50    0.11
  11  -1 -17    0.40    0.09
 -11   1  16    5.23    0.23
  11   1 -16    4.69    0.25
  11  -1 -16    4.38    0.24
  11  -1 -16    5.34    0.23
 -11   1  15    0.62    0.09
  11   1 -15    0.58    0.11
  11  -1 -15    0.59    0.08
  11  -1 -15    0.59    0.09
  11   1 -14    0.16    0.07
  11  -1 -14    0.09    0.05
  11  -1 -14    0.07    0.06
  11   1 -13    0.31    0.09
  11  -1 -13    0.14    0.06
  11  -1 -13    0.25    0.08
  11   1 -12    0.37    0.11
  11   1 -12    0.34    0.09
  11  -1 -12    0.23    0.06
  11  -1 -12    0.28    0.07
  11   1 -11   -0.02    0.10
  11   1 -11    0.03    0.06
  11  -1 -11    0.14    0.05
  11  -1 -11    0.02    0.06
  11   1 -10   34.17    1.47
  11   1 -10   36.20    1.47
  11  -1 -10   38.68    1.47
  11  -1 -10   36.26    1.46
  11   1  -9    7.37    0.31
  11  -1  -9    7.08    0.31
  11  -1  -9    5.80    0.37
  11  -1  -9    7.45    0.31
  11   1  -8   13.60    0.64
  11   1  -8   14.32    0.59
  11  -1  -8   15.09    0.59
  11  -1  -8   13.95    0.63
  11   1  -7    8.30    0.38
  11   1  -7    8.73    0.41
  11  -1  -7    8.94    0.37
  11  -1  -7    8.94    0.40
  11   1  -6   13.54    0.58
 -11   1   6   12.62    0.59
  11  -1  -6   13.88    0.58
  11  -1  -6   13.63    0.55
 -11   1   5    0.20    0.07
  11   1  -5    0.31    0.08
 -11  -1   5    0.22    0.07
  11  -1  -5    0.33    0.07
 -11   1   4    0.43    0.09
  11   1  -4    0.53    0.07
  11  -1  -4    0.53    0.07
 -11  -1   4    0.39    0.09
 -11   1   3    1.18    0.10
  11   1  -3    1.22    0.09
  11  -1  -3    1.28    0.09
 -11  -1   3    1.29    0.10
 -11   1   2    0.09    0.04
  11   1  -2    0.05    0.03
 -11  -1   2    0.19    0.06
  11  -1  -2    0.04    0.03
 -11   1   1    0.92    0.09
  11   1  -1    0.93    0.07
 -11  -1   1    1.07    0.08
  11  -1  -1    0.96    0.08
 -11   1   0   78.52    3.16
  11   1   0   76.40    3.14
 -11  -1   0   84.93    3.15
  11  -1   0   76.39    3.16
  11   1   1    1.91    0.10
 -11   1  -1    1.94    0.12
  11  -1   1    1.93    0.12
 -11  -1  -1    2.04    0.10
  11   1   2    8.79    0.36
 -11  -1  -2    9.12    0.36
  11  -1   2    8.67    0.39
  11  -1   3    2.04    0.13
  11  -1   4    5.74    0.27
 -11   1  -5    2.58    0.15
  11  -1   5    2.69    0.18
  11  -1   5    3.00    0.17
 -11   1  -6    0.14    0.05
  11  -1   6    0.08    0.06
  11  -1   6   -0.01    0.10
 -11  -1  -6    0.08    0.06
 -11   1  -7    4.53    0.22
 -11  -1  -7    4.29    0.21
  11  -1   7    4.95    0.26
 -11   1  -8    4.92    0.24
  11  -1   8    5.52    0.29
 -11  -1  -8    4.76    0.23
 -11   1  -9    0.53    0.08
 -11  -1  -9    0.42    0.08
 -11  -1  -9    0.49    0.10
 -11  -1  -9    0.34    0.07
 -11   1 -10    4.67    0.23
 -11   1 -10    3.96    0.24
 -11  -1 -10    4.61    0.23
 -11  -1 -10    4.72    0.23
 -11  -1 -10    4.86    0.22
 -11   1 -11    0.51    0.13
 -11   1 -11    0.46    0.09
 -11  -1 -11    0.34    0.08
 -11  -1 -11    0.51    0.09
 -11  -1 -11    0.58    0.10
 -11   1 -12    9.06    0.40
 -11  -1 -12    9.02    0.39
 -11  -1 -12    8.98    0.39
 -11  -1 -12    8.41    0.39
 -11   1 -13    0.27    0.08
 -11  -1 -13    0.19    0.06
 -11  -1 -13    0.23    0.07
 -11  -1 -13    0.23    0.06
 -11   1 -14    0.35    0.09
 -11  -1 -14    0.38    0.10
 -11  -1 -14    0.35    0.09
 -11  -1 -14    0.49    0.09
 -11   1 -15    0.03    0.06
 -11  -1 -15    0.07    0.06
 -11  -1 -15    0.04    0.05
 -11  -1 -15   -0.03    0.05
 -11   1 -16    1.01    0.11
 -11  -1 -16    1.10    0.10
 -11  -1 -16    1.05    0.09
 -11  -1 -16    0.86    0.11
 -11  -1 -17    0.30    0.07
 -11  -1 -17    0.28    0.09
 -11  -1 -17    0.31    0.07
 -11   1 -18    0.51    0.09
 -11  -1 -18    0.27    0.08
 -11  -1 -18    0.43    0.07
 -11  -1 -18    0.42    0.06
 -11   1 -19    0.40    0.10
 -11  -1 -19    0.61    0.11
 -11  -1 -19    0.41    0.06
 -11  -1 -20    5.33    0.23
 -11  -1 -21    0.08    0.03
 -11   2  20    2.47    0.13
 -11   2  20    2.60    0.12
 -11   2  19    0.25    0.05
  11  -2 -19    0.51    0.12
  11   2 -18    1.60    0.16
 -11   2  18    1.79    0.10
 -11  -2  18    1.86    0.12
  11  -2 -18    1.75    0.12
 -11   2  17    0.05    0.04
  11   2 -17    0.01    0.08
 -11  -2  17   -0.03    0.06
  11  -2 -17    0.09    0.06
 -11   2  16    0.07    0.04
  11   2 -16    0.09    0.08
 -11  -2  16   -0.02    0.06
  11  -2 -16    0.05    0.06
  11   2 -15    1.05    0.13
 -11   2  15    1.11    0.09
  11   2 -15    1.14    0.13
 -11  -2  15    1.14    0.11
  11  -2 -15    1.17    0.10
  11  -2 -15    0.83    0.10
  11   2 -14    1.74    0.15
  11   2 -14    2.00    0.15
  11  -2 -14    1.60    0.12
  11  -2 -14    1.75    0.13
 -11  -2  14    1.95    0.14
  11   2 -13    2.59    0.18
  11   2 -13    3.16    0.19
 -11  -2  13    3.06    0.18
  11  -2 -13    2.92    0.17
  11  -2 -13    3.00    0.17
  11   2 -12   11.09    0.48
  11   2 -12   11.11    0.48
  11  -2 -12   10.83    0.47
  11  -2 -12   11.11    0.47
 -11  -2  12   10.26    0.48
  11   2 -11    4.63    0.24
  11   2 -11    4.48    0.23
 -11  -2  11    4.27    0.23
  11  -2 -11    4.55    0.22
  11  -2 -11    4.37    0.22
  11   2 -10    0.67    0.11
  11   2 -10    0.57    0.11
  11  -2 -10    0.68    0.08
  11  -2 -10    0.89    0.12
 -11  -2  10    0.77    0.12
  11   2  -9   14.39    0.61
  11   2  -9   14.67    0.61
  11  -2  -9   13.72    0.60
  11  -2  -9   14.73    0.60
 -11  -2   9   13.85    0.61
  11   2  -8    0.72    0.10
  11   2  -8    0.80    0.11
 -11  -2   8    0.68    0.13
  11  -2  -8    0.89    0.08
  11   2  -7    2.42    0.15
  11   2  -7    2.49    0.16
  11  -2  -7    2.30    0.13
  11  -2  -7    1.70    0.24
 -11  -2   7    2.28    0.17
  11   2  -6    1.76    0.23
  11   2  -6    1.21    0.13
  11   2  -6    1.32    0.11
  11  -2  -6    0.95    0.09
  11  -2  -6    1.24    0.19
  11   2  -5    0.76    0.10
  11   2  -5    0.76    0.13
  11   2  -5    0.89    0.18
  11  -2  -5    0.76    0.07
  11  -2  -5    0.77    0.15
  11   2  -4    8.32    0.40
  11  -2  -4    8.37    0.35
  11  -2  -4    8.40    0.39
 -11  -2   4    7.95    0.40
  11   2  -3    0.19    0.08
  11  -2  -3    0.18    0.05
 -11  -2   3    0.08    0.09
  11  -2  -3    0.16    0.07
  11   2  -2   13.87    0.60
  11  -2  -2   13.80    0.58
 -11  -2   2   14.67    0.60
 -11  -2   2   13.52    0.58
  11  -2  -2   14.12    0.61
  11   2  -1    3.76    0.20
  11  -2  -1    3.65    0.18
 -11  -2   1    3.88    0.20
 -11  -2   1    3.47    0.19
  11  -2  -1    3.95    0.22
  11  -2   0    6.92    0.33
  11  -2   0    6.55    0.30
 -11  -2   0    7.37    0.30
 -11  -2  -1    3.61    0.19
  11  -2   1    3.70    0.18
  11  -2   1    3.98    0.22
  11  -2   2    0.11    0.07
 -11  -2  -2    0.10    0.06
 -11  -2  -3   14.62    0.64
  11  -2   3   16.29    0.68
 -11  -2  -4   39.91    1.65
  11  -2   4   42.13    1.69
 -11   2  -5   14.11    0.57
 -11  -2  -5   12.68    0.56
 -11   2  -6   14.16    0.55
 -11   2  -6   12.30    0.54
 -11   2  -6   12.28    0.54
 -11  -2  -6   12.76    0.55
 -11  -2  -6   13.18    0.54
 -11  -2  -6   12.81    0.55
 -11   2  -7    0.03    0.05
 -11   2  -7    0.02    0.06
 -11   2  -7    0.00    0.06
 -11  -2  -7   -0.01    0.06
 -11  -2  -7   -0.08    0.06
 -11  -2  -7    0.12    0.11
 -11  -2  -7   -0.07    0.06
 -11   2  -8   11.51    0.51
 -11   2  -8   12.48    0.52
 -11   2  -8   11.97    0.51
 -11  -2  -8   11.89    0.52
 -11  -2  -8   11.95    0.51
 -11  -2  -8   12.29    0.51
 -11   2  -9    0.19    0.08
 -11   2  -9    0.10    0.06
 -11  -2  -9    0.13    0.06
 -11  -2  -9    0.01    0.06
 -11  -2  -9    0.06    0.06
 -11   2 -10    0.89    0.10
 -11   2 -10    1.02    0.14
 -11   2 -10    0.64    0.10
 -11  -2 -10    0.81    0.11
 -11  -2 -10    0.86    0.10
 -11  -2 -10    0.81    0.10
 -11   2 -11    2.47    0.16
 -11   2 -11    2.47    0.16
 -11  -2 -11    2.74    0.16
 -11  -2 -11    2.59    0.15
 -11  -2 -11    2.53    0.16
 -11   2 -12    0.36    0.07
 -11   2 -12    0.32    0.10
 -11  -2 -12    0.44    0.09
 -11  -2 -12    0.44    0.09
 -11  -2 -12    0.41    0.10
 -11   2 -13    0.32    0.09
 -11   2 -13    0.42    0.10
 -11  -2 -13    0.51    0.09
 -11  -2 -13    0.45    0.08
 -11  -2 -13    0.38    0.10
 -11   2 -14    2.84    0.17
 -11   2 -14    2.52    0.17
 -11  -2 -14    2.89    0.16
 -11  -2 -14    2.98    0.16
 -11  -2 -14    2.49    0.17
 -11   2 -15    3.25    0.20
 -11   2 -15    3.33    0.19
 -11  -2 -15    3.73    0.18
 -11  -2 -15    3.53    0.20
 -11  -2 -15    3.80    0.18
 -11   2 -16    2.03    0.14
 -11  -2 -16    1.95    0.14
 -11  -2 -16    2.21    0.12
 -11  -2 -16    2.04    0.12
 -11   2 -17    0.93    0.10
 -11  -2 -17    1.05    0.08
 -11  -2 -17    1.30    0.13
 -11  -2 -17    1.07    0.08
 -11   2 -18    0.37    0.09
 -11  -2 -18    0.31    0.06
 -11  -2 -18    0.39    0.13
 -11  -2 -18    0.38    0.06
 -11  -2 -19    0.13    0.04
 -11  -2 -20    0.03    0.03
 -11   3  18    0.30    0.05
  11   3 -17    0.77    0.09
 -11   3  17    0.69    0.06
  11  -3 -17    0.57    0.10
 -11   3  16    0.25    0.05
  11   3 -16    0.20    0.05
  11  -3 -16    0.22    0.07
 -11   3  15    1.37    0.09
  11   3 -15    1.29    0.10
  11  -3 -15    1.24    0.10
 -11   3  14    0.39    0.07
  11   3 -14    0.54    0.08
  11  -3 -14    0.59    0.09
 -11   3  13    1.52    0.10
  11   3 -13    1.53    0.12
  11  -3 -13    1.25    0.11
  11   3 -12    0.03    0.05
 -11   3  12    0.07    0.05
  11  -3 -12    0.02    0.06
  11   3 -11    0.97    0.10
  11  -3 -11    0.70    0.09
  11   3 -10    0.23    0.06
  11  -3 -10    0.20    0.07
  11   3  -9    0.15    0.07
  11  -3  -9    0.26    0.08
  11   3  -8   19.46    0.80
  11   3  -8   18.15    0.80
  11  -3  -8   19.65    0.80
  11   3  -7    0.81    0.11
  11   3  -7    0.91    0.14
  11  -3  -7    0.74    0.09
 -11   3   6    1.43    0.13
  11   3  -6    1.77    0.15
  11   3  -6    1.43    0.13
  11  -3  -6    1.52    0.11
 -11   3   5    2.70    0.20
 -11   3   5    2.65    0.17
  11   3  -5    2.89    0.18
  11   3  -5    3.04    0.17
 -11  -3   5    3.00    0.18
  11  -3  -5    3.23    0.16
 -11  -3   5    2.95    0.27
 -11   3   4    0.14    0.08
  11   3  -4    0.17    0.07
 -11   3   4    0.15    0.08
  11   3  -4    0.06    0.06
  11  -3  -4    0.16    0.05
 -11  -3   4    0.02    0.12
 -11  -3   4    0.15    0.07
  11   3  -3    0.62    0.11
 -11   3   3    0.53    0.09
  11   3  -3    0.54    0.11
  11  -3  -3    0.48    0.08
 -11  -3   3    0.79    0.18
 -11  -3   3    0.59    0.10
  11   3  -2    0.56    0.12
 -11   3   2    0.52    0.11
 -11  -3   2    0.43    0.12
 -11  -3   2    0.42    0.10
  11  -3  -2    0.40    0.07
 -11   3   1    0.38    0.10
  11   3  -1    0.53    0.13
 -11   3   1    0.43    0.10
 -11  -3   1    0.67    0.18
  11  -3  -1    0.31    0.07
 -11  -3   1    0.55    0.10
 -11   3   0    0.70    0.10
 -11   3   0    0.70    0.12
  11   3   0    0.43    0.15
 -11  -3   0    0.72    0.17
  11  -3   0    0.59    0.08
 -11  -3   0    0.65    0.10
 -11   3  -1    0.17    0.07
  11   3   1   -0.03    0.12
 -11   3  -1    0.04    0.06
  11  -3   1    0.02    0.05
 -11  -3  -1    0.08    0.07
 -11  -3  -1    0.02    0.10
 -11   3  -2    5.26    0.26
 -11   3  -2    5.52    0.26
 -11  -3  -2    5.03    0.29
  11  -3   2    5.48    0.26
 -11  -3  -2    5.68    0.26
 -11   3  -3   20.81    0.89
 -11   3  -3   21.67    0.89
 -11  -3  -3   21.67    0.91
 -11  -3  -3   20.82    0.90
 -11  -3  -3   22.85    0.90
  11  -3   3   22.87    0.91
 -11   3  -4    1.25    0.11
 -11   3  -4    1.46    0.11
 -11  -3  -4    1.28    0.12
 -11  -3  -4    1.39    0.15
 -11  -3  -4    1.27    0.16
 -11   3  -5   10.09    0.45
 -11   3  -5   10.73    0.46
 -11  -3  -5   10.92    0.46
 -11  -3  -5   10.29    0.47
 -11  -3  -5   10.65    0.46
 -11   3  -6    0.11    0.06
 -11   3  -6    0.03    0.05
 -11  -3  -6    0.05    0.08
 -11  -3  -6    0.00    0.06
 -11  -3  -6    0.13    0.07
 -11   3  -7    2.51    0.15
 -11   3  -7    2.29    0.15
 -11  -3  -7    2.62    0.16
 -11  -3  -7    2.60    0.17
 -11  -3  -7    2.54    0.16
 -11   3  -8    5.00    0.25
  11   3   8    4.68    0.27
 -11   3  -8    4.84    0.24
 -11  -3  -8    5.26    0.26
 -11  -3  -8    5.48    0.25
 -11  -3  -8    5.03    0.25
  11   3   9    0.85    0.18
 -11   3  -9    1.05    0.11
 -11   3  -9    1.00    0.10
 -11  -3  -9    1.10    0.12
 -11  -3  -9    0.93    0.12
 -11  -3  -9    1.16    0.11
 -11   3 -10    0.46    0.11
 -11   3 -10    0.32    0.07
 -11  -3 -10    0.25    0.06
 -11  -3 -10    0.58    0.10
 -11  -3 -10    0.30    0.08
 -11   3 -11    0.15    0.06
 -11   3 -11    0.22    0.08
 -11  -3 -11    0.21    0.06
 -11  -3 -11    0.07    0.05
 -11  -3 -11    0.23    0.08
 -11   3 -12    2.97    0.16
 -11  -3 -12    2.92    0.16
 -11  -3 -12    2.75    0.15
 -11  -3 -12    2.25    0.17
 -11   3 -13    0.08    0.05
 -11  -3 -13    0.07    0.09
 -11  -3 -13    0.02    0.04
 -11  -3 -13    0.04    0.05
 -11   3 -14    1.31    0.10
 -11  -3 -14    1.43    0.10
 -11  -3 -14    1.36    0.13
 -11  -3 -14    1.22    0.09
 -11   3 -15    0.81    0.08
 -11  -3 -15    0.98    0.13
 -11  -3 -15    0.83    0.07
 -11  -3 -15    0.66    0.07
 -11   3 -16    0.17    0.06
 -11  -3 -16    0.11    0.04
 -11  -3 -16    0.13    0.04
 -11  -3 -17    0.92    0.07
 -11  -3 -18    0.44    0.05
  11   4 -15    0.02    0.03
 -11   4  15   -0.03    0.03
  11   4 -14    1.03    0.07
 -11   4  14    1.04    0.07
  11   4 -13    0.24    0.05
 -11   4  13    0.14    0.04
  11  -4 -13    0.17    0.07
 -11   4  12    1.39    0.09
  11   4 -12    1.57    0.10
  11  -4 -12    1.71    0.11
 -11   4  11    0.05    0.05
  11   4 -11    0.08    0.04
  11  -4 -11    0.07    0.06
  11   4 -10    3.60    0.18
 -11   4  10    3.28    0.17
  11  -4 -10    3.32    0.18
  11   4  -9    0.08    0.05
  11   4  -9   -0.02    0.07
 -11   4   9    0.00    0.05
 -11  -4   9   -0.01    0.09
  11  -4  -9   -0.01    0.05
  11   4  -8    0.18    0.07
 -11   4   8    0.04    0.06
  11   4  -8    0.33    0.09
 -11  -4   8    0.07    0.09
  11  -4  -8    0.15    0.06
  11   4  -7    0.40    0.10
  11   4  -7    0.56    0.09
 -11  -4   7    0.38    0.11
  11  -4  -7    0.37    0.08
  11   4  -6    0.72    0.11
 -11   4   6    0.60    0.13
  11   4  -6    0.61    0.10
 -11  -4   6    0.50    0.11
  11  -4  -6    0.70    0.09
  11   4  -5    3.27    0.18
 -11   4   5    3.44    0.19
  11   4  -5    3.33    0.18
 -11  -4   5    3.07    0.19
  11  -4  -5    3.28    0.18
  11   4  -4    3.67    0.20
 -11   4   4    3.74    0.20
  11   4  -4    3.78    0.20
 -11  -4   4    3.38    0.20
  11  -4  -4    3.53    0.19
 -11   4   3    1.32    0.12
  11   4  -3    1.26    0.12
  11   4  -3    1.30    0.13
  11  -4  -3    1.31    0.11
 -11  -4   3    1.29    0.13
  11   4  -2    2.02    0.14
 -11   4   2    1.80    0.14
  11   4  -2    1.98    0.15
  11  -4  -2    1.77    0.13
 -11  -4   2    1.89    0.15
 -11   4   1    0.05    0.06
  11   4  -1    0.04    0.08
  11   4  -1   -0.06    0.06
 -11  -4   1   -0.05    0.07
  11  -4  -1   -0.03    0.05
 -11   4   0    1.43    0.12
  11   4   0    1.19    0.19
 -11   4   0    1.38    0.14
  11   4   0    1.66    0.13
  11  -4   0    1.43    0.11
 -11  -4   0    1.33    0.13
 -11   4  -1    0.05    0.06
 -11   4  -1    0.02    0.07
  11   4   1    0.15    0.07
  11  -4   1    0.06    0.06
 -11  -4  -1    0.09    0.08
  11   4   2    2.58    0.17
 -11   4  -2    2.71    0.16
 -11   4  -2    2.54    0.15
 -11  -4  -2    2.22    0.16
  11  -4   2    2.29    0.15
 -11   4  -3    4.54    0.22
 -11   4  -3    4.49    0.22
  11   4   3    4.85    0.24
 -11  -4  -3    4.12    0.23
  11  -4   3    4.35    0.23
 -11   4  -4    0.03    0.06
 -11   4  -4    0.05    0.05
  11  -4   4    0.02    0.06
 -11  -4  -4   -0.01    0.08
 -11   4  -5    4.04    0.20
 -11   4  -5    4.36    0.20
  11   4   5    4.06    0.22
  11  -4   5    3.77    0.21
 -11  -4  -5    3.58    0.21
 -11   4  -6    3.39    0.17
  11   4   6    3.36    0.19
 -11   4  -6    3.56    0.18
 -11  -4  -6    3.18    0.19
 -11  -4  -6    3.57    0.21
  11  -4   6    3.17    0.19
 -11  -4  -6    3.03    0.19
 -11   4  -7    2.60    0.14
  11   4   7    2.63    0.17
 -11   4  -7    2.38    0.14
 -11  -4  -7    2.62    0.18
 -11  -4  -7    2.22    0.15
  11  -4   7    2.14    0.15
 -11  -4  -7    2.12    0.16
 -11   4  -8    0.27    0.08
  11   4   8    0.26    0.09
 -11   4  -8    0.22    0.06
 -11  -4  -8    0.19    0.09
 -11  -4  -8    0.19    0.08
 -11  -4  -8    0.20    0.06
  11  -4   8    0.22    0.07
 -11   4  -9    2.94    0.16
  11   4   9    2.61    0.20
 -11   4  -9    3.09    0.15
 -11  -4  -9    2.92    0.17
  11  -4   9    2.84    0.17
 -11  -4  -9    3.00    0.16
 -11  -4  -9    2.85    0.18
 -11   4 -10    0.13    0.06
 -11   4 -10    0.09    0.04
 -11  -4 -10    0.09    0.06
 -11  -4 -10    0.07    0.05
  11  -4  10    0.09    0.06
 -11   4 -11    3.47    0.19
 -11   4 -11    3.86    0.18
 -11  -4 -11    3.70    0.18
 -11  -4 -11    3.46    0.18
  11  -4  11    3.71    0.19
 -11   4 -12   -0.01    0.03
 -11  -4 -12   -0.03    0.04
  11  -4  12    0.02    0.06
 -11  -4 -12   -0.01    0.06
 -11   4 -13    0.51    0.06
  11  -4  13    0.38    0.09
 -11  -4 -13    0.36    0.08
 -11   4 -14    2.32    0.11
 -11  -4 -14    1.83    0.12
 -11   4 -15    0.04    0.04
  11   5 -10    0.03    0.03
  11   5  -9    0.60    0.06
  11   5  -8    0.05    0.09
  11   5  -8    0.07    0.04
  11   5  -7    0.97    0.08
  11   5  -7    0.88    0.09
  11  -5  -7    0.94    0.09
  11   5  -6    0.05    0.05
  11   5  -6    0.04    0.05
  11  -5  -6    0.05    0.06
  11   5  -5    1.23    0.09
  11   5  -5    1.25    0.10
 -11   5   5    1.48    0.12
  11  -5  -5    1.32    0.10
  11   5  -4    1.10    0.11
  11   5  -4    1.02    0.09
 -11   5   4    1.14    0.09
  11  -5  -4    1.26    0.10
 -11   5   3    0.71    0.08
  11   5  -3    0.67    0.08
  11  -5  -3    0.68    0.09
 -11   5   2    0.57    0.07
  11   5  -2    0.56    0.08
  11  -5  -2    0.39    0.08
  11   5  -1    0.03    0.04
 -11   5   1   -0.01    0.04
  11  -5  -1   -0.04    0.06
  11   5   0    0.12    0.05
 -11   5   0    0.19    0.06
  11  -5   0    0.13    0.06
 -11   5  -1    0.05    0.04
  11   5   1    0.04    0.05
  11  -5   1   -0.05    0.06
  11   5   2    1.87    0.12
 -11   5  -2    1.80    0.11
  11  -5   2    1.86    0.13
 -11   5  -3    0.72    0.10
  11   5   3    0.61    0.08
 -11   5  -3    0.63    0.07
  11  -5   3    0.53    0.09
  11   5   4    0.94    0.09
 -11   5  -4    0.95    0.09
 -11   5  -4    0.90    0.08
  11  -5   4    0.93    0.10
 -11   5  -5    1.29    0.09
 -11   5  -5    1.17    0.08
  11   5   5    1.41    0.10
  11  -5   5    1.24    0.11
 -11   5  -6    0.27    0.06
 -11   5  -6    0.27    0.06
  11   5   6    0.19    0.06
  11  -5   6    0.32    0.08
 -11   5  -7    0.22    0.06
 -11   5  -7    0.40    0.06
  11   5   7    0.26    0.07
  11  -5   7    0.26    0.08
 -11   5  -8    0.43    0.06
 -11   5  -8    0.36    0.06
 -11   5  -9    0.19    0.07
 -11   5  -9    0.09    0.04
 -11   5 -10    1.13    0.07
 -12   0  21   -0.04    0.04
  12   0 -20    0.29    0.16
  12   0 -19    0.00    0.08
  12   0 -18   -0.04    0.07
  12   0 -17    0.00    0.06
  12   0 -16    0.07    0.07
 -12   0  16   -0.06    0.07
 -12   0  15    0.02    0.06
  12   0 -15   -0.02    0.07
  12   0 -14    1.99    0.14
 -12   0  14    1.42    0.12
 -12   0  13    0.01    0.06
  12   0 -13   -0.08    0.06
 -12   0  12   11.55    0.52
  12   0 -12   13.08    0.53
 -12   0  11    0.02    0.06
  12   0 -11   -0.01    0.04
  12   0 -11    0.03    0.06
 -12   0  10   -0.02    0.06
  12   0 -10    0.08    0.05
  12   0 -10   -0.03    0.06
  12   0  -9    0.00    0.05
  12   0  -9   -0.05    0.05
  12   0  -8   19.67    0.79
  12   0  -8   19.00    0.83
  12   0  -7   -0.02    0.06
  12   0  -7    0.02    0.06
  12   0  -6    7.21    0.32
 -12   0   6    6.37    0.33
  12   0  -5   -0.01    0.04
 -12   0   5    0.06    0.05
 -12   0   4    0.59    0.08
  12   0  -4    0.58    0.07
  12   0  -3    0.00    0.03
 -12   0   3   -0.02    0.04
 -12   0   2   18.11    0.74
  12   0  -2   17.57    0.73
 -12   0   1    0.01    0.03
  12   0  -1    0.01    0.02
 -12   0   0    3.72    0.18
  12   0   0    3.68    0.17
  12   0   1    0.01    0.02
 -12   0  -1    0.01    0.03
 -12   0  -2   12.15    0.50
  12   0   2   11.53    0.49
  12   0   3    0.01    0.03
  12   0   4    0.47    0.06
  12   0   5   -0.04    0.05
  12   0   5   -0.01    0.03
  12   0   6   26.94    1.10
  12   0   6   26.75    1.10
  12   0   7   -0.13    0.07
 -12   0  -7    0.08    0.06
  12   0   7   -0.09    0.05
  12   0   8   11.51    0.56
 -12   0  -8   12.76    0.52
  12   0   8   13.07    0.55
  12   0   9    0.44    0.16
 -12   0 -10    1.57    0.14
 -12   0 -10    1.43    0.15
 -12   0 -10    1.69    0.12
 -12   0 -11    0.00    0.07
 -12   0 -11    0.00    0.07
 -12   0 -11    0.00    0.06
 -12   0 -12    1.52    0.14
 -12   0 -12    1.79    0.12
 -12   0 -12    1.59    0.13
 -12   0 -13   -0.01    0.06
 -12   0 -13   -0.04    0.06
 -12   0 -13   -0.08    0.07
 -12   0 -14    2.98    0.16
 -12   0 -14    2.81    0.18
 -12   0 -14    2.99    0.17
 -12   0 -15    0.04    0.06
 -12   0 -15    0.04    0.05
 -12   0 -16   20.28    0.81
 -12   0 -16   19.04    0.82
 -12   0 -17    0.02    0.07
 -12   0 -17    0.10    0.05
 -12   0 -18    7.51    0.35
 -12   0 -18    7.54    0.32
 -12   0 -19    0.02    0.04
 -12   0 -19    0.14    0.09
 -12   0 -20    0.27    0.08
 -12   1  21    0.00    0.03
 -12  -1  21   -0.01    0.04
 -12  -1  20    0.52    0.07
 -12   1  19    0.49    0.07
  12   1 -19    0.52    0.14
  12  -1 -19    0.35    0.10
 -12  -1  19    0.46    0.07
  12   1 -18    0.15    0.08
 -12   1  18    0.04    0.05
  12  -1 -18    0.00    0.08
 -12  -1  18    0.00    0.05
 -12   1  17    0.25    0.07
  12   1 -17    0.30    0.10
  12  -1 -17    0.29    0.09
  12   1 -16    0.53    0.11
 -12   1  16    0.45    0.08
  12  -1 -16    0.54    0.09
  12   1 -15    1.75    0.15
 -12   1  15    1.95    0.12
  12  -1 -15    1.87    0.14
  12  -1 -15    2.04    0.12
 -12   1  14    4.78    0.23
  12   1 -14    5.07    0.25
  12  -1 -14    4.62    0.23
  12  -1 -14    4.62    0.24
  12   1 -13    0.86    0.11
 -12   1  13    0.74    0.09
  12   1 -13    0.61    0.16
  12  -1 -13    0.80    0.10
  12  -1 -13    0.82    0.09
  12   1 -12    0.05    0.10
  12   1 -12    0.30    0.10
  12  -1 -12    0.08    0.06
  12  -1 -12    0.14    0.05
  12   1 -11    4.99    0.24
  12   1 -11    4.86    0.27
  12  -1 -11    5.14    0.24
  12  -1 -11    4.75    0.23
  12   1 -10   18.82    0.77
  12   1 -10   17.38    0.78
  12  -1 -10   17.92    0.76
  12  -1 -10   19.79    0.76
  12   1  -9    5.68    0.28
  12   1  -9    5.84    0.30
  12  -1  -9    5.83    0.27
  12  -1  -9    6.51    0.27
  12   1  -8    0.59    0.10
  12   1  -8    0.46    0.16
  12  -1  -8    0.73    0.08
  12  -1  -8    0.40    0.15
  12   1  -7    5.44    0.29
  12   1  -7    5.19    0.26
  12  -1  -7    5.43    0.28
  12  -1  -7    5.72    0.25
  12   1  -6    1.82    0.15
  12  -1  -6    1.85    0.11
  12  -1  -6    1.94    0.14
  12   1  -5    0.55    0.09
 -12   1   5    0.66    0.12
 -12  -1   5    0.38    0.11
  12  -1  -5    0.40    0.09
 -12   1   4    1.26    0.12
  12   1  -4    1.27    0.10
  12  -1  -4    1.32    0.10
  12   1  -3    0.74    0.08
 -12   1   3    0.79    0.10
 -12  -1   3    0.85    0.10
  12  -1  -3    0.72    0.08
 -12   1   2    5.34    0.27
  12   1  -2    5.78    0.25
 -12  -1   2    5.87    0.26
  12  -1  -2    5.36    0.26
  12   1  -1    0.05    0.03
 -12   1   1    0.03    0.04
  12  -1  -1    0.00    0.03
 -12  -1   1    0.01    0.04
 -12   1   0    8.45    0.38
  12   1   0    8.48    0.36
  12  -1   0    8.20    0.37
 -12  -1   0    9.16    0.37
  12   1   1   12.75    0.54
 -12   1  -1   13.08    0.56
  12  -1   1   13.08    0.56
 -12  -1  -1   13.95    0.54
  12   1   2   19.03    0.80
  12  -1   2   19.98    0.82
 -12  -1  -2   20.59    0.80
  12   1   3   15.31    0.64
  12  -1   3   16.67    0.67
  12  -1   4   94.70    3.79
 -12   1  -5    0.27    0.06
  12  -1   5    0.28    0.09
  12  -1   5    0.10    0.07
 -12   1  -6    1.22    0.10
 -12  -1  -6    1.22    0.11
  12  -1   6    1.35    0.13
 -12   1  -7    6.01    0.27
  12  -1   7    6.38    0.31
 -12  -1  -7    5.56    0.27
 -12   1  -8    3.27    0.17
 -12  -1  -8    2.89    0.18
 -12  -1  -8    3.33    0.17
 -12  -1  -8    3.02    0.18
  12  -1   8    3.31    0.25
 -12   1  -9    0.34    0.08
 -12   1  -9    0.34    0.12
 -12  -1  -9    0.28    0.08
 -12  -1  -9    0.38    0.10
 -12  -1  -9    0.25    0.06
 -12   1 -10    2.15    0.14
 -12   1 -10    2.15    0.16
 -12  -1 -10    1.93    0.14
 -12  -1 -10    2.27    0.14
 -12  -1 -10    2.31    0.14
 -12   1 -11    0.04    0.09
 -12   1 -11    0.19    0.06
 -12  -1 -11    0.35    0.09
 -12  -1 -11    0.17    0.06
 -12  -1 -11    0.23    0.08
 -12   1 -12    6.09    0.33
 -12   1 -12    7.32    0.32
 -12  -1 -12    6.79    0.31
 -12  -1 -12    7.08    0.31
 -12  -1 -12    6.70    0.31
 -12   1 -13    0.27    0.09
 -12  -1 -13    0.39    0.09
 -12  -1 -13    0.33    0.08
 -12  -1 -13    0.24    0.07
 -12   1 -14    0.60    0.10
 -12  -1 -14    0.51    0.10
 -12  -1 -14    0.62    0.09
 -12  -1 -14    0.47    0.09
 -12   1 -15    0.32    0.10
 -12  -1 -15    0.37    0.08
 -12  -1 -15    0.36    0.08
 -12  -1 -15    0.26    0.08
 -12   1 -16    2.10    0.15
 -12  -1 -16    2.38    0.13
 -12  -1 -16    2.45    0.14
 -12  -1 -16    2.22    0.16
 -12   1 -17    9.58    0.44
 -12  -1 -17    9.83    0.42
 -12  -1 -17   10.40    0.42
 -12  -1 -17    9.56    0.44
 -12   1 -18    6.97    0.33
 -12  -1 -18    6.90    0.30
 -12  -1 -18    7.19    0.33
 -12  -1 -18    7.12    0.31
 -12   1 -19    0.28    0.10
 -12  -1 -19    0.20    0.05
 -12  -1 -19    0.14    0.10
 -12  -1 -20    2.03    0.10
 -12  -1 -21    0.35    0.05
 -12   2  20    0.80    0.06
 -12   2  19    0.18    0.05
 -12  -2  19    0.10    0.07
 -12   2  18    0.74    0.07
 -12  -2  18    0.76    0.10
  12  -2 -18    0.70    0.10
 -12   2  17    0.24    0.06
  12   2 -17    0.28    0.09
  12  -2 -17    0.16    0.07
 -12  -2  17    0.28    0.09
  12   2 -16   -0.07    0.07
 -12   2  16    0.00    0.04
  12   2 -16    0.06    0.08
 -12  -2  16    0.07    0.06
  12  -2 -16    0.03    0.06
  12   2 -15    0.03    0.08
  12   2 -15    0.11    0.07
 -12   2  15    0.10    0.04
  12  -2 -15    0.07    0.06
 -12  -2  15    0.18    0.06
  12   2 -14    4.91    0.26
 -12   2  14    5.19    0.23
  12   2 -14    4.81    0.25
  12  -2 -14    4.90    0.23
 -12  -2  14    4.96    0.24
  12  -2 -14    4.58    0.24
  12   2 -13    7.30    0.33
  12   2 -13    6.88    0.33
  12  -2 -13    7.00    0.31
 -12  -2  13    6.86    0.32
  12  -2 -13    6.73    0.32
  12   2 -12    1.58    0.14
  12   2 -12    1.50    0.14
  12  -2 -12    1.57    0.12
 -12  -2  12    1.51    0.13
  12  -2 -12    1.39    0.12
  12   2 -11    1.62    0.14
  12   2 -11    1.48    0.13
 -12  -2  11    1.46    0.13
  12  -2 -11    1.56    0.13
  12  -2 -11    1.49    0.11
  12   2 -10    3.69    0.21
  12   2 -10    3.86    0.20
  12  -2 -10    3.70    0.20
 -12  -2  10    3.43    0.20
  12  -2 -10    3.71    0.19
  12   2  -9    1.03    0.12
  12   2  -9    1.11    0.13
  12  -2  -9    1.27    0.10
  12  -2  -9    1.05    0.14
  12   2  -8    1.56    0.13
  12   2  -8    1.55    0.14
 -12  -2   8    1.84    0.15
  12  -2  -8    1.75    0.11
  12   2  -7    2.01    0.16
  12   2  -7    2.24    0.14
 -12  -2   7    1.97    0.16
  12  -2  -7    2.08    0.12
  12   2  -6    4.70    0.23
  12   2  -6    4.66    0.24
  12   2  -6    4.34    0.32
  12  -2  -6    4.93    0.22
 -12  -2   6    4.76    0.25
  12  -2  -6    3.74    0.29
  12   2  -5    1.63    0.15
  12   2  -5    1.59    0.21
  12  -2  -5    2.01    0.11
  12  -2  -5    1.86    0.19
  12   2  -4    5.32    0.30
  12  -2  -4    5.36    0.24
  12  -2  -4    5.13    0.28
  12   2  -3    0.04    0.08
  12  -2  -3    0.06    0.08
 -12  -2   3    0.01    0.10
  12   2  -2   12.14    0.54
 -12  -2   2   12.86    0.54
  12  -2  -2   12.14    0.55
  12  -2  -2   12.05    0.51
  12   2  -1    7.55    0.34
 -12  -2   1    6.50    0.33
  12  -2  -1    7.38    0.32
  12  -2  -1    7.72    0.36
  12   2   0    0.01    0.06
  12  -2   0   -0.01    0.08
  12  -2   1    5.35    0.25
  12  -2   1    5.59    0.29
  12  -2   2    3.42    0.22
 -12  -2  -3   12.98    0.56
 -12  -2  -4   19.18    0.79
  12  -2   4   19.55    0.84
 -12   2  -5    8.06    0.33
 -12   2  -5    7.04    0.32
 -12   2  -5    7.03    0.32
 -12  -2  -5    7.11    0.33
 -12  -2  -5    7.20    0.32
 -12  -2  -5    6.91    0.33
 -12   2  -6    1.94    0.13
 -12   2  -6    1.97    0.14
 -12   2  -6    2.46    0.14
 -12  -2  -6    2.08    0.14
 -12  -2  -6    2.04    0.16
 -12  -2  -6    2.10    0.15
 -12  -2  -6    2.15    0.18
 -12   2  -7    7.47    0.35
 -12   2  -7    8.13    0.35
 -12   2  -7    7.65    0.34
 -12  -2  -7    7.90    0.35
 -12  -2  -7    7.90    0.34
 -12  -2  -7    7.73    0.35
 -12  -2  -7    7.64    0.37
 -12   2  -8    2.55    0.16
 -12   2  -8    2.67    0.15
 -12   2  -8    2.91    0.16
 -12  -2  -8    2.57    0.16
 -12  -2  -8    2.60    0.16
 -12  -2  -8    2.60    0.16
 -12   2  -9    0.74    0.10
 -12   2  -9    0.63    0.12
 -12   2  -9    0.83    0.10
 -12  -2  -9    0.85    0.11
 -12  -2  -9    0.86    0.10
 -12  -2  -9    0.83    0.10
 -12   2 -10    0.26    0.07
 -12   2 -10    0.35    0.09
 -12   2 -10    0.23    0.09
 -12  -2 -10    0.13    0.05
 -12  -2 -10    0.38    0.10
 -12  -2 -10    0.16    0.06
 -12   2 -11    1.83    0.13
 -12   2 -11    1.91    0.14
 -12   2 -11    1.24    0.23
 -12  -2 -11    1.95    0.14
 -12  -2 -11    2.03    0.14
 -12  -2 -11    1.86    0.13
 -12   2 -12    3.70    0.20
 -12   2 -12    3.79    0.21
 -12  -2 -12    3.34    0.19
 -12  -2 -12    3.88    0.21
 -12  -2 -12    3.68    0.20
 -12   2 -13    0.30    0.10
 -12   2 -13    0.23    0.07
 -12  -2 -13    0.20    0.08
 -12  -2 -13    0.36    0.09
 -12  -2 -13    0.31    0.08
 -12   2 -14    5.63    0.30
 -12   2 -14    6.42    0.29
 -12  -2 -14    5.83    0.29
 -12  -2 -14    6.40    0.28
 -12  -2 -14    6.44    0.29
 -12   2 -15    0.19    0.07
 -12   2 -15    0.15    0.07
 -12  -2 -15    0.22    0.07
 -12  -2 -15    0.22    0.07
 -12   2 -16    0.24    0.09
 -12  -2 -16    0.06    0.04
 -12  -2 -16    0.23    0.09
 -12   2 -17    1.45    0.12
 -12  -2 -17    1.64    0.15
 -12  -2 -17    1.55    0.10
 -12  -2 -17    1.50    0.10
 -12   2 -18    0.04    0.07
 -12  -2 -18    0.63    0.19
 -12  -2 -19    0.15    0.04
 -12  -2 -20   -0.02    0.03
 -12   3  18    0.03    0.03
  12   3 -17    2.25    0.13
 -12   3  17    2.44    0.12
 -12   3  16    0.03    0.03
  12   3 -16    0.11    0.05
  12  -3 -16    0.09    0.07
 -12   3  15    1.73    0.10
  12   3 -15    1.58    0.11
  12  -3 -15    1.60    0.12
  12   3 -14    0.42    0.08
 -12   3  14    0.51    0.07
  12  -3 -14    0.45    0.08
  12   3 -13    0.39    0.08
 -12   3  13    0.39    0.07
  12  -3 -13    0.23    0.08
  12   3 -12    0.79    0.10
 -12   3  12    0.77    0.08
  12  -3 -12    0.65    0.09
  12   3 -11    1.25    0.11
 -12   3  11    1.20    0.10
  12  -3 -11    1.16    0.10
 -12   3  10    0.77    0.09
  12   3 -10    0.83    0.11
  12  -3 -10    0.75    0.09
 -12  -3  10    0.90    0.18
 -12   3   9    0.20    0.06
  12   3  -9    0.15    0.07
  12  -3  -9    0.18    0.06
 -12  -3   9    0.54    0.17
  12   3  -8    8.69    0.39
  12   3  -8    7.97    0.39
 -12   3   8    8.73    0.37
 -12  -3   8    7.81    0.40
  12  -3  -8    9.16    0.38
 -12   3   7    0.39    0.09
  12   3  -7    0.24    0.07
  12   3  -7    0.35    0.09
  12  -3  -7    0.27    0.08
 -12  -3   7    0.23    0.11
  12   3  -6    0.26    0.07
 -12   3   6    0.25    0.07
  12  -3  -6    0.29    0.08
 -12  -3   6    0.22    0.11
  12   3  -5    0.58    0.11
 -12   3   5    0.75    0.11
  12   3  -5    1.01    0.13
 -12   3   5    0.63    0.14
 -12  -3   5    0.64    0.18
 -12  -3   5    0.85    0.12
  12  -3  -5    0.68    0.08
 -12   3   4    0.04    0.08
  12   3  -4    0.17    0.08
  12   3  -4    0.03    0.06
 -12   3   4   -0.11    0.07
  12  -3  -4   -0.01    0.05
 -12  -3   4    0.06    0.07
  12   3  -3    0.70    0.13
  12   3  -3    0.56    0.12
 -12   3   3    0.88    0.12
 -12  -3   3    0.59    0.17
  12  -3  -3    0.62    0.08
 -12  -3   3    0.83    0.11
  12   3  -2    0.75    0.13
 -12   3   2    0.85    0.11
  12  -3  -2    0.52    0.08
 -12  -3   2    0.54    0.17
 -12  -3   2    0.70    0.11
  12   3  -1    2.41    0.18
 -12   3   1    2.29    0.17
 -12   3   1    2.26    0.15
 -12  -3   1    2.49    0.15
 -12  -3   1    2.14    0.20
  12  -3  -1    2.26    0.14
 -12   3   0    0.83    0.12
  12   3   0    1.23    0.16
 -12   3   0    0.64    0.10
  12  -3   0    0.91    0.09
 -12  -3   0    1.00    0.11
 -12  -3   0    1.26    0.17
 -12   3  -1    2.84    0.17
 -12   3  -1    2.77    0.16
  12   3   1    2.55    0.22
  12  -3   1    2.87    0.16
 -12  -3  -1    2.85    0.17
 -12  -3  -1    2.88    0.21
 -12   3  -2   23.55    0.97
 -12   3  -2   22.73    0.97
 -12  -3  -2   23.45    0.99
 -12  -3  -2   25.22    0.98
  12  -3   2   24.15    0.98
 -12   3  -3    3.14    0.16
 -12   3  -3    2.65    0.16
  12  -3   3    2.35    0.16
 -12  -3  -3    2.47    0.19
 -12  -3  -3    2.58    0.16
 -12  -3  -3    2.70    0.19
 -12   3  -4    5.33    0.25
 -12   3  -4    5.13    0.25
 -12  -3  -4    5.41    0.26
 -12  -3  -4    5.54    0.28
 -12  -3  -4    5.19    0.27
 -12   3  -5   -0.03    0.05
 -12   3  -5    0.03    0.05
 -12  -3  -5   -0.06    0.07
 -12  -3  -5    0.02    0.07
 -12  -3  -5   -0.02    0.07
 -12   3  -6    6.17    0.28
 -12   3  -6    6.07    0.28
 -12  -3  -6    6.39    0.29
 -12  -3  -6    6.44    0.30
 -12  -3  -6    5.49    0.29
 -12   3  -7    0.51    0.09
 -12   3  -7    0.42    0.09
 -12  -3  -7    0.31    0.11
 -12  -3  -7    0.43    0.10
 -12  -3  -7    0.36    0.12
  12   3   8    4.30    0.25
 -12   3  -8    4.20    0.22
 -12   3  -8    4.33    0.22
 -12  -3  -8    4.32    0.23
 -12  -3  -8    4.43    0.23
 -12  -3  -8    4.60    0.22
  12   3   9    0.12    0.11
 -12   3  -9    0.04    0.06
 -12   3  -9    0.00    0.05
 -12  -3  -9   -0.02    0.08
 -12  -3  -9   -0.09    0.06
 -12  -3  -9   -0.02    0.05
 -12   3 -10    0.60    0.09
 -12   3 -10    0.50    0.11
 -12  -3 -10    0.74    0.10
 -12  -3 -10    0.51    0.11
 -12  -3 -10    0.65    0.11
 -12   3 -11    0.36    0.09
 -12  -3 -11    0.34    0.11
 -12  -3 -11    0.31    0.09
 -12   3 -12    1.16    0.10
 -12  -3 -12    0.98    0.13
 -12  -3 -12    0.88    0.10
 -12  -3 -12    1.13    0.10
 -12   3 -13    0.70    0.08
 -12  -3 -13    0.44    0.12
 -12  -3 -13    0.70    0.09
 -12  -3 -13    0.67    0.08
 -12   3 -14    0.70    0.08
 -12  -3 -14    0.68    0.08
 -12  -3 -14    0.47    0.13
 -12  -3 -14    0.68    0.07
 -12   3 -15    0.27    0.07
 -12  -3 -15    0.22    0.06
 -12  -3 -15    0.21    0.06
 -12   3 -16    0.12    0.05
 -12  -3 -16    0.15    0.05
 -12  -3 -16    0.15    0.05
 -12  -3 -17    0.68    0.06
 -12  -3 -18    0.02    0.03
  12   4 -15    0.01    0.03
 -12   4  15    0.09    0.04
 -12   4  14    0.18    0.05
  12   4 -14    0.13    0.03
  12   4 -13    0.18    0.05
  12  -4 -13    0.05    0.07
 -12   4  12    2.55    0.13
  12   4 -12    2.48    0.13
  12  -4 -12    2.49    0.15
  12   4 -11    1.28    0.10
 -12   4  11    1.26    0.09
  12  -4 -11    1.25    0.10
 -12   4  10    2.25    0.13
  12   4 -10    2.48    0.14
  12  -4 -10    2.40    0.14
  12   4  -9    0.15    0.05
 -12   4   9    0.29    0.08
  12   4  -9    0.11    0.08
  12  -4  -9    0.22    0.07
  12   4  -8    0.04    0.07
 -12   4   8    0.11    0.06
  12   4  -8    0.00    0.05
  12  -4  -8    0.04    0.06
  12   4  -7    0.08    0.06
  12  -4  -7   -0.04    0.05
  12   4  -6    0.69    0.10
 -12   4   6    0.72    0.13
  12   4  -6    0.67    0.11
  12  -4  -6    0.73    0.09
  12   4  -5    1.09    0.12
  12   4  -5    1.31    0.12
 -12   4   5    1.16    0.12
  12  -4  -5    1.04    0.10
  12   4  -4    0.62    0.11
  12   4  -4    0.39    0.10
  12  -4  -4    0.66    0.09
  12   4  -3    0.59    0.10
 -12   4   3    0.49    0.10
  12   4  -3    0.62    0.12
  12  -4  -3    0.33    0.08
  12   4  -2    0.07    0.06
 -12   4   2    0.07    0.06
  12   4  -2    0.15    0.08
 -12  -4   2    0.09    0.08
  12  -4  -2    0.13    0.06
  12   4  -1    0.24    0.07
 -12   4   1    0.17    0.06
  12   4  -1    0.36    0.09
  12  -4  -1    0.26    0.08
 -12   4   0    0.18    0.06
  12   4   0    0.34    0.11
 -12   4   0    0.24    0.08
  12   4   0    0.35    0.11
  12  -4   0    0.22    0.06
 -12   4  -1    0.25    0.07
  12   4   1    0.44    0.10
  12  -4   1    0.17    0.06
 -12  -4  -1    0.05    0.08
  12   4   2    1.15    0.12
 -12   4  -2    1.07    0.12
 -12   4  -2    1.02    0.10
 -12   4  -3    0.08    0.05
 -12   4  -3    0.07    0.06
  12   4   3   -0.03    0.06
  12  -4   3    0.03    0.06
 -12  -4  -3    0.03    0.08
 -12   4  -4    8.43    0.36
  12   4   4    7.90    0.36
 -12   4  -4    7.99    0.35
  12  -4   4    7.45    0.37
  12   4   5    0.40    0.11
 -12   4  -5    0.14    0.05
 -12   4  -5    0.21    0.06
  12  -4   5    0.19    0.07
 -12  -4  -5    0.07    0.10
 -12  -4  -5    0.11    0.09
  12   4   6    0.55    0.12
 -12   4  -6    0.71    0.08
 -12   4  -6    0.63    0.09
 -12  -4  -6    0.79    0.13
 -12  -4  -6    0.41    0.10
  12  -4   6    0.59    0.09
  12   4   7    0.17    0.08
 -12   4  -7    0.16    0.05
 -12   4  -7    0.07    0.05
  12  -4   7    0.14    0.06
 -12  -4  -7    0.09    0.09
 -12  -4  -7    0.15    0.09
 -12  -4  -7    0.09    0.07
 -12   4  -8    0.61    0.08
  12   4   8    0.73    0.13
 -12   4  -8    0.66    0.08
 -12  -4  -8    0.74    0.12
  12  -4   8    0.54    0.09
 -12  -4  -8    0.67    0.10
 -12   4  -9    6.13    0.28
  12   4   9    6.13    0.30
 -12   4  -9    6.31    0.28
 -12  -4  -9    6.27    0.28
  12  -4   9    5.97    0.29
 -12  -4  -9    6.11    0.28
 -12   4 -10    0.08    0.06
 -12   4 -10    0.08    0.04
 -12  -4 -10    0.10    0.05
  12  -4  10    0.01    0.06
 -12  -4 -10    0.08    0.06
 -12   4 -11    2.85    0.16
 -12   4 -11    3.09    0.15
 -12  -4 -11    2.64    0.15
 -12  -4 -11    2.91    0.15
  12  -4  11    2.90    0.17
 -12   4 -12    0.02    0.04
 -12  -4 -12    0.01    0.04
  12  -4  12    0.07    0.06
 -12  -4 -12    0.09    0.05
 -12   4 -13    0.06    0.04
  12  -4  13    0.11    0.07
 -12  -4 -13    0.03    0.05
 -12   4 -14    1.56    0.08
 -12  -4 -14    1.06    0.10
 -12   4 -15    0.75    0.07
  12   5 -10    1.38    0.08
  12   5  -9    1.90    0.10
  12   5  -8    0.10    0.04
  12   5  -7    1.60    0.10
  12   5  -7    1.68    0.11
  12  -5  -7    1.61    0.12
  12   5  -6    0.10    0.05
  12   5  -6    0.09    0.05
  12  -5  -6    0.19    0.07
  12   5  -5    1.15    0.09
  12   5  -5    1.22    0.09
  12  -5  -5    1.31    0.10
  12   5  -4    0.39    0.07
 -12   5   4    0.58    0.09
  12   5  -4    0.66    0.10
  12  -5  -4    0.42    0.08
  12   5  -3    0.37    0.07
 -12   5   3    0.44    0.07
  12  -5  -3    0.42    0.08
  12   5  -2    0.02    0.04
 -12   5   2   -0.05    0.04
  12  -5  -2    0.02    0.06
 -12   5   1    0.36    0.07
  12   5  -1    0.46    0.07
  12  -5  -1    0.43    0.08
 -12   5   0    0.33    0.06
  12   5   0    0.32    0.07
  12  -5   0    0.34    0.08
 -12   5  -1    0.04    0.04
  12   5   1   -0.01    0.04
  12  -5   1    0.04    0.06
  12   5   2    0.36    0.07
 -12   5  -2    0.25    0.06
  12  -5   2    0.31    0.08
 -12   5  -3    0.00    0.07
 -12   5  -3    0.19    0.06
  12   5   3    0.06    0.05
  12  -5   3    0.06    0.06
  12   5   4   -0.02    0.05
 -12   5  -4    0.00    0.04
 -12   5  -4    0.00    0.05
  12  -5   4    0.04    0.06
  12   5   5    0.13    0.05
 -12   5  -5    0.04    0.05
  12  -5   5    0.28    0.08
  12   5   6    0.03    0.06
 -12   5  -6    0.08    0.04
 -12   5  -6    0.06    0.04
  12  -5   6    0.07    0.06
 -12   5  -7    0.05    0.04
 -12   5  -7   -0.02    0.03
  12  -5   7    0.12    0.07
 -12   5  -8    0.53    0.06
 -12   5  -8    0.58    0.06
 -12   5  -9    0.33    0.07
 -12   5 -10    1.09    0.07
 -13   0  21    0.01    0.03
 -13   0  20    0.42    0.06
  13   0 -19   -0.02    0.09
  13   0 -18    1.57    0.13
  13   0 -17    0.10    0.07
  13   0 -16    1.84    0.14
 -13   0  16    1.59    0.14
  13   0 -15    0.03    0.07
 -13   0  15    0.06    0.06
  13   0 -14    0.13    0.08
 -13   0  14    0.20    0.06
  13   0 -13    0.17    0.08
 -13   0  13    0.03    0.06
 -13   0  12   56.62    2.43
  13   0 -12   65.10    2.45
 -13   0  11   -0.04    0.06
  13   0 -11   -0.06    0.06
  13   0 -10    3.65    0.19
 -13   0  10    3.86    0.19
  13   0  -9   -0.04    0.06
  13   0  -8    0.13    0.06
  13   0  -8    0.10    0.09
  13   0  -7   -0.03    0.06
  13   0  -7    0.03    0.06
  13   0  -6    5.62    0.27
 -13   0   5   -0.07    0.06
  13   0  -5    0.01    0.04
 -13   0   4    1.08    0.11
  13   0  -4    1.08    0.09
 -13   0   3    0.03    0.05
  13   0  -3   -0.01    0.03
 -13   0   2    0.05    0.04
  13   0  -2    0.00    0.03
  13   0  -1    0.00    0.02
 -13   0   1    0.08    0.04
 -13   0   0    6.78    0.30
  13   0   0    6.46    0.29
  13   0   1   -0.02    0.02
 -13   0  -1    0.01    0.04
  13   0   2   29.80    1.23
 -13   0  -2   30.90    1.23
  13   0   3    0.05    0.03
  13   0   4    0.52    0.07
  13   0   5    0.00    0.04
  13   0   5   -0.04    0.05
  13   0   6    2.05    0.17
  13   0   6    2.25    0.14
 -13   0  -7    0.04    0.06
  13   0   7   -0.13    0.09
  13   0   7   -0.04    0.06
 -13   0  -8    4.37    0.20
  13   0   8    3.78    0.27
  13   0   8    4.06    0.24
 -13   0  -9    0.07    0.06
  13   0   9    0.07    0.11
 -13   0 -10    3.80    0.21
 -13   0 -10    3.87    0.21
 -13   0 -10    4.00    0.20
 -13   0 -11    0.02    0.06
 -13   0 -11    0.03    0.08
 -13   0 -11    0.03    0.07
 -13   0 -12    3.82    0.21
 -13   0 -12    4.21    0.21
 -13   0 -12    3.75    0.20
 -13   0 -13   -0.01    0.07
 -13   0 -13    0.05    0.06
 -13   0 -13   -0.08    0.06
 -13   0 -14    0.01    0.05
 -13   0 -14    0.08    0.07
 -13   0 -14   -0.15    0.07
 -13   0 -15    0.02    0.05
 -13   0 -15    0.25    0.09
 -13   0 -16    3.26    0.19
 -13   0 -16    3.47    0.17
 -13   0 -17    0.02    0.07
 -13   0 -17    0.06    0.05
 -13   0 -18    1.71    0.14
 -13   0 -18    1.72    0.11
 -13   0 -19    0.07    0.09
 -13   0 -19   -0.02    0.04
 -13   1  21    0.12    0.04
 -13  -1  21    0.26    0.06
 -13  -1  20    0.30    0.06
 -13   1  19    0.12    0.05
  13  -1 -19    0.22    0.08
 -13  -1  19    0.21    0.06
 -13   1  18    0.28    0.07
  13   1 -18    0.25    0.10
 -13  -1  18    0.25    0.07
  13  -1 -18    0.20    0.08
  13   1 -17    0.03    0.08
 -13   1  17    0.04    0.05
  13  -1 -17    0.09    0.07
 -13  -1  17    0.07    0.05
  13   1 -16    0.54    0.12
 -13   1  16    0.56    0.08
  13  -1 -16    0.59    0.10
 -13   1  15    0.71    0.09
  13   1 -15    0.79    0.12
  13  -1 -15    0.68    0.10
  13   1 -14    4.44    0.23
 -13   1  14    3.81    0.20
  13  -1 -14    4.13    0.21
 -13   1  13    2.15    0.13
  13   1 -13    2.19    0.16
  13   1 -13    2.28    0.20
  13  -1 -13    2.01    0.13
  13  -1 -13    2.17    0.14
 -13   1  12    1.03    0.10
  13   1 -12    0.75    0.16
  13   1 -12    1.17    0.12
  13  -1 -12    1.02    0.10
  13  -1 -12    1.01    0.10
 -13   1  11    7.44    0.33
  13   1 -11    7.26    0.36
  13   1 -11    7.67    0.35
  13  -1 -11    7.58    0.34
  13  -1 -11    7.96    0.34
  13   1 -10    0.02    0.07
  13   1 -10    0.06    0.10
  13  -1 -10    0.08    0.06
  13  -1 -10    0.07    0.06
  13   1  -9    2.58    0.19
  13   1  -9    2.72    0.16
  13  -1  -9    2.50    0.16
  13  -1  -9    2.95    0.15
  13   1  -8    0.07    0.07
  13  -1  -8    0.16    0.06
  13   1  -7    1.09    0.16
  13   1  -7    1.18    0.12
  13  -1  -7    0.73    0.14
  13  -1  -7    1.10    0.09
  13   1  -6    2.53    0.18
  13  -1  -6    2.55    0.14
  13  -1  -6    2.70    0.17
  13   1  -5    0.22    0.06
  13  -1  -5    0.27    0.09
  13  -1  -5    0.11    0.05
 -13  -1   5    0.09    0.08
 -13   1   4    4.55    0.27
  13   1  -4    5.62    0.26
 -13  -1   4    5.59    0.27
  13  -1  -4    5.59    0.26
  13   1  -3    0.33    0.07
 -13   1   3    0.28    0.07
  13  -1  -3    0.40    0.07
 -13  -1   3    0.39    0.09
 -13   1   2   12.23    0.55
  13   1  -2   12.55    0.53
  13  -1  -2   12.65    0.54
 -13  -1   2   13.25    0.54
  13   1  -1    0.36    0.06
 -13   1   1    0.25    0.09
  13  -1  -1    0.31    0.07
 -13  -1   1    0.31    0.08
 -13   1   0   12.39    0.55
  13   1   0   12.67    0.53
 -13  -1   0   12.45    0.53
  13  -1   0   13.24    0.54
 -13   1  -1   13.12    0.57
  13   1   1   13.08    0.54
 -13  -1  -1   13.63    0.55
  13  -1   1   13.09    0.56
  13   1   2   67.21    2.88
 -13  -1  -2   74.07    2.88
  13  -1   2   76.25    2.91
  13   1   3   21.51    0.90
  13  -1   3   23.36    0.93
  13  -1   4    0.09    0.05
 -13   1  -5    4.72    0.24
  13  -1   5    5.09    0.26
 -13   1  -6    0.32    0.08
  13  -1   6    0.35    0.12
 -13   1  -7    0.11    0.05
  13  -1   7    0.01    0.09
 -13  -1  -7    0.00    0.07
 -13   1  -8    3.66    0.18
  13  -1   8    3.54    0.26
 -13  -1  -8    3.33    0.19
 -13  -1  -8    3.22    0.19
 -13  -1  -8    3.35    0.18
 -13   1  -9    0.20    0.08
 -13   1  -9    0.17    0.10
 -13   1  -9    0.25    0.06
 -13  -1  -9    0.16    0.07
 -13  -1  -9    0.14    0.06
 -13  -1  -9    0.12    0.06
 -13   1 -10    0.05    0.06
 -13   1 -10    0.03    0.08
 -13  -1 -10    0.02    0.06
 -13  -1 -10    0.11    0.06
 -13  -1 -10    0.17    0.06
 -13   1 -11    0.02    0.08
 -13   1 -11    0.02    0.06
 -13  -1 -11    0.06    0.06
 -13  -1 -11    0.01    0.06
 -13  -1 -11   -0.04    0.05
 -13   1 -12    0.46    0.09
 -13  -1 -12    0.55    0.09
 -13  -1 -12    0.74    0.10
 -13  -1 -12    0.59    0.10
 -13   1 -13    1.68    0.13
 -13  -1 -13    1.67    0.12
 -13  -1 -13    1.48    0.12
 -13  -1 -13    1.44    0.13
 -13   1 -14    0.49    0.10
 -13  -1 -14    0.56    0.10
 -13  -1 -14    0.29    0.09
 -13  -1 -14    0.59    0.09
 -13   1 -15    0.20    0.06
 -13  -1 -15    0.35    0.08
 -13  -1 -15    0.31    0.08
 -13  -1 -15    0.36    0.11
 -13   1 -16    7.18    0.35
 -13  -1 -16    7.33    0.35
 -13  -1 -16    8.17    0.34
 -13  -1 -16    8.01    0.34
 -13   1 -17    0.08    0.07
 -13  -1 -17   -0.08    0.07
 -13  -1 -17   -0.02    0.05
 -13  -1 -17   -0.04    0.04
 -13   1 -18    4.97    0.24
 -13  -1 -18    4.56    0.24
 -13  -1 -18    4.61    0.21
 -13  -1 -18    4.52    0.21
 -13   1 -19    0.33    0.12
 -13  -1 -19    0.12    0.14
 -13  -1 -19    0.18    0.05
 -13  -1 -20    0.05    0.03
 -13   2  20    0.04    0.04
 -13   2  19    0.02    0.05
 -13   2  19    0.04    0.03
 -13  -2  19    0.03    0.07
 -13   2  18   -0.03    0.03
 -13  -2  18   -0.05    0.05
  13  -2 -18   -0.11    0.08
 -13   2  17    0.14    0.04
  13  -2 -17    0.22    0.07
 -13  -2  17    0.09    0.06
 -13   2  16    0.43    0.07
  13   2 -16    0.58    0.13
 -13  -2  16    0.51    0.09
  13  -2 -16    0.39    0.09
  13   2 -15    2.41    0.16
  13   2 -15    2.08    0.17
 -13   2  15    2.59    0.13
 -13  -2  15    2.42    0.15
  13  -2 -15    2.23    0.15
 -13   2  14    3.45    0.17
  13   2 -14    3.08    0.20
  13   2 -14    3.67    0.20
 -13  -2  14    3.56    0.19
  13  -2 -14    3.02    0.18
  13   2 -13    1.43    0.13
  13   2 -13    1.24    0.14
 -13   2  13    1.51    0.10
  13  -2 -13    1.37    0.12
 -13  -2  13    1.51    0.13
  13   2 -12    4.91    0.25
  13   2 -12    4.99    0.26
 -13   2  12    4.93    0.23
  13  -2 -12    4.95    0.24
  13  -2 -12    5.01    0.24
 -13  -2  12    4.76    0.25
  13   2 -11    1.82    0.14
  13   2 -11    1.67    0.15
  13  -2 -11    1.68    0.14
 -13  -2  11    1.89    0.14
  13  -2 -11    1.79    0.12
  13   2 -10    0.07    0.06
  13   2 -10    0.18    0.08
 -13  -2  10    0.03    0.06
  13  -2 -10    0.19    0.08
  13  -2 -10    0.28    0.08
  13   2  -9    1.58    0.14
  13   2  -9    1.43    0.13
  13  -2  -9    1.40    0.10
 -13  -2   9    1.33    0.13
  13  -2  -9    1.41    0.15
  13   2  -8    5.13    0.26
  13   2  -8    5.22    0.26
  13  -2  -8    5.57    0.25
 -13  -2   8    5.11    0.26
  13   2  -7   -0.01    0.07
  13   2  -7    0.02    0.07
  13  -2  -7   -0.02    0.04
 -13  -2   7    0.09    0.07
  13   2  -6    6.39    0.31
 -13   2   6    6.84    0.29
 -13  -2   6    6.38    0.31
  13  -2  -6    6.53    0.29
  13   2  -5    1.95    0.14
  13   2  -5    1.68    0.23
 -13   2   5    1.88    0.13
 -13  -2   5    1.71    0.16
  13  -2  -5    1.94    0.11
  13   2  -4    0.62    0.17
  13   2  -4    0.43    0.12
  13  -2  -4    0.58    0.07
  13  -2  -4    0.50    0.15
  13   2  -3    0.44    0.15
  13  -2  -3    0.37    0.14
  13  -2  -3    0.64    0.07
  13   2  -2    1.17    0.15
  13  -2  -2    0.95    0.14
  13  -2  -2    1.06    0.09
  13   2  -1    0.01    0.08
  13  -2  -1    0.05    0.05
  13  -2  -1    0.13    0.09
  13   2   0    1.43    0.12
  13  -2   0    1.16    0.09
  13  -2   0    1.37    0.16
  13  -2   1   93.84    3.63
  13  -2   1   86.44    3.59
  13  -2   2   26.20    1.11
  13  -2   3   13.13    0.60
 -13   2  -4    0.17    0.06
 -13   2  -4    0.06    0.06
 -13  -2  -4    0.11    0.08
 -13  -2  -4   -0.04    0.08
 -13   2  -5   12.79    0.53
 -13   2  -5   12.20    0.53
 -13  -2  -5   12.45    0.53
 -13  -2  -5   12.88    0.54
 -13  -2  -5   12.22    0.54
 -13   2  -6    0.50    0.09
 -13   2  -6    0.31    0.09
 -13   2  -6    0.53    0.10
 -13  -2  -6    0.36    0.11
 -13  -2  -6    0.53    0.11
 -13  -2  -6    0.39    0.10
 -13  -2  -6    0.48    0.10
 -13   2  -7    4.30    0.22
 -13   2  -7    4.57    0.22
 -13   2  -7    4.33    0.22
 -13  -2  -7    4.53    0.23
 -13  -2  -7    4.36    0.22
 -13  -2  -7    4.15    0.25
 -13  -2  -7    4.27    0.22
 -13   2  -8    2.76    0.17
 -13   2  -8    2.89    0.16
 -13   2  -8    2.90    0.17
 -13  -2  -8    2.95    0.17
 -13  -2  -8    2.83    0.16
 -13  -2  -8    2.46    0.16
 -13  -2  -8    2.79    0.21
 -13   2  -9    0.03    0.07
 -13   2  -9    0.09    0.06
 -13   2  -9    0.11    0.06
 -13  -2  -9   -0.04    0.07
 -13  -2  -9    0.08    0.06
 -13  -2  -9    0.07    0.06
 -13   2 -10    2.88    0.18
 -13   2 -10    2.71    0.17
 -13   2 -10    3.01    0.19
 -13  -2 -10    3.11    0.18
 -13  -2 -10    3.03    0.17
 -13  -2 -10    3.20    0.18
 -13   2 -11    0.21    0.07
 -13   2 -11    0.30    0.09
 -13   2 -11    0.19    0.07
 -13  -2 -11    0.08    0.06
 -13  -2 -11    0.17    0.06
 -13  -2 -11    0.03    0.08
 -13   2 -12    6.58    0.30
 -13   2 -12    6.83    0.32
 -13  -2 -12    6.32    0.30
 -13  -2 -12    6.64    0.31
 -13  -2 -12    6.54    0.31
 -13   2 -13    0.08    0.07
 -13   2 -13    0.08    0.07
 -13  -2 -13   -0.01    0.05
 -13  -2 -13   -0.10    0.08
 -13  -2 -13    0.01    0.05
 -13   2 -14    4.60    0.26
 -13   2 -14    5.32    0.25
 -13  -2 -14    5.44    0.25
 -13  -2 -14    5.04    0.26
 -13  -2 -14    5.47    0.25
 -13   2 -15    0.33    0.10
 -13   2 -15    0.05    0.07
 -13  -2 -15    0.09    0.04
 -13  -2 -15    0.16    0.08
 -13  -2 -15    0.08    0.05
 -13   2 -16    0.96    0.10
 -13  -2 -16    1.09    0.09
 -13  -2 -16    1.10    0.09
 -13  -2 -16    0.94    0.14
 -13   2 -17    0.61    0.10
 -13  -2 -17    1.02    0.18
 -13  -2 -17    0.65    0.07
 -13  -2 -17    0.64    0.07
 -13  -2 -18    0.04    0.03
 -13  -2 -18    0.03    0.03
 -13  -2 -19    0.02    0.03
 -13  -2 -20    0.32    0.04
 -13   3  18    0.01    0.03
 -13   3  17    2.01    0.10
 -13   3  16    0.80    0.06
  13   3 -16    0.75    0.08
  13  -3 -16    0.62    0.10
  13   3 -15    0.10    0.05
 -13   3  15    0.09    0.04
  13  -3 -15    0.09    0.07
  13   3 -14    0.05    0.05
 -13   3  14    0.04    0.04
  13  -3 -14   -0.02    0.06
  13   3 -13    0.27    0.08
 -13   3  13    0.25    0.06
  13  -3 -13    0.16    0.07
  13   3 -12    0.19    0.06
 -13   3  12    0.25    0.07
  13  -3 -12    0.17    0.07
 -13  -3  12    0.25    0.11
 -13   3  11    0.24    0.07
  13   3 -11    0.26    0.07
 -13  -3  11    0.62    0.16
 -13   3  10    1.35    0.10
  13   3 -10    1.06    0.12
 -13  -3  10    1.17    0.17
  13  -3 -10    1.04    0.10
 -13   3   9    2.01    0.12
  13   3  -9    1.89    0.14
  13  -3  -9    1.86    0.13
 -13  -3   9    1.75    0.18
  13   3  -8    0.06    0.06
 -13   3   8    0.10    0.06
  13   3  -8   -0.10    0.09
  13  -3  -8   -0.04    0.05
 -13  -3   8    0.08    0.10
  13   3  -7    0.18    0.09
 -13   3   7    0.25    0.08
 -13  -3   7    0.19    0.10
  13   3  -6    2.34    0.18
  13   3  -6    2.56    0.16
 -13   3   6    2.22    0.15
 -13  -3   6    2.55    0.20
  13  -3  -6    2.63    0.15
 -13   3   5    0.19    0.07
  13   3  -5    0.12    0.07
  13   3  -5    0.14    0.07
 -13   3   5    0.31    0.09
  13  -3  -5    0.12    0.06
 -13  -3   5    0.29    0.10
 -13  -3   5    0.06    0.08
  13   3  -4    0.37    0.08
  13   3  -4    0.41    0.12
 -13   3   4    0.22    0.08
 -13   3   4    0.30    0.08
 -13  -3   4    0.32    0.11
  13  -3  -4    0.28    0.07
 -13   3   3    2.87    0.17
  13   3  -3    2.96    0.18
  13  -3  -3    3.10    0.16
 -13  -3   3    2.85    0.21
  13   3  -2    1.82    0.15
 -13   3   2    1.63    0.14
 -13   3   2    1.69    0.17
 -13  -3   2    1.81    0.19
  13  -3  -2    1.73    0.12
 -13   3   1    8.57    0.38
  13   3  -1    8.60    0.39
 -13   3   1    7.99    0.38
 -13  -3   1    8.86    0.41
  13  -3  -1    8.98    0.38
  13   3   0    3.90    0.23
 -13   3   0    3.95    0.21
 -13   3   0    3.87    0.20
  13  -3   0    3.88    0.20
 -13  -3   0    3.64    0.23
 -13   3  -1    0.98    0.11
 -13   3  -1    1.02    0.11
  13  -3   1    0.82    0.09
 -13  -3  -1    0.92    0.16
 -13   3  -2   12.77    0.54
 -13   3  -2   12.48    0.54
  13  -3   2   13.27    0.55
 -13  -3  -2   12.90    0.56
 -13   3  -3    1.15    0.11
 -13   3  -3    1.49    0.11
  13  -3   3    1.07    0.11
 -13  -3  -3    1.17    0.15
 -13  -3  -3    1.23    0.15
 -13   3  -4    1.21    0.11
 -13   3  -4    1.11    0.11
 -13  -3  -4    1.19    0.14
 -13  -3  -4    1.28    0.14
  13  -3   4    1.16    0.11
 -13   3  -5    0.11    0.05
 -13   3  -5    0.13    0.06
 -13  -3  -5    0.26    0.08
 -13  -3  -5    0.32    0.11
 -13  -3  -5    0.12    0.07
 -13   3  -6   12.80    0.56
 -13   3  -6   13.19    0.56
 -13  -3  -6   13.59    0.58
 -13  -3  -6   13.58    0.57
 -13   3  -7    0.23    0.06
 -13   3  -7    0.34    0.09
 -13  -3  -7    0.18    0.07
 -13  -3  -7    0.20    0.06
 -13  -3  -7    0.05    0.08
 -13   3  -8    0.17    0.06
 -13   3  -8    0.27    0.07
 -13  -3  -8    0.30    0.09
 -13  -3  -8    0.29    0.08
 -13  -3  -8    0.28    0.09
  13   3   9    0.65    0.16
 -13   3  -9    0.47    0.10
 -13   3  -9    0.65    0.09
 -13  -3  -9    0.38    0.11
 -13  -3  -9    0.55    0.10
 -13  -3  -9    0.30    0.10
 -13   3 -10    0.41    0.08
 -13   3 -10    0.40    0.09
 -13  -3 -10    0.49    0.10
 -13  -3 -10    0.51    0.09
 -13   3 -11    0.71    0.09
 -13   3 -11    0.98    0.13
 -13  -3 -11    0.78    0.10
 -13  -3 -11    0.58    0.09
 -13   3 -12    0.31    0.06
 -13   3 -12    0.08    0.08
 -13  -3 -12    0.19    0.06
 -13  -3 -12    0.40    0.08
 -13  -3 -12    0.12    0.10
 -13   3 -13    1.38    0.10
 -13  -3 -13    1.36    0.11
 -13  -3 -13    1.42    0.10
 -13   3 -14   -0.08    0.05
 -13  -3 -14    0.09    0.04
 -13  -3 -14    0.01    0.04
 -13   3 -15   -0.04    0.05
 -13  -3 -15    0.03    0.04
 -13  -3 -15   -0.05    0.03
 -13   3 -16    2.62    0.13
 -13  -3 -16    2.32    0.12
 -13  -3 -16    2.17    0.12
 -13  -3 -17   -0.02    0.03
 -13  -3 -18    0.19    0.04
  13   4 -15   -0.02    0.03
  13   4 -14    0.10    0.03
 -13   4  14    0.26    0.06
  13   4 -13    1.27    0.08
 -13   4  13    1.06    0.08
  13  -4 -13    1.01    0.11
 -13   4  12    0.22    0.07
  13   4 -12    0.12    0.04
  13  -4 -12    0.20    0.08
 -13   4  11    0.23    0.07
  13   4 -11    0.28    0.07
  13  -4 -11    0.28    0.08
  13   4 -10    0.39    0.07
 -13   4  10    0.39    0.08
  13  -4 -10    0.26    0.08
  13   4  -9   -0.02    0.13
  13   4  -9    0.00    0.05
 -13   4   9   -0.04    0.05
  13  -4  -9    0.03    0.06
  13   4  -8    0.15    0.07
  13   4  -8    0.20    0.06
  13  -4  -8    0.21    0.07
  13   4  -7    0.12    0.06
  13   4  -7    0.28    0.10
  13  -4  -7    0.19    0.07
  13   4  -6    0.39    0.10
  13   4  -6    0.31    0.09
 -13   4   6    0.16    0.09
  13  -4  -6    0.23    0.08
  13   4  -5    0.23    0.07
  13   4  -5    0.31    0.10
 -13   4   5    0.18    0.07
  13  -4  -5    0.33    0.08
  13   4  -4    0.15    0.07
 -13   4   4    0.10    0.07
  13   4  -4    0.07    0.06
  13  -4  -4    0.12    0.06
  13   4  -3    0.07    0.06
 -13   4   3    0.03    0.06
  13   4  -3    0.09    0.07
  13  -4  -3    0.00    0.06
  13   4  -2    0.29    0.10
  13   4  -2    0.47    0.12
 -13   4   2    0.54    0.10
  13  -4  -2    0.46    0.09
  13   4  -1    0.70    0.14
  13   4  -1    0.98    0.11
 -13   4   1    0.79    0.10
  13  -4  -1    0.63    0.09
  13   4   0    2.22    0.15
 -13   4   0    2.24    0.14
 -13   4   0    2.14    0.16
  13   4   0    1.60    0.18
  13  -4   0    2.01    0.14
 -13   4  -1    9.42    0.40
 -13   4  -1    9.10    0.40
  13   4   1    9.00    0.40
  13  -4   1    8.55    0.40
  13   4   2    9.28    0.40
 -13   4  -2    9.10    0.39
 -13   4  -2    9.05    0.39
  13  -4   2    8.18    0.40
  13   4   3    1.47    0.13
 -13   4  -3    1.56    0.12
 -13   4  -3    1.52    0.12
  13  -4   3    1.30    0.12
  13   4   4    1.12    0.12
 -13   4  -4    1.38    0.11
 -13   4  -4    1.37    0.10
  13  -4   4    1.09    0.11
 -13  -4  -4    0.85    0.16
 -13   4  -5    0.39    0.08
 -13   4  -5    0.56    0.09
  13   4   5    0.63    0.11
  13  -4   5    0.54    0.09
 -13  -4  -5    0.28    0.10
 -13   4  -6    0.12    0.05
  13   4   6    0.08    0.07
 -13   4  -6    0.07    0.05
  13  -4   6    0.16    0.06
 -13  -4  -6    0.13    0.07
 -13  -4  -6    0.00    0.08
 -13   4  -7    0.41    0.08
 -13   4  -7    0.49    0.08
  13   4   7    0.53    0.12
  13  -4   7    0.44    0.09
 -13  -4  -7    0.67    0.12
 -13  -4  -7    0.73    0.11
  13   4   8    0.16    0.08
 -13   4  -8    0.14    0.05
 -13   4  -8    0.16    0.05
  13  -4   8    0.17    0.07
 -13  -4  -8    0.27    0.06
 -13  -4  -8    0.31    0.11
 -13   4  -9    3.23    0.16
 -13   4  -9    3.07    0.16
  13   4   9    3.24    0.19
  13  -4   9    2.88    0.18
 -13  -4  -9    3.14    0.17
 -13  -4  -9    3.15    0.17
 -13   4 -10    0.01    0.05
 -13   4 -10    0.06    0.04
  13  -4  10    0.04    0.06
 -13  -4 -10    0.02    0.06
 -13   4 -11    0.61    0.07
 -13   4 -11    0.59    0.09
 -13  -4 -11    0.56    0.09
 -13  -4 -11    0.42    0.07
  13  -4  11    0.56    0.09
 -13   4 -12    0.00    0.04
  13  -4  12    0.05    0.07
 -13  -4 -12   -0.04    0.05
 -13  -4 -12    0.08    0.04
 -13   4 -13    0.11    0.04
  13  -4  13    0.24    0.09
 -13  -4 -13    0.09    0.05
 -13   4 -14    0.51    0.06
  13   5  -9    0.58    0.07
  13   5  -8    0.23    0.06
  13   5  -7    1.47    0.10
  13   5  -7    1.20    0.09
  13   5  -6    1.10    0.09
  13   5  -6    1.17    0.09
  13  -5  -6    1.23    0.11
  13   5  -5    0.74    0.07
  13   5  -5    0.44    0.08
  13  -5  -5    0.60    0.09
  13   5  -4    0.11    0.07
  13   5  -4   -0.01    0.04
 -13   5   4    0.07    0.06
  13  -5  -4   -0.04    0.06
 -13   5   3   -0.06    0.05
  13   5  -3    0.03    0.04
  13  -5  -3    0.03    0.07
  13   5  -2    0.15    0.05
 -13   5   2    0.17    0.05
  13  -5  -2    0.30    0.08
 -13   5   1    1.18    0.09
  13   5  -1    1.19    0.09
  13  -5  -1    1.01    0.10
  13   5   0    0.41    0.07
 -13   5   0    0.42    0.07
  13  -5   0    0.36    0.08
 -13   5  -1    0.38    0.06
  13   5   1    0.43    0.07
  13  -5   1    0.42    0.08
 -13   5  -2    0.03    0.04
  13   5   2    0.02    0.04
  13  -5   2    0.00    0.06
  13   5   3    0.02    0.05
 -13   5  -3    0.11    0.07
 -13   5  -3    0.00    0.03
  13  -5   3    0.02    0.06
 -13   5  -4   -0.09    0.05
  13   5   4    0.04    0.05
 -13   5  -4    0.05    0.04
  13  -5   4    0.12    0.07
 -13   5  -5    0.04    0.03
  13   5   5    0.08    0.05
 -13   5  -5    0.01    0.05
  13  -5   5    0.18    0.07
 -13   5  -6    0.23    0.06
 -13   5  -6    0.35    0.05
  13   5   6    0.43    0.09
  13  -5   6    0.27    0.09
 -13   5  -7    0.24    0.06
 -13   5  -7    0.17    0.06
 -13   5  -8    0.26    0.05
 -13   5  -8    0.11    0.04
 -13   5  -9    0.28    0.05
 -14   0  21    0.00    0.03
 -14   0  20    2.91    0.14
  14   0 -18    1.99    0.16
  14   0 -17    0.04    0.08
  14   0 -16    1.19    0.13
 -14   0  16    1.76    0.13
 -14   0  15   -0.05    0.06
  14   0 -15    0.03    0.07
  14   0 -14    0.36    0.09
 -14   0  14    0.37    0.10
  14   0 -13    0.01    0.08
 -14   0  13   -0.02    0.06
  14   0 -12    7.00    0.30
 -14   0  12    5.60    0.28
 -14   0  11    0.01    0.05
  14   0 -11   -0.08    0.07
  14   0 -10   12.89    0.51
 -14   0  10   10.82    0.49
  14   0  -9    0.02    0.07
 -14   0   9   -0.02    0.05
  14   0  -8   18.31    0.75
  14   0  -7   -0.02    0.07
  14   0  -6    0.09    0.06
  14   0  -5    0.04    0.04
 -14   0   5    0.09    0.07
 -14   0   4    1.81    0.15
  14   0  -4    1.86    0.12
 -14   0   3   -0.09    0.05
  14   0  -3    0.01    0.03
  14   0  -2    7.05    0.30
 -14   0   2    6.20    0.30
  14   0  -1    0.02    0.03
 -14   0   0   65.42    2.55
  14   0   0   61.75    2.54
  14   0   1    0.03    0.03
 -14   0  -2   30.16    1.23
  14   0   2   30.28    1.23
  14   0   3    0.05    0.04
  14   0   4    0.00    0.04
  14   0   5    0.02    0.05
  14   0   5    0.05    0.07
  14   0   6    4.12    0.24
  14   0   6    4.02    0.21
  14   0   7    0.00    0.10
  14   0   7   -0.02    0.07
 -14   0  -7   -0.04    0.08
  14   0   8   34.81    1.41
 -14   0  -8   33.56    1.38
 -14   0  -9    0.02    0.07
 -14   0  -9    0.02    0.07
 -14   0  -9   -0.08    0.08
 -14   0 -10    3.68    0.21
 -14   0 -10    3.88    0.21
 -14   0 -10    4.15    0.20
 -14   0 -11    0.05    0.07
 -14   0 -11   -0.02    0.07
 -14   0 -11   -0.08    0.06
 -14   0 -12    4.59    0.23
 -14   0 -12    4.40    0.24
 -14   0 -12    4.77    0.23
 -14   0 -13    0.13    0.07
 -14   0 -13   -0.06    0.06
 -14   0 -13   -0.06    0.07
 -14   0 -14   10.61    0.47
 -14   0 -14   10.69    0.46
 -14   0 -15    0.08    0.05
 -14   0 -15    0.07    0.07
 -14   0 -16   -0.02    0.08
 -14   0 -16    0.25    0.09
 -14   0 -17    0.01    0.08
 -14   0 -17    0.03    0.05
 -14   0 -18    1.57    0.11
 -14   0 -18    1.81    0.15
 -14   0 -19   -0.12    0.10
 -14   0 -19    0.02    0.05
 -14   1  21    0.18    0.06
 -14  -1  21    0.08    0.04
 -14   1  20    0.20    0.06
 -14  -1  20    0.17    0.04
 -14   1  19    0.21    0.07
 -14  -1  19    0.07    0.04
  14  -1 -19    0.08    0.12
 -14   1  18    0.27    0.07
  14  -1 -18    0.15    0.08
 -14   1  17   -0.03    0.04
  14   1 -17    0.02    0.10
 -14  -1  17   -0.08    0.04
  14  -1 -17    0.07    0.08
 -14   1  16    3.17    0.15
  14   1 -16    2.77    0.19
 -14  -1  16    3.13    0.17
  14  -1 -16    2.57    0.17
 -14   1  15    0.15    0.05
  14   1 -15    0.24    0.09
  14  -1 -15    0.08    0.08
 -14   1  14    7.77    0.34
  14   1 -14    7.80    0.36
  14  -1 -14    7.60    0.35
  14   1 -13    3.54    0.24
 -14   1  13    3.59    0.19
  14   1 -13    4.13    0.22
  14  -1 -13    3.96    0.20
 -14   1  12    2.49    0.15
  14   1 -12    2.71    0.19
  14   1 -12    2.69    0.18
  14  -1 -12    2.86    0.16
  14   1 -11    0.36    0.10
  14   1 -11    0.41    0.11
 -14   1  11    0.31    0.08
  14  -1 -11    0.33    0.09
  14  -1 -11    0.31    0.08
  14   1 -10    0.16    0.09
 -14   1  10    0.11    0.06
  14   1 -10    0.07    0.08
  14  -1 -10    0.03    0.07
  14  -1 -10    0.06    0.06
 -14   1   9    0.09    0.05
  14   1  -9    0.02    0.09
  14  -1  -9    0.32    0.10
  14  -1  -9    0.03    0.06
  14   1  -8    0.02    0.08
 -14   1   8    0.02    0.05
  14  -1  -8    0.03    0.06
  14   1  -7    0.18    0.10
 -14   1   7    0.00    0.05
  14  -1  -7    0.06    0.06
  14  -1  -7   -0.06    0.08
  14   1  -6   11.07    0.50
  14  -1  -6   11.03    0.50
  14  -1  -6   10.99    0.46
  14   1  -5    0.13    0.06
  14  -1  -5    0.25    0.09
  14  -1  -5    0.26    0.06
  14   1  -4   10.69    0.48
  14  -1  -4   11.31    0.48
 -14   1   3    1.73    0.15
  14   1  -3    1.76    0.13
 -14  -1   3    1.96    0.15
  14  -1  -3    1.95    0.13
  14   1  -2    7.26    0.33
 -14   1   2    6.93    0.35
 -14  -1   2    8.23    0.35
  14  -1  -2    7.68    0.34
  14   1  -1    0.23    0.06
 -14   1   1    0.22    0.07
  14  -1  -1    0.26    0.07
 -14  -1   1    0.27    0.09
  14   1   0   22.88    0.97
 -14   1   0   22.22    0.99
  14  -1   0   25.07    0.99
 -14  -1   0   25.22    0.98
 -14   1  -1  142.20    5.75
  14   1   1  136.36    5.72
  14  -1   1  150.14    5.74
 -14  -1  -1  148.13    5.73
  14   1   2    0.13    0.05
  14  -1   2    0.20    0.06
 -14  -1  -2    0.13    0.04
  14   1   3    0.82    0.07
  14  -1   3    0.66    0.10
  14   1   4   15.32    0.61
  14   1   4   13.67    0.60
  14  -1   4   15.89    0.65
 -14   1  -5    4.67    0.23
  14  -1   5    4.86    0.26
 -14   1  -6    1.88    0.13
  14  -1   6    1.86    0.17
 -14   1  -7    2.16    0.13
  14  -1   7    2.03    0.21
 -14  -1  -7    1.83    0.14
 -14  -1  -7    1.93    0.14
 -14   1  -8    3.39    0.19
 -14   1  -8    3.66    0.18
 -14   1  -8    3.30    0.23
 -14  -1  -8    3.57    0.19
 -14  -1  -8    3.55    0.19
 -14  -1  -8    3.49    0.19
 -14   1  -9    0.38    0.11
 -14   1  -9    0.19    0.09
 -14   1  -9    0.41    0.09
 -14  -1  -9    0.27    0.07
 -14  -1  -9    0.33    0.08
 -14  -1  -9    0.45    0.09
 -14   1 -10    0.77    0.15
 -14   1 -10    0.58    0.12
 -14   1 -10    0.70    0.10
 -14  -1 -10    0.53    0.10
 -14  -1 -10    0.48    0.10
 -14  -1 -10    0.64    0.10
 -14   1 -11    0.29    0.07
 -14   1 -11    0.27    0.09
 -14  -1 -11    0.16    0.06
 -14  -1 -11    0.28    0.08
 -14  -1 -11    0.13    0.06
 -14   1 -12    2.45    0.18
 -14   1 -12    2.64    0.16
 -14  -1 -12    2.53    0.15
 -14  -1 -12    2.64    0.16
 -14  -1 -12    2.47    0.16
 -14   1 -13    2.28    0.15
 -14  -1 -13    2.15    0.16
 -14  -1 -13    2.32    0.14
 -14  -1 -13    2.24    0.14
 -14   1 -14    0.05    0.06
 -14  -1 -14    0.15    0.05
 -14  -1 -14    0.09    0.06
 -14  -1 -14    0.13    0.08
 -14   1 -15    0.06    0.07
 -14  -1 -15    0.19    0.09
 -14  -1 -15    0.07    0.05
 -14  -1 -15    0.11    0.05
 -14   1 -16    3.10    0.19
 -14  -1 -16    3.12    0.20
 -14  -1 -16    3.78    0.18
 -14  -1 -16    3.77    0.18
 -14   1 -17   -0.13    0.07
 -14  -1 -17    0.01    0.05
 -14  -1 -17    0.10    0.09
 -14  -1 -17    0.01    0.04
 -14   1 -18    0.44    0.11
 -14  -1 -18    0.20    0.11
 -14  -1 -18    0.34    0.07
 -14  -1 -18    0.40    0.06
 -14   1 -19    0.02    0.11
 -14  -1 -19   -0.01    0.03
 -14  -1 -20    0.30    0.05
 -14   2  19   -0.02    0.05
 -14   2  19   -0.06    0.03
 -14  -2  19    0.05    0.07
 -14   2  18    0.27    0.06
  14  -2 -18    0.42    0.13
 -14  -2  18    0.23    0.05
 -14   2  17    0.29    0.06
  14  -2 -17    0.45    0.10
 -14  -2  17    0.26    0.08
 -14   2  16    0.53    0.07
  14  -2 -16    0.57    0.10
 -14  -2  16    0.64    0.09
  14   2 -15    3.49    0.19
 -14   2  15    3.83    0.18
 -14  -2  15    3.78    0.19
  14  -2 -15    3.15    0.19
 -14   2  14    0.23    0.07
  14   2 -14    0.18    0.08
  14   2 -14    0.09    0.10
 -14  -2  14    0.09    0.06
  14  -2 -14    0.23    0.08
  14   2 -13    2.51    0.16
  14   2 -13    2.17    0.18
 -14   2  13    2.33    0.13
  14  -2 -13    2.18    0.15
 -14  -2  13    2.46    0.16
  14   2 -12    0.27    0.10
  14   2 -12    0.29    0.08
 -14   2  12    0.22    0.06
 -14  -2  12    0.21    0.07
  14  -2 -12    0.24    0.09
  14   2 -11    0.03    0.09
  14   2 -11    0.10    0.06
 -14   2  11    0.07    0.05
  14  -2 -11    0.09    0.06
 -14  -2  11    0.08    0.06
  14   2 -10    1.48    0.15
  14   2 -10    1.37    0.13
 -14   2  10    1.37    0.11
  14  -2 -10    1.47    0.11
 -14  -2  10    1.41    0.13
 -14   2   9   -0.01    0.05
  14   2  -9    0.06    0.08
  14   2  -9    0.10    0.07
  14  -2  -9    0.22    0.07
 -14  -2   9   -0.01    0.06
 -14   2   8    7.41    0.32
  14   2  -8    7.28    0.34
  14   2  -8    7.07    0.34
 -14  -2   8    7.09    0.34
  14  -2  -8    7.71    0.33
  14   2  -7    3.87    0.21
 -14   2   7    3.82    0.18
  14  -2  -7    3.64    0.18
 -14  -2   7    3.46    0.21
 -14   2   6    2.96    0.16
  14   2  -6    3.03    0.18
  14  -2  -6    3.05    0.16
 -14  -2   6    2.93    0.19
 -14   2   5    0.40    0.07
  14   2  -5    0.33    0.11
  14   2  -5    0.27    0.16
 -14  -2   5    0.43    0.13
  14  -2  -5    0.39    0.07
  14   2  -4    0.10    0.07
 -14   2   4    0.04    0.06
  14   2  -4    0.11    0.13
 -14  -2   4    0.12    0.07
  14  -2  -4    0.19    0.07
  14   2  -3    2.13    0.21
  14   2  -3    2.07    0.16
  14  -2  -3    2.07    0.12
  14  -2  -3    2.39    0.20
  14   2  -2    3.13    0.22
  14  -2  -2    3.26    0.16
  14  -2  -2    3.28    0.22
  14   2  -1   15.35    0.66
  14  -2  -1   15.58    0.69
  14  -2  -1   15.56    0.64
  14  -2   0    0.45    0.11
  14  -2   0    0.63    0.08
  14  -2   1   10.68    0.49
  14  -2   1    9.99    0.44
 -14   2  -2   14.14    0.61
 -14  -2  -2   14.56    0.62
  14  -2   2   15.49    0.61
 -14   2  -3   17.44    0.74
 -14   2  -3   17.96    0.74
 -14  -2  -3   17.90    0.75
 -14  -2  -3   18.23    0.75
 -14   2  -4    0.29    0.09
 -14   2  -4    0.25    0.06
 -14  -2  -4    0.50    0.12
 -14  -2  -4    0.28    0.08
 -14  -2  -4    0.22    0.08
 -14   2  -5    5.29    0.25
 -14   2  -5    5.46    0.25
 -14  -2  -5    5.60    0.26
 -14  -2  -5    5.06    0.26
 -14  -2  -5    5.20    0.27
 -14   2  -6    0.18    0.06
 -14   2  -6    0.16    0.06
 -14  -2  -6    0.14    0.06
 -14  -2  -6    0.12    0.06
 -14  -2  -6    0.20    0.09
 -14   2  -7    0.44    0.10
 -14   2  -7    0.47    0.09
 -14   2  -7    0.44    0.09
 -14  -2  -7    0.57    0.14
 -14  -2  -7    0.46    0.10
 -14  -2  -7    0.44    0.10
 -14   2  -8   13.57    0.59
 -14   2  -8   13.88    0.60
 -14   2  -8   14.87    0.61
 -14  -2  -8   14.17    0.61
 -14  -2  -8   14.62    0.60
 -14  -2  -8   13.89    0.60
 -14  -2  -8   14.07    0.60
 -14   2  -9    0.29    0.08
 -14   2  -9    0.30    0.09
 -14   2  -9    0.34    0.09
 -14  -2  -9    0.44    0.09
 -14  -2  -9    0.34    0.09
 -14  -2  -9    0.23    0.06
 -14   2 -10    6.42    0.30
 -14   2 -10    5.83    0.31
 -14   2 -10    6.59    0.31
 -14  -2 -10    6.33    0.31
 -14  -2 -10    6.70    0.30
 -14  -2 -10    6.72    0.30
 -14   2 -11    0.27    0.10
 -14   2 -11    0.31    0.09
 -14   2 -11    0.27    0.08
 -14  -2 -11    0.47    0.12
 -14  -2 -11    0.30    0.08
 -14  -2 -11    0.30    0.09
 -14   2 -12    6.05    0.28
 -14   2 -12    5.81    0.29
 -14  -2 -12    5.92    0.28
 -14  -2 -12    5.36    0.29
 -14  -2 -12    6.59    0.29
 -14   2 -13    0.30    0.10
 -14   2 -13    0.37    0.10
 -14  -2 -13    0.38    0.12
 -14  -2 -13    0.44    0.09
 -14   2 -14    0.23    0.07
 -14   2 -14    0.12    0.07
 -14  -2 -14    0.05    0.10
 -14  -2 -14    0.29    0.08
 -14  -2 -14    0.38    0.08
 -14   2 -15   19.06    0.89
 -14  -2 -15   22.94    0.88
 -14  -2 -15   22.12    0.88
 -14   2 -16    1.13    0.12
 -14  -2 -16    1.30    0.09
 -14  -2 -16    1.35    0.09
 -14   2 -17    0.14    0.08
 -14  -2 -17    0.24    0.06
 -14  -2 -17    0.29    0.06
 -14  -2 -18    0.60    0.06
 -14  -2 -18    0.46    0.06
 -14  -2 -19    0.19    0.04
 -14   3  18    0.07    0.03
 -14   3  17    0.20    0.05
 -14   3  16    1.03    0.07
  14   3 -16    0.80    0.08
  14  -3 -16    0.75    0.12
  14   3 -15    0.51    0.07
 -14   3  15    0.47    0.06
  14  -3 -15    0.31    0.10
  14   3 -14    0.32    0.08
 -14   3  14    0.43    0.06
  14  -3 -14    0.44    0.09
  14   3 -13    0.04    0.05
 -14   3  13    0.09    0.04
 -14  -3  13    0.17    0.12
  14  -3 -13    0.12    0.07
 -14   3  12    1.92    0.12
  14   3 -12    2.06    0.13
 -14  -3  12    1.83    0.17
  14  -3 -12    1.76    0.13
  14   3 -11    0.72    0.10
 -14   3  11    0.74    0.08
 -14  -3  11    0.77    0.14
  14  -3 -11    0.59    0.09
  14   3 -10    0.20    0.07
 -14   3  10    0.23    0.08
 -14  -3  10    0.55    0.14
  14  -3 -10    0.15    0.06
  14   3  -9    0.95    0.11
 -14   3   9    1.13    0.10
  14  -3  -9    1.04    0.10
 -14  -3   9    0.97    0.15
  14   3  -8    4.49    0.24
 -14   3   8    4.50    0.22
  14  -3  -8    4.77    0.23
 -14  -3   8    4.65    0.26
 -14   3   7    0.26    0.09
  14   3  -7    0.44    0.14
  14   3  -7    0.30    0.07
 -14  -3   7    0.58    0.15
  14  -3  -7    0.41    0.08
  14   3  -6    2.56    0.18
  14   3  -6    2.76    0.17
 -14   3   6    2.64    0.16
  14  -3  -6    2.95    0.16
 -14  -3   6    3.02    0.21
  14   3  -5    0.71    0.12
 -14   3   5    0.63    0.12
  14   3  -5    0.92    0.11
 -14   3   5    0.75    0.11
 -14  -3   5    1.02    0.16
  14  -3  -5    0.82    0.09
 -14   3   4    1.82    0.14
 -14   3   4    1.93    0.14
  14   3  -4    1.79    0.14
  14   3  -4    1.64    0.15
 -14  -3   4    2.00    0.19
  14  -3  -4    2.05    0.13
 -14   3   3    2.17    0.16
  14   3  -3    2.26    0.17
  14  -3  -3    2.39    0.14
 -14  -3   3    2.41    0.19
  14   3  -2    1.76    0.15
 -14   3   2    2.08    0.17
 -14   3   2    1.88    0.14
 -14  -3   2    1.65    0.18
  14  -3  -2    2.00    0.13
 -14   3   1    1.14    0.11
 -14   3   1    1.16    0.14
  14   3  -1    1.00    0.14
 -14  -3   1    1.16    0.16
  14  -3  -1    0.96    0.10
  14   3   0    1.56    0.17
 -14   3   0    1.92    0.13
 -14   3   0    1.66    0.14
  14  -3   0    1.86    0.12
 -14  -3   0    1.94    0.17
 -14   3  -1    0.71    0.10
 -14   3  -1    0.61    0.10
  14   3   1    0.58    0.17
 -14  -3  -1    0.75    0.14
 -14   3  -2    3.95    0.21
 -14   3  -2    4.18    0.21
 -14  -3  -2    4.23    0.25
 -14  -3  -2    4.29    0.24
  14  -3   2    4.44    0.22
 -14   3  -3   12.99    0.56
 -14   3  -3   11.67    0.56
 -14  -3  -3   13.62    0.57
 -14  -3  -3   13.20    0.57
  14  -3   3   14.68    0.57
 -14   3  -4    9.29    0.42
 -14   3  -4    9.70    0.42
 -14  -3  -4    9.74    0.44
  14  -3   4   10.23    0.43
 -14  -3  -4    9.69    0.43
 -14   3  -5    0.24    0.08
 -14   3  -5    0.11    0.06
 -14  -3  -5    0.15    0.07
 -14  -3  -5    0.09    0.07
 -14   3  -6    9.82    0.42
 -14   3  -6    9.15    0.42
 -14  -3  -6    9.57    0.43
 -14  -3  -6    9.76    0.43
 -14   3  -7    0.41    0.09
 -14   3  -7    0.36    0.09
 -14  -3  -7    0.40    0.11
 -14  -3  -7    0.47    0.10
 -14   3  -8    0.63    0.10
 -14   3  -8    0.69    0.10
 -14  -3  -8    0.79    0.11
 -14  -3  -8    0.71    0.10
 -14   3  -9    0.26    0.08
  14   3   9    0.10    0.10
 -14   3  -9    0.14    0.06
 -14  -3  -9    0.10    0.07
 -14  -3  -9    0.04    0.06
 -14  -3  -9    0.00    0.11
  14   3  10    0.04    0.16
 -14   3 -10    0.10    0.07
 -14   3 -10    0.14    0.06
 -14  -3 -10    0.15    0.05
 -14  -3 -10    0.16    0.06
 -14   3 -11    0.38    0.08
 -14   3 -11    0.21    0.08
 -14  -3 -11    0.28    0.08
 -14  -3 -11    0.45    0.09
 -14   3 -12    3.10    0.17
 -14  -3 -12    3.15    0.17
 -14  -3 -12    3.33    0.17
 -14   3 -13    1.22    0.10
 -14  -3 -13    1.29    0.10
 -14  -3 -13    1.13    0.10
 -14   3 -14    3.17    0.16
 -14  -3 -14    2.97    0.16
 -14  -3 -14    3.05    0.16
 -14   3 -15    0.11    0.05
 -14  -3 -15    0.06    0.03
 -14  -3 -15    0.03    0.04
 -14   3 -16    1.02    0.09
 -14  -3 -16    0.98    0.07
 -14  -3 -16    0.99    0.07
 -14  -3 -17   -0.01    0.03
 -14   4  14    0.71    0.06
  14   4 -14    0.54    0.06
  14   4 -13    0.01    0.03
 -14   4  13    0.06    0.04
 -14   4  12   -0.05    0.04
  14   4 -12    0.00    0.04
  14  -4 -12    0.03    0.08
 -14   4  11    0.96    0.08
  14   4 -11    1.16    0.09
  14  -4 -11    1.03    0.10
  14   4 -10    1.07    0.09
 -14   4  10    1.03    0.09
  14  -4 -10    0.87    0.10
 -14   4   9    0.05    0.05
  14   4  -9    0.09    0.05
  14  -4  -9    0.03    0.06
  14   4  -8    1.12    0.12
  14   4  -8    0.89    0.09
  14  -4  -8    0.93    0.10
  14   4  -7    0.13    0.06
  14   4  -7    0.10    0.06
  14  -4  -7    0.05    0.06
  14   4  -6    0.06    0.06
  14   4  -6    0.12    0.06
  14  -4  -6    0.15    0.06
 -14   4   5    2.89    0.18
  14   4  -5    3.38    0.18
  14   4  -5    3.12    0.18
  14  -4  -5    2.87    0.17
  14   4  -4    0.45    0.10
 -14   4   4    0.30    0.07
  14   4  -4    0.41    0.11
  14  -4  -4    0.25    0.08
  14   4  -3    0.89    0.11
  14   4  -3    0.97    0.13
 -14   4   3    0.91    0.10
  14  -4  -3    0.75    0.10
  14   4  -2    0.54    0.10
 -14   4   2    0.45    0.09
  14   4  -2    0.36    0.08
  14  -4  -2    0.24    0.08
 -14   4   1    0.88    0.09
  14   4  -1    0.78    0.11
  14   4  -1    0.70    0.14
 -14   4   0    3.42    0.18
 -14   4   0    3.32    0.19
  14   4   0    3.39    0.19
  14   4   0    3.17    0.22
  14  -4   0    3.14    0.18
 -14   4  -1    3.90    0.19
 -14   4  -1    3.79    0.20
  14   4   1    3.93    0.21
  14  -4   1    3.28    0.20
 -14   4  -2    2.76    0.15
 -14   4  -2    2.53    0.15
  14   4   2    2.72    0.17
  14  -4   2    2.16    0.15
 -14  -4  -2    2.34    0.26
  14   4   3    6.71    0.31
 -14   4  -3    6.37    0.29
 -14   4  -3    6.73    0.30
 -14  -4  -3    6.51    0.32
  14  -4   3    5.94    0.30
 -14   4  -4    1.13    0.10
 -14   4  -4    1.08    0.10
  14   4   4    1.11    0.12
 -14  -4  -4    0.99    0.15
  14  -4   4    1.14    0.11
  14   4   5   -0.02    0.07
 -14   4  -5    0.04    0.05
 -14   4  -5    0.06    0.05
 -14  -4  -5    0.21    0.09
  14  -4   5    0.08    0.06
 -14   4  -6    0.00    0.05
 -14   4  -6    0.02    0.05
  14   4   6    0.33    0.11
  14  -4   6    0.05    0.06
 -14  -4  -6    0.25    0.09
 -14  -4  -6    0.09    0.07
  14   4   7    0.53    0.11
 -14   4  -7    0.68    0.08
 -14   4  -7    0.65    0.08
  14  -4   7    0.57    0.09
 -14  -4  -7    0.77    0.10
 -14  -4  -7    0.61    0.12
  14   4   8    0.71    0.13
 -14   4  -8    0.51    0.07
 -14   4  -8    0.60    0.08
 -14  -4  -8    0.38    0.09
  14  -4   8    0.54    0.09
 -14  -4  -8    0.39    0.11
 -14   4  -9    0.06    0.04
  14   4   9    0.13    0.09
 -14   4  -9    0.08    0.05
 -14  -4  -9    0.16    0.07
  14  -4   9    0.06    0.06
 -14  -4  -9   -0.04    0.05
 -14   4 -10    0.07    0.05
 -14   4 -10    0.08    0.04
  14  -4  10   -0.06    0.06
 -14  -4 -10    0.03    0.06
 -14  -4 -10    0.14    0.05
 -14   4 -11    0.37    0.09
 -14   4 -11    0.04    0.04
 -14  -4 -11    0.12    0.06
  14  -4  11    0.16    0.07
 -14  -4 -11    0.04    0.04
 -14   4 -12    0.03    0.04
 -14  -4 -12    0.06    0.05
  14  -4  12    0.15    0.07
 -14  -4 -12    0.10    0.04
 -14   4 -13    1.13    0.07
 -14  -4 -13    0.95    0.09
 -14   4 -14   -0.04    0.03
  14   5  -9    0.22    0.06
  14   5  -8    0.55    0.07
  14   5  -7    0.20    0.06
  14   5  -7    0.36    0.07
  14   5  -6    2.26    0.12
  14   5  -6    2.22    0.12
  14   5  -5    0.20    0.07
  14  -5  -5    0.34    0.09
  14   5  -4    0.99    0.11
  14   5  -4    0.96    0.08
 -14   5   3    0.76    0.08
  14   5  -3    0.91    0.08
  14  -5  -3    0.60    0.10
 -14   5   2    0.33    0.07
  14   5  -2    0.32    0.07
  14  -5  -2    0.37    0.09
 -14   5   1    0.44    0.07
  14   5  -1    0.51    0.07
  14  -5  -1    0.43    0.09
  14   5   0    0.42    0.07
 -14   5   0    0.37    0.06
  14  -5   0    0.31    0.09
 -14   5  -1    0.04    0.04
  14   5   1    0.02    0.04
  14  -5   1    0.07    0.07
  14   5   2    0.74    0.08
 -14   5  -2    0.65    0.07
  14  -5   2    0.69    0.10
 -14   5  -3    0.40    0.10
  14   5   3    0.38    0.07
 -14   5  -3    0.42    0.06
  14  -5   3    0.50    0.09
 -14   5  -4    0.91    0.07
 -14   5  -4    0.86    0.09
  14   5   4    0.99    0.09
  14  -5   4    1.09    0.10
 -14   5  -5    0.41    0.06
  14   5   5    0.36    0.08
 -14   5  -5    0.32    0.07
 -14   5  -6    0.20    0.06
 -14   5  -6    0.13    0.04
  14   5   6    0.17    0.06
 -14   5  -7    0.52    0.06
 -14   5  -7    0.47    0.06
 -14   5  -8    0.21    0.06
 -14   5  -9    0.58    0.06
 -15   0  21   -0.03    0.03
 -15   0  20    1.65    0.10
 -15   0  19   -0.05    0.04
  15   0 -17    0.03    0.09
  15   0 -16    0.09    0.08
 -15   0  16    0.11    0.07
  15   0 -15    0.03    0.08
 -15   0  15    0.11    0.06
  15   0 -14    0.04    0.09
 -15   0  14    0.00    0.06
 -15   0  13    0.09    0.06
  15   0 -13    0.07    0.09
 -15   0  12    9.90    0.46
  15   0 -12   11.99    0.48
  15   0 -11    0.13    0.08
 -15   0  11   -0.02    0.05
  15   0 -10    6.05    0.28
 -15   0  10    5.63    0.26
  15   0  -9    0.03    0.08
 -15   0   9   -0.06    0.06
  15   0  -7    0.15    0.08
  15   0  -6    3.65    0.21
  15   0  -5    0.03    0.05
  15   0  -4    1.10    0.10
 -15   0   4    1.23    0.14
 -15   0   3    0.02    0.07
  15   0  -3    0.01    0.04
 -15   0   2    6.59    0.32
  15   0  -2    6.80    0.30
  15   0  -1   -0.02    0.03
 -15   0   1    0.06    0.05
 -15   0   0   71.58    2.86
  15   0   0   71.35    2.86
  15   0   1    0.00    0.03
 -15   0  -1   -0.02    0.05
 -15   0  -2   24.03    1.00
  15   0   2   24.81    1.00
  15   0   3    0.05    0.04
  15   0   4    0.65    0.09
  15   0   5    0.10    0.06
  15   0   5   -0.11    0.08
  15   0   6   12.90    0.54
  15   0   6   11.67    0.55
  15   0   7    0.05    0.08
  15   0   7   -0.09    0.12
  15   0   8   24.64    1.04
 -15   0  -9    0.24    0.08
 -15   0  -9    0.02    0.09
 -15   0  -9   -0.11    0.07
 -15   0  -9    0.03    0.07
 -15   0 -10    4.38    0.24
 -15   0 -10    4.72    0.24
 -15   0 -10    4.79    0.23
 -15   0 -11   -0.03    0.07
 -15   0 -11    0.03    0.07
 -15   0 -11    0.04    0.07
 -15   0 -12    0.96    0.11
 -15   0 -12    0.99    0.13
 -15   0 -13   -0.05    0.07
 -15   0 -13   -0.02    0.06
 -15   0 -13    0.04    0.07
 -15   0 -14    2.37    0.15
 -15   0 -14    2.49    0.16
 -15   0 -15    0.07    0.05
 -15   0 -15    0.02    0.08
 -15   0 -16    6.72    0.29
 -15   0 -16    6.02    0.31
 -15   0 -17    0.06    0.09
 -15   0 -17    0.10    0.05
 -15   0 -18    3.87    0.18
 -15   0 -18    3.57    0.22
 -15   0 -19   -0.02    0.05
 -15   1  20    0.24    0.06
 -15  -1  20    0.44    0.06
 -15   1  19    0.04    0.05
 -15  -1  19    0.03    0.04
 -15   1  18    0.10    0.04
  15  -1 -18    0.06    0.10
 -15  -1  18    0.16    0.05
 -15   1  17    0.04    0.04
  15  -1 -17   -0.02    0.09
 -15  -1  17   -0.02    0.05
 -15   1  16    5.67    0.24
  15   1 -16    4.99    0.30
  15  -1 -16    4.54    0.26
 -15  -1  16    5.42    0.25
  15   1 -15   -0.04    0.09
 -15   1  15    0.07    0.05
 -15  -1  15    0.11    0.06
  15  -1 -15    0.11    0.08
  15   1 -14   23.84    0.99
 -15   1  14   24.03    0.96
  15  -1 -14   22.98    0.98
  15   1 -13    0.86    0.15
 -15   1  13    0.63    0.08
  15   1 -13    0.77    0.14
  15  -1 -13    0.53    0.10
  15   1 -12    0.22    0.10
  15   1 -12    0.27    0.10
 -15   1  12    0.22    0.05
  15  -1 -12    0.27    0.09
  15   1 -11    0.23    0.10
  15   1 -11    0.46    0.12
 -15   1  11    0.17    0.05
  15  -1 -11    0.18    0.07
 -15   1  10    0.02    0.04
  15   1 -10    0.03    0.10
  15   1 -10    0.02    0.09
  15  -1 -10    0.07    0.07
  15   1  -9    0.78    0.14
 -15   1   9    0.80    0.08
  15  -1  -9    0.93    0.10
 -15   1   8    0.34    0.06
  15   1  -8    0.38    0.12
  15  -1  -8    0.31    0.09
 -15   1   7    0.18    0.05
 -15  -1   7    0.02    0.07
  15  -1  -7    0.09    0.07
  15   1  -6    9.92    0.48
  15  -1  -6   10.33    0.43
  15  -1  -6   10.23    0.47
  15   1  -5    0.27    0.08
  15  -1  -5    0.44    0.11
  15   1  -4    7.91    0.37
  15  -1  -4    7.79    0.37
  15   1  -3    0.11    0.06
  15  -1  -3    0.03    0.05
 -15  -1   3    0.06    0.08
  15   1  -2   -0.01    0.05
 -15  -1   2    0.02    0.07
  15  -1  -2    0.07    0.05
  15   1  -1    3.00    0.16
 -15   1   1    2.65    0.19
 -15  -1   1    3.30    0.18
  15  -1  -1    3.13    0.17
 -15   1   0   14.22    0.68
  15   1   0   15.86    0.66
  15  -1   0   17.24    0.68
 -15  -1   0   16.75    0.67
 -15   1  -1   15.94    0.73
  15   1   1   16.60    0.70
  15  -1   1   17.87    0.72
 -15  -1  -1   17.67    0.71
  15   1   2    2.82    0.15
 -15  -1  -2    2.99    0.16
  15  -1   2    3.07    0.18
  15   1   3    0.02    0.04
  15  -1   3   -0.03    0.06
  15   1   4   13.73    0.58
  15   1   4   13.84    0.58
  15  -1   4   14.86    0.62
  15  -1   5    0.78    0.14
 -15   1  -6    6.77    0.32
  15  -1   6    7.24    0.36
 -15   1  -7    1.57    0.13
 -15   1  -7    1.15    0.14
 -15   1  -7    1.69    0.13
 -15  -1  -7    1.48    0.12
 -15  -1  -7    1.32    0.13
  15  -1   7    1.67    0.20
 -15   1  -8    1.15    0.11
 -15   1  -8    0.86    0.13
 -15   1  -8    0.89    0.12
 -15  -1  -8    1.00    0.11
 -15  -1  -8    0.73    0.16
 -15  -1  -8    0.80    0.11
 -15   1  -9    1.35    0.13
 -15   1  -9    1.23    0.12
 -15   1  -9    1.29    0.15
 -15  -1  -9    1.37    0.12
 -15  -1  -9    1.55    0.18
 -15  -1  -9    1.25    0.11
 -15   1 -10    1.78    0.15
 -15   1 -10    1.96    0.13
 -15   1 -10    1.77    0.17
 -15  -1 -10    1.81    0.15
 -15  -1 -10    2.02    0.14
 -15  -1 -10    2.09    0.14
 -15   1 -11    0.44    0.12
 -15   1 -11    0.39    0.09
 -15  -1 -11    0.28    0.07
 -15  -1 -11    0.30    0.10
 -15   1 -12    5.62    0.30
 -15   1 -12    6.55    0.30
 -15  -1 -12    6.27    0.30
 -15  -1 -12    6.32    0.29
 -15  -1 -12    6.32    0.29
 -15   1 -13    0.05    0.07
 -15  -1 -13    0.02    0.06
 -15  -1 -13    0.31    0.12
 -15  -1 -13   -0.07    0.05
 -15   1 -14    4.62    0.25
 -15  -1 -14    5.38    0.24
 -15  -1 -14    4.74    0.26
 -15  -1 -14    5.44    0.25
 -15   1 -15    0.09    0.07
 -15  -1 -15    0.04    0.05
 -15  -1 -15    0.08    0.08
 -15  -1 -15    0.04    0.05
 -15   1 -16   -0.04    0.08
 -15  -1 -16   -0.16    0.08
 -15  -1 -16    0.00    0.04
 -15   1 -17    0.51    0.11
 -15  -1 -17    0.40    0.07
 -15  -1 -17    0.35    0.08
 -15   1 -18   -0.07    0.10
 -15  -1 -18   -0.05    0.04
 -15  -1 -18    0.01    0.05
 -15  -1 -19    0.03    0.03
 -15  -1 -20    0.41    0.06
 -15   2  19    0.08    0.03
 -15   2  19    0.07    0.06
 -15  -2  19    0.06    0.10
 -15   2  18    0.01    0.05
 -15   2  18    0.09    0.03
 -15  -2  18    0.01    0.05
 -15   2  17    1.05    0.07
 -15  -2  17    0.98    0.10
  15  -2 -17    0.83    0.13
 -15   2  16    0.13    0.04
  15   2 -16   -0.07    0.07
  15  -2 -16    0.10    0.08
 -15  -2  16    0.14    0.05
  15   2 -15    0.90    0.12
 -15   2  15    1.09    0.08
 -15  -2  15    0.69    0.10
  15  -2 -15    0.83    0.11
 -15   2  14    0.04    0.04
  15   2 -14    0.10    0.07
 -15  -2  14    0.04    0.06
  15  -2 -14    0.03    0.06
  15   2 -13    0.64    0.12
 -15   2  13    0.51    0.07
  15  -2 -13    0.57    0.10
 -15  -2  13    0.53    0.11
  15   2 -12    0.55    0.12
 -15   2  12    0.46    0.08
 -15  -2  12    0.42    0.11
  15  -2 -12    0.45    0.09
 -15   2  11    0.08    0.05
  15   2 -11    0.14    0.07
 -15  -2  11    0.05    0.06
 -15   2  10    0.12    0.05
  15   2 -10    0.27    0.07
  15  -2 -10    0.08    0.07
 -15  -2  10    0.32    0.11
  15   2  -9    2.51    0.17
 -15   2   9    2.52    0.14
  15  -2  -9    2.70    0.15
 -15  -2   9    2.58    0.17
  15   2  -8    3.64    0.21
 -15   2   8    3.72    0.19
 -15  -2   8    3.77    0.21
  15  -2  -8    3.75    0.19
  15   2  -7    5.23    0.27
 -15   2   7    5.61    0.25
  15  -2  -7    5.44    0.25
 -15  -2   7    5.27    0.27
  15   2  -6    0.13    0.07
 -15   2   6    0.13    0.06
  15  -2  -6    0.10    0.06
 -15  -2   6    0.11    0.07
 -15   2   5    0.23    0.06
  15   2  -5    0.21    0.07
  15   2  -5    0.01    0.17
 -15  -2   5    0.34    0.12
  15  -2  -5    0.30    0.07
 -15   2   4    0.26    0.07
  15   2  -4    0.30    0.15
  15   2  -4    0.35    0.11
 -15  -2   4    0.24    0.08
  15  -2  -4    0.23    0.07
  15   2  -3    0.95    0.12
  15   2  -3    0.86    0.21
 -15   2   3    0.68    0.13
 -15  -2   3    0.92    0.13
  15  -2  -3    0.92    0.09
 -15  -2   3    0.90    0.14
  15   2  -2    7.99    0.36
 -15  -2   2    8.00    0.36
 -15  -2   2    7.62    0.36
  15  -2  -2    8.08    0.34
 -15  -2   1   12.23    0.51
 -15  -2   1   11.06    0.51
  15  -2  -1   11.93    0.49
 -15   2   0  136.31    5.43
 -15  -2   0  138.66    5.44
  15  -2   0  140.68    5.43
 -15  -2   0  131.41    5.44
 -15   2  -1   18.41    0.80
 -15   2  -1   19.45    0.80
  15  -2   1   20.71    0.80
 -15  -2  -1   18.79    0.81
 -15  -2  -1   19.74    0.81
 -15   2  -2    2.79    0.16
 -15   2  -2    2.81    0.15
 -15  -2  -2    2.90    0.18
  15  -2   2    2.90    0.16
 -15  -2  -2    2.73    0.19
 -15   2  -3    0.89    0.10
 -15   2  -3    1.00    0.10
 -15  -2  -3    1.08    0.14
 -15  -2  -3    1.31    0.15
 -15  -2  -3    0.88    0.13
 -15   2  -4    0.09    0.05
 -15   2  -4    0.05    0.05
 -15  -2  -4    0.25    0.08
 -15  -2  -4    0.09    0.07
 -15  -2  -4    0.00    0.07
 -15   2  -5    0.29    0.08
 -15   2  -5    0.41    0.09
 -15  -2  -5    0.48    0.11
 -15  -2  -5    0.42    0.14
 -15  -2  -5    0.40    0.08
 -15   2  -6    2.99    0.17
 -15   2  -6    3.04    0.16
 -15  -2  -6    3.24    0.18
 -15  -2  -6    3.06    0.18
 -15  -2  -6    3.05    0.20
 -15   2  -7    7.39    0.33
 -15   2  -7    7.10    0.32
 -15   2  -7    6.92    0.32
 -15  -2  -7    7.19    0.34
 -15  -2  -7    7.05    0.33
 -15  -2  -7    7.11    0.33
 -15   2  -8   10.09    0.45
 -15   2  -8   11.43    0.47
 -15   2  -8   10.20    0.45
 -15  -2  -8   10.60    0.46
 -15  -2  -8   10.35    0.47
 -15  -2  -8   10.42    0.46
 -15   2  -9    0.25    0.09
 -15   2  -9    0.28    0.09
 -15   2  -9    0.45    0.12
 -15  -2  -9    0.40    0.09
 -15  -2  -9    0.20    0.06
 -15   2 -10    3.93    0.22
 -15   2 -10    3.90    0.21
 -15   2 -10    3.77    0.20
 -15  -2 -10    4.26    0.21
 -15  -2 -10    4.00    0.21
 -15   2 -11    0.81    0.11
 -15   2 -11    0.60    0.10
 -15   2 -11    0.53    0.14
 -15  -2 -11    0.53    0.10
 -15   2 -12    2.60    0.15
 -15   2 -12    2.10    0.15
 -15  -2 -12    2.42    0.15
 -15  -2 -12    2.24    0.14
 -15   2 -13    0.33    0.10
 -15   2 -13    0.17    0.07
 -15  -2 -13    0.15    0.06
 -15  -2 -13    0.05    0.11
 -15  -2 -13    0.12    0.05
 -15   2 -14    1.82    0.14
 -15   2 -14    1.74    0.14
 -15  -2 -14    1.90    0.13
 -15  -2 -14    1.99    0.13
 -15   2 -15    1.55    0.13
 -15  -2 -15    1.61    0.11
 -15  -2 -15    1.70    0.11
 -15   2 -16    2.76    0.17
 -15  -2 -16    2.82    0.14
 -15  -2 -16    2.70    0.14
 -15  -2 -17    0.31    0.06
 -15  -2 -17    0.41    0.06
 -15  -2 -18    1.70    0.09
 -15  -2 -18    1.74    0.09
 -15  -2 -19    0.00    0.03
 -15   3  17   -0.02    0.03
 -15   3  16    0.22    0.05
  15   3 -16    0.21    0.05
  15   3 -15    0.58    0.07
 -15   3  15    0.52    0.06
  15  -3 -15    0.48    0.11
  15   3 -14    1.40    0.10
 -15   3  14    1.49    0.09
  15  -3 -14    1.46    0.12
 -15   3  13    0.25    0.06
  15   3 -13    0.40    0.08
  15  -3 -13    0.26    0.09
 -15  -3  13    0.48    0.13
 -15   3  12    0.07    0.04
  15   3 -12    0.05    0.05
 -15  -3  12    0.06    0.08
  15  -3 -12    0.08    0.07
 -15   3  11    1.67    0.11
  15   3 -11    1.63    0.12
  15  -3 -11    1.57    0.12
 -15  -3  11    1.87    0.16
 -15   3  10    0.19    0.05
  15   3 -10    0.27    0.07
 -15  -3  10    0.24    0.08
  15  -3 -10    0.20    0.07
  15   3  -9    0.02    0.06
 -15   3   9    0.09    0.05
 -15  -3   9    0.02    0.08
  15  -3  -9    0.06    0.06
  15   3  -8    9.73    0.42
 -15   3   8    9.58    0.40
 -15  -3   8    9.53    0.43
  15  -3  -8    8.44    0.41
  15   3  -7    0.17    0.09
 -15   3   7    0.14    0.06
  15  -3  -7    0.06    0.06
 -15  -3   7    0.17    0.09
  15   3  -6    0.52    0.10
 -15   3   6    0.59    0.10
  15   3  -6    0.44    0.13
 -15  -3   6    0.40    0.10
  15  -3  -6    0.47    0.09
  15   3  -5   -0.10    0.07
 -15   3   5    0.04    0.08
 -15   3   5    0.06    0.07
  15   3  -5    0.00    0.07
  15  -3  -5    0.11    0.06
 -15  -3   5    0.14    0.09
  15   3  -4    2.08    0.15
  15   3  -4    2.08    0.16
 -15   3   4    2.15    0.15
 -15   3   4    1.87    0.15
  15  -3  -4    2.46    0.14
 -15  -3   4    2.29    0.17
  15   3  -3    0.33    0.12
 -15   3   3    0.14    0.07
 -15  -3   3    0.04    0.08
  15  -3  -3    0.14    0.06
 -15   3   2    0.11    0.09
  15   3  -2    0.30    0.08
 -15   3   2    0.39    0.10
  15  -3  -2    0.19    0.07
 -15  -3   2    0.10    0.09
 -15   3   1   20.60    0.88
  15   3  -1   21.03    0.89
 -15   3   1   21.72    0.88
  15  -3  -1   22.26    0.88
 -15  -3   1   21.16    0.89
 -15   3   0    8.25    0.35
  15   3   0    7.90    0.37
 -15   3   0    7.34    0.35
 -15  -3   0    7.83    0.37
  15  -3   0    8.25    0.36
 -15   3  -1    2.19    0.14
 -15   3  -1    1.81    0.14
  15   3   1    1.56    0.19
 -15  -3  -1    1.87    0.17
  15  -3   1    2.11    0.13
 -15   3  -2    6.33    0.29
 -15   3  -2    6.11    0.29
 -15  -3  -2    6.27    0.32
 -15  -3  -2    5.96    0.31
  15  -3   2    6.64    0.30
 -15   3  -3    2.42    0.15
 -15   3  -3    2.72    0.15
 -15  -3  -3    2.59    0.18
 -15  -3  -3    2.62    0.19
  15  -3   3    2.68    0.16
 -15   3  -4    3.70    0.19
 -15   3  -4    3.39    0.19
 -15  -3  -4    3.33    0.21
 -15  -3  -4    3.77    0.21
  15  -3   4    3.71    0.20
 -15   3  -5    0.07    0.05
 -15   3  -5    0.05    0.05
 -15  -3  -5   -0.09    0.07
 -15  -3  -5    0.09    0.07
  15  -3   5    0.18    0.07
 -15   3  -6    1.75    0.12
 -15   3  -6    1.80    0.13
 -15  -3  -6    1.70    0.15
 -15  -3  -6    1.92    0.14
 -15   3  -7    0.04    0.06
 -15   3  -7   -0.06    0.05
 -15  -3  -7    0.05    0.07
 -15  -3  -7    0.12    0.06
 -15   3  -8    0.69    0.09
 -15   3  -8    0.78    0.10
 -15  -3  -8    0.72    0.10
 -15  -3  -8    0.69    0.11
 -15   3  -9    1.19    0.12
 -15   3  -9    1.20    0.11
 -15  -3  -9    1.24    0.11
 -15  -3  -9    1.23    0.12
 -15   3 -10   -0.01    0.05
 -15   3 -10    0.17    0.07
  15   3  10    0.14    0.11
 -15  -3 -10    0.07    0.06
 -15  -3 -10    0.10    0.06
 -15   3 -11    0.02    0.05
 -15   3 -11    0.14    0.07
 -15  -3 -11   -0.02    0.05
 -15  -3 -11    0.01    0.05
 -15   3 -12    3.97    0.20
 -15  -3 -12    4.00    0.20
 -15  -3 -12    4.12    0.20
 -15   3 -13    1.03    0.09
 -15  -3 -13    0.88    0.09
 -15  -3 -13    0.98    0.09
 -15   3 -14    4.12    0.19
 -15  -3 -14    3.85    0.19
 -15  -3 -14    3.80    0.19
 -15   3 -15    0.04    0.05
 -15  -3 -15    0.02    0.03
 -15  -3 -15    0.07    0.04
 -15   3 -16    1.06    0.09
 -15  -3 -16    0.92    0.07
 -15  -3 -16    1.05    0.07
 -15  -3 -17    0.38    0.05
  15   4 -14    1.95    0.10
 -15   4  14    2.23    0.11
 -15   4  13    0.48    0.06
  15   4 -13    0.56    0.06
  15   4 -12    1.01    0.08
 -15   4  12    1.08    0.08
  15  -4 -12    0.71    0.12
  15   4 -11    0.03    0.04
 -15   4  11    0.06    0.04
  15  -4 -11    0.29    0.10
  15   4 -10    0.76    0.08
 -15   4  10    0.76    0.08
  15  -4 -10    0.71    0.10
 -15   4   9    0.04    0.05
  15   4  -9    0.04    0.05
  15  -4  -9    0.02    0.07
  15   4  -8    1.26    0.12
  15   4  -8    1.06    0.10
  15  -4  -8    0.95    0.10
  15   4  -7    1.69    0.12
  15   4  -7    1.44    0.11
  15  -4  -7    1.39    0.11
  15   4  -6    0.00    0.06
  15   4  -6    0.08    0.06
  15  -4  -6    0.03    0.07
  15   4  -5    4.33    0.22
  15   4  -5    4.52    0.22
 -15   4   5    4.38    0.22
  15  -4  -5    3.77    0.21
  15   4  -4    0.10    0.07
 -15   4   4    0.34    0.10
  15   4  -4    0.10    0.07
  15   4  -3    1.54    0.14
 -15   4   3    1.50    0.12
  15   4  -3    1.51    0.13
  15  -4  -3    1.45    0.12
 -15   4   2    0.08    0.05
  15   4  -2   -0.01    0.08
  15   4  -2    0.03    0.06
  15  -4  -2   -0.05    0.06
  15   4  -1    1.08    0.12
 -15   4   1    0.94    0.10
  15   4  -1    1.18    0.14
  15  -4  -1    0.90    0.11
  15   4   0    6.05    0.28
  15   4   0    5.13    0.29
 -15   4   0    5.93    0.26
 -15   4   0    5.64    0.27
  15  -4   0    5.26    0.27
  15   4   1    9.97    0.43
 -15   4  -1    9.79    0.42
 -15   4  -1    9.51    0.42
 -15  -4  -1    9.79    0.46
  15  -4   1    9.04    0.43
 -15   4  -2    0.06    0.05
 -15   4  -2    0.04    0.06
  15   4   2    0.09    0.06
 -15  -4  -2   -0.04    0.10
  15  -4   2   -0.02    0.06
  15   4   3    3.85    0.21
 -15   4  -3    3.84    0.19
 -15   4  -3    3.63    0.19
  15  -4   3    3.44    0.20
 -15  -4  -3    3.64    0.23
 -15   4  -4    0.07    0.05
  15   4   4    0.10    0.07
 -15   4  -4   -0.05    0.05
 -15  -4  -4   -0.11    0.09
  15  -4   4    0.05    0.06
 -15   4  -5    0.16    0.05
  15   4   5    0.10    0.07
 -15   4  -5    0.14    0.05
 -15  -4  -5    0.10    0.09
  15  -4   5    0.25    0.09
 -15   4  -6    0.75    0.09
  15   4   6    0.97    0.12
 -15   4  -6    0.90    0.09
  15  -4   6    0.79    0.10
 -15  -4  -6    0.60    0.12
 -15   4  -7    0.01    0.05
  15   4   7    0.07    0.07
 -15   4  -7   -0.02    0.04
 -15  -4  -7    0.04    0.07
  15  -4   7    0.03    0.07
 -15  -4  -7    0.11    0.06
 -15   4  -8    2.48    0.14
 -15   4  -8    2.51    0.14
  15   4   8    2.35    0.16
 -15  -4  -8    2.40    0.15
 -15  -4  -8    2.31    0.14
  15  -4   8    2.42    0.15
 -15   4  -9    1.14    0.10
 -15   4  -9    1.26    0.09
  15   4   9    1.15    0.15
 -15  -4  -9    1.15    0.10
  15  -4   9    1.12    0.11
 -15  -4  -9    1.16    0.11
 -15   4 -10    0.39    0.06
 -15   4 -10    0.25    0.08
  15  -4  10    0.34    0.09
 -15  -4 -10    0.40    0.08
 -15   4 -11    0.50    0.06
 -15   4 -11    0.54    0.09
 -15  -4 -11    0.52    0.08
 -15  -4 -11    0.35    0.07
  15  -4  11    0.67    0.10
 -15   4 -12    0.08    0.04
  15  -4  12    0.11    0.08
 -15  -4 -12    0.00    0.05
 -15  -4 -12    0.11    0.04
 -15   4 -13    0.06    0.03
 -15  -4 -13   -0.03    0.05
 -15   4 -14    0.22    0.05
  15   5  -8    0.84    0.08
  15   5  -7    0.00    0.05
  15   5  -6    1.84    0.11
  15   5  -6    2.02    0.11
  15   5  -5    0.01    0.05
  15   5  -5   -0.03    0.04
 -15   5   4    1.27    0.12
  15   5  -4    1.21    0.09
  15  -5  -4    1.15    0.11
 -15   5   3    1.44    0.11
  15   5  -3    1.58    0.10
  15  -5  -3    1.45    0.12
  15   5  -2    0.02    0.04
 -15   5   2    0.05    0.04
  15  -5  -2    0.01    0.07
 -15   5   1   -0.01    0.04
  15   5  -1   -0.02    0.04
  15  -5  -1   -0.12    0.07
 -15   5   0    0.28    0.06
  15  -5   0    0.25    0.09
 -15   5  -1    0.01    0.04
  15   5   1    0.05    0.04
  15  -5   1    0.08    0.07
  15   5   2    3.13    0.16
 -15   5  -2    3.02    0.15
  15  -5   2    3.13    0.17
  15   5   3    0.12    0.05
 -15   5  -3    0.19    0.05
  15  -5   3    0.15    0.08
  15   5   4    1.16    0.09
 -15   5  -4    1.21    0.10
 -15   5  -4    1.36    0.08
  15  -5   4    1.31    0.12
 -15   5  -5    0.50    0.06
  15   5   5    0.58    0.08
 -15   5  -5    0.67    0.08
 -15   5  -6    0.02    0.04
 -15   5  -6   -0.03    0.03
  15   5   6    0.05    0.06
 -15   5  -7    0.49    0.06
 -15   5  -7    0.33    0.06
 -15   5  -8    0.23    0.06
 -15   5  -8    0.20    0.05
 -16   0  21   -0.03    0.03
 -16   0  20    0.33    0.06
 -16   0  18    0.60    0.08
  16   0 -16   -0.05    0.10
 -16   0  16   -0.01    0.07
  16   0 -15    0.06    0.09
 -16   0  15    0.05    0.06
 -16   0  14    1.44    0.12
  16   0 -14    1.30    0.14
  16   0 -13   -0.11    0.09
 -16   0  13    0.10    0.06
  16   0 -12    1.70    0.15
 -16   0  12    1.46    0.12
 -16   0  11   -0.02    0.05
  16   0 -11    0.05    0.09
 -16   0  10    1.34    0.11
 -16   0   9   -0.01    0.05
 -16   0   8    0.60    0.10
  16   0  -6   11.29    0.51
  16   0  -5    0.08    0.06
  16   0  -4    0.25    0.09
  16   0  -3   -0.01    0.04
 -16   0   3    0.03    0.08
 -16   0   2    1.08    0.13
  16   0  -2    1.26    0.10
 -16   0   1    0.02    0.06
  16   0  -1   -0.05    0.04
 -16   0   0    8.32    0.38
  16   0   0    8.01    0.36
 -16   0  -1    0.14    0.06
  16   0   2    8.74    0.39
 -16   0  -2    9.29    0.41
  16   0   3   -0.04    0.04
  16   0   4    0.02    0.06
  16   0   5    0.05    0.07
  16   0   5    0.01    0.09
  16   0   6   11.11    0.48
  16   0   6   10.30    0.51
  16   0   7   -0.01    0.11
 -16   0  -8    0.47    0.11
 -16   0  -8    0.63    0.13
 -16   0  -8    0.45    0.14
 -16   0  -9   -0.05    0.09
 -16   0  -9    0.17    0.07
 -16   0  -9    0.15    0.08
 -16   0 -10    5.97    0.29
 -16   0 -10    5.91    0.28
 -16   0 -10    5.87    0.28
 -16   0 -11   -0.08    0.07
 -16   0 -11   -0.09    0.07
 -16   0 -11   -0.05    0.07
 -16   0 -12    0.74    0.12
 -16   0 -12    0.49    0.11
 -16   0 -12    0.64    0.12
 -16   0 -13   -0.03    0.07
 -16   0 -13   -0.07    0.07
 -16   0 -13   -0.08    0.08
 -16   0 -14   63.48    2.63
 -16   0 -14   67.58    2.62
 -16   0 -15    0.11    0.06
 -16   0 -15    0.08    0.08
 -16   0 -16   11.35    0.47
 -16   0 -16   11.18    0.50
 -16   0 -17    0.06    0.05
 -16   0 -17    0.03    0.10
 -16   0 -18    1.06    0.09
 -16   1  20    0.08    0.04
 -16  -1  20    0.05    0.04
 -16   1  19    0.01    0.05
 -16   1  19    0.02    0.04
 -16  -1  19    0.01    0.04
 -16  -1  18    0.39    0.07
 -16   1  17    0.17    0.05
 -16  -1  17    0.14    0.05
  16  -1 -17    0.10    0.10
 -16   1  16    1.66    0.11
 -16  -1  16    1.91    0.13
  16  -1 -16    1.51    0.15
 -16   1  15    1.02    0.09
  16  -1 -15    0.93    0.12
 -16  -1  15    1.02    0.11
 -16   1  14   16.84    0.68
 -16  -1  14   16.60    0.69
  16  -1 -14   15.82    0.69
  16   1 -13    0.10    0.10
 -16  -1  13    0.13    0.06
 -16   1  12    0.04    0.05
  16   1 -12   -0.08    0.09
 -16   1  11    0.42    0.08
  16   1 -11    0.49    0.10
  16  -1 -11    0.43    0.10
  16   1 -10    0.44    0.10
 -16   1  10    0.36    0.08
  16  -1 -10    0.36    0.11
 -16   1   9    0.44    0.08
  16   1  -9    0.55    0.13
 -16  -1   9    0.66    0.11
 -16   1   8    0.26    0.06
  16   1  -8    0.53    0.12
 -16  -1   8    0.31    0.07
  16  -1  -8    0.46    0.10
 -16   1   7    0.31    0.08
  16  -1  -7    0.18    0.08
 -16  -1   7    0.15    0.06
 -16   1   6    3.88    0.19
  16   1  -6    3.69    0.26
 -16  -1   6    4.00    0.20
  16   1  -5    0.16    0.09
  16  -1  -5    0.06    0.07
  16   1  -4    0.51    0.13
  16  -1  -4    0.66    0.12
  16   1  -3    0.69    0.11
 -16  -1   3    0.71    0.17
  16  -1  -3    0.63    0.11
  16   1  -2    4.88    0.24
  16  -1  -2    4.93    0.25
 -16  -1   2    4.81    0.27
  16   1  -1    0.68    0.09
  16  -1  -1    0.53    0.10
 -16  -1   1    0.56    0.13
  16   1   0   18.60    0.82
  16  -1   0   20.45    0.84
 -16  -1   0   20.51    0.83
  16   1   1    1.03    0.09
  16  -1   1    1.07    0.12
 -16  -1  -1    1.00    0.12
  16   1   2    1.51    0.10
 -16  -1  -2    1.49    0.13
  16  -1   2    1.59    0.14
  16   1   3    0.17    0.05
  16  -1   3    0.11    0.08
  16   1   4    1.25    0.10
  16  -1   4    1.13    0.15
  16  -1   5    0.25    0.09
 -16   1  -6    2.39    0.16
 -16   1  -6    2.60    0.16
  16  -1   6    2.82    0.23
 -16  -1  -6    2.21    0.16
 -16  -1  -6    2.57    0.15
 -16   1  -7   -0.08    0.07
 -16   1  -7   -0.06    0.08
 -16   1  -7   -0.02    0.07
 -16  -1  -7    0.01    0.06
 -16  -1  -7    0.07    0.06
 -16  -1  -7    0.00    0.08
 -16   1  -8    1.94    0.15
 -16   1  -8    1.81    0.15
 -16   1  -8    1.83    0.14
 -16  -1  -8    1.90    0.17
 -16  -1  -8    1.74    0.14
 -16  -1  -8    2.26    0.14
 -16   1  -9    0.47    0.11
 -16   1  -9    0.69    0.11
 -16   1  -9    0.68    0.12
 -16  -1  -9    0.51    0.09
 -16  -1  -9    0.87    0.16
 -16  -1  -9    0.53    0.11
 -16   1 -10    4.26    0.21
 -16   1 -10    3.71    0.21
 -16   1 -10    3.57    0.22
 -16  -1 -10    4.02    0.21
 -16  -1 -10    3.88    0.20
 -16   1 -11    0.49    0.09
 -16   1 -11    0.73    0.11
 -16  -1 -11    0.46    0.10
 -16  -1 -11    0.40    0.09
 -16   1 -12    6.27    0.29
 -16   1 -12    5.57    0.29
 -16  -1 -12    5.73    0.28
 -16  -1 -12    5.82    0.28
 -16   1 -13   13.02    0.60
 -16  -1 -13   14.72    0.60
 -16  -1 -13   14.59    0.60
 -16   1 -14    6.42    0.33
 -16  -1 -14    7.45    0.32
 -16  -1 -14    7.28    0.32
 -16  -1 -15    2.73    0.16
 -16  -1 -15    2.77    0.16
 -16   1 -16    1.82    0.16
 -16  -1 -16    2.08    0.12
 -16  -1 -16    2.08    0.12
 -16   1 -17    0.64    0.13
 -16  -1 -17    0.25    0.07
 -16  -1 -17    0.34    0.06
 -16  -1 -18    0.12    0.05
 -16  -1 -18    0.06    0.04
 -16  -1 -19   -0.01    0.03
 -16  -1 -20    0.86    0.07
 -16   2  19    0.36    0.05
 -16   2  18    0.32    0.09
 -16   2  18    0.49    0.06
 -16  -2  18    0.63    0.08
 -16   2  17    1.21    0.08
 -16   2  17    1.06    0.10
 -16  -2  17    1.29    0.10
 -16   2  16   -0.01    0.04
 -16  -2  16    0.05    0.05
  16  -2 -16    0.07    0.09
 -16   2  15    2.09    0.12
  16   2 -15    2.07    0.14
 -16  -2  15    2.05    0.14
  16  -2 -15    1.88    0.14
 -16   2  14    0.09    0.04
  16   2 -14    0.17    0.07
  16  -2 -14    0.13    0.08
 -16  -2  14   -0.04    0.06
  16   2 -13    3.25    0.19
 -16   2  13    3.23    0.16
  16  -2 -13    2.74    0.18
 -16  -2  13    3.38    0.18
 -16   2  12   -0.04    0.05
  16   2 -12    0.00    0.07
  16  -2 -12   -0.05    0.07
 -16  -2  12    0.11    0.06
 -16   2  11    1.08    0.09
  16   2 -11    1.17    0.12
 -16  -2  11    1.18    0.12
  16  -2 -11    1.13    0.12
 -16   2  10    0.09    0.05
  16   2 -10    0.16    0.07
  16  -2 -10    0.28    0.09
 -16  -2  10    0.12    0.07
 -16   2   9    9.18    0.39
  16   2  -9    8.98    0.41
  16  -2  -9    9.58    0.40
 -16  -2   9    9.04    0.41
  16   2  -8    0.02    0.07
 -16   2   8    0.06    0.05
  16  -2  -8    0.02    0.06
 -16  -2   8    0.11    0.06
 -16   2   7    0.57    0.09
  16   2  -7    0.57    0.11
  16  -2  -7    0.60    0.09
 -16  -2   7    0.56    0.11
  16   2  -6    5.32    0.26
 -16   2   6    5.43    0.25
  16  -2  -6    5.40    0.25
 -16  -2   6    5.34    0.27
  16   2  -5    0.28    0.07
 -16   2   5    0.14    0.06
 -16  -2   5    0.04    0.06
  16  -2  -5    0.07    0.06
 -16   2   4    0.83    0.14
 -16   2   4    0.80    0.10
  16   2  -4    0.83    0.12
 -16  -2   4    0.75    0.13
  16  -2  -4    0.84    0.09
 -16   2   3    2.87    0.18
  16   2  -3    2.66    0.17
 -16   2   3    2.62    0.16
 -16  -2   3    2.68    0.18
 -16  -2   3    2.45    0.18
  16  -2  -3    2.77    0.15
 -16   2   2    2.55    0.16
 -16  -2   2    2.53    0.17
 -16  -2   2    2.67    0.18
  16  -2  -2    2.57    0.14
 -16   2   1   11.00    0.46
 -16   2   1   10.34    0.46
  16  -2  -1   10.84    0.45
 -16  -2   1   10.31    0.47
 -16  -2   1   10.71    0.47
 -16   2   0    5.74    0.27
 -16   2   0    5.77    0.27
 -16  -2   0    5.71    0.28
  16  -2   0    5.87    0.26
 -16  -2   0    5.74    0.28
 -16   2  -1    1.82    0.13
 -16   2  -1    1.65    0.13
 -16  -2  -1    1.87    0.15
  16  -2   1    1.75    0.12
 -16  -2  -1    1.62    0.14
 -16   2  -2    0.03    0.06
 -16   2  -2    0.10    0.06
 -16  -2  -2    0.08    0.08
 -16  -2  -2    0.04    0.07
 -16  -2  -2    0.22    0.08
  16  -2   2    0.00    0.06
 -16   2  -3    0.47    0.09
 -16   2  -3    0.53    0.09
 -16  -2  -3    0.81    0.14
 -16  -2  -3    0.38    0.12
 -16  -2  -3    0.69    0.13
 -16   2  -4    0.05    0.05
 -16   2  -4    0.07    0.06
 -16  -2  -4    0.02    0.07
 -16  -2  -4    0.08    0.07
 -16  -2  -4    0.16    0.08
 -16   2  -5    0.48    0.09
 -16   2  -5    0.52    0.09
 -16  -2  -5    0.54    0.11
 -16  -2  -5    0.61    0.14
 -16  -2  -5    0.47    0.11
 -16   2  -6    5.43    0.25
 -16   2  -6    5.24    0.26
 -16  -2  -6    5.32    0.27
 -16  -2  -6    5.47    0.28
 -16  -2  -6    5.53    0.26
 -16   2  -7    6.08    0.28
 -16   2  -7    6.02    0.28
 -16  -2  -7    6.13    0.29
 -16  -2  -7    6.16    0.29
 -16  -2  -7    5.86    0.30
 -16   2  -8    0.77    0.10
 -16   2  -8    0.60    0.11
 -16  -2  -8    0.81    0.15
 -16  -2  -8    0.67    0.10
 -16  -2  -8    0.66    0.10
 -16   2  -9    0.29    0.07
 -16   2  -9    0.20    0.08
 -16   2  -9    0.09    0.07
 -16  -2  -9    0.15    0.10
 -16  -2  -9    0.20    0.06
 -16  -2  -9    0.13    0.06
 -16   2 -10    0.00    0.06
 -16   2 -10    0.11    0.08
 -16   2 -10    0.07    0.07
 -16  -2 -10    0.02    0.05
 -16  -2 -10    0.04    0.06
 -16   2 -11    0.52    0.13
 -16   2 -11    0.47    0.11
 -16   2 -11    0.59    0.10
 -16  -2 -11    0.31    0.09
 -16   2 -12    1.32    0.13
 -16   2 -12    1.36    0.12
 -16  -2 -12    1.37    0.12
 -16  -2 -12    1.45    0.11
 -16   2 -13    1.09    0.12
 -16   2 -13    1.34    0.12
 -16  -2 -13    1.15    0.11
 -16  -2 -13    1.32    0.11
 -16   2 -14    1.86    0.15
 -16   2 -14    2.00    0.14
 -16  -2 -14    2.29    0.13
 -16  -2 -14    2.12    0.13
 -16   2 -15    0.42    0.10
 -16   2 -15    0.05    0.08
 -16  -2 -15    0.12    0.05
 -16  -2 -15    0.25    0.06
 -16  -2 -16    0.95    0.08
 -16  -2 -16    0.77    0.08
 -16  -2 -17    0.72    0.07
 -16  -2 -17    0.72    0.07
 -16  -2 -18    0.94    0.07
 -16  -2 -18    1.00    0.07
 -16  -2 -19    0.05    0.03
 -16   3  17    0.01    0.03
 -16   3  16    0.02    0.03
  16   3 -16    0.01    0.05
  16   3 -15    0.39    0.07
 -16   3  15    0.52    0.06
  16  -3 -15    0.57    0.13
 -16   3  14    1.45    0.09
  16   3 -14    1.51    0.10
  16  -3 -14    1.49    0.13
  16   3 -13    0.04    0.05
 -16   3  13    0.23    0.06
 -16  -3  13    0.13    0.08
  16  -3 -13   -0.02    0.08
 -16   3  12    0.19    0.05
  16   3 -12    0.17    0.06
  16  -3 -12    0.08    0.07
 -16  -3  12    0.11    0.08
 -16   3  11    1.38    0.10
  16   3 -11    1.27    0.11
  16  -3 -11    1.14    0.11
 -16  -3  11    1.41    0.14
  16   3 -10    3.00    0.17
 -16   3  10    2.93    0.15
 -16  -3  10    2.94    0.19
  16  -3 -10    2.62    0.16
  16   3  -9    0.00    0.06
 -16   3   9    0.01    0.05
  16  -3  -9    0.12    0.07
  16   3  -8    6.51    0.31
 -16   3   8    6.36    0.29
 -16  -3   8    6.37    0.31
  16  -3  -8    6.31    0.30
  16   3  -7    1.72    0.14
  16   3  -7    1.50    0.17
 -16   3   7    1.66    0.12
 -16  -3   7    2.15    0.16
  16  -3  -7    1.70    0.12
  16   3  -6    0.48    0.11
 -16   3   6    0.46    0.09
  16   3  -6    0.58    0.13
  16  -3  -6    0.43    0.09
 -16  -3   6    0.41    0.09
 -16   3   5    1.59    0.13
  16   3  -5    1.85    0.15
 -16   3   5    1.55    0.15
  16   3  -5    1.71    0.14
  16  -3  -5    1.91    0.13
 -16  -3   5    1.60    0.17
  16   3  -4    0.02    0.08
  16   3  -4    0.05    0.07
 -16   3   4    0.15    0.07
 -16   3   4    0.18    0.07
 -16  -3   4   -0.05    0.08
  16  -3  -4    0.06    0.06
  16   3  -3    0.26    0.08
 -16   3   3    0.25    0.07
 -16   3   3    0.07    0.10
 -16  -3   3    0.28    0.09
  16  -3  -3    0.27    0.07
 -16   3   2    4.02    0.25
 -16   3   2    4.31    0.22
  16   3  -2    4.64    0.24
 -16  -3   2    4.82    0.25
  16  -3  -2    4.72    0.23
 -16   3   1    1.38    0.11
 -16   3   1    1.34    0.13
  16   3  -1    1.64    0.15
  16  -3  -1    1.21    0.11
 -16  -3   1    1.46    0.16
 -16   3   0   12.31    0.54
 -16   3   0   12.57    0.53
  16   3   0   12.61    0.55
  16  -3   0   12.84    0.54
 -16  -3   0   12.66    0.55
 -16   3  -1    3.83    0.19
 -16   3  -1    3.55    0.19
  16   3   1    3.22    0.23
 -16  -3  -1    3.74    0.22
  16  -3   1    3.93    0.20
 -16   3  -2    1.67    0.13
 -16   3  -2    1.83    0.12
 -16  -3  -2    1.90    0.16
  16  -3   2    1.83    0.13
 -16  -3  -2    1.87    0.18
 -16   3  -3    0.76    0.09
 -16   3  -3    0.62    0.10
  16  -3   3    0.90    0.10
 -16  -3  -3    0.64    0.13
 -16  -3  -3    0.94    0.14
 -16   3  -4    0.08    0.05
 -16   3  -4   -0.01    0.06
 -16  -3  -4    0.05    0.07
  16  -3   4   -0.04    0.06
 -16  -3  -4   -0.03    0.07
 -16   3  -5    0.81    0.10
 -16   3  -5    0.88    0.10
 -16  -3  -5    0.91    0.12
 -16  -3  -5    0.72    0.12
  16  -3   5    0.84    0.11
 -16   3  -6    0.63    0.09
 -16   3  -6    0.73    0.10
 -16  -3  -6    0.51    0.11
 -16  -3  -6    0.80    0.12
  16  -3   6    0.68    0.11
 -16   3  -7    1.41    0.12
 -16   3  -7    1.41    0.12
 -16  -3  -7    1.44    0.13
 -16  -3  -7    1.53    0.14
 -16   3  -8    0.03    0.05
 -16  -3  -8    0.01    0.05
 -16  -3  -8    0.01    0.06
 -16   3  -9    4.93    0.24
 -16   3  -9    5.08    0.25
 -16  -3  -9    5.14    0.25
 -16  -3  -9    4.91    0.25
  16   3  10    1.13    0.17
 -16   3 -10    1.02    0.12
 -16   3 -10    1.11    0.10
 -16  -3 -10    1.11    0.11
 -16  -3 -10    1.09    0.11
 -16   3 -11    0.09    0.05
 -16   3 -11   -0.12    0.07
 -16  -3 -11    0.05    0.05
 -16  -3 -11    0.01    0.05
 -16   3 -12    1.48    0.11
 -16  -3 -12    1.55    0.11
 -16  -3 -12    1.36    0.10
 -16   3 -13    0.75    0.08
 -16  -3 -13    0.76    0.08
 -16  -3 -13    0.76    0.08
 -16   3 -14    4.29    0.20
 -16  -3 -14    4.32    0.20
 -16  -3 -14    4.15    0.20
 -16   3 -15    0.51    0.08
 -16  -3 -15    0.54    0.06
 -16  -3 -15    0.55    0.06
 -16   3 -16    0.09    0.06
 -16  -3 -16    0.09    0.03
 -16  -3 -16    0.05    0.03
 -16  -3 -17    1.12    0.07
  16   4 -14    1.16    0.07
  16   4 -13   -0.01    0.03
 -16   4  13    0.06    0.04
 -16   4  12    0.29    0.06
  16   4 -12    0.34    0.06
 -16   4  11    0.22    0.07
  16  -4 -11    0.35    0.11
  16   4 -10    0.20    0.06
 -16   4  10    0.19    0.05
  16  -4 -10    0.22    0.08
  16   4  -9    0.07    0.05
 -16   4   9    0.07    0.05
  16  -4  -9   -0.04    0.07
  16   4  -8    0.16    0.05
 -16   4   8    0.11    0.06
  16   4  -8    0.22    0.07
  16  -4  -8    0.29    0.09
  16   4  -7    3.16    0.17
  16   4  -7    3.01    0.17
  16  -4  -7    2.93    0.17
  16   4  -6    0.02    0.06
  16   4  -6    0.06    0.06
  16  -4  -6   -0.02    0.06
 -16   4   5    0.94    0.12
  16   4  -5    0.92    0.11
  16   4  -5    1.02    0.11
  16  -4  -5    0.79    0.10
  16   4  -4    0.40    0.10
 -16   4   4    0.31    0.10
  16   4  -4    0.37    0.10
  16  -4  -4    0.23    0.07
  16   4  -3    0.44    0.11
  16   4  -3    0.34    0.10
  16  -4  -3    0.24    0.08
 -16   4   2    1.40    0.11
  16   4  -2    1.36    0.14
  16   4  -2    1.61    0.13
  16  -4  -2    1.23    0.12
  16   4  -1    0.69    0.14
  16   4  -1    0.50    0.10
 -16   4   1    0.65    0.09
  16  -4  -1    0.46    0.09
  16   4   0    2.28    0.15
 -16   4   0    2.00    0.16
 -16   4   0    2.55    0.14
  16   4   0    2.28    0.19
  16  -4   0    2.10    0.15
 -16  -4   0    2.54    0.20
  16   4   1    0.10    0.06
 -16   4  -1    0.08    0.07
 -16   4  -1    0.05    0.05
  16  -4   1    0.07    0.06
 -16  -4  -1   -0.10    0.10
 -16   4  -2    0.05    0.06
 -16   4  -2   -0.01    0.05
  16   4   2    0.02    0.06
  16  -4   2    0.02    0.06
 -16  -4  -2    0.07    0.09
 -16   4  -3    1.96    0.13
  16   4   3    2.03    0.14
 -16   4  -3    1.91    0.12
  16  -4   3    1.51    0.13
 -16  -4  -3    1.85    0.17
  16   4   4    0.92    0.12
 -16   4  -4    0.83    0.10
 -16   4  -4    0.87    0.09
  16  -4   4    0.84    0.10
 -16  -4  -4    0.78    0.14
 -16   4  -5    0.01    0.05
  16   4   5    0.13    0.07
 -16   4  -5    0.01    0.05
 -16  -4  -5   -0.06    0.08
  16  -4   5    0.06    0.06
  16   4   6    1.93    0.14
 -16   4  -6    2.23    0.13
 -16   4  -6    2.11    0.13
  16  -4   6    2.07    0.14
 -16  -4  -6    1.72    0.15
 -16  -4  -6    2.35    0.15
  16   4   7    0.48    0.11
 -16   4  -7    0.46    0.08
 -16   4  -7    0.68    0.08
 -16  -4  -7    0.66    0.10
  16  -4   7    0.68    0.10
 -16  -4  -7    0.50    0.11
  16   4   8    1.54    0.14
 -16   4  -8    1.75    0.11
 -16   4  -8    1.79    0.11
  16  -4   8    1.88    0.13
 -16  -4  -8    1.66    0.12
 -16  -4  -8    1.74    0.13
 -16   4  -9    2.13    0.13
 -16   4  -9    2.21    0.12
  16   4   9    2.06    0.17
 -16  -4  -9    1.96    0.13
 -16  -4  -9    2.22    0.14
  16  -4   9    2.08    0.14
 -16   4 -10    0.38    0.06
  16  -4  10    0.32    0.10
 -16  -4 -10    0.42    0.08
 -16  -4 -10    0.38    0.08
 -16   4 -11   -0.02    0.05
 -16   4 -11    0.10    0.04
 -16  -4 -11    0.07    0.05
 -16  -4 -11   -0.01    0.04
  16  -4  11    0.07    0.08
 -16   4 -12    0.89    0.07
 -16  -4 -12    0.89    0.07
 -16  -4 -12    0.79    0.08
 -16   4 -13    0.28    0.05
 -16  -4 -13    0.07    0.05
 -16   4 -14    3.73    0.16
  16   5  -8    0.40    0.07
  16   5  -7   -0.04    0.05
  16   5  -6    0.84    0.09
  16   5  -6    0.93    0.09
  16   5  -5   -0.03    0.04
  16   5  -5    0.17    0.06
  16   5  -4    0.00    0.04
 -16   5   3    1.08    0.10
  16   5  -3    1.29    0.09
 -16   5   2    0.10    0.05
  16   5  -2    0.01    0.04
  16  -5  -2    0.17    0.09
 -16   5   1    0.67    0.08
  16   5  -1    0.69    0.07
  16  -5  -1    0.74    0.11
 -16   5   0    0.48    0.07
  16   5   0    0.54    0.07
  16  -5   0    0.50    0.11
  16   5   1    1.05    0.09
 -16   5  -1    1.20    0.08
  16  -5   1    1.25    0.12
 -16   5  -2    1.77    0.10
  16   5   2    1.66    0.10
  16  -5   2    1.69    0.13
 -16   5  -3    0.22    0.06
  16   5   3    0.17    0.05
  16   5   4    0.65    0.08
 -16   5  -4    0.66    0.07
 -16   5  -4    0.60    0.09
  16   5   5    0.39    0.08
 -16   5  -5    0.38    0.07
 -16   5  -5    0.35    0.06
  16   5   6    0.06    0.05
 -16   5  -6    0.05    0.03
 -16   5  -6    0.08    0.04
 -16   5  -7    0.60    0.06
 -16   5  -7    0.56    0.06
 -16   5  -8    0.29    0.06
 -16   5  -8    0.38    0.06
 -17   0  20    2.00    0.11
 -17   0  19    0.00    0.04
 -17   0  18    0.69    0.08
 -17   0  17   -0.03    0.05
 -17   0  16    3.36    0.18
 -17   0  15    0.17    0.06
 -17   0  14    2.76    0.16
 -17   0  13    0.01    0.06
 -17   0  12    0.03    0.05
 -17   0  11   -0.04    0.05
 -17   0  10    0.21    0.06
 -17   0   9   -0.02    0.05
 -17   0   8    9.45    0.40
 -17   0   7    0.03    0.05
  17   0  -6   12.94    0.58
  17   0  -5    0.04    0.07
  17   0  -4    0.06    0.06
  17   0  -3    0.00    0.05
 -17   0   2    0.17    0.08
  17   0  -2    0.37    0.09
 -17   0   1    0.02    0.07
  17   0  -1    0.05    0.05
 -17   0   0   16.09    0.71
  17   0   0   17.06    0.70
  17   0   1    0.02    0.05
 -17   0  -1    0.03    0.07
  17   0   2    0.29    0.08
 -17   0  -2    0.37    0.13
  17   0   3    0.01    0.05
  17   0   4    1.78    0.14
  17   0   5    0.09    0.08
  17   0   5   -0.04    0.12
  17   0   6    5.97    0.39
  17   0   6    6.78    0.33
 -17   0  -7   -0.12    0.08
 -17   0  -7   -0.11    0.06
  17   0   7    0.04    0.12
 -17   0  -8    8.29    0.37
 -17   0  -8    8.20    0.38
 -17   0  -8    7.88    0.39
 -17   0  -8    8.61    0.38
 -17   0  -9    0.02    0.08
 -17   0  -9    0.00    0.08
 -17   0  -9    0.11    0.07
 -17   0 -10    5.30    0.26
 -17   0 -10    5.25    0.28
 -17   0 -10    5.65    0.27
 -17   0 -11   -0.08    0.07
 -17   0 -11   -0.04    0.07
 -17   0 -12   11.28    0.48
 -17   0 -12   10.63    0.47
 -17   0 -13   -0.09    0.07
 -17   0 -13    0.10    0.10
 -17   0 -13    0.04    0.07
 -17   0 -15   -0.14    0.12
 -17   0 -15   -0.01    0.06
 -17   0 -16    1.38    0.10
 -17   0 -17   -0.02    0.05
 -17   0 -18    0.14    0.06
 -17   1  20    0.99    0.07
 -17  -1  20    0.88    0.07
 -17   1  19    0.11    0.04
 -17   1  19    0.23    0.07
 -17  -1  19    0.23    0.06
 -17   1  18    1.19    0.08
 -17   1  18    1.00    0.09
 -17  -1  18    1.02    0.09
 -17   1  17    0.26    0.06
 -17  -1  17    0.30    0.07
 -17   1  16    0.24    0.07
 -17  -1  16    0.05    0.05
 -17   1  15    1.76    0.11
  17  -1 -15    1.42    0.16
 -17  -1  15    1.99    0.13
 -17   1  14    0.72    0.08
  17  -1 -14    0.58    0.13
 -17  -1  14    0.68    0.10
 -17   1  13    0.01    0.04
  17   1 -13    0.14    0.09
 -17  -1  13   -0.05    0.06
  17  -1 -13   -0.02    0.09
 -17   1  12    4.02    0.20
  17   1 -12    4.20    0.24
  17  -1 -12    4.08    0.22
 -17  -1  12    4.14    0.22
 -17   1  11    0.23    0.05
  17   1 -11    0.32    0.10
  17  -1 -11    0.34    0.11
 -17  -1  11    0.28    0.07
 -17   1  10    0.53    0.08
  17   1 -10    0.57    0.14
 -17  -1  10    0.56    0.11
  17  -1 -10    0.73    0.12
  17   1  -9    0.22    0.08
 -17   1   9    0.33    0.07
 -17  -1   9    0.17    0.06
  17  -1  -9    0.30    0.10
 -17  -1   9    0.20    0.11
 -17   1   8    0.48    0.08
  17   1  -8    0.70    0.12
 -17  -1   8    0.76    0.15
 -17  -1   8    0.39    0.10
 -17   1   7    0.82    0.08
 -17  -1   7    0.67    0.11
 -17   1   6    0.45    0.08
 -17  -1   6    0.53    0.11
  17   1  -5    0.74    0.17
 -17   1   5    0.48    0.09
 -17  -1   5    0.46    0.11
  17   1  -4    2.06    0.18
  17  -1  -4    2.10    0.17
  17   1  -3    1.23    0.14
  17  -1  -3    0.98    0.13
  17   1  -2    0.18    0.06
  17  -1  -2    0.18    0.07
 -17  -1   2    0.03    0.10
  17   1  -1   11.71    0.52
  17  -1  -1   12.50    0.54
 -17  -1   1   12.09    0.54
  17   1   0    1.32    0.12
  17  -1   0    1.42    0.14
 -17  -1   0    1.57    0.16
  17   1   1    1.98    0.13
 -17  -1  -1    1.93    0.16
  17  -1   1    2.05    0.16
  17   1   2    0.73    0.10
 -17  -1  -2    0.78    0.12
  17  -1   2    0.85    0.14
  17   1   3    2.61    0.15
  17  -1   3    2.72    0.19
  17  -1   4    2.83    0.21
 -17   1  -5    0.77    0.11
 -17   1  -5    0.44    0.11
 -17  -1  -5    0.60    0.13
 -17  -1  -5    0.91    0.11
  17  -1   5    0.64    0.18
 -17  -1  -5    0.64    0.12
 -17   1  -6    1.64    0.13
 -17   1  -6    1.32    0.13
 -17  -1  -6    1.56    0.12
 -17  -1  -6    1.76    0.14
 -17  -1  -6    1.52    0.15
 -17   1  -7    0.79    0.11
 -17   1  -7    0.48    0.11
 -17  -1  -7    0.70    0.10
 -17  -1  -7    0.66    0.12
 -17  -1  -7    0.63    0.13
 -17   1  -8   15.10    0.64
 -17   1  -8   14.95    0.63
 -17  -1  -8   15.62    0.64
 -17  -1  -8   14.98    0.65
 -17  -1  -8   15.37    0.64
 -17   1  -9    0.04    0.07
 -17   1  -9    0.13    0.09
 -17  -1  -9    0.11    0.10
 -17  -1  -9    0.05    0.06
 -17  -1  -9   -0.02    0.06
 -17   1 -10    5.58    0.28
 -17   1 -10    5.42    0.27
 -17   1 -10    5.35    0.28
 -17  -1 -10    6.04    0.27
 -17  -1 -10    5.26    0.30
 -17  -1 -10    5.75    0.27
 -17   1 -11    8.31    0.37
 -17   1 -11    7.65    0.37
 -17   1 -11    7.55    0.36
 -17  -1 -11    7.95    0.36
 -17  -1 -11    8.24    0.36
 -17   1 -12   13.44    0.58
 -17   1 -12   12.87    0.57
 -17  -1 -12   13.52    0.57
 -17  -1 -12   13.92    0.57
 -17   1 -13    2.65    0.19
 -17  -1 -13    2.89    0.17
 -17  -1 -13    3.06    0.17
 -17   1 -14    0.92    0.14
 -17  -1 -14    1.17    0.11
 -17  -1 -14    1.23    0.11
 -17   1 -15    0.57    0.13
 -17  -1 -15    0.48    0.09
 -17  -1 -15    0.42    0.08
 -17   1 -16    0.37    0.14
 -17  -1 -16    0.31    0.08
 -17  -1 -17    0.04    0.05
 -17  -1 -17    0.10    0.04
 -17  -1 -18    0.75    0.07
 -17  -1 -18    0.77    0.08
 -17  -1 -19    0.02    0.03
 -17   2  19    0.41    0.05
 -17   2  18    1.06    0.07
 -17  -2  18    1.16    0.09
 -17   2  17    0.04    0.03
 -17   2  17    0.04    0.06
 -17  -2  17    0.02    0.05
 -17   2  16    0.70    0.07
 -17   2  16    0.52    0.10
 -17  -2  16    0.75    0.09
 -17   2  15    0.58    0.07
  17   2 -15    0.59    0.11
  17  -2 -15    0.69    0.13
 -17  -2  15    0.55    0.09
 -17   2  14    4.91    0.22
  17   2 -14    4.88    0.23
 -17  -2  14    4.80    0.23
  17  -2 -14    3.97    0.24
  17   2 -13    0.08    0.07
 -17   2  13    0.10    0.05
 -17  -2  13    0.10    0.06
  17  -2 -13    0.14    0.08
  17   2 -12    0.55    0.11
 -17   2  12    0.62    0.08
  17  -2 -12    0.50    0.11
 -17  -2  12    0.43    0.10
  17   2 -11    0.84    0.12
 -17   2  11    1.04    0.09
 -17  -2  11    1.01    0.11
  17  -2 -11    1.00    0.12
 -17   2  10    0.45    0.08
  17   2 -10    0.47    0.11
 -17  -2  10    0.60    0.11
  17  -2 -10    0.39    0.10
 -17   2   9    7.26    0.32
  17   2  -9    7.23    0.34
 -17  -2   9    7.11    0.34
  17  -2  -9    7.30    0.33
  17   2  -8    6.18    0.30
 -17   2   8    6.44    0.29
  17  -2  -8    6.63    0.30
 -17   2   7    2.59    0.15
  17   2  -7    2.39    0.17
  17  -2  -7    2.76    0.16
 -17  -2   7    2.74    0.17
  17   2  -6    9.27    0.41
 -17   2   6    9.66    0.40
  17  -2  -6    9.30    0.40
 -17  -2   6    9.14    0.42
  17   2  -5    1.33    0.13
 -17   2   5    1.25    0.11
  17  -2  -5    1.09    0.11
 -17  -2   5    1.30    0.13
 -17   2   4    3.85    0.24
 -17   2   4    4.38    0.24
  17   2  -4    4.37    0.23
 -17   2   4    4.70    0.22
  17  -2  -4    4.91    0.22
 -17  -2   4    4.49    0.23
 -17   2   3   15.56    0.68
 -17   2   3   16.53    0.68
 -17   2   3   16.29    0.68
  17   2  -3   16.28    0.69
 -17  -2   3   16.77    0.69
  17  -2  -3   17.04    0.68
 -17  -2   3   16.44    0.69
 -17   2   2    0.09    0.08
 -17   2   2    0.03    0.07
 -17   2   2    0.07    0.06
 -17  -2   2    0.05    0.07
  17  -2  -2    0.06    0.06
 -17  -2   2   -0.04    0.07
 -17   2   1    4.03    0.23
 -17   2   1    4.56    0.23
 -17   2   1    4.66    0.22
 -17  -2   1    4.63    0.24
  17  -2  -1    4.53    0.22
 -17  -2   1    4.53    0.24
 -17   2   0    0.10    0.06
 -17   2   0    0.03    0.06
  17  -2   0    0.01    0.06
 -17  -2   0   -0.07    0.09
 -17  -2   0    0.05    0.07
 -17  -2   0    0.03    0.07
 -17   2  -1    7.47    0.33
 -17   2  -1    7.57    0.33
 -17  -2  -1    7.61    0.35
  17  -2   1    7.45    0.33
 -17  -2  -1    7.42    0.35
 -17  -2  -1    7.39    0.35
 -17   2  -2    5.30    0.25
 -17   2  -2    5.18    0.25
 -17  -2  -2    5.34    0.27
 -17  -2  -2    5.50    0.27
 -17  -2  -2    5.45    0.28
  17  -2   2    5.21    0.25
 -17   2  -3    1.31    0.11
 -17   2  -3    1.29    0.11
 -17  -2  -3    1.38    0.14
  17  -2   3    1.39    0.12
 -17  -2  -3    1.28    0.13
 -17  -2  -3    1.42    0.16
 -17   2  -4    0.33    0.09
 -17  -2  -4    0.50    0.13
 -17  -2  -4    0.30    0.07
 -17  -2  -4    0.31    0.07
 -17   2  -5    1.22    0.11
 -17   2  -5    1.40    0.11
 -17  -2  -5    1.41    0.13
 -17  -2  -5    1.50    0.16
 -17  -2  -5    1.38    0.13
 -17   2  -6    1.94    0.14
 -17   2  -6    2.19    0.14
 -17  -2  -6    2.25    0.15
 -17  -2  -6    2.18    0.15
 -17  -2  -6    2.02    0.17
 -17   2  -7    0.23    0.06
 -17   2  -7    0.22    0.07
 -17  -2  -7    0.12    0.08
 -17  -2  -7    0.32    0.09
 -17  -2  -7    0.32    0.10
 -17   2  -8    2.20    0.15
 -17   2  -8    1.99    0.14
 -17  -2  -8    2.01    0.15
 -17  -2  -8    2.23    0.18
 -17  -2  -8    1.90    0.14
 -17   2  -9    1.27    0.11
 -17   2  -9    1.43    0.13
 -17  -2  -9    1.66    0.17
 -17  -2  -9    1.19    0.12
 -17  -2  -9    1.44    0.13
 -17   2 -10    3.46    0.20
 -17   2 -10    3.52    0.20
 -17   2 -10    3.53    0.19
 -17  -2 -10    3.28    0.19
 -17  -2 -10    3.33    0.19
 -17   2 -11    0.15    0.07
 -17   2 -11    0.40    0.12
 -17   2 -11    0.32    0.08
 -17  -2 -11    0.25    0.06
 -17  -2 -11    0.21    0.06
 -17   2 -12    2.91    0.19
 -17   2 -12    3.46    0.18
 -17  -2 -12    3.23    0.18
 -17  -2 -12    3.49    0.18
 -17   2 -13    0.38    0.11
 -17   2 -13    0.36    0.10
 -17  -2 -13    0.35    0.08
 -17  -2 -13    0.37    0.09
 -17   2 -14    1.76    0.13
 -17  -2 -14    1.90    0.12
 -17  -2 -14    1.93    0.12
 -17  -2 -15    0.54    0.07
 -17  -2 -15    0.50    0.08
 -17  -2 -16    0.08    0.04
 -17  -2 -16    0.06    0.04
 -17  -2 -17    0.01    0.03
 -17  -2 -17    0.02    0.03
 -17  -2 -18    0.05    0.03
 -17  -2 -18    0.05    0.03
 -17  -2 -19    0.02    0.03
 -17   3  17    0.06    0.03
  17   3 -16    0.52    0.08
 -17   3  16    0.56    0.05
 -17   3  15    0.14    0.03
  17   3 -15    0.10    0.05
 -17   3  14    0.64    0.07
  17   3 -14    0.68    0.08
 -17  -3  14    0.48    0.12
  17  -3 -14    0.83    0.16
  17   3 -13    0.04    0.05
 -17   3  13    0.02    0.04
 -17  -3  13    0.34    0.12
  17  -3 -13    0.02    0.09
  17   3 -12    1.60    0.12
 -17   3  12    1.67    0.10
  17  -3 -12    1.42    0.13
 -17  -3  12    1.78    0.14
 -17   3  11    0.30    0.07
  17   3 -11    0.22    0.06
  17  -3 -11    0.29    0.10
 -17  -3  11    0.49    0.12
  17   3 -10    4.94    0.24
 -17   3  10    4.87    0.23
  17  -3 -10    4.62    0.24
 -17  -3  10    4.96    0.25
  17   3  -9   -0.08    0.06
 -17   3   9   -0.03    0.05
  17  -3  -9   -0.01    0.07
 -17  -3   9    0.11    0.08
  17   3  -8    1.54    0.13
 -17   3   8    1.61    0.11
  17  -3  -8    1.27    0.12
 -17  -3   8    1.76    0.15
 -17   3   7    3.04    0.16
  17   3  -7    2.89    0.20
  17   3  -7    3.26    0.18
  17  -3  -7    2.72    0.17
 -17  -3   7    3.53    0.20
  17   3  -6    1.81    0.14
 -17   3   6    1.75    0.12
  17   3  -6    1.88    0.16
 -17  -3   6    1.74    0.16
  17  -3  -6    1.79    0.13
 -17   3   5    1.94    0.16
  17   3  -5    1.73    0.15
 -17   3   5    1.83    0.13
  17   3  -5    1.94    0.16
 -17  -3   5    1.72    0.16
  17  -3  -5    1.92    0.13
 -17   3   4    2.37    0.15
 -17   3   4    2.03    0.14
  17   3  -4    2.08    0.15
  17  -3  -4    2.29    0.14
 -17  -3   4    2.05    0.17
 -17   3   3    0.08    0.07
 -17   3   3    0.16    0.07
  17   3  -3    0.20    0.08
  17  -3  -3    0.19    0.07
 -17  -3   3    0.19    0.09
 -17   3   2    3.29    0.18
 -17   3   2    3.09    0.21
  17   3  -2    3.39    0.20
  17  -3  -2    3.41    0.18
 -17  -3   2    3.59    0.21
 -17   3   1    1.55    0.14
 -17   3   1    1.75    0.12
  17   3  -1    1.75    0.15
 -17  -3   1    1.62    0.16
  17  -3  -1    1.27    0.12
  17   3   0    4.26    0.26
 -17   3   0    4.68    0.24
 -17   3   0    5.35    0.24
  17  -3   0    5.30    0.24
 -17  -3   0    5.23    0.27
  17   3   1    0.33    0.11
 -17   3  -1    0.35    0.09
 -17   3  -1    0.40    0.10
 -17  -3  -1    0.20    0.09
 -17   3  -2    0.03    0.05
 -17   3  -2    0.09    0.06
 -17  -3  -2    0.17    0.09
  17  -3   2    0.15    0.06
 -17  -3  -2    0.18    0.08
 -17   3  -3    3.15    0.18
 -17   3  -3    3.28    0.18
 -17  -3  -3    3.23    0.21
  17  -3   3    3.42    0.19
 -17  -3  -3    3.45    0.20
 -17   3  -4    1.77    0.13
 -17   3  -4    2.02    0.13
 -17  -3  -4    1.87    0.16
 -17  -3  -4    1.99    0.16
  17  -3   4    1.97    0.14
 -17   3  -5    0.59    0.09
 -17   3  -5    0.57    0.09
 -17  -3  -5    0.70    0.12
  17  -3   5    0.52    0.10
 -17  -3  -5    0.33    0.12
 -17   3  -6    4.99    0.25
 -17   3  -6    5.14    0.25
 -17  -3  -6    5.17    0.26
 -17  -3  -6    5.16    0.26
  17  -3   6    5.07    0.26
 -17   3  -7    2.54    0.16
 -17   3  -7    2.80    0.16
  17  -3   7    2.69    0.17
 -17  -3  -7    2.99    0.17
 -17  -3  -7    2.93    0.18
 -17   3  -8    0.17    0.07
 -17   3  -8    0.31    0.08
 -17  -3  -8    0.16    0.06
 -17  -3  -8    0.18    0.07
 -17   3  -9    3.53    0.19
 -17   3  -9    3.72    0.19
 -17  -3  -9    3.43    0.19
 -17  -3  -9    3.44    0.19
 -17   3 -10    2.20    0.14
  17   3  10    1.83    0.18
 -17   3 -10    2.06    0.13
 -17  -3 -10    2.06    0.14
 -17  -3 -10    2.04    0.14
 -17   3 -11   -0.03    0.05
 -17   3 -11    0.07    0.06
 -17  -3 -11    0.08    0.05
 -17  -3 -11    0.02    0.05
 -17   3 -12    0.01    0.07
 -17   3 -12   -0.04    0.05
 -17  -3 -12    0.03    0.04
 -17  -3 -12   -0.05    0.04
 -17   3 -13    0.15    0.05
 -17  -3 -13    0.22    0.06
 -17  -3 -13    0.25    0.07
 -17   3 -14    0.14    0.05
 -17  -3 -14    0.21    0.06
 -17  -3 -14    0.32    0.06
 -17   3 -15    1.51    0.10
 -17  -3 -15    1.56    0.09
 -17  -3 -15    1.50    0.09
 -17  -3 -16    1.88    0.10
 -17  -3 -16    1.82    0.10
 -17  -3 -17    0.28    0.05
  17   4 -14    0.21    0.05
  17   4 -13    0.50    0.05
 -17   4  13    0.40    0.07
  17   4 -12    0.03    0.03
 -17   4  12    0.02    0.04
 -17   4  11    0.20    0.05
  17   4 -11    0.28    0.06
  17   4 -10    0.10    0.04
 -17   4  10    0.05    0.05
  17  -4 -10    0.00    0.09
  17   4  -9   -0.02    0.04
 -17   4   9   -0.04    0.05
  17  -4  -9    0.02    0.08
  17   4  -8    0.18    0.05
 -17   4   8   -0.05    0.06
  17   4  -8    0.00    0.07
  17  -4  -8    0.17    0.08
  17   4  -7    0.70    0.09
  17   4  -7    0.78    0.10
  17  -4  -7    0.64    0.10
  17   4  -6    0.12    0.06
  17   4  -6    0.09    0.05
  17  -4  -6    0.10    0.07
 -17   4   5    0.59    0.12
  17   4  -5    0.46    0.10
  17   4  -5    0.62    0.10
  17  -4  -5    0.49    0.10
 -17   4   4   -0.08    0.06
  17   4  -4    0.03    0.06
  17   4  -4   -0.07    0.06
  17  -4  -4   -0.08    0.07
  17   4  -3    8.43    0.38
  17   4  -3    8.56    0.38
 -17   4   3    8.86    0.37
  17  -4  -3    8.07    0.38
  17   4  -2    1.79    0.13
 -17   4   2    1.75    0.12
  17   4  -2    1.62    0.14
  17  -4  -2    1.27    0.12
  17   4  -1    4.59    0.23
 -17   4   1    4.73    0.22
  17   4  -1    4.44    0.25
 -17  -4   1    4.64    0.26
  17  -4  -1    4.35    0.23
 -17   4   0    0.33    0.08
 -17   4   0    0.63    0.12
  17   4   0    0.49    0.16
  17   4   0    0.48    0.10
 -17  -4   0    0.23    0.10
  17   4   1    0.07    0.06
 -17   4  -1   -0.05    0.05
 -17   4  -1    0.10    0.07
  17  -4   1    0.00    0.06
 -17  -4  -1    0.01    0.09
  17   4   2    1.53    0.13
 -17   4  -2    1.72    0.12
 -17   4  -2    1.72    0.11
  17  -4   2    1.32    0.13
 -17  -4  -2    1.47    0.16
 -17   4  -3    0.62    0.09
  17   4   3    0.88    0.11
 -17   4  -3    0.55    0.08
 -17  -4  -3    0.66    0.14
  17  -4   3    0.60    0.10
 -17   4  -4    1.78    0.12
  17   4   4    1.65    0.14
 -17   4  -4    1.94    0.12
 -17  -4  -4    1.65    0.15
  17  -4   4    1.48    0.13
 -17   4  -5    0.10    0.05
  17   4   5    0.32    0.10
 -17   4  -5   -0.04    0.05
 -17  -4  -5   -0.08    0.07
  17  -4   5   -0.05    0.06
 -17   4  -6    2.12    0.12
 -17   4  -6    2.08    0.12
  17   4   6    1.85    0.14
 -17  -4  -6    2.12    0.14
 -17  -4  -6    1.67    0.15
  17  -4   6    1.96    0.14
 -17   4  -7    1.26    0.09
 -17   4  -7    1.18    0.10
  17   4   7    1.19    0.12
 -17  -4  -7    1.25    0.12
  17  -4   7    0.98    0.11
 -17  -4  -7    1.07    0.11
  17   4   8    0.07    0.07
 -17   4  -8    0.06    0.05
 -17   4  -8    0.07    0.04
 -17  -4  -8    0.01    0.06
  17  -4   8    0.01    0.07
 -17  -4  -8    0.13    0.05
  17   4   9    0.58    0.13
 -17   4  -9    0.46    0.08
 -17   4  -9    0.60    0.07
  17  -4   9    0.50    0.10
 -17  -4  -9    0.48    0.09
 -17  -4  -9    0.54    0.09
 -17   4 -10    0.00    0.05
 -17   4 -10   -0.02    0.04
  17  -4  10    0.07    0.08
 -17  -4 -10   -0.02    0.05
 -17  -4 -10    0.01    0.05
 -17   4 -11    0.37    0.08
 -17  -4 -11    0.20    0.07
 -17  -4 -11    0.26    0.07
 -17   4 -12    0.26    0.05
 -17  -4 -12    0.23    0.06
 -17   4 -13    0.10    0.03
 -17  -4 -13    0.00    0.05
  17   5  -6    0.08    0.07
  17   5  -6    0.16    0.06
  17   5  -5    0.19    0.10
  17   5  -5    0.16    0.05
  17   5  -4    0.23    0.07
 -17   5   3    0.93    0.10
  17   5  -3    0.93    0.08
 -17   5   2    0.56    0.08
  17   5  -2    0.82    0.08
 -17   5   1    0.42    0.07
  17   5  -1    0.31    0.07
 -17   5   0    1.44    0.10
  17   5   0    1.42    0.09
  17   5   1    0.08    0.04
 -17   5  -1    0.09    0.04
 -17   5  -2    0.78    0.07
  17   5   2    0.73    0.07
  17   5   3    0.58    0.07
 -17   5  -3    0.57    0.07
 -17   5  -4   -0.03    0.06
 -17   5  -4    0.08    0.04
  17   5   4    0.08    0.04
  17   5   5    0.12    0.05
 -17   5  -5    0.03    0.03
 -17   5  -5    0.06    0.05
 -17   5  -6    0.26    0.05
 -17   5  -6    0.17    0.05
  17   5   6    0.11    0.06
 -17   5  -7    0.36    0.06
 -17   5  -7    0.27    0.06
 -18   0  20    0.69    0.07
 -18   0  19    0.00    0.04
 -18   0  18    1.87    0.11
 -18   0  17    0.05    0.05
 -18   0  16   38.88    1.64
 -18   0  16   43.19    1.66
 -18   0  15   -0.08    0.06
 -18   0  14    1.01    0.10
 -18   0  13    0.11    0.06
 -18   0  12    0.66    0.09
 -18   0  11    0.09    0.05
 -18   0  10    0.17    0.06
 -18   0   9    0.00    0.05
 -18   0   8   17.30    0.71
 -18   0   7    0.02    0.05
 -18   0   6    7.85    0.34
 -18   0   6    7.84    0.36
  18   0  -5    0.06    0.07
  18   0  -4    0.41    0.09
  18   0  -3    0.00    0.06
  18   0  -2   14.89    0.64
  18   0  -1    0.01    0.05
  18   0   0   58.88    2.35
 -18   0   0   57.58    2.36
 -18   0  -1   -0.07    0.09
 -18   0  -2    1.24    0.17
  18   0   2    0.83    0.11
  18   0   3    0.08    0.06
  18   0   4    4.31    0.24
  18   0   5   -0.07    0.14
  18   0   5    0.08    0.09
 -18   0  -6    1.33    0.13
  18   0   6    1.28    0.20
 -18   0  -6    1.27    0.13
 -18   0  -7   -0.15    0.09
 -18   0  -7    0.10    0.09
 -18   0  -7    0.03    0.07
 -18   0  -7   -0.10    0.06
 -18   0  -8   10.27    0.45
 -18   0  -8    9.93    0.45
 -18   0  -8   10.76    0.45
 -18   0  -8   10.05    0.45
 -18   0  -9    0.09    0.08
 -18   0  -9    0.05    0.08
 -18   0  -9    0.10    0.07
 -18   0 -10    1.93    0.17
 -18   0 -10    2.12    0.15
 -18   0 -10    2.07    0.17
 -18   0 -11   -0.05    0.07
 -18   0 -11   -0.02    0.07
 -18   0 -12   15.94    0.69
 -18   0 -12   17.09    0.69
 -18   0 -13    0.00    0.07
 -18   0 -13    0.01    0.07
 -18   0 -14    0.00    0.06
 -18   0 -14   -0.07    0.07
 -18   0 -15    0.10    0.05
 -18   0 -16    0.51    0.09
 -18   0 -17   -0.08    0.05
 -18   1  20    1.08    0.08
 -18  -1  20    1.16    0.08
 -18   1  19    0.27    0.08
 -18   1  19    0.21    0.06
 -18  -1  19    0.26    0.06
 -18   1  18    0.03    0.04
 -18   1  18    0.06    0.04
 -18  -1  18    0.07    0.04
 -18   1  17    0.56    0.07
 -18   1  17    0.48    0.08
 -18  -1  17    0.63    0.08
 -18   1  16    0.48    0.07
 -18  -1  16    0.47    0.08
 -18   1  15    3.21    0.16
 -18  -1  15    3.15    0.18
 -18   1  14    1.61    0.11
 -18  -1  14    1.74    0.13
 -18   1  13    0.30    0.07
  18   1 -13    0.29    0.10
 -18  -1  13    0.37    0.10
  18   1 -12    5.56    0.28
 -18   1  12    4.99    0.24
 -18  -1  12    5.12    0.26
 -18   1  11   -0.02    0.04
  18   1 -11    0.02    0.09
 -18  -1  11    0.05    0.06
 -18   1  10    0.50    0.08
  18   1 -10    0.62    0.13
 -18  -1  10    0.60    0.11
 -18   1   9    0.11    0.05
  18   1  -9    0.13    0.08
 -18  -1   9    0.09    0.06
 -18  -1   9   -0.11    0.09
  18   1  -8    3.29    0.19
 -18   1   8    3.30    0.17
 -18  -1   8    3.28    0.18
 -18  -1   8    3.02    0.20
 -18   1   7    0.16    0.05
 -18  -1   7    0.07    0.09
 -18  -1   7    0.20    0.06
 -18   1   6    0.30    0.08
 -18  -1   6    0.37    0.11
 -18  -1   6    0.31    0.09
 -18   1   5    2.15    0.13
  18   1  -5    2.13    0.22
 -18  -1   5    2.29    0.16
 -18   1   4    5.89    0.27
  18   1  -4    6.02    0.33
 -18  -1   4    5.95    0.29
  18   1  -3   19.85    0.84
  18  -1  -3   19.40    0.84
  18   1  -2   33.46    1.35
  18  -1  -2   32.47    1.36
  18   1  -1    1.93    0.15
  18  -1  -1    1.94    0.17
 -18  -1   1    1.67    0.21
  18   1   0    0.00    0.07
 -18  -1   0   -0.02    0.10
  18  -1   0    0.08    0.08
  18   1   1    0.42    0.11
  18  -1   1    0.39    0.10
  18   1   2    0.42    0.10
  18  -1   2    0.34    0.10
 -18   1  -3    1.27    0.14
 -18  -1  -3    0.79    0.15
 -18   1  -4    5.97    0.28
 -18   1  -4    6.30    0.29
 -18  -1  -4    6.01    0.30
 -18  -1  -4    6.08    0.29
  18  -1   4    6.38    0.34
 -18  -1  -4    6.11    0.30
 -18   1  -5    1.21    0.13
 -18   1  -5    1.58    0.13
 -18  -1  -5    1.61    0.12
 -18  -1  -5    1.52    0.14
 -18  -1  -5    1.28    0.14
 -18   1  -6   15.47    0.64
 -18   1  -6   14.40    0.64
 -18  -1  -6   15.66    0.64
 -18  -1  -6   15.16    0.65
 -18  -1  -6   15.84    0.65
 -18   1  -7    0.02    0.06
 -18   1  -7   -0.07    0.06
 -18  -1  -7    0.20    0.08
 -18  -1  -7   -0.02    0.07
 -18  -1  -7    0.04    0.05
 -18   1  -8   21.86    0.90
 -18   1  -8   21.41    0.90
 -18  -1  -8   22.14    0.90
 -18  -1  -8   22.35    0.90
 -18  -1  -8   21.21    0.90
 -18   1  -9    0.62    0.12
 -18   1  -9    0.33    0.11
 -18  -1  -9    0.51    0.11
 -18  -1  -9    0.32    0.10
 -18  -1  -9    0.33    0.07
 -18   1 -10    1.17    0.13
 -18   1 -10    1.05    0.13
 -18  -1 -10    1.10    0.17
 -18  -1 -10    1.16    0.11
 -18  -1 -10    1.11    0.12
 -18   1 -11    4.61    0.23
 -18   1 -11    4.30    0.24
 -18  -1 -11    4.45    0.23
 -18  -1 -11    4.38    0.23
 -18   1 -12   10.07    0.45
 -18  -1 -12   10.00    0.45
 -18  -1 -12   10.79    0.45
 -18   1 -13   -0.07    0.10
 -18  -1 -13    0.30    0.09
 -18  -1 -13    0.25    0.07
 -18  -1 -14    1.09    0.11
 -18  -1 -14    1.41    0.11
 -18  -1 -15    0.01    0.05
 -18  -1 -15    0.04    0.05
 -18  -1 -16    3.22    0.17
 -18  -1 -16    3.58    0.17
 -18  -1 -17   -0.03    0.04
 -18  -1 -17    0.00    0.05
 -18  -1 -18    1.50    0.09
 -18  -1 -18    1.50    0.10
 -18  -1 -19    0.10    0.04
 -18   2  19    0.18    0.05
 -18   2  18    0.97    0.07
 -18  -2  18    0.90    0.09
 -18   2  17    0.17    0.05
 -18   2  17    0.07    0.06
 -18  -2  17    0.27    0.07
 -18   2  16    5.59    0.24
 -18   2  16    5.03    0.25
 -18  -2  16    5.48    0.25
 -18   2  15    0.70    0.11
  18   2 -15    0.58    0.10
 -18   2  15    0.84    0.07
 -18  -2  15    0.88    0.09
 -18   2  14    0.44    0.07
  18   2 -14    0.47    0.10
 -18  -2  14    0.29    0.09
 -18   2  13    1.56    0.10
  18   2 -13    1.58    0.13
 -18  -2  13    1.48    0.12
  18  -2 -13    1.28    0.14
  18   2 -12    0.28    0.08
 -18   2  12    0.21    0.07
 -18  -2  12    0.11    0.06
  18  -2 -12    0.31    0.09
  18   2 -11    0.15    0.07
 -18   2  11    0.20    0.05
 -18  -2  11    0.12    0.06
  18  -2 -11    0.04    0.09
 -18   2  10    0.30    0.07
  18   2 -10    0.32    0.10
  18  -2 -10    0.47    0.11
 -18  -2  10    0.28    0.10
 -18   2   9    0.27    0.06
  18   2  -9    0.32    0.08
 -18  -2   9    0.40    0.11
  18  -2  -9    0.24    0.08
 -18   2   8   13.17    0.56
  18   2  -8   13.16    0.57
 -18  -2   8   13.55    0.57
  18  -2  -8   13.49    0.57
  18   2  -7    6.49    0.35
 -18   2   7    7.83    0.34
  18  -2  -7    8.32    0.35
 -18  -2   7    8.11    0.36
 -18   2   6    3.95    0.20
  18   2  -6    4.17    0.21
  18  -2  -6    4.00    0.21
 -18  -2   6    3.95    0.22
  18   2  -5    2.62    0.17
 -18   2   5    2.68    0.15
  18  -2  -5    2.59    0.16
 -18  -2   5    2.46    0.17
 -18   2   4    2.18    0.18
  18   2  -4    2.26    0.15
 -18   2   4    2.35    0.14
  18  -2  -4    1.96    0.15
 -18  -2   4    2.22    0.16
 -18   2   3    1.02    0.14
 -18   2   3    1.17    0.13
  18   2  -3    1.03    0.13
 -18   2   3    1.15    0.11
 -18  -2   3    0.90    0.14
 -18  -2   3    1.11    0.13
 -18   2   2    8.93    0.39
 -18   2   2    8.95    0.39
 -18   2   2    9.04    0.39
 -18  -2   2    8.26    0.42
 -18  -2   2    9.08    0.40
 -18  -2   2    8.95    0.40
 -18   2   1    1.03    0.11
 -18   2   1    0.93    0.12
 -18   2   1    0.85    0.12
 -18  -2   1    0.86    0.16
 -18  -2   1    0.73    0.12
 -18  -2   1    0.88    0.12
 -18   2   0    3.09    0.18
 -18   2   0    2.87    0.19
 -18   2   0    3.11    0.17
 -18  -2   0    3.00    0.19
 -18  -2   0    3.04    0.18
 -18  -2   0    2.78    0.20
 -18   2  -1    1.73    0.13
 -18   2  -1    1.71    0.13
 -18  -2  -1    1.85    0.14
 -18  -2  -1    1.71    0.15
 -18  -2  -1    1.73    0.16
 -18   2  -2    5.46    0.26
 -18   2  -2    5.34    0.26
 -18  -2  -2    5.49    0.28
 -18  -2  -2    5.56    0.28
  18  -2   2    5.65    0.28
 -18  -2  -2    5.54    0.27
 -18   2  -3    0.54    0.09
 -18   2  -3    0.42    0.09
  18  -2   3    0.57    0.10
 -18  -2  -3    0.51    0.12
 -18  -2  -3    0.53    0.14
 -18  -2  -3    0.34    0.11
 -18   2  -4    4.02    0.20
 -18   2  -4    3.89    0.20
  18  -2   4    3.67    0.21
 -18  -2  -4    3.85    0.21
 -18  -2  -4    4.22    0.23
 -18  -2  -4    3.86    0.21
 -18   2  -5    0.80    0.10
 -18   2  -5    1.00    0.10
 -18  -2  -5    0.97    0.12
 -18  -2  -5    1.20    0.14
 -18  -2  -5    1.18    0.12
 -18   2  -6    0.12    0.06
 -18   2  -6    0.06    0.05
 -18  -2  -6    0.07    0.06
 -18  -2  -6    0.28    0.10
 -18  -2  -6    0.02    0.08
 -18   2  -7    2.50    0.15
 -18  -2  -7    2.24    0.15
 -18  -2  -7    2.54    0.16
 -18  -2  -7    2.21    0.18
 -18   2  -8    4.90    0.24
 -18   2  -8    5.14    0.25
 -18  -2  -8    5.28    0.26
 -18  -2  -8    5.08    0.27
 -18  -2  -8    5.12    0.25
 -18   2  -9    0.20    0.06
 -18   2  -9    0.18    0.07
 -18  -2  -9    0.25    0.10
 -18  -2  -9    0.19    0.06
 -18  -2  -9    0.14    0.06
 -18   2 -10    6.78    0.31
 -18   2 -10    6.77    0.32
 -18  -2 -10    6.85    0.32
 -18  -2 -10    7.17    0.33
 -18   2 -11    8.05    0.36
 -18   2 -11    8.05    0.36
 -18  -2 -11    7.96    0.36
 -18  -2 -11    7.77    0.36
 -18   2 -12   10.57    0.46
 -18  -2 -12   10.81    0.47
 -18  -2 -12   10.69    0.46
 -18   2 -13    0.54    0.10
 -18  -2 -13    0.41    0.09
 -18  -2 -13    0.38    0.08
 -18  -2 -14    0.06    0.04
 -18  -2 -14    0.08    0.05
 -18  -2 -15    1.93    0.11
 -18  -2 -15    1.88    0.12
 -18  -2 -16    0.30    0.06
 -18  -2 -16    0.22    0.06
 -18  -2 -17    0.27    0.05
 -18  -2 -17    0.32    0.05
 -18  -2 -18    0.16    0.03
 -18  -2 -18    0.16    0.05
 -18   3  17    0.16    0.04
  18   3 -16   -0.02    0.05
 -18   3  16    0.04    0.03
  18   3 -15    0.39    0.07
 -18   3  15    0.49    0.05
 -18   3  14    0.00    0.03
  18   3 -14    0.09    0.04
 -18  -3  14    0.06    0.07
 -18   3  13    0.19    0.04
  18   3 -13    0.17    0.05
 -18  -3  13    0.21    0.07
 -18   3  12    1.47    0.10
  18   3 -12    1.58    0.11
 -18  -3  12    1.45    0.13
  18  -3 -12    1.38    0.14
  18   3 -11    0.36    0.08
 -18   3  11    0.20    0.07
 -18  -3  11    0.44    0.11
  18  -3 -11    0.25    0.09
 -18   3  10    2.61    0.14
  18   3 -10    2.61    0.16
  18  -3 -10    2.20    0.16
 -18  -3  10    2.72    0.17
 -18   3   9    0.02    0.05
  18   3  -9   -0.05    0.06
 -18  -3   9    0.08    0.07
  18  -3  -9   -0.02    0.07
 -18   3   8    0.05    0.05
  18   3  -8   -0.04    0.16
  18   3  -8    0.04    0.06
  18  -3  -8    0.16    0.07
 -18  -3   8    0.03    0.08
  18   3  -7    0.33    0.09
 -18   3   7    0.36    0.09
  18   3  -7    0.54    0.10
  18  -3  -7    0.45    0.10
 -18  -3   7    0.60    0.13
 -18   3   6    0.16    0.06
  18   3  -6    0.43    0.13
  18   3  -6    0.32    0.10
 -18  -3   6    0.21    0.08
  18  -3  -6    0.18    0.07
  18   3  -5    2.14    0.15
  18   3  -5    2.07    0.17
 -18   3   5    2.09    0.17
 -18   3   5    2.00    0.13
 -18  -3   5    2.34    0.17
  18  -3  -5    2.20    0.15
 -18   3   4    3.79    0.21
  18   3  -4    3.81    0.21
 -18   3   4    3.51    0.20
  18  -3  -4    4.08    0.21
 -18  -3   4    3.89    0.22
 -18   3   3    1.23    0.13
  18   3  -3    1.58    0.14
 -18   3   3    1.26    0.19
 -18   3   3    1.45    0.12
 -18  -3   3    1.37    0.15
  18  -3  -3    0.98    0.11
 -18   3   2   35.08    1.48
  18   3  -2   36.43    1.49
 -18   3   2   36.08    1.48
 -18  -3   2   37.21    1.49
  18  -3  -2   38.08    1.48
 -18   3   1   13.05    0.55
  18   3  -1   13.11    0.57
 -18   3   1   12.93    0.56
 -18  -3   1   12.99    0.57
  18  -3  -1   13.22    0.56
  18   3   0    8.73    0.41
 -18   3   0    8.98    0.39
 -18   3   0    8.70    0.40
 -18  -3   0    9.10    0.41
  18  -3   0    9.26    0.40
  18   3   1    2.74    0.20
 -18   3  -1    2.60    0.16
 -18   3  -1    2.74    0.16
 -18  -3  -1    2.58    0.21
  18  -3   1    2.73    0.16
 -18  -3  -1    3.06    0.19
  18   3   2    1.22    0.20
 -18   3  -2    1.40    0.12
 -18   3  -2    1.46    0.12
 -18  -3  -2    1.62    0.16
  18  -3   2    1.63    0.12
 -18  -3  -2    1.24    0.14
 -18   3  -3    1.61    0.12
 -18   3  -3    1.68    0.12
  18  -3   3    1.63    0.13
 -18  -3  -3    1.67    0.15
 -18  -3  -3    1.58    0.16
 -18   3  -4    3.41    0.19
 -18   3  -4    3.21    0.18
 -18  -3  -4    3.79    0.21
 -18  -3  -4    3.40    0.20
  18  -3   4    3.65    0.20
 -18   3  -5    0.03    0.06
 -18   3  -5    0.13    0.06
 -18  -3  -5    0.02    0.07
  18  -3   5    0.01    0.07
 -18  -3  -5    0.05    0.07
 -18   3  -6    5.37    0.26
 -18   3  -6    5.38    0.26
 -18  -3  -6    5.61    0.27
 -18  -3  -6    5.79    0.27
  18  -3   6    5.00    0.27
 -18   3  -7    1.31    0.11
 -18   3  -7    1.36    0.12
  18  -3   7    1.19    0.13
 -18  -3  -7    1.63    0.13
 -18  -3  -7    1.51    0.13
 -18   3  -8    0.10    0.05
 -18   3  -8    0.16    0.06
  18  -3   8    0.10    0.08
 -18  -3  -8    0.08    0.06
 -18  -3  -8    0.06    0.06
 -18   3  -9    0.03    0.06
 -18   3  -9    0.08    0.05
 -18  -3  -9    0.08    0.06
 -18  -3  -9    0.02    0.06
  18  -3   9    0.02    0.08
 -18   3 -10    1.70    0.13
  18   3  10    1.69    0.17
 -18   3 -10    1.66    0.12
 -18  -3 -10    1.55    0.13
 -18  -3 -10    1.62    0.12
 -18   3 -11   -0.01    0.05
 -18   3 -11    0.05    0.06
 -18  -3 -11    0.05    0.04
 -18  -3 -11   -0.01    0.05
 -18   3 -12    0.02    0.07
 -18   3 -12    0.02    0.05
 -18  -3 -12   -0.03    0.04
 -18  -3 -12   -0.02    0.04
 -18   3 -13    1.47    0.10
  18  -3  13    1.40    0.15
 -18  -3 -13    1.40    0.10
 -18  -3 -13    1.44    0.10
 -18   3 -14    3.62    0.17
 -18  -3 -14    3.49    0.17
 -18  -3 -14    3.50    0.17
 -18   3 -15    0.71    0.08
 -18  -3 -15    0.59    0.06
 -18  -3 -15    0.59    0.06
 -18  -3 -16    2.23    0.11
 -18  -3 -16    2.31    0.11
  18   4 -13    0.34    0.05
 -18   4  12    0.07    0.05
  18   4 -12    0.15    0.04
 -18   4  11    0.32    0.07
  18   4 -11    0.47    0.06
 -18   4  10    0.53    0.08
  18   4 -10    0.55    0.07
  18   4  -9    0.16    0.05
 -18   4   9    0.18    0.06
  18  -4  -9    0.38    0.12
  18   4  -8    1.60    0.11
  18  -4  -8    1.57    0.14
  18   4  -7    0.87    0.09
  18   4  -7    0.85    0.10
  18  -4  -7    0.62    0.11
  18   4  -6    0.35    0.09
  18   4  -6    0.58    0.09
  18  -4  -6    0.44    0.10
 -18   4   5    2.01    0.16
  18   4  -5    1.97    0.13
  18   4  -5    2.12    0.14
  18  -4  -5    1.98    0.14
 -18   4   4    0.03    0.06
  18   4  -4    0.01    0.06
  18   4  -4    0.04    0.06
  18  -4  -4    0.02    0.07
 -18   4   3    1.48    0.12
  18   4  -3    1.46    0.12
  18   4  -3    1.64    0.13
  18  -4  -3    1.31    0.12
 -18   4   2    0.06    0.06
  18   4  -2    0.12    0.07
  18  -4  -2    0.16    0.07
 -18  -4   2   -0.01    0.10
 -18   4   1    4.15    0.20
  18   4  -1    3.86    0.22
  18   4  -1    4.44    0.22
 -18  -4   1    3.91    0.24
  18  -4  -1    3.69    0.21
 -18   4   0    4.43    0.22
  18   4   0    4.74    0.23
 -18   4   0    4.62    0.22
  18   4   0    3.85    0.27
 -18  -4   0    4.39    0.25
  18  -4   0    4.16    0.22
 -18   4  -1    0.13    0.05
  18   4   1    0.01    0.06
 -18   4  -1    0.02    0.06
 -18  -4  -1    0.10    0.09
  18  -4   1   -0.06    0.07
  18   4   2    2.57    0.17
 -18   4  -2    2.82    0.15
 -18   4  -2    2.72    0.16
  18  -4   2    2.65    0.16
 -18  -4  -2    2.36    0.18
  18   4   3    0.27    0.10
 -18   4  -3    0.34    0.08
 -18   4  -3    0.27    0.09
  18  -4   3    0.15    0.07
 -18  -4  -3    0.18    0.08
 -18   4  -4    0.94    0.09
  18   4   4    0.84    0.11
 -18   4  -4    0.86    0.09
  18  -4   4    0.68    0.11
 -18  -4  -4    0.83    0.12
 -18   4  -5    0.12    0.05
 -18   4  -5    0.14    0.05
  18   4   5    0.17    0.07
 -18  -4  -5    0.11    0.07
  18  -4   5    0.17    0.07
  18   4   6    0.30    0.10
 -18   4  -6    0.42    0.08
 -18   4  -6    0.35    0.07
 -18  -4  -6    0.44    0.11
  18  -4   6    0.44    0.10
 -18  -4  -6    0.53    0.10
 -18   4  -7    0.77    0.08
  18   4   7    0.68    0.11
 -18   4  -7    0.65    0.08
 -18  -4  -7    0.64    0.11
  18  -4   7    0.63    0.11
 -18  -4  -7    0.53    0.10
 -18   4  -8    0.50    0.08
 -18   4  -8    0.51    0.07
  18   4   8    0.46    0.11
 -18  -4  -8    0.57    0.09
  18  -4   8    0.65    0.11
 -18  -4  -8    0.67    0.10
 -18   4  -9    0.30    0.07
  18   4   9    0.25    0.08
 -18   4  -9    0.13    0.04
 -18  -4  -9    0.17    0.05
 -18  -4  -9    0.13    0.06
  18  -4   9    0.11    0.09
 -18   4 -10    0.18    0.06
 -18   4 -10    0.11    0.05
 -18  -4 -10    0.14    0.05
 -18  -4 -10    0.24    0.06
  18  -4  10    0.27    0.10
 -18   4 -11    0.01    0.03
 -18   4 -11    0.00    0.05
 -18  -4 -11   -0.05    0.04
 -18  -4 -11    0.00    0.05
 -18   4 -12    0.45    0.06
 -18  -4 -12    0.46    0.06
 -18  -4 -12    0.45    0.07
 -18   4 -13    1.01    0.07
  18   5  -5    0.68    0.08
  18   5  -4    0.32    0.07
 -18   5   3   -0.04    0.07
  18   5  -3    0.06    0.04
 -18   5   2    0.67    0.09
  18   5  -2    0.53    0.07
  18   5  -1    0.22    0.06
 -18   5   1    0.08    0.05
 -18   5   0    0.04    0.04
  18   5   0    0.06    0.04
  18   5   1    0.08    0.04
 -18   5  -1    0.08    0.04
  18   5   2    0.20    0.06
 -18   5  -2    0.22    0.06
  18   5   3    0.46    0.07
 -18   5  -3    0.45    0.06
 -18   5  -4    0.02    0.03
  18   5   4    0.03    0.04
 -18   5  -5    0.01    0.07
  18   5   5    0.03    0.05
 -18   5  -5    0.07    0.03
 -18   5  -6    0.23    0.05
 -18   5  -7    0.15    0.05
 -19   0  20    0.14    0.04
 -19   0  19    0.03    0.03
 -19   0  18    0.80    0.08
 -19   0  16    0.15    0.06
 -19   0  16    0.11    0.05
 -19   0  15   -0.02    0.05
 -19   0  15    0.02    0.06
 -19   0  14    0.33    0.09
 -19   0  13   -0.05    0.05
 -19   0  12    1.34    0.11
 -19   0  11   -0.09    0.05
  19   0 -10    0.54    0.16
 -19   0  10    0.38    0.09
 -19   0   9    0.03    0.05
 -19   0   8    5.33    0.25
 -19   0   8    5.42    0.26
 -19   0   7   -0.05    0.07
 -19   0   7   -0.01    0.05
 -19   0   6    0.92    0.10
 -19   0   6    1.00    0.12
 -19   0   6    1.16    0.13
 -19   0   5    0.03    0.05
 -19   0   5   -0.02    0.07
 -19   0   5    0.01    0.07
  19   0  -3    0.09    0.07
  19   0  -2   18.90    0.80
  19   0  -1    0.04    0.07
  19   0   0   37.71    1.54
  19   0   1    0.01    0.07
  19   0   2    0.02    0.07
  19   0   3   -0.01    0.07
  19   0   4    2.37    0.18
 -19   0  -4    2.31    0.15
 -19   0  -5   -0.06    0.07
 -19   0  -5   -0.03    0.07
  19   0   5   -0.04    0.10
 -19   0  -6    0.82    0.16
 -19   0  -6    1.12    0.14
 -19   0  -6    1.34    0.12
 -19   0  -6    1.21    0.13
 -19   0  -7    0.15    0.08
 -19   0  -7    0.08    0.07
 -19   0  -7   -0.01    0.06
 -19   0  -7    0.10    0.08
 -19   0  -8    2.18    0.18
 -19   0  -8    2.32    0.18
 -19   0  -8    2.37    0.16
 -19   0  -8    2.43    0.16
 -19   0  -9    0.02    0.08
 -19   0  -9    0.08    0.08
 -19   0  -9   -0.08    0.07
 -19   0 -10   20.05    0.82
 -19   0 -10   19.40    0.82
 -19   0 -10   19.27    0.81
 -19   0 -11    0.05    0.07
 -19   0 -11    0.10    0.07
 -19   0 -11    0.17    0.09
 -19   0 -12    3.78    0.21
 -19   0 -12    4.09    0.22
 -19   0 -13    0.10    0.07
 -19   0 -13    0.10    0.07
 -19   0 -14    0.45    0.09
 -19   0 -15    0.02    0.05
 -19   0 -16    0.01    0.06
 -19   1  19    0.00    0.07
 -19   1  19    0.07    0.04
 -19  -1  19    0.09    0.04
 -19   1  18    1.44    0.10
 -19   1  18    1.49    0.09
 -19  -1  18    1.49    0.10
 -19   1  17    0.31    0.06
 -19   1  17    0.21    0.07
 -19  -1  17    0.39    0.07
 -19   1  16   -0.05    0.05
 -19   1  16    0.02    0.04
 -19  -1  16    0.01    0.05
 -19   1  15    0.04    0.05
 -19  -1  15    0.07    0.05
 -19   1  14    0.14    0.05
 -19  -1  14    0.13    0.06
  19   1 -13    0.47    0.10
 -19   1  13    0.46    0.08
 -19  -1  13    0.47    0.10
  19   1 -12    1.44    0.16
 -19   1  12    1.35    0.10
 -19  -1  12    1.54    0.13
  19   1 -11    0.07    0.09
 -19   1  11   -0.02    0.04
 -19  -1  11   -0.01    0.06
  19   1 -10    0.17    0.08
 -19   1  10    0.06    0.05
 -19  -1  10   -0.01    0.09
 -19  -1  10    0.07    0.06
  19   1  -9    0.41    0.12
 -19   1   9    0.22    0.07
 -19  -1   9    0.22    0.06
 -19  -1   9    0.36    0.09
 -19   1   8    1.75    0.11
  19   1  -8    1.67    0.15
 -19  -1   8    1.72    0.16
 -19  -1   8    1.90    0.14
 -19   1   7    0.55    0.18
 -19   1   7    0.86    0.15
 -19   1   7    0.65    0.08
 -19  -1   7    0.78    0.14
 -19  -1   7    0.72    0.11
 -19   1   6    2.43    0.19
 -19   1   6    2.59    0.19
 -19   1   6    2.45    0.14
 -19  -1   6    2.50    0.17
 -19  -1   6    2.73    0.16
 -19   1   5    0.68    0.14
 -19   1   5    0.88    0.09
 -19  -1   5    0.86    0.12
 -19  -1   5    1.14    0.13
  19   1  -4    1.81    0.22
 -19   1   4    1.45    0.11
 -19  -1   4    1.27    0.13
 -19  -1   4    1.35    0.13
 -19   1   3   12.32    0.53
  19   1  -3   12.86    0.58
 -19  -1   3   12.63    0.54
 -19   1   2    5.37    0.25
  19   1  -2    5.70    0.30
 -19  -1   2    5.74    0.26
 -19  -1   2    5.59    0.27
 -19  -1   1    1.64    0.14
  19  -1  -1    2.13    0.18
 -19  -1   1    1.97    0.15
  19   1   0    1.29    0.15
  19  -1   0    1.31    0.16
 -19   1  -1    0.29    0.10
  19   1   1    0.21    0.08
 -19   1  -1    0.34    0.12
 -19  -1  -1    0.19    0.07
 -19  -1  -1    0.32    0.11
  19  -1   1    0.11    0.08
 -19  -1  -1    0.00    0.07
 -19   1  -2   -0.05    0.06
 -19   1  -2    0.11    0.06
 -19  -1  -2    0.01    0.07
 -19  -1  -2   -0.12    0.07
  19  -1   2   -0.10    0.09
 -19  -1  -2    0.05    0.07
 -19   1  -3    0.79    0.11
 -19   1  -3    0.85    0.11
 -19  -1  -3    1.01    0.14
 -19  -1  -3    0.84    0.11
 -19  -1  -3    1.15    0.13
 -19   1  -4    2.80    0.17
 -19   1  -4    3.03    0.17
 -19  -1  -4    2.91    0.18
 -19  -1  -4    3.08    0.17
 -19  -1  -4    2.85    0.19
 -19   1  -5    0.88    0.11
 -19   1  -5    0.64    0.16
 -19   1  -5    0.76    0.10
 -19  -1  -5    0.68    0.12
 -19  -1  -5    0.90    0.13
 -19  -1  -5    0.99    0.11
 -19   1  -6   19.94    0.81
 -19   1  -6   18.26    0.82
 -19   1  -6   20.15    0.81
 -19  -1  -6   20.32    0.82
 -19  -1  -6   20.00    0.82
 -19  -1  -6   19.37    0.82
 -19   1  -7    0.23    0.07
 -19   1  -7    0.31    0.10
 -19  -1  -7    0.17    0.07
 -19  -1  -7    0.23    0.06
 -19  -1  -7    0.29    0.08
 -19   1  -8    8.14    0.37
 -19   1  -8    8.29    0.37
 -19  -1  -8    8.80    0.38
 -19  -1  -8    8.29    0.38
 -19  -1  -8    8.28    0.38
 -19   1  -9    0.16    0.07
 -19   1  -9    0.37    0.10
 -19  -1  -9    0.31    0.10
 -19  -1  -9    0.43    0.14
 -19   1 -10    2.32    0.16
 -19   1 -10    2.18    0.16
 -19  -1 -10    2.23    0.15
 -19  -1 -10    2.41    0.15
 -19  -1 -10    2.01    0.19
 -19   1 -11    5.37    0.27
 -19   1 -11    5.50    0.28
 -19  -1 -11    5.59    0.27
 -19  -1 -11    5.40    0.26
 -19   1 -12    2.35    0.18
 -19  -1 -12    2.50    0.16
 -19  -1 -12    2.61    0.15
 -19  -1 -13    0.52    0.10
 -19  -1 -13    0.35    0.09
 -19  -1 -14    4.66    0.23
 -19  -1 -14    4.72    0.23
 -19  -1 -15    0.01    0.05
 -19  -1 -15    0.03    0.05
 -19  -1 -16    6.51    0.29
 -19  -1 -16    6.84    0.29
 -19  -1 -17   -0.04    0.04
 -19  -1 -17    0.02    0.04
 -19  -1 -18    0.49    0.06
 -19  -1 -18    0.34    0.08
 -19  -1 -19    0.34    0.06
 -19   2  18    1.18    0.07
 -19  -2  18    1.13    0.09
 -19   2  17    0.19    0.05
 -19  -2  17    0.29    0.07
 -19   2  16    1.01    0.07
 -19   2  16    0.88    0.11
 -19  -2  16    0.98    0.09
 -19   2  15    0.14    0.07
 -19   2  15    0.09    0.04
  19   2 -15    0.03    0.06
 -19  -2  15    0.21    0.08
 -19   2  14    0.01    0.04
 -19   2  14    0.02    0.07
  19   2 -14    0.09    0.06
 -19  -2  14   -0.09    0.05
  19   2 -13    0.88    0.11
 -19   2  13    0.54    0.08
 -19  -2  13    0.75    0.10
 -19   2  12    0.11    0.10
 -19   2  12    0.02    0.05
  19   2 -12    0.11    0.07
 -19  -2  12    0.11    0.06
  19   2 -11    0.09    0.06
 -19   2  11    0.09    0.05
 -19  -2  11    0.12    0.06
 -19   2  10    0.12    0.05
  19   2 -10    0.17    0.07
 -19  -2  10    0.28    0.10
  19   2  -9    2.16    0.16
 -19   2   9    2.17    0.13
 -19  -2   9    2.18    0.15
  19   2  -8    6.28    0.31
 -19   2   8    6.53    0.29
 -19  -2   8    6.32    0.30
 -19   2   7    1.33    0.10
  19   2  -7    1.17    0.13
 -19  -2   7    1.38    0.13
  19   2  -6    0.33    0.11
 -19   2   6   -0.04    0.05
 -19  -2   6   -0.05    0.06
  19   2  -5    0.48    0.10
 -19   2   5    0.21    0.06
 -19  -2   5    0.23    0.07
  19   2  -4   25.89    1.06
 -19   2   4   26.46    1.05
 -19   2   4   25.52    1.06
 -19   2   4   24.99    1.06
 -19  -2   4   26.76    1.07
 -19   2   3    3.84    0.19
 -19   2   3    3.70    0.21
  19   2  -3    3.80    0.21
 -19   2   3    3.75    0.21
 -19  -2   3    3.93    0.25
 -19  -2   3    4.01    0.21
 -19  -2   3    3.73    0.22
 -19   2   2   11.01    0.49
 -19   2   2   11.48    0.49
 -19   2   2   11.59    0.48
 -19  -2   2   11.44    0.50
 -19  -2   2   11.45    0.50
 -19  -2   2   10.99    0.51
 -19   2   1    4.41    0.23
 -19   2   1    4.36    0.23
 -19   2   1    4.55    0.23
 -19  -2   1    4.41    0.25
 -19  -2   1    4.57    0.24
 -19  -2   1    4.45    0.24
 -19   2   0    0.77    0.13
 -19   2   0    0.82    0.12
 -19   2   0    0.73    0.11
 -19  -2   0    0.75    0.11
 -19  -2   0    0.96    0.13
 -19  -2   0    0.92    0.14
 -19   2  -1    0.40    0.09
 -19   2  -1    0.25    0.07
 -19  -2  -1    0.53    0.11
 -19  -2  -1    0.23    0.08
 -19  -2  -1    0.23    0.08
 -19   2  -2    0.56    0.09
 -19   2  -2    0.44    0.09
 -19  -2  -2    0.49    0.13
 -19  -2  -2    0.55    0.12
 -19  -2  -2    0.55    0.12
 -19   2  -3    0.07    0.05
 -19   2  -3    0.08    0.06
 -19  -2  -3    0.19    0.07
 -19  -2  -3   -0.04    0.08
 -19  -2  -3   -0.08    0.06
 -19   2  -4    5.09    0.24
 -19   2  -4    5.06    0.24
 -19  -2  -4    4.97    0.26
 -19  -2  -4    5.14    0.27
 -19  -2  -4    4.88    0.25
 -19   2  -5    0.29    0.09
 -19   2  -5    0.37    0.09
 -19  -2  -5    0.50    0.13
 -19  -2  -5    0.33    0.10
 -19  -2  -5    0.43    0.11
 -19   2  -6    2.18    0.15
 -19  -2  -6    2.33    0.17
 -19  -2  -6    2.23    0.15
 -19  -2  -6    2.12    0.15
 -19   2  -7    4.61    0.23
 -19   2  -7    4.41    0.22
 -19  -2  -7    4.72    0.24
 -19  -2  -7    4.49    0.25
 -19  -2  -7    4.57    0.23
 -19   2  -8    2.53    0.15
 -19   2  -8    2.59    0.16
 -19  -2  -8    2.73    0.17
 -19  -2  -8    2.57    0.19
 -19  -2  -8    2.75    0.16
 -19   2  -9    0.64    0.11
 -19   2  -9    0.78    0.10
 -19  -2  -9    0.56    0.10
 -19  -2  -9    0.65    0.11
 -19   2 -10   10.82    0.49
 -19   2 -10   11.43    0.49
 -19  -2 -10   11.98    0.50
 -19  -2 -10   11.19    0.49
 -19   2 -11    0.51    0.12
 -19   2 -11    0.40    0.10
 -19  -2 -11    0.29    0.07
 -19  -2 -11    0.47    0.09
 -19   2 -12    4.17    0.21
 -19  -2 -12    3.97    0.21
 -19  -2 -12    4.16    0.21
 -19   2 -13    0.24    0.06
 -19  -2 -13    0.18    0.05
 -19  -2 -13    0.28    0.09
 -19   2 -14    0.49    0.09
 -19  -2 -14    0.37    0.07
 -19  -2 -14    0.42    0.07
 -19  -2 -15    1.48    0.10
 -19  -2 -15    1.47    0.10
 -19  -2 -16    0.02    0.04
 -19  -2 -16    0.02    0.03
 -19  -2 -17    0.42    0.06
 -19  -2 -17    0.40    0.05
 -19  -2 -18    0.39    0.06
 -19  -2 -18    0.61    0.05
 -19   3  16    0.65    0.05
  19   3 -15    0.12    0.04
 -19   3  15    0.01    0.03
  19   3 -14    0.71    0.08
 -19   3  14    0.66    0.06
 -19  -3  14    0.99    0.12
 -19   3  13    0.25    0.06
  19   3 -13    0.14    0.05
 -19  -3  13    0.22    0.07
  19   3 -12    0.02    0.05
 -19   3  12    0.02    0.04
 -19  -3  12    0.05    0.06
 -19   3  11    2.14    0.12
  19   3 -11    2.25    0.14
 -19  -3  11    2.23    0.15
  19   3 -10    0.11    0.06
 -19   3  10    0.25    0.07
 -19  -3  10    0.12    0.07
  19  -3 -10    0.28    0.10
  19   3  -9    0.64    0.10
 -19   3   9    0.83    0.09
  19  -3  -9    0.79    0.12
 -19  -3   9    1.04    0.13
 -19   3   8    0.29    0.07
  19   3  -8    0.25    0.07
 -19  -3   8    0.21    0.07
  19  -3  -8    0.29    0.09
  19   3  -7    1.46    0.13
  19   3  -7    1.57    0.16
 -19   3   7    1.45    0.11
  19  -3  -7    1.25    0.13
 -19  -3   7    1.77    0.15
  19   3  -6    1.58    0.15
  19   3  -6    1.41    0.13
 -19   3   6    1.30    0.11
 -19  -3   6    1.58    0.15
  19  -3  -6    1.24    0.13
  19   3  -5   13.32    0.58
  19   3  -5   13.57    0.58
 -19   3   5   13.06    0.56
 -19   3   5   12.96    0.58
  19  -3  -5   14.02    0.57
 -19  -3   5   13.61    0.58
 -19   3   4    6.90    0.32
 -19   3   4    6.90    0.33
  19   3  -4    7.38    0.34
  19  -3  -4    7.35    0.33
 -19  -3   4    7.14    0.34
 -19   3   3    0.37    0.08
 -19   3   3    0.60    0.11
 -19   3   3    0.36    0.10
  19  -3  -3    0.36    0.10
 -19  -3   3    0.46    0.13
  19   3  -2    0.43    0.13
  19  -3  -2    0.48    0.11
 -19  -3   2    0.51    0.13
  19   3  -1    0.75    0.14
 -19   3   1    0.42    0.10
 -19   3   1    0.43    0.12
  19  -3  -1    0.64    0.11
 -19  -3   1    0.46    0.13
 -19   3   0    8.59    0.38
 -19   3   0    8.61    0.39
  19   3   0    8.54    0.40
  19  -3   0    9.01    0.39
 -19  -3   0    8.75    0.40
 -19   3  -1    6.85    0.31
 -19   3  -1    6.67    0.31
  19   3   1    6.52    0.33
 -19  -3  -1    6.84    0.33
  19  -3   1    6.65    0.31
 -19  -3  -1    6.54    0.33
 -19   3  -2    4.36    0.23
  19   3   2    4.45    0.27
 -19   3  -2    4.68    0.23
 -19  -3  -2    4.58    0.25
  19  -3   2    4.78    0.24
 -19  -3  -2    5.05    0.26
 -19   3  -3    0.00    0.05
 -19   3  -3    0.05    0.06
 -19  -3  -3    0.06    0.07
  19  -3   3    0.10    0.07
 -19   3  -4    3.25    0.18
 -19   3  -4    3.15    0.18
  19  -3   4    2.97    0.19
 -19  -3  -4    3.24    0.20
 -19  -3  -4    3.37    0.20
 -19   3  -5    1.94    0.13
 -19   3  -5    1.93    0.13
 -19  -3  -5    2.12    0.15
  19  -3   5    2.08    0.15
 -19  -3  -5    1.67    0.15
 -19   3  -6    1.60    0.12
 -19   3  -6    1.48    0.12
 -19  -3  -6    1.68    0.14
 -19  -3  -6    1.68    0.13
  19  -3   6    1.55    0.14
 -19   3  -7    0.12    0.06
 -19   3  -7    0.02    0.06
  19  -3   7    0.10    0.08
 -19  -3  -7   -0.02    0.06
 -19  -3  -7    0.11    0.06
 -19   3  -8    1.08    0.11
 -19   3  -8    0.94    0.10
 -19  -3  -8    1.07    0.12
  19  -3   8    0.94    0.13
 -19  -3  -8    1.08    0.11
 -19   3  -9    1.48    0.12
 -19   3  -9    1.44    0.12
 -19  -3  -9    1.77    0.12
 -19  -3  -9    1.66    0.13
  19  -3   9    1.42    0.15
 -19   3 -10    0.08    0.06
  19   3  10    0.23    0.10
 -19   3 -10    0.10    0.05
 -19  -3 -10    0.03    0.05
 -19  -3 -10    0.00    0.05
  19  -3  10    0.14    0.09
 -19   3 -11    0.51    0.09
 -19   3 -11    0.53    0.08
 -19  -3 -11    0.46    0.08
  19  -3  11    0.44    0.13
 -19  -3 -11    0.67    0.08
 -19   3 -12    1.82    0.11
 -19   3 -12    1.74    0.13
 -19  -3 -12    1.53    0.11
 -19  -3 -12    1.44    0.11
  19  -3  12    1.57    0.19
 -19   3 -13    0.17    0.05
 -19  -3 -13    0.06    0.04
 -19  -3 -13    0.08    0.04
 -19   3 -14    5.47    0.24
 -19  -3 -14    5.43    0.24
 -19  -3 -14    5.46    0.24
 -19   3 -15    0.00    0.05
 -19  -3 -15    0.04    0.03
 -19  -3 -15    0.00    0.03
 -19  -3 -16    0.64    0.05
 -19  -3 -16    0.51    0.05
  19   4 -13    0.06    0.03
 -19   4  12    0.35    0.08
  19   4 -12    0.30    0.05
  19   4 -11    0.26    0.06
 -19   4  11    0.26    0.08
 -19   4  10    1.64    0.11
  19   4 -10    1.65    0.10
 -19   4   9    0.50    0.09
  19   4  -9    0.60    0.07
  19   4  -8    2.06    0.13
  19   4  -7    2.23    0.13
  19   4  -7    2.20    0.14
  19  -4  -7    2.20    0.17
  19   4  -6    0.25    0.08
  19   4  -6    0.09    0.06
  19  -4  -6    0.14    0.09
  19   4  -5    0.48    0.09
  19   4  -5    0.47    0.09
 -19   4   5    0.30    0.09
  19  -4  -5    0.45    0.11
  19   4  -4    0.02    0.06
  19   4  -4   -0.01    0.06
 -19   4   4   -0.13    0.07
  19  -4  -4   -0.07    0.09
  19   4  -3    0.16    0.06
 -19  -4   3    0.19    0.10
  19  -4  -3    0.13    0.08
  19   4  -2    0.33    0.09
  19   4  -2    0.02    0.07
 -19   4   2    0.08    0.05
  19  -4  -2   -0.06    0.08
 -19  -4   2    0.02    0.09
  19   4  -1    1.70    0.13
 -19   4   1    1.56    0.11
  19   4  -1    1.49    0.14
  19  -4  -1    1.24    0.13
 -19  -4   1    1.50    0.16
  19   4   0    2.18    0.15
 -19   4   0    2.07    0.14
  19   4   0    1.96    0.25
 -19   4   0    2.17    0.13
 -19  -4   0    2.06    0.17
  19  -4   0    1.85    0.15
 -19   4  -1    0.09    0.06
  19   4   1    0.06    0.06
 -19   4  -1    0.04    0.05
  19  -4   1    0.00    0.08
 -19  -4  -1    0.06    0.08
  19   4   2    1.26    0.12
 -19   4  -2    1.13    0.11
 -19   4  -2    1.15    0.10
 -19  -4  -2    1.17    0.13
  19  -4   2    0.91    0.12
  19   4   3    0.05    0.06
 -19   4  -3   -0.01    0.05
 -19   4  -3    0.01    0.05
  19  -4   3    0.03    0.08
 -19  -4  -3    0.08    0.08
 -19   4  -4    0.00    0.05
  19   4   4    0.08    0.06
 -19   4  -4    0.04    0.05
 -19  -4  -4    0.08    0.07
  19  -4   4   -0.07    0.08
 -19   4  -5    0.44    0.07
 -19   4  -5    0.44    0.08
  19   4   5    0.28    0.10
  19  -4   5    0.36    0.11
 -19  -4  -5    0.34    0.10
  19   4   6    0.53    0.10
 -19   4  -6    0.35    0.08
 -19   4  -6    0.49    0.08
 -19  -4  -6    0.24    0.08
  19  -4   6    0.46    0.11
 -19  -4  -6    0.36    0.10
  19   4   7    0.29    0.10
 -19   4  -7    0.23    0.07
 -19   4  -7    0.15    0.05
  19  -4   7    0.18    0.09
 -19  -4  -7    0.05    0.06
 -19  -4  -7    0.17    0.07
  19   4   8    0.44    0.10
 -19   4  -8    0.52    0.07
 -19   4  -8    0.51    0.07
 -19  -4  -8    0.59    0.09
 -19  -4  -8    0.69    0.09
  19  -4   8    0.67    0.13
 -19   4  -9    0.10    0.05
 -19   4  -9    0.22    0.06
  19   4   9    0.10    0.08
 -19  -4  -9    0.05    0.05
 -19  -4  -9    0.04    0.05
 -19   4 -10    0.83    0.07
 -19   4 -10    0.78    0.08
 -19  -4 -10    0.68    0.08
 -19  -4 -10    0.60    0.08
 -19   4 -11    1.82    0.10
 -19   4 -11    2.11    0.12
 -19  -4 -11    1.63    0.10
 -19  -4 -11    1.58    0.11
 -19   4 -12    3.66    0.15
 -19  -4 -12    3.08    0.15
 -19  -4 -12    3.08    0.15
 -19   4 -13   -0.04    0.03
  19   5  -5    0.08    0.07
  19   5  -4    0.70    0.07
  19   5  -3    0.35    0.07
 -19   5   2    0.11    0.05
  19   5  -2    0.22    0.06
  19   5  -1    0.42    0.07
 -19   5   1    0.41    0.08
 -19   5   0    0.11    0.04
  19   5   0    0.10    0.04
 -19   5  -1    0.59    0.07
  19   5   1    0.61    0.07
  19   5   2    0.17    0.06
 -19   5  -2    0.07    0.04
 -19   5  -3    0.16    0.05
  19   5   3    0.01    0.04
  19   5   4    0.18    0.06
 -19   5  -4    0.27    0.05
  19   5   5    0.11    0.05
 -19   5  -5    0.14    0.05
 -19   5  -6    0.44    0.06
 -20   0  20    1.50    0.09
 -20   0  19    0.01    0.03
 -20   0  18    0.03    0.04
 -20   0  17    0.04    0.04
 -20   0  16    0.11    0.05
 -20   0  16   -0.04    0.06
 -20   0  15    0.01    0.05
 -20   0  15    0.11    0.06
 -20   0  14    7.62    0.34
 -20   0  14    8.02    0.35
 -20   0  13   -0.05    0.06
 -20   0  13    0.04    0.06
 -20   0  12    0.98    0.10
 -20   0  12    0.97    0.11
 -20   0  11   -0.07    0.05
 -20   0  11    0.00    0.07
 -20   0  10    0.40    0.08
 -20   0  10    0.54    0.09
  20   0 -10    0.54    0.16
 -20   0   9   -0.07    0.06
 -20   0   9    0.00    0.05
 -20   0   8    0.02    0.05
 -20   0   8   -0.05    0.06
 -20   0   7    0.01    0.05
 -20   0   7    0.05    0.07
 -20   0   6    0.42    0.11
 -20   0   6    0.51    0.12
 -20   0   6    0.41    0.06
 -20   0   5    0.10    0.07
 -20   0   5    0.06    0.05
 -20   0   5   -0.05    0.07
 -20   0   4    0.81    0.13
 -20   0   4    0.69    0.11
 -20   0   4    0.57    0.09
 -20   0   3   -0.04    0.06
  20   0  -3    0.25    0.09
 -20   0   3    0.01    0.06
  20   0  -2   17.68    0.71
 -20   0   2   15.10    0.68
  20   0  -1    0.06    0.08
  20   0   0    1.18    0.15
  20   0   1   -0.03    0.08
  20   0   2    5.71    0.29
 -20   0  -2    5.32    0.26
  20   0   3    0.14    0.09
 -20   0  -3    0.02    0.06
 -20   0  -3    0.02    0.06
 -20   0  -3    0.01    0.07
 -20   0  -4    0.47    0.11
  20   0   4    0.25    0.11
 -20   0  -4    0.36    0.11
 -20   0  -4    0.43    0.11
 -20   0  -5    0.06    0.07
  20   0   5    0.01    0.12
 -20   0  -5    0.00    0.12
 -20   0  -5    0.03    0.06
 -20   0  -5    0.00    0.07
 -20   0  -6   11.68    0.51
 -20   0  -6   11.41    0.52
 -20   0  -6   12.63    0.51
 -20   0  -6   12.05    0.51
 -20   0  -7   -0.11    0.08
 -20   0  -7   -0.01    0.06
 -20   0  -7   -0.03    0.06
 -20   0  -7    0.09    0.08
 -20   0  -8    2.99    0.18
 -20   0  -8    3.12    0.18
 -20   0  -8    2.97    0.20
 -20   0  -8    3.10    0.20
 -20   0  -9    0.01    0.08
 -20   0  -9    0.08    0.08
 -20   0  -9    0.08    0.07
 -20   0  -9    0.14    0.09
 -20   0 -10   87.21    3.53
 -20   0 -10   88.26    3.53
 -20   0 -10   89.41    3.52
 -20   0 -11    0.15    0.07
 -20   0 -11    0.05    0.09
 -20   0 -11    0.08    0.07
 -20   0 -12   18.19    0.75
 -20   0 -12   18.02    0.75
 -20   0 -13   -0.07    0.07
 -20   0 -13    0.03    0.07
 -20   0 -14    0.17    0.06
 -20   0 -15    0.13    0.06
 -20   0 -16    0.04    0.06
 -20   1  19    0.07    0.04
 -20  -1  19    0.17    0.05
 -20   1  18    3.03    0.14
 -20   1  18    2.68    0.14
 -20  -1  18    2.90    0.14
 -20   1  17    0.07    0.05
 -20   1  17    0.04    0.04
 -20   1  16    0.09    0.05
 -20   1  16    0.24    0.06
 -20  -1  16    0.18    0.05
 -20   1  15    0.41    0.07
 -20   1  15    0.65    0.09
 -20  -1  15    0.54    0.09
 -20   1  14    0.01    0.06
 -20   1  14    0.00    0.04
 -20  -1  14   -0.07    0.05
  20   1 -13    0.18    0.09
 -20   1  13    0.17    0.05
 -20  -1  13    0.19    0.06
  20   1 -12    0.03    0.08
 -20  -1  12    0.06    0.05
 -20   1  11    0.05    0.05
  20   1 -11    0.10    0.09
 -20  -1  11    0.12    0.06
  20   1 -10    0.60    0.10
 -20   1  10    0.42    0.08
 -20  -1  10    0.48    0.10
 -20  -1  10    0.55    0.14
 -20   1   9    0.47    0.08
  20   1  -9    0.46    0.11
 -20  -1   9    0.42    0.09
 -20  -1   9    0.31    0.10
 -20   1   8    0.82    0.09
  20   1  -8    0.84    0.12
 -20   1   8    0.87    0.15
 -20  -1   8    0.71    0.14
 -20  -1   8    0.92    0.11
 -20   1   7    0.14    0.09
 -20   1   7    0.28    0.10
 -20   1   7    0.24    0.05
 -20  -1   7    0.39    0.12
 -20  -1   7    0.32    0.10
 -20   1   6    5.95    0.29
 -20   1   6    5.66    0.31
 -20   1   6    6.37    0.27
 -20  -1   6    5.97    0.29
 -20  -1   6    6.33    0.29
 -20   1   5    0.97    0.09
 -20   1   5    0.92    0.14
 -20  -1   5    0.89    0.11
 -20  -1   5    0.92    0.12
 -20  -1   5    0.77    0.13
 -20   1   4   -0.07    0.08
 -20   1   4    0.06    0.05
 -20  -1   4   -0.02    0.06
 -20  -1   4   -0.01    0.06
 -20  -1   4    0.00    0.10
 -20   1   3   -0.04    0.07
  20   1  -3    0.22    0.13
 -20   1   3   -0.02    0.05
 -20  -1   3    0.08    0.06
 -20  -1   3    0.01    0.08
 -20  -1   3    0.02    0.06
 -20   1   2    0.68    0.10
  20   1  -2    0.63    0.13
 -20   1   2    0.86    0.11
 -20   1   2    0.55    0.12
 -20  -1   2    0.67    0.13
 -20  -1   2    0.68    0.12
 -20  -1   2    0.53    0.11
 -20  -1   2    0.63    0.11
 -20   1   1    1.25    0.13
 -20   1   1    1.14    0.12
 -20   1   1    0.94    0.12
  20   1  -1    1.23    0.18
 -20  -1   1    1.22    0.13
 -20  -1   1    0.98    0.13
 -20  -1   1    0.95    0.13
 -20  -1   1    1.00    0.11
 -20   1   0    0.20    0.07
  20   1   0    0.33    0.10
 -20   1   0    0.35    0.08
 -20   1   0    0.47    0.11
 -20  -1   0    0.28    0.08
 -20  -1   0    0.41    0.11
 -20  -1   0    0.48    0.10
 -20  -1   0    0.41    0.08
 -20   1  -1    1.38    0.13
 -20   1  -1    1.25    0.12
 -20   1  -1    1.31    0.12
 -20  -1  -1    1.53    0.13
 -20  -1  -1    1.36    0.13
 -20  -1  -1    1.46    0.13
 -20  -1  -1    1.29    0.13
 -20   1  -2    1.21    0.12
 -20   1  -2    1.46    0.14
 -20   1  -2    0.97    0.12
 -20  -1  -2    1.20    0.12
 -20  -1  -2    1.35    0.13
 -20  -1  -2    1.40    0.14
 -20  -1  -2    1.12    0.13
 -20   1  -3    0.13    0.08
 -20   1  -3   -0.01    0.06
 -20   1  -3    0.01    0.06
 -20  -1  -3    0.08    0.07
 -20  -1  -3    0.09    0.09
 -20  -1  -3    0.13    0.08
 -20  -1  -3    0.12    0.06
 -20   1  -4    0.44    0.14
 -20   1  -4    0.52    0.10
 -20   1  -4    0.37    0.10
 -20  -1  -4    0.43    0.12
 -20  -1  -4    0.44    0.14
 -20  -1  -4    0.41    0.08
 -20  -1  -4    0.40    0.10
 -20   1  -5    0.53    0.10
 -20   1  -5    0.37    0.08
 -20   1  -5    0.56    0.15
 -20  -1  -5    0.32    0.08
 -20  -1  -5    0.36    0.11
 -20  -1  -5    0.54    0.10
 -20  -1  -5    0.35    0.11
 -20   1  -6    6.23    0.32
 -20   1  -6    6.58    0.30
 -20   1  -6    6.44    0.30
 -20  -1  -6    6.56    0.31
 -20  -1  -6    6.68    0.31
 -20  -1  -6    6.61    0.30
 -20   1  -7    0.01    0.11
 -20   1  -7    0.19    0.07
 -20   1  -7    0.24    0.06
 -20  -1  -7    0.17    0.06
 -20  -1  -7    0.16    0.07
 -20  -1  -7    0.34    0.12
 -20   1  -8    0.07    0.06
 -20   1  -8    0.10    0.07
 -20  -1  -8    0.06    0.06
 -20  -1  -8    0.00    0.07
 -20  -1  -8    0.00    0.06
 -20   1  -9   10.63    0.47
 -20   1  -9   10.61    0.47
 -20  -1  -9   11.30    0.48
 -20  -1  -9   10.94    0.48
 -20  -1  -9   10.81    0.47
 -20   1 -10    5.21    0.26
 -20   1 -10    5.45    0.26
 -20  -1 -10    5.24    0.26
 -20  -1 -10    4.86    0.28
 -20  -1 -10    5.33    0.26
 -20   1 -11    9.39    0.42
 -20   1 -11    9.39    0.42
 -20  -1 -11    9.35    0.42
 -20  -1 -11    9.52    0.42
 -20   1 -12   11.18    0.49
 -20  -1 -12   11.25    0.49
 -20  -1 -12   11.29    0.49
 -20  -1 -13    1.24    0.11
 -20  -1 -13    1.42    0.12
 -20  -1 -14    4.71    0.23
 -20  -1 -14    4.71    0.23
 -20  -1 -15    0.28    0.08
 -20  -1 -15    0.34    0.08
 -20  -1 -16    1.47    0.10
 -20  -1 -16    1.41    0.10
 -20  -1 -17    0.00    0.05
 -20  -1 -17   -0.04    0.04
 -20  -1 -18    0.18    0.06
 -20   2  18    0.71    0.06
 -20  -2  18    0.53    0.08
 -20   2  17    1.41    0.08
 -20  -2  17    1.33    0.10
 -20   2  16   -0.01    0.03
 -20  -2  16    0.04    0.05
 -20   2  15    0.21    0.06
  20   2 -15    0.17    0.07
 -20  -2  15    0.32    0.08
  20   2 -14    1.25    0.11
 -20   2  14    1.07    0.08
 -20  -2  14    1.15    0.10
  20   2 -13    0.30    0.09
 -20   2  13    0.14    0.05
 -20  -2  13    0.11    0.06
  20   2 -12    0.30    0.10
 -20   2  12    0.36    0.07
 -20  -2  12    0.25    0.07
  20   2 -11    0.46    0.10
 -20   2  11    0.34    0.07
 -20  -2  11    0.29    0.10
 -20   2  10    0.15    0.05
  20   2 -10    0.20    0.07
 -20  -2  10    0.16    0.06
  20   2  -9    2.10    0.15
 -20   2   9    2.15    0.13
 -20  -2   9    1.98    0.15
  20   2  -8    0.12    0.07
 -20   2   8    0.05    0.05
 -20  -2   8    0.08    0.06
  20   2  -7    5.85    0.29
 -20   2   7    6.05    0.27
 -20  -2   7    5.84    0.29
 -20   2   6    2.04    0.13
  20   2  -6    1.91    0.14
 -20  -2   6    2.24    0.15
 -20   2   5    7.01    0.34
  20   2  -5    7.89    0.34
 -20   2   5    6.86    0.36
 -20   2   5    7.49    0.32
 -20  -2   5    7.41    0.34
 -20   2   4    3.23    0.21
  20   2  -4    3.15    0.18
 -20   2   4    3.36    0.17
 -20   2   4    3.12    0.19
 -20  -2   4    3.15    0.19
 -20   2   3    0.54    0.12
 -20   2   3    0.81    0.13
 -20   2   3    0.37    0.09
  20   2  -3    0.38    0.11
 -20  -2   3    0.55    0.16
 -20  -2   3    0.42    0.12
 -20  -2   3    0.49    0.11
 -20   2   2    4.01    0.20
 -20   2   2    4.25    0.22
 -20   2   2    4.10    0.21
 -20  -2   2    3.86    0.22
 -20  -2   2    4.27    0.22
 -20  -2   2    3.79    0.24
 -20   2   1    0.70    0.11
 -20   2   1    0.68    0.11
 -20   2   1    0.44    0.08
 -20  -2   1    0.44    0.14
 -20  -2   1    0.61    0.12
 -20  -2   1    0.39    0.09
 -20   2   0    0.38    0.08
 -20   2   0    0.47    0.10
 -20   2   0    0.39    0.11
 -20  -2   0    0.54    0.12
 -20  -2   0    0.39    0.11
 -20  -2   0    0.25    0.08
 -20   2  -1    1.30    0.12
 -20   2  -1    1.45    0.16
 -20   2  -1    1.59    0.13
 -20  -2  -1    1.43    0.14
 -20  -2  -1    1.49    0.14
 -20  -2  -1    1.37    0.14
 -20   2  -2    1.00    0.11
 -20   2  -2    0.91    0.11
 -20  -2  -2    0.98    0.14
 -20  -2  -2    1.13    0.13
 -20  -2  -2    0.80    0.13
 -20   2  -3    0.08    0.06
 -20   2  -3    0.13    0.06
 -20  -2  -3    0.03    0.06
 -20  -2  -3    0.10    0.07
 -20  -2  -3    0.05    0.08
 -20   2  -4    0.28    0.10
 -20   2  -4    0.47    0.09
 -20  -2  -4    0.41    0.13
 -20  -2  -4    0.33    0.10
 -20  -2  -4    0.30    0.11
 -20   2  -5    0.03    0.05
 -20   2  -5    0.05    0.06
 -20  -2  -5    0.04    0.06
 -20  -2  -5    0.14    0.07
 -20  -2  -5   -0.05    0.07
 -20   2  -6    3.91    0.21
 -20   2  -6    3.74    0.20
 -20  -2  -6    3.88    0.22
 -20  -2  -6    3.89    0.21
 -20  -2  -6    3.85    0.21
 -20   2  -7    1.14    0.11
 -20   2  -7    1.06    0.11
 -20  -2  -7    1.04    0.14
 -20  -2  -7    1.08    0.12
 -20  -2  -7    1.12    0.11
 -20   2  -8    0.28    0.10
 -20   2  -8    0.46    0.09
 -20  -2  -8    0.31    0.09
 -20  -2  -8    0.47    0.10
 -20  -2  -8    0.44    0.10
 -20   2  -9    1.00    0.10
 -20   2  -9    0.88    0.11
 -20  -2  -9    0.85    0.15
 -20  -2  -9    0.90    0.11
 -20  -2  -9    0.82    0.10
 -20   2 -10    0.28    0.07
 -20   2 -10    0.21    0.07
 -20  -2 -10    0.35    0.10
 -20  -2 -10    0.36    0.09
 -20   2 -11    0.51    0.10
 -20   2 -11    0.40    0.11
 -20  -2 -11    0.29    0.07
 -20  -2 -11    0.28    0.09
 -20   2 -12    0.48    0.10
 -20   2 -12    0.57    0.12
 -20  -2 -12    0.38    0.08
 -20  -2 -12    0.33    0.09
 -20   2 -13    0.30    0.07
 -20  -2 -13    0.22    0.06
 -20  -2 -13    0.32    0.08
 -20   2 -14    0.48    0.10
 -20  -2 -14    0.40    0.07
 -20  -2 -14    0.38    0.07
 -20  -2 -15    0.11    0.04
 -20  -2 -15    0.24    0.06
 -20  -2 -16    0.02    0.04
 -20  -2 -16    0.01    0.03
 -20  -2 -17    0.06    0.03
 -20  -2 -17    0.10    0.03
 -20  -2 -18    0.77    0.06
 -20   3  16   -0.04    0.03
 -20   3  15    0.05    0.03
  20   3 -15   -0.04    0.04
  20   3 -14    0.88    0.08
 -20   3  14    0.96    0.07
 -20  -3  14    0.79    0.11
 -20   3  13   -0.05    0.03
  20   3 -13   -0.03    0.04
 -20  -3  13    0.07    0.06
  20   3 -12    1.54    0.11
 -20   3  12    1.57    0.10
 -20  -3  12    1.48    0.12
 -20   3  11    3.65    0.18
  20   3 -11    3.81    0.19
 -20  -3  11    3.91    0.20
  20   3 -10    0.29    0.09
 -20   3  10    0.35    0.06
 -20  -3  10    0.41    0.10
  20   3  -9    3.03    0.17
 -20   3   9    2.88    0.15
 -20  -3   9    3.13    0.18
  20   3  -8    0.19    0.07
 -20   3   8    0.12    0.05
 -20  -3   8    0.41    0.11
 -20   3   7    1.76    0.12
  20   3  -7    1.88    0.14
  20   3  -7    1.99    0.17
 -20  -3   7    2.12    0.16
  20   3  -6    0.88    0.13
 -20   3   6    0.89    0.10
  20   3  -6    0.79    0.12
  20  -3  -6    0.94    0.16
 -20  -3   6    0.53    0.13
  20   3  -5    6.75    0.31
 -20   3   5    6.30    0.31
 -20   3   5    5.98    0.28
  20   3  -5    6.50    0.31
  20  -3  -5    6.04    0.31
 -20  -3   5    6.32    0.31
 -20   3   4    4.04    0.22
 -20   3   4    4.64    0.24
  20   3  -4    4.66    0.24
  20  -3  -4    4.47    0.24
 -20  -3   4    4.71    0.25
 -20   3   3    2.39    0.16
 -20   3   3    2.21    0.18
  20   3  -3    2.83    0.17
  20  -3  -3    2.53    0.17
 -20  -3   3    2.65    0.18
 -20   3   2    1.90    0.14
  20   3  -2    1.82    0.15
 -20   3   2    1.75    0.15
  20  -3  -2    1.76    0.14
 -20  -3   2    1.87    0.16
 -20   3   1    0.37    0.11
  20   3  -1    0.45    0.14
 -20   3   1    0.31    0.07
 -20  -3   1    0.47    0.12
  20  -3  -1    0.30    0.11
 -20   3   0    0.05    0.07
  20   3   0   -0.07    0.09
 -20   3   0    0.05    0.06
  20  -3   0    0.15    0.09
 -20  -3   0   -0.09    0.07
 -20   3  -1    5.41    0.26
  20   3   1    5.61    0.29
 -20   3  -1    5.34    0.26
 -20  -3  -1    5.50    0.28
  20  -3   1    5.34    0.27
 -20  -3  -1    5.71    0.29
  20   3   2    3.53    0.24
 -20   3  -2    3.54    0.19
 -20   3  -2    3.61    0.19
 -20  -3  -2    3.74    0.22
  20  -3   2    3.40    0.20
 -20  -3  -2    3.71    0.21
 -20   3  -3    2.64    0.16
 -20   3  -3    2.74    0.16
  20  -3   3    2.72    0.18
 -20  -3  -3    3.05    0.19
 -20  -3  -3    2.68    0.18
 -20   3  -4    1.71    0.13
 -20   3  -4    1.87    0.13
  20  -3   4    1.92    0.15
 -20  -3  -4    1.54    0.15
 -20  -3  -4    1.69    0.14
 -20   3  -5    3.33    0.18
 -20   3  -5    3.11    0.18
 -20  -3  -5    3.34    0.20
  20  -3   5    3.28    0.20
 -20  -3  -5    3.61    0.20
 -20   3  -6    0.09    0.06
 -20   3  -6    0.04    0.06
  20  -3   6    0.04    0.08
 -20  -3  -6    0.14    0.06
 -20  -3  -6   -0.07    0.06
 -20   3  -7    1.94    0.13
 -20   3  -7    1.85    0.12
 -20  -3  -7    1.77    0.14
  20  -3   7    1.61    0.16
 -20  -3  -7    1.86    0.14
 -20   3  -8    0.64    0.09
 -20   3  -8    0.79    0.10
 -20  -3  -8    0.79    0.10
 -20  -3  -8    0.82    0.10
  20  -3   8    0.55    0.13
 -20   3  -9    1.14    0.10
 -20   3  -9    0.96    0.11
  20  -3   9    1.01    0.15
 -20  -3  -9    1.22    0.11
 -20  -3  -9    1.23    0.11
  20   3  10    0.58    0.14
 -20   3 -10    0.86    0.09
 -20   3 -10    0.77    0.10
 -20  -3 -10    0.59    0.09
 -20  -3 -10    0.72    0.09
 -20   3 -11    0.03    0.05
 -20   3 -11   -0.03    0.06
 -20  -3 -11    0.08    0.05
 -20  -3 -11    0.06    0.05
 -20   3 -12    0.68    0.08
 -20   3 -12    0.64    0.10
 -20  -3 -12    0.57    0.08
 -20  -3 -12    0.77    0.08
 -20   3 -13    0.17    0.05
 -20  -3 -13    0.22    0.06
 -20  -3 -13    0.14    0.05
 -20   3 -14    3.50    0.16
 -20  -3 -14    3.12    0.15
 -20  -3 -14    3.02    0.15
 -20   3 -15    0.41    0.08
 -20  -3 -15    0.44    0.05
 -20  -3 -15    0.54    0.06
 -20  -3 -16    0.14    0.04
 -20  -3 -16    0.14    0.05
  20   4 -12    0.84    0.06
 -20   4  11    0.32    0.09
 -20   4  10    2.03    0.13
  20   4 -10    2.04    0.11
  20   4  -9    0.29    0.06
  20   4  -8    0.47    0.08
  20   4  -7    0.00    0.06
  20   4  -7    0.06    0.05
  20   4  -6    1.29    0.11
  20   4  -6    1.28    0.11
  20   4  -5    0.52    0.10
  20   4  -5    0.45    0.09
 -20   4   4    1.57    0.13
  20   4  -4    1.78    0.13
  20   4  -4    1.58    0.12
 -20  -4   4    1.68    0.16
  20   4  -3    1.27    0.12
 -20   4   3    1.65    0.12
  20   4  -3    1.56    0.12
  20  -4  -3    1.34    0.17
 -20  -4   3    1.48    0.16
  20   4  -2    1.47    0.13
 -20   4   2    1.86    0.13
  20   4  -2    1.76    0.13
 -20  -4   2    1.69    0.16
  20  -4  -2    1.54    0.15
 -20   4   1    2.30    0.14
  20   4  -1    2.29    0.15
  20   4  -1    2.45    0.16
 -20  -4   1    2.46    0.17
  20  -4  -1    2.25    0.17
 -20   4   0    0.41    0.08
  20   4   0    0.45    0.10
 -20   4   0    0.44    0.10
 -20  -4   0    0.51    0.13
  20  -4   0    0.63    0.12
 -20   4  -1    0.06    0.05
 -20   4  -1    0.06    0.06
  20   4   1    0.10    0.06
  20  -4   1   -0.02    0.09
 -20  -4  -1   -0.03    0.07
  20   4   2    0.03    0.06
 -20   4  -2   -0.01    0.05
 -20   4  -2   -0.03    0.04
 -20  -4  -2    0.08    0.07
  20  -4   2    0.02    0.09
 -20   4  -3    0.28    0.07
 -20   4  -3    0.25    0.08
  20   4   3    0.28    0.09
 -20  -4  -3    0.29    0.08
  20  -4   3    0.30    0.10
  20   4   4    0.66    0.10
 -20   4  -4    0.63    0.09
 -20   4  -4    0.66    0.08
  20  -4   4    0.59    0.13
 -20  -4  -4    0.79    0.11
 -20   4  -5    0.34    0.08
  20   4   5    0.26    0.09
 -20   4  -5    0.41    0.08
 -20  -4  -5    0.32    0.07
  20   4   6    1.94    0.14
 -20   4  -6    2.04    0.12
 -20   4  -6    2.08    0.12
 -20  -4  -6    2.03    0.14
 -20  -4  -6    1.82    0.14
  20   4   7    0.33    0.09
 -20   4  -7    0.13    0.04
 -20   4  -7    0.22    0.07
 -20  -4  -7    0.04    0.06
 -20  -4  -7    0.04    0.06
 -20   4  -8   -0.01    0.04
  20   4   8   -0.02    0.06
 -20   4  -8    0.05    0.04
 -20  -4  -8    0.00    0.05
 -20  -4  -8    0.28    0.08
 -20   4  -9    1.56    0.09
  20   4   9    1.40    0.14
 -20   4  -9    1.57    0.10
 -20  -4  -9    1.42    0.11
 -20  -4  -9    1.48    0.10
 -20   4 -10    0.06    0.05
 -20   4 -10   -0.04    0.04
 -20  -4 -10    0.03    0.05
 -20  -4 -10    0.10    0.05
 -20   4 -11    0.05    0.03
 -20   4 -11   -0.02    0.05
 -20  -4 -11    0.03    0.05
 -20  -4 -11    0.03    0.04
 -20   4 -12    0.29    0.05
 -20  -4 -12    0.37    0.07
 -20  -4 -12    0.36    0.07
  20   5  -4    0.02    0.05
  20   5  -3    2.09    0.11
  20   5  -2    0.09    0.04
 -20   5   1    0.24    0.07
  20   5  -1    0.27    0.06
 -20   5   0    0.85    0.07
  20   5   0    0.84    0.07
  20   5   1    0.49    0.06
 -20   5  -1    0.50    0.06
 -20   5  -2    0.68    0.07
  20   5   2    0.70    0.07
 -20   5  -3    0.21    0.05
 -20   5  -4    0.39    0.05
  20   5   4    0.22    0.07
  20   5   5    0.08    0.06
 -21   0  19    0.01    0.03
 -21   0  18    0.05    0.04
 -21   0  17   -0.01    0.04
 -21   0  16    3.10    0.17
 -21   0  16    2.98    0.16
 -21   0  15    0.05    0.05
 -21   0  15   -0.01    0.06
 -21   0  14   10.33    0.45
 -21   0  14   11.11    0.47
 -21   0  13    0.05    0.06
 -21   0  13    0.06    0.06
 -21   0  12    0.41    0.10
 -21   0  12    0.50    0.09
 -21   0  11    0.00    0.05
 -21   0  11    0.07    0.06
 -21   0  10    0.03    0.06
  21   0 -10    0.46    0.15
 -21   0   9   -0.02    0.05
 -21   0   9    0.04    0.07
 -21   0   8    0.67    0.11
 -21   0   8    0.57    0.09
 -21   0   7    0.00    0.06
 -21   0   7    0.10    0.05
 -21   0   6    1.78    0.15
 -21   0   6    1.64    0.14
 -21   0   6    1.87    0.12
 -21   0   5    0.00    0.05
 -21   0   5    0.13    0.07
 -21   0   5   -0.05    0.06
 -21   0   4    0.59    0.10
 -21   0   4    0.54    0.11
 -21   0   4    0.42    0.13
 -21   0   3    0.10    0.06
 -21   0   3    0.01    0.08
 -21   0   3    0.02    0.06
 -21   0   2    5.58    0.26
 -21   0   2    5.78    0.26
  21   0  -1    0.05    0.09
 -21   0   1    0.04    0.05
 -21   0   1    0.05    0.07
 -21   0   1   -0.08    0.06
  21   0   0    6.22    0.34
 -21   0   0    6.54    0.30
 -21   0   0    6.46    0.30
 -21   0   0    6.83    0.30
 -21   0  -1    0.00    0.05
 -21   0  -1   -0.02    0.07
  21   0   1   -0.07    0.10
 -21   0  -1    0.15    0.06
  21   0   2   13.81    0.64
 -21   0  -2   14.39    0.60
 -21   0  -2   14.64    0.60
 -21   0  -2   14.14    0.60
 -21   0  -3    0.00    0.06
 -21   0  -3   -0.03    0.06
  21   0   3    0.07    0.10
 -21   0  -3    0.03    0.06
 -21   0  -4    9.28    0.40
 -21   0  -4    8.57    0.42
 -21   0  -4    9.29    0.40
 -21   0  -4    9.25    0.40
  21   0   4    8.74    0.46
 -21   0  -5   -0.09    0.10
 -21   0  -5    0.06    0.06
 -21   0  -5    0.13    0.07
 -21   0  -5   -0.03    0.06
 -21   0  -6   16.80    0.70
 -21   0  -6   17.31    0.70
 -21   0  -6   16.02    0.71
 -21   0  -6   16.67    0.69
 -21   0  -7   -0.01    0.06
 -21   0  -7    0.04    0.08
 -21   0  -7   -0.04    0.06
 -21   0  -7    0.01    0.07
 -21   0  -8   33.81    1.40
 -21   0  -8   34.99    1.40
 -21   0  -8   34.75    1.41
 -21   0  -8   34.80    1.40
 -21   0  -9    0.05    0.08
 -21   0  -9   -0.05    0.08
 -21   0  -9    0.11    0.07
 -21   0  -9   -0.01    0.08
 -21   0 -10    0.73    0.12
 -21   0 -10    0.75    0.14
 -21   0 -10    0.49    0.12
 -21   0 -11   -0.02    0.07
 -21   0 -11   -0.04    0.09
 -21   0 -11   -0.06    0.06
 -21   0 -12   14.36    0.61
 -21   0 -12   14.32    0.61
 -21   0 -13   -0.06    0.07
 -21   0 -14    0.01    0.06
 -21   0 -14   -0.06    0.07
 -21   0 -15    0.07    0.06
 -21   1  19    0.38    0.07
 -21  -1  19    0.39    0.06
 -21   1  18    2.66    0.13
 -21   1  18    2.48    0.13
 -21  -1  18    2.52    0.13
 -21   1  17   -0.02    0.04
 -21   1  17    0.00    0.04
 -21  -1  17   -0.01    0.04
 -21   1  16   -0.02    0.04
 -21   1  16    0.06    0.05
 -21  -1  16    0.07    0.05
 -21   1  15    0.58    0.07
 -21   1  15    0.53    0.09
 -21  -1  15    0.54    0.08
 -21   1  14    0.03    0.05
 -21   1  14    0.07    0.06
 -21  -1  14    0.05    0.05
  21   1 -13   -0.05    0.08
 -21   1  13   -0.02    0.06
 -21   1  13    0.05    0.05
 -21  -1  13    0.07    0.05
 -21   1  12    0.78    0.09
 -21   1  12    0.78    0.11
  21   1 -12    0.90    0.14
 -21  -1  12    0.67    0.11
  21   1 -11    0.37    0.13
 -21   1  11    0.51    0.08
 -21   1  11    0.43    0.08
 -21  -1  11    0.64    0.14
 -21  -1  11    0.36    0.10
  21   1 -10    1.97    0.16
 -21   1  10    2.00    0.12
 -21   1  10    2.09    0.16
 -21  -1  10    1.84    0.16
 -21  -1  10    1.99    0.14
 -21   1   9    0.02    0.07
  21   1  -9    0.15    0.08
 -21   1   9   -0.06    0.05
 -21  -1   9   -0.08    0.05
 -21  -1   9    0.12    0.08
  21   1  -8    9.83    0.48
 -21   1   8   11.19    0.49
 -21   1   8   11.40    0.47
 -21  -1   8   11.03    0.48
 -21  -1   8   12.27    0.49
 -21   1   7    3.14    0.16
 -21   1   7    3.03    0.20
 -21   1   7    2.76    0.20
 -21  -1   7    2.74    0.18
 -21  -1   7    2.73    0.18
 -21   1   6    7.49    0.38
 -21   1   6    8.33    0.35
 -21   1   6    7.69    0.36
 -21  -1   6    7.80    0.36
 -21  -1   6    8.43    0.36
 -21   1   5    5.37    0.26
 -21   1   5    5.55    0.25
 -21  -1   5    5.39    0.26
 -21  -1   5    5.33    0.26
 -21   1   4   -0.05    0.07
 -21   1   4    0.02    0.05
 -21   1   4    0.00    0.09
 -21  -1   4    0.01    0.06
 -21  -1   4   -0.08    0.06
 -21  -1   4   -0.07    0.09
 -21   1   3    1.38    0.10
 -21   1   3    1.03    0.14
 -21   1   3    1.36    0.12
 -21  -1   3    1.32    0.15
 -21  -1   3    1.17    0.13
 -21  -1   3    1.30    0.12
 -21   1   2    1.14    0.10
 -21   1   2    0.93    0.12
  21   1  -2    1.28    0.25
 -21   1   2    1.01    0.11
 -21  -1   2    0.96    0.11
 -21  -1   2    0.91    0.13
 -21  -1   2    0.98    0.12
 -21  -1   2    1.14    0.13
 -21   1   1    0.08    0.06
 -21   1   1    0.16    0.06
 -21   1   1    0.06    0.07
  21   1  -1    0.14    0.12
 -21  -1   1    0.03    0.07
 -21  -1   1    0.04    0.07
 -21  -1   1    0.04    0.07
 -21  -1   1    0.13    0.07
 -21   1   0    2.32    0.15
 -21   1   0    2.19    0.15
 -21   1   0    2.22    0.15
 -21  -1   0    2.28    0.15
 -21  -1   0    2.36    0.15
 -21  -1   0    2.22    0.16
 -21  -1   0    2.27    0.16
 -21   1  -1    1.31    0.13
 -21   1  -1    1.57    0.12
 -21   1  -1    1.57    0.12
 -21  -1  -1    1.48    0.13
 -21  -1  -1    1.30    0.13
 -21  -1  -1    1.69    0.13
 -21  -1  -1    1.16    0.13
 -21   1  -2    3.39    0.19
 -21   1  -2    3.48    0.18
 -21   1  -2    3.22    0.18
 -21  -1  -2    3.66    0.20
 -21  -1  -2    3.52    0.19
 -21  -1  -2    3.49    0.19
 -21  -1  -2    3.21    0.19
 -21   1  -3    0.45    0.10
 -21   1  -3    0.46    0.10
 -21   1  -3    0.33    0.08
 -21  -1  -3    0.27    0.08
 -21  -1  -3    0.38    0.09
 -21  -1  -3    0.39    0.10
 -21  -1  -3    0.31    0.07
 -21   1  -4    0.26    0.09
 -21   1  -4    0.11    0.08
 -21   1  -4    0.05    0.06
 -21  -1  -4    0.01    0.08
 -21  -1  -4    0.10    0.06
 -21  -1  -4    0.11    0.07
 -21  -1  -4    0.16    0.09
 -21   1  -5    0.76    0.14
 -21   1  -5    0.66    0.10
 -21   1  -5    0.52    0.10
 -21  -1  -5    0.51    0.11
 -21  -1  -5    0.71    0.10
 -21  -1  -5    0.80    0.15
 -21  -1  -5    0.47    0.12
 -21   1  -6    0.17    0.09
 -21   1  -6    0.03    0.06
 -21   1  -6    0.00    0.05
 -21  -1  -6   -0.07    0.07
 -21  -1  -6   -0.02    0.05
 -21  -1  -6   -0.07    0.11
 -21  -1  -6    0.08    0.06
 -21   1  -7    3.83    0.20
 -21   1  -7    3.92    0.23
 -21   1  -7    4.06    0.21
 -21  -1  -7    3.62    0.22
 -21  -1  -7    4.00    0.21
 -21  -1  -7    4.04    0.22
 -21   1  -8    0.01    0.06
 -21   1  -8    0.03    0.06
 -21  -1  -8   -0.03    0.06
 -21  -1  -8    0.11    0.07
 -21  -1  -8   -0.02    0.07
 -21   1  -9   20.42    0.86
 -21   1  -9   20.70    0.86
 -21  -1  -9   20.43    0.87
 -21  -1  -9   21.60    0.87
 -21  -1  -9   20.94    0.87
 -21   1 -10    8.63    0.39
 -21   1 -10    8.47    0.38
 -21  -1 -10    8.66    0.40
 -21  -1 -10    8.41    0.39
 -21  -1 -10    8.94    0.39
 -21   1 -11    0.35    0.12
 -21   1 -11    0.31    0.08
 -21  -1 -11    0.30    0.10
 -21  -1 -11    0.35    0.09
 -21  -1 -11    0.50    0.16
 -21   1 -12    5.73    0.28
 -21  -1 -12    6.24    0.28
 -21  -1 -12    5.86    0.28
 -21  -1 -13    0.92    0.10
 -21  -1 -13    1.04    0.10
 -21  -1 -14    0.51    0.09
 -21  -1 -14    0.49    0.09
 -21  -1 -15    0.67    0.09
 -21  -1 -15    0.73    0.08
 -21  -1 -16    0.60    0.08
 -21  -1 -16    0.53    0.07
 -21  -1 -17    0.06    0.04
 -21  -1 -17   -0.02    0.05
 -21  -1 -18    1.30    0.09
 -21   2  18    0.39    0.06
 -21   2  17    0.16    0.05
 -21  -2  17    0.03    0.04
 -21   2  16    0.57    0.06
 -21  -2  16    0.54    0.08
 -21   2  15    0.27    0.05
  21   2 -15    0.29    0.07
 -21  -2  15    0.32    0.08
  21   2 -14    2.21    0.13
 -21   2  14    2.04    0.12
 -21  -2  14    2.08    0.13
  21   2 -13    1.57    0.12
 -21   2  13    1.45    0.10
 -21  -2  13    1.47    0.12
 -21   2  12    0.29    0.07
  21   2 -12    0.41    0.10
 -21  -2  12    0.32    0.09
 -21   2  11    0.05    0.05
 -21  -2  11    0.08    0.06
 -21   2  10    0.26    0.07
  21   2 -10    0.38    0.08
 -21  -2  10    0.28    0.10
  21   2  -9    0.10    0.07
 -21   2   9    0.08    0.05
 -21  -2   9    0.15    0.06
 -21   2   8    6.12    0.28
  21   2  -8    6.37    0.30
 -21  -2   8    6.29    0.30
  21   2  -7   12.28    0.53
 -21   2   7   12.34    0.51
 -21  -2   7   11.81    0.53
 -21   2   6    6.99    0.31
  21   2  -6    7.26    0.33
 -21  -2   6    6.80    0.33
  21   2  -5    7.06    0.33
 -21   2   5    7.39    0.34
 -21   2   5    6.45    0.34
 -21   2   5    7.52    0.32
 -21  -2   5    7.49    0.34
 -21   2   4   25.20    0.96
 -21   2   4   24.37    0.97
  21   2  -4   19.86    0.97
 -21   2   4   24.46    0.97
 -21  -2   4   23.96    0.97
 -21   2   3    4.39    0.21
 -21   2   3    4.23    0.23
 -21   2   3    4.20    0.22
  21   2  -3    4.34    0.23
 -21  -2   3    4.30    0.23
 -21  -2   3    4.13    0.25
 -21  -2   3    4.39    0.23
 -21   2   2    1.58    0.13
 -21   2   2    1.58    0.12
 -21   2   2    1.54    0.14
 -21  -2   2    1.49    0.14
 -21  -2   2    1.45    0.14
 -21  -2   2    1.43    0.17
 -21   2   1    0.60    0.10
 -21   2   1    0.48    0.11
 -21   2   1    0.58    0.11
 -21  -2   1    0.56    0.12
 -21  -2   1    0.67    0.14
 -21  -2   1    0.62    0.11
 -21   2   0    2.87    0.17
 -21   2   0    3.03    0.18
 -21   2   0    2.81    0.19
 -21  -2   0    3.02    0.18
 -21  -2   0    3.03    0.19
 -21  -2   0    2.80    0.19
 -21   2  -1    0.64    0.10
 -21   2  -1    0.52    0.09
 -21   2  -1    0.53    0.10
 -21  -2  -1    0.59    0.13
 -21  -2  -1    0.45    0.12
 -21  -2  -1    0.49    0.12
 -21   2  -2    2.34    0.15
 -21   2  -2    2.12    0.15
 -21  -2  -2    1.93    0.16
 -21  -2  -2    2.29    0.16
 -21  -2  -2    2.28    0.17
 -21   2  -3    0.14    0.06
 -21   2  -3    0.18    0.06
 -21  -2  -3    0.08    0.07
 -21  -2  -3    0.13    0.07
 -21  -2  -3    0.20    0.08
 -21   2  -4    3.40    0.19
 -21   2  -4    3.66    0.19
 -21  -2  -4    3.39    0.20
 -21  -2  -4    3.65    0.20
 -21  -2  -4    3.38    0.21
 -21   2  -5    0.12    0.06
 -21   2  -5    0.04    0.06
 -21  -2  -5    0.12    0.08
 -21  -2  -5    0.10    0.07
 -21  -2  -5    0.33    0.10
 -21   2  -6    3.51    0.18
 -21   2  -6    3.17    0.18
 -21  -2  -6    3.30    0.19
 -21  -2  -6    3.20    0.19
 -21  -2  -6    3.54    0.21
 -21   2  -7    0.64    0.11
 -21   2  -7    0.74    0.10
 -21  -2  -7    0.65    0.13
 -21  -2  -7    0.58    0.10
 -21  -2  -7    0.66    0.11
 -21   2  -8    3.23    0.18
 -21   2  -8    3.28    0.18
 -21  -2  -8    3.13    0.19
 -21  -2  -8    2.96    0.20
 -21  -2  -8    3.07    0.18
 -21   2  -9    0.68    0.10
 -21   2  -9    0.53    0.10
 -21  -2  -9    0.73    0.11
 -21  -2  -9    0.66    0.10
 -21  -2  -9    0.59    0.14
 -21   2 -10    0.69    0.11
 -21   2 -10    0.61    0.10
 -21  -2 -10    0.85    0.10
 -21  -2 -10    0.77    0.11
 -21   2 -11    0.29    0.09
 -21   2 -11    0.23    0.07
 -21  -2 -11    0.32    0.08
 -21  -2 -11    0.16    0.06
 -21   2 -12    0.88    0.11
 -21   2 -12    1.15    0.13
 -21  -2 -12    0.92    0.10
 -21  -2 -12    0.92    0.09
 -21   2 -13    0.39    0.09
 -21  -2 -13    0.28    0.08
 -21  -2 -13    0.46    0.07
 -21   2 -14    0.97    0.10
 -21  -2 -14    0.90    0.09
 -21  -2 -14    0.84    0.08
 -21  -2 -15    0.37    0.06
 -21  -2 -15    0.36    0.07
 -21  -2 -16    0.05    0.04
 -21  -2 -16    0.09    0.03
 -21  -2 -17    0.04    0.03
 -21  -2 -17    0.00    0.03
 -21   3  16    0.43    0.05
 -21   3  15    0.00    0.03
  21   3 -15   -0.02    0.04
 -21   3  14    0.31    0.05
  21   3 -14    0.33    0.06
 -21  -3  14    0.24    0.07
  21   3 -13    0.63    0.07
 -21   3  13    0.77    0.06
 -21  -3  13    0.82    0.10
 -21   3  12    3.58    0.17
  21   3 -12    3.54    0.18
 -21  -3  12    3.78    0.19
 -21   3  11    1.90    0.11
  21   3 -11    2.01    0.12
 -21  -3  11    1.84    0.14
 -21   3  10    1.17    0.09
  21   3 -10    1.31    0.11
 -21  -3  10    1.22    0.12
  21   3  -9    0.62    0.10
 -21   3   9    0.63    0.08
 -21  -3   9    0.79    0.11
  21   3  -8    0.01    0.06
 -21   3   8    0.10    0.05
 -21  -3   8    0.12    0.07
 -21   3   7    0.22    0.05
  21   3  -7    0.32    0.09
 -21  -3   7    0.31    0.08
 -21   3   6    4.77    0.23
  21   3  -6    4.98    0.25
  21   3  -6    5.06    0.25
 -21  -3   6    4.85    0.25
 -21   3   5    0.74    0.10
 -21   3   5    0.88    0.15
 -21  -3   5    0.76    0.12
 -21   3   4    0.18    0.07
  21   3  -4    0.26    0.08
 -21   3   4    0.41    0.12
 -21  -3   4    0.26    0.08
  21   3  -3    1.10    0.13
 -21   3   3    1.17    0.13
 -21   3   3    1.01    0.14
 -21  -3   3    1.04    0.13
  21   3  -2    0.36    0.09
 -21   3   2    0.26    0.08
 -21   3   2    0.27    0.07
 -21  -3   2    0.32    0.08
 -21   3   1    1.03    0.12
  21   3  -1    1.26    0.15
 -21   3   1    1.27    0.12
 -21  -3   1    1.26    0.14
 -21   3   0    6.49    0.30
  21   3   0    6.10    0.32
 -21   3   0    6.38    0.29
 -21  -3   0    6.38    0.31
 -21   3  -1    1.46    0.12
  21   3   1    1.61    0.18
 -21   3  -1    1.31    0.12
 -21  -3  -1    1.30    0.14
 -21  -3  -1    1.19    0.17
  21   3   2    0.79    0.17
 -21   3  -2    0.52    0.10
 -21   3  -2    0.38    0.09
 -21  -3  -2    0.58    0.14
 -21  -3  -2    0.53    0.12
 -21   3  -3    5.07    0.25
 -21   3  -3    5.37    0.26
 -21  -3  -3    5.30    0.27
 -21  -3  -3    5.43    0.27
 -21   3  -4    0.34    0.09
 -21   3  -4    0.39    0.09
 -21  -3  -4    0.50    0.12
 -21  -3  -4    0.32    0.08
 -21   3  -5    1.47    0.12
 -21   3  -5    1.46    0.12
 -21  -3  -5    1.49    0.14
 -21  -3  -5    1.43    0.14
 -21   3  -6    1.21    0.11
 -21   3  -6    1.32    0.11
 -21  -3  -6    1.14    0.12
 -21  -3  -6    1.47    0.12
 -21   3  -7    2.25    0.14
 -21   3  -7    1.86    0.13
 -21  -3  -7    2.12    0.15
 -21  -3  -7    2.23    0.15
 -21   3  -8    0.27    0.06
 -21   3  -8    0.31    0.07
 -21  -3  -8    0.20    0.06
 -21  -3  -8    0.34    0.09
 -21   3  -9    1.53    0.12
 -21   3  -9    1.62    0.12
 -21  -3  -9    1.68    0.12
 -21  -3  -9    1.70    0.12
 -21   3 -10    0.60    0.08
 -21   3 -10    0.55    0.09
  21   3  10    0.44    0.10
 -21  -3 -10    0.64    0.08
 -21  -3 -10    0.59    0.09
 -21   3 -11    0.30    0.09
 -21   3 -11    0.44    0.07
 -21  -3 -11    0.43    0.08
 -21  -3 -11    0.43    0.07
 -21   3 -12    0.64    0.07
 -21   3 -12    0.40    0.10
 -21  -3 -12    0.62    0.08
 -21  -3 -12    0.56    0.07
 -21   3 -13    0.38    0.07
 -21  -3 -13    0.34    0.06
 -21  -3 -13    0.36    0.06
 -21   3 -14    0.23    0.05
 -21  -3 -14    0.35    0.05
 -21  -3 -14    0.27    0.05
 -21  -3 -15    0.64    0.06
 -21  -3 -15    0.58    0.06
  21   4 -12    0.95    0.07
  21   4 -11    0.04    0.03
  21   4 -10    0.92    0.07
  21   4  -9    0.04    0.04
  21   4  -8    0.19    0.06
  21   4  -7    0.28    0.07
  21   4  -6    0.04    0.06
  21   4  -6    0.09    0.05
  21   4  -5    0.94    0.10
  21   4  -5    0.82    0.09
 -21  -4   5    0.78    0.16
  21   4  -4    2.50    0.15
  21   4  -4    2.52    0.15
 -21   4   4    2.95    0.17
 -21  -4   4    2.70    0.18
 -21   4   3    0.69    0.10
  21   4  -3    0.79    0.10
  21   4  -3    0.59    0.10
 -21  -4   3    0.78    0.13
 -21   4   2    0.12    0.06
  21   4  -2    0.24    0.07
  21   4  -2    0.20    0.07
 -21  -4   2    0.27    0.08
  21   4  -1    0.95    0.11
 -21   4   1    0.81    0.10
  21   4  -1    0.73    0.13
 -21  -4   1    0.84    0.13
  21   4   0    0.21    0.06
 -21   4   0    0.24    0.07
 -21   4   0    0.32    0.08
 -21  -4   0    0.31    0.11
 -21   4  -1   -0.05    0.06
 -21   4  -1    0.00    0.05
  21   4   1   -0.06    0.05
 -21  -4  -1   -0.06    0.07
  21   4   2    0.93    0.10
 -21   4  -2    1.11    0.10
 -21   4  -2    0.95    0.10
 -21  -4  -2    0.92    0.12
 -21   4  -3    0.79    0.09
  21   4   3    0.84    0.10
 -21   4  -3    0.68    0.08
 -21  -4  -3    0.65    0.11
 -21   4  -4    1.83    0.12
  21   4   4    1.84    0.13
 -21   4  -4    1.75    0.12
 -21  -4  -4    1.80    0.13
 -21   4  -5    0.02    0.05
 -21   4  -5    0.06    0.05
  21   4   5    0.08    0.06
 -21  -4  -5    0.02    0.06
  21   4   6    1.57    0.12
 -21   4  -6    1.61    0.11
 -21   4  -6    1.75    0.10
 -21  -4  -6    1.57    0.19
 -21  -4  -6    1.64    0.12
  21   4   7    0.13    0.06
 -21   4  -7   -0.02    0.04
 -21   4  -7    0.07    0.04
 -21  -4  -7    0.03    0.06
 -21  -4  -7   -0.12    0.06
  21   4   8    3.28    0.18
 -21   4  -8    3.62    0.17
 -21   4  -8    3.54    0.17
 -21  -4  -8    3.34    0.17
 -21  -4  -8    3.39    0.17
 -21   4  -9    0.35    0.06
  21   4   9    0.36    0.12
 -21   4  -9    0.43    0.07
 -21  -4  -9    0.24    0.05
 -21  -4  -9    0.18    0.05
 -21   4 -10    2.61    0.13
 -21   4 -10    2.86    0.13
 -21  -4 -10    2.60    0.13
 -21  -4 -10    2.37    0.13
 -21   4 -11    0.52    0.06
 -21  -4 -11    0.45    0.07
 -21  -4 -11    0.56    0.07
 -21   4 -12    1.38    0.08
  21   5  -3    0.40    0.07
  21   5  -2    0.42    0.07
  21   5  -1    0.41    0.06
 -21   5   1    0.26    0.09
 -21   5   0    1.14    0.08
  21   5   0    1.10    0.08
 -21   5  -1   -0.04    0.04
  21   5   1   -0.05    0.04
  21   5   2    0.56    0.07
 -21   5  -2    0.64    0.06
  21   5   3    0.58    0.07
 -21   5  -3    0.52    0.06
 -21   5  -4    0.07    0.03
 -22   0  19    0.00    0.03
 -22   0  18    0.06    0.04
 -22   0  17    0.05    0.04
 -22   0  16    3.18    0.17
 -22   0  16    3.09    0.16
 -22   0  15   -0.06    0.06
 -22   0  15    0.05    0.05
 -22   0  14    1.97    0.13
 -22   0  14    1.85    0.13
 -22   0  13    0.00    0.05
 -22   0  13   -0.04    0.05
 -22   0  12   -0.03    0.05
 -22   0  12    0.03    0.05
  22   0 -11   -0.11    0.14
 -22   0  11    0.03    0.05
 -22   0  11   -0.01    0.06
 -22   0  10    0.10    0.06
  22   0 -10    0.16    0.10
 -22   0  10    0.26    0.08
 -22   0   9    0.02    0.05
 -22   0   9    0.01    0.06
 -22   0   8    0.02    0.05
 -22   0   8    0.02    0.06
 -22   0   7   -0.04    0.06
 -22   0   7    0.05    0.05
 -22   0   6    0.11    0.05
 -22   0   6    0.19    0.08
 -22   0   6    0.19    0.07
 -22   0   5   -0.01    0.05
 -22   0   5    0.03    0.07
 -22   0   5   -0.03    0.07
 -22   0   4    0.10    0.05
 -22   0   4    0.07    0.06
 -22   0   4   -0.14    0.09
 -22   0   4   -0.03    0.07
 -22   0   3   -0.02    0.05
 -22   0   3   -0.05    0.06
 -22   0   3    0.07    0.08
 -22   0   3   -0.02    0.08
 -22   0   2    0.04    0.06
 -22   0   2    0.09    0.09
 -22   0   2   -0.05    0.05
 -22   0   2    0.01    0.07
 -22   0   1    0.00    0.09
 -22   0   1    0.15    0.06
 -22   0   1   -0.01    0.06
 -22   0   1   -0.07    0.06
 -22   0   0    9.37    0.40
 -22   0   0    9.55    0.41
 -22   0   0    9.16    0.40
 -22   0   0    8.92    0.42
 -22   0  -1   -0.02    0.09
 -22   0  -1   -0.08    0.06
 -22   0  -1    0.04    0.05
 -22   0  -1    0.16    0.06
 -22   0  -2    6.76    0.35
  22   0   2    6.22    0.37
 -22   0  -2    7.32    0.32
 -22   0  -2    7.40    0.32
 -22   0  -3    0.00    0.06
 -22   0  -3    0.06    0.06
 -22   0  -3    0.01    0.10
  22   0   3   -0.19    0.14
 -22   0  -3   -0.09    0.06
 -22   0  -4   16.77    0.69
 -22   0  -4   16.87    0.69
 -22   0  -4   15.44    0.70
 -22   0  -4   17.12    0.69
 -22   0  -5    0.07    0.06
 -22   0  -5   -0.12    0.09
 -22   0  -5    0.05    0.06
 -22   0  -5    0.07    0.06
 -22   0  -6    2.54    0.16
 -22   0  -6    2.61    0.16
 -22   0  -6    2.55    0.16
 -22   0  -6    2.22    0.19
 -22   0  -7    0.01    0.06
 -22   0  -7    0.07    0.08
 -22   0  -7    0.04    0.07
 -22   0  -7   -0.01    0.06
 -22   0  -8    5.40    0.26
 -22   0  -8    5.31    0.26
 -22   0  -8    5.26    0.27
 -22   0  -8    5.04    0.26
 -22   0  -9    0.09    0.07
 -22   0  -9    0.08    0.07
 -22   0  -9    0.13    0.08
 -22   0 -10    0.61    0.13
 -22   0 -10    0.70    0.12
 -22   0 -10    0.62    0.12
 -22   0 -11    0.07    0.07
 -22   0 -11    0.00    0.08
 -22   0 -11   -0.02    0.08
 -22   0 -12    8.52    0.41
 -22   0 -12   10.22    0.42
 -22   0 -13    0.01    0.07
 -22   0 -14   -0.03    0.06
 -22   0 -14    0.05    0.07
 -22  -1  19    0.98    0.07
 -22   1  18    0.25    0.08
 -22   1  18    0.06    0.04
 -22  -1  18    0.09    0.04
 -22   1  17    0.02    0.04
 -22   1  17    0.12    0.04
 -22  -1  17    0.11    0.04
 -22   1  16    0.25    0.05
 -22   1  16    0.21    0.06
 -22  -1  16    0.21    0.05
 -22   1  15    0.03    0.05
 -22   1  15    0.04    0.04
 -22  -1  15    0.10    0.05
 -22   1  14   -0.02    0.06
 -22  -1  14    0.01    0.05
 -22   1  13    0.46    0.08
  22   1 -13    0.53    0.13
 -22   1  13    0.66    0.10
 -22  -1  13    0.56    0.10
 -22   1  12    1.32    0.13
 -22   1  12    0.99    0.09
  22   1 -12    1.20    0.14
 -22  -1  12    1.50    0.12
  22   1 -11    0.21    0.09
 -22   1  11    0.08    0.05
 -22   1  11    0.06    0.07
 -22  -1  11    0.15    0.08
 -22  -1  11    0.08    0.06
  22   1 -10    2.79    0.18
 -22   1  10    2.75    0.15
 -22   1  10    2.66    0.18
 -22  -1  10    2.84    0.17
 -22  -1  10    2.87    0.18
 -22   1   9    0.75    0.13
  22   1  -9    0.75    0.12
 -22   1   9    0.85    0.09
 -22  -1   9    0.81    0.12
 -22  -1   9    1.07    0.12
 -22   1   8   14.61    0.62
  22   1  -8   14.46    0.62
 -22   1   8   14.56    0.61
 -22  -1   8   14.79    0.62
 -22   1   7    7.29    0.31
 -22   1   7    7.07    0.34
 -22   1   7    6.67    0.33
 -22  -1   7    7.39    0.33
 -22  -1   7    6.76    0.32
 -22   1   6    5.19    0.24
 -22   1   6    5.38    0.26
 -22   1   6    4.81    0.28
 -22  -1   6    5.49    0.26
 -22  -1   6    5.11    0.25
 -22   1   5    1.00    0.12
 -22   1   5    1.20    0.10
 -22  -1   5    0.99    0.12
 -22  -1   5    1.09    0.12
 -22  -1   5    1.11    0.17
 -22   1   4    0.92    0.14
 -22   1   4    0.85    0.09
 -22   1   4    0.77    0.12
 -22  -1   4    0.99    0.12
 -22  -1   4    0.79    0.11
 -22  -1   4    0.72    0.15
 -22   1   3    2.42    0.15
 -22   1   3    2.08    0.17
 -22   1   3    2.36    0.14
 -22  -1   3    2.57    0.16
 -22  -1   3    2.41    0.15
 -22  -1   3    2.49    0.17
 -22   1   2    3.78    0.19
 -22   1   2    3.32    0.20
 -22   1   2    3.41    0.19
 -22  -1   2    3.51    0.19
 -22  -1   2    3.24    0.20
 -22  -1   2    3.76    0.20
 -22  -1   2    3.56    0.19
 -22   1   1    0.31    0.10
 -22   1   1    0.48    0.10
 -22   1   1    0.54    0.10
 -22  -1   1    0.42    0.10
 -22  -1   1    0.45    0.11
 -22  -1   1    0.53    0.11
 -22  -1   1    0.43    0.10
 -22   1   0    7.60    0.33
 -22   1   0    7.19    0.33
 -22   1   0    7.57    0.33
 -22  -1   0    7.54    0.33
 -22  -1   0    7.54    0.34
 -22  -1   0    7.18    0.34
 -22  -1   0    7.43    0.34
 -22   1  -1    0.02    0.06
 -22   1  -1    0.13    0.06
 -22   1  -1   -0.08    0.06
 -22  -1  -1   -0.11    0.06
 -22  -1  -1    0.04    0.06
 -22  -1  -1   -0.08    0.07
 -22  -1  -1    0.08    0.06
 -22   1  -2    2.60    0.15
 -22   1  -2    2.55    0.16
 -22   1  -2    2.60    0.15
 -22  -1  -2    2.60    0.17
 -22  -1  -2    2.60    0.16
 -22  -1  -2    2.35    0.16
 -22  -1  -2    2.48    0.16
 -22   1  -3    0.07    0.06
 -22   1  -3   -0.01    0.06
 -22   1  -3    0.02    0.07
 -22  -1  -3   -0.03    0.07
 -22  -1  -3    0.09    0.08
 -22  -1  -3    0.05    0.06
 -22  -1  -3    0.00    0.06
 -22   1  -4    0.09    0.08
 -22   1  -4    0.07    0.06
 -22   1  -4    0.14    0.06
 -22  -1  -4    0.01    0.05
 -22  -1  -4    0.20    0.07
 -22  -1  -4    0.02    0.07
 -22   1  -5    1.07    0.11
 -22   1  -5    0.80    0.14
 -22   1  -5    1.00    0.11
 -22  -1  -5    0.91    0.13
 -22  -1  -5    1.31    0.11
 -22  -1  -5    1.12    0.12
 -22  -1  -5    0.92    0.15
 -22   1  -6    2.19    0.17
 -22   1  -6    2.46    0.15
 -22   1  -6    2.25    0.15
 -22  -1  -6    2.38    0.16
 -22  -1  -6    2.46    0.16
 -22  -1  -6    2.43    0.15
 -22  -1  -6    1.78    0.19
 -22   1  -7    2.22    0.14
 -22   1  -7    2.09    0.17
 -22   1  -7    1.92    0.14
 -22  -1  -7    2.12    0.16
 -22  -1  -7    2.08    0.14
 -22  -1  -7    1.65    0.15
 -22   1  -8   79.10    3.22
 -22   1  -8   80.38    3.23
 -22  -1  -8   81.36    3.23
 -22  -1  -8   79.23    3.23
 -22  -1  -8   83.72    3.24
 -22   1  -9    1.87    0.14
 -22   1  -9    1.48    0.13
 -22  -1  -9    1.69    0.14
 -22  -1  -9    1.77    0.13
 -22  -1  -9    1.74    0.15
 -22   1 -10    3.05    0.18
 -22   1 -10    3.02    0.18
 -22  -1 -10    2.93    0.17
 -22  -1 -10    3.12    0.18
 -22  -1 -10    2.64    0.19
 -22   1 -11    0.05    0.07
 -22   1 -11    0.17    0.07
 -22  -1 -11    0.14    0.06
 -22  -1 -11    0.18    0.07
 -22  -1 -11    0.32    0.10
 -22   1 -12    0.95    0.12
 -22  -1 -12    0.76    0.10
 -22  -1 -12    0.81    0.11
 -22  -1 -13    0.00    0.05
 -22  -1 -13    0.08    0.05
 -22  -1 -14    0.24    0.08
 -22  -1 -14    0.49    0.08
 -22  -1 -15    0.37    0.08
 -22  -1 -15    0.49    0.08
 -22  -1 -16    2.45    0.13
 -22  -1 -16    2.51    0.13
 -22  -1 -17    0.25    0.06
 -22  -1 -17    0.12    0.05
 -22  -1 -18    1.39    0.09
 -22   2  17    0.03    0.03
 -22  -2  17   -0.01    0.04
 -22   2  16    0.63    0.06
 -22  -2  16    0.67    0.08
 -22   2  15    0.07    0.04
  22   2 -15    0.05    0.06
 -22  -2  15    0.10    0.05
 -22   2  14    1.12    0.08
  22   2 -14    1.20    0.10
 -22  -2  14    0.99    0.10
 -22   2  13    0.73    0.07
  22   2 -13    0.83    0.10
 -22  -2  13    0.73    0.09
 -22   2  12    0.12    0.04
  22   2 -12    0.11    0.06
 -22  -2  12    0.09    0.05
  22   2 -11    0.08    0.06
 -22   2  11    0.03    0.04
 -22  -2  11   -0.02    0.05
 -22   2  10    0.13    0.05
  22   2 -10    0.14    0.07
 -22  -2  10    0.29    0.09
 -22   2   9    0.95    0.09
  22   2  -9    1.11    0.13
 -22  -2   9    1.19    0.12
 -22   2   8    2.20    0.13
  22   2  -8    2.14    0.16
 -22  -2   8    2.52    0.16
 -22   2   7    0.67    0.09
  22   2  -7    0.85    0.12
 -22  -2   7    0.74    0.11
 -22   2   6   12.35    0.52
  22   2  -6   12.22    0.53
 -22  -2   6   12.42    0.54
  22   2  -5    0.09    0.07
 -22   2   5    0.08    0.09
 -22   2   5   -0.06    0.09
 -22   2   5    0.04    0.05
 -22  -2   5   -0.02    0.06
  22   2  -4    9.45    0.42
 -22   2   4    9.61    0.41
 -22   2   4    9.56    0.41
 -22   2   4    9.15    0.42
 -22  -2   4    9.37    0.42
 -22  -2   4    9.22    0.43
  22   2  -3    3.66    0.20
 -22   2   3    3.82    0.20
 -22   2   3    3.04    0.18
 -22   2   3    3.97    0.20
 -22  -2   3    3.19    0.21
 -22  -2   3    3.55    0.23
 -22  -2   3    3.98    0.21
 -22   2   2    1.61    0.13
 -22   2   2    1.63    0.14
 -22   2   2    1.76    0.14
 -22  -2   2    1.82    0.14
 -22  -2   2    1.59    0.17
 -22  -2   2    1.74    0.15
 -22   2   1    2.27    0.16
 -22   2   1    2.21    0.16
 -22   2   1    2.22    0.15
 -22  -2   1    2.52    0.16
 -22  -2   1    2.51    0.17
 -22  -2   1    2.36    0.17
 -22   2   0    4.45    0.24
 -22   2   0    4.81    0.23
 -22   2   0    4.86    0.24
 -22  -2   0    4.55    0.25
 -22  -2   0    4.70    0.25
 -22  -2   0    4.76    0.24
 -22   2  -1    0.09    0.06
 -22   2  -1    0.13    0.06
 -22  -2  -1    0.11    0.07
 -22  -2  -1    0.13    0.08
 -22  -2  -1    0.17    0.07
 -22   2  -2    1.92    0.14
 -22   2  -2    2.28    0.14
 -22  -2  -2    1.96    0.16
 -22  -2  -2    2.09    0.15
 -22  -2  -2    1.95    0.17
 -22   2  -3    0.24    0.07
 -22   2  -3    0.30    0.10
 -22  -2  -3    0.06    0.06
 -22  -2  -3    0.20    0.07
 -22  -2  -3    0.10    0.08
 -22   2  -4    8.87    0.40
 -22   2  -4    9.28    0.40
 -22  -2  -4    9.14    0.41
 -22  -2  -4    9.21    0.42
 -22  -2  -4    9.11    0.41
 -22   2  -5    0.41    0.09
 -22   2  -5    0.48    0.10
 -22  -2  -5    0.45    0.11
 -22  -2  -5    0.70    0.11
 -22  -2  -5    0.77    0.13
 -22   2  -6    1.49    0.12
 -22   2  -6    1.27    0.12
 -22  -2  -6    1.59    0.13
 -22  -2  -6    1.47    0.13
 -22  -2  -6    1.41    0.15
 -22   2  -7    8.07    0.36
 -22   2  -7    8.35    0.36
 -22  -2  -7    7.94    0.37
 -22  -2  -7    7.75    0.38
 -22  -2  -7    8.26    0.37
 -22   2  -8    3.83    0.21
 -22   2  -8    3.92    0.20
 -22  -2  -8    4.06    0.22
 -22  -2  -8    4.03    0.21
 -22  -2  -8    3.99    0.23
 -22   2  -9    0.63    0.10
 -22   2  -9    0.46    0.10
 -22  -2  -9    0.59    0.09
 -22  -2  -9    0.67    0.14
 -22  -2  -9    0.56    0.10
 -22   2 -10    1.42    0.12
 -22   2 -10    1.55    0.13
 -22  -2 -10    1.52    0.12
 -22  -2 -10    1.48    0.13
 -22   2 -11    0.00    0.06
 -22   2 -11    0.06    0.06
 -22  -2 -11   -0.10    0.05
 -22  -2 -11   -0.02    0.04
 -22   2 -12    3.55    0.19
 -22   2 -12    3.31    0.20
 -22  -2 -12    3.76    0.19
 -22  -2 -12    3.63    0.19
 -22   2 -13    0.19    0.06
 -22  -2 -13    0.04    0.05
 -22  -2 -13    0.08    0.05
 -22   2 -14    1.87    0.13
 -22  -2 -14    2.05    0.12
 -22  -2 -14    2.10    0.12
 -22  -2 -15    1.05    0.08
 -22  -2 -15    1.09    0.08
 -22  -2 -16    0.23    0.05
 -22  -2 -16    0.29    0.05
 -22  -2 -17    0.03    0.03
 -22  -2 -17    0.16    0.05
  22   3 -15    0.06    0.05
 -22   3  15    0.09    0.03
  22   3 -14    0.18    0.06
 -22   3  14    0.10    0.03
 -22  -3  14    0.05    0.07
 -22   3  13    0.82    0.06
  22   3 -13    0.70    0.07
 -22  -3  13    0.88    0.10
  22   3 -12    2.55    0.14
 -22   3  12    2.50    0.13
 -22  -3  12    2.63    0.15
 -22   3  11    0.06    0.04
  22   3 -11    0.02    0.05
 -22  -3  11    0.04    0.06
 -22   3  10    1.82    0.11
  22   3 -10    1.98    0.13
 -22  -3  10    2.03    0.14
 -22   3   9    2.60    0.14
  22   3  -9    2.64    0.16
 -22  -3   9    2.82    0.17
  22   3  -8   -0.04    0.05
 -22   3   8    0.01    0.05
 -22  -3   8   -0.05    0.06
 -22   3   7    2.42    0.14
  22   3  -7    2.54    0.16
 -22  -3   7    2.33    0.16
  22   3  -6    9.05    0.41
 -22   3   6    8.91    0.39
  22   3  -6    9.44    0.41
 -22  -3   6    9.31    0.41
 -22   3   5    3.81    0.22
  22   3  -5    4.12    0.22
  22   3  -5    4.08    0.22
 -22   3   5    3.85    0.20
 -22  -3   5    4.10    0.22
  22   3  -4    1.27    0.13
 -22   3   4    1.08    0.14
 -22   3   4    1.24    0.12
 -22  -3   4    1.36    0.14
 -22   3   3    0.58    0.12
  22   3  -3    0.57    0.12
 -22   3   3    0.76    0.12
 -22  -3   3    0.48    0.12
  22   3  -2    1.59    0.15
 -22   3   2    1.82    0.14
 -22   3   2    1.75    0.14
 -22  -3   2    1.69    0.15
 -22   3   1    0.98    0.12
 -22   3   1    1.01    0.12
  22   3  -1    1.04    0.15
 -22  -3   1    1.08    0.13
 -22   3   0    8.36    0.37
 -22   3   0    7.84    0.37
  22   3   0    7.94    0.39
 -22  -3   0    8.31    0.38
 -22  -3   0    8.72    0.40
 -22   3  -1    0.01    0.06
 -22   3  -1   -0.03    0.06
  22   3   1   -0.02    0.10
 -22  -3  -1   -0.14    0.09
 -22  -3  -1   -0.09    0.07
  22   3   2    0.80    0.17
 -22   3  -2    0.41    0.09
 -22   3  -2    0.37    0.09
 -22  -3  -2    0.32    0.09
 -22  -3  -2    0.28    0.08
 -22   3  -3    3.37    0.19
 -22   3  -3    3.48    0.19
 -22  -3  -3    3.47    0.20
 -22  -3  -3    3.67    0.21
 -22   3  -4    0.11    0.06
 -22   3  -4    0.05    0.06
 -22  -3  -4   -0.02    0.07
 -22   3  -5   -0.01    0.05
 -22   3  -5    0.03    0.05
 -22  -3  -5   -0.06    0.06
 -22  -3  -5    0.05    0.06
 -22   3  -6    2.05    0.14
 -22   3  -6    1.98    0.13
 -22  -3  -6    1.91    0.14
 -22  -3  -6    2.11    0.14
 -22   3  -7    0.18    0.06
 -22   3  -7    0.23    0.06
 -22  -3  -7    0.14    0.06
 -22  -3  -7    0.19    0.06
 -22   3  -8    2.72    0.16
 -22   3  -8    2.71    0.15
 -22  -3  -8    2.53    0.16
 -22  -3  -8    2.88    0.17
 -22   3  -9    0.58    0.08
 -22   3  -9    0.40    0.09
 -22  -3  -9    0.60    0.09
 -22  -3  -9    0.54    0.08
 -22   3 -10    1.88    0.12
  22   3  10    1.44    0.15
 -22   3 -10    1.78    0.12
 -22  -3 -10    1.89    0.12
 -22  -3 -10    1.94    0.13
 -22   3 -11    0.44    0.09
 -22   3 -11    0.43    0.07
 -22  -3 -11    0.30    0.07
 -22  -3 -11    0.39    0.07
 -22   3 -12    0.38    0.10
 -22   3 -12    0.40    0.07
 -22  -3 -12    0.32    0.06
 -22  -3 -12    0.29    0.07
 -22   3 -13    0.26    0.06
 -22  -3 -13    0.19    0.06
 -22  -3 -13    0.23    0.05
 -22   3 -14    0.72    0.07
 -22  -3 -14    0.76    0.07
 -22  -3 -14    0.75    0.06
 -22  -3 -15    0.15    0.04
 -22  -3 -15    0.28    0.05
  22   4 -11    0.08    0.04
  22   4 -10   -0.01    0.04
  22   4  -9    0.03    0.04
  22   4  -8    1.07    0.08
  22   4  -7    2.79    0.17
  22   4  -7    3.17    0.16
  22   4  -6    2.66    0.16
  22   4  -6    3.09    0.15
  22   4  -5    1.44    0.11
  22   4  -5    1.20    0.10
 -22  -4   5    1.35    0.15
  22   4  -4    0.13    0.06
 -22   4   4    0.21    0.07
  22   4  -4    0.11    0.06
 -22  -4   4    0.20    0.08
  22   4  -3    1.13    0.11
  22   4  -3    1.33    0.11
 -22   4   3    1.27    0.12
 -22  -4   3    1.18    0.13
 -22   4   2    0.08    0.05
  22   4  -2    0.00    0.06
  22   4  -2    0.07    0.06
 -22  -4   2    0.06    0.08
  22   4  -1    0.14    0.08
 -22   4   1    0.23    0.08
  22   4  -1    0.24    0.09
 -22  -4   1    0.08    0.08
 -22   4   0    0.04    0.05
  22   4   0    0.05    0.06
 -22   4   0   -0.01    0.07
 -22  -4   0    0.04    0.07
 -22   4  -1    0.17    0.06
  22   4   1    0.02    0.06
 -22   4  -1    0.09    0.05
 -22  -4  -1    0.18    0.07
 -22   4  -2    2.03    0.12
 -22   4  -2    2.09    0.12
  22   4   2    1.80    0.13
 -22  -4  -2    2.13    0.14
  22   4   3    0.23    0.06
 -22   4  -3    0.21    0.07
 -22   4  -3    0.30    0.08
 -22  -4  -3    0.15    0.07
  22   4   4    2.14    0.14
 -22   4  -4    2.12    0.13
 -22   4  -4    2.24    0.13
 -22  -4  -4    2.26    0.14
  22   4   5    0.09    0.06
 -22   4  -5    0.11    0.05
 -22   4  -5    0.12    0.05
 -22  -4  -5    0.19    0.06
 -22   4  -6    0.67    0.07
  22   4   6    0.77    0.10
 -22   4  -6    0.80    0.08
 -22  -4  -6    0.81    0.10
 -22   4  -7    1.11    0.08
  22   4   7    1.02    0.10
 -22   4  -7    1.04    0.08
 -22  -4  -7    0.95    0.10
 -22  -4  -7    0.94    0.10
  22   4   8    0.28    0.10
 -22   4  -8    0.05    0.04
 -22   4  -8    0.06    0.04
 -22  -4  -8    0.12    0.05
 -22  -4  -8    0.11    0.06
  22   4   9    0.07    0.08
 -22   4  -9    0.08    0.04
 -22   4  -9    0.04    0.03
 -22  -4  -9   -0.02    0.05
 -22  -4  -9    0.03    0.05
 -22   4 -10    0.21    0.07
 -22   4 -10    0.36    0.05
 -22  -4 -10    0.25    0.05
 -22  -4 -10    0.30    0.06
 -22   4 -11    0.23    0.05
 -22  -4 -11    0.26    0.06
  22   5  -2    0.22    0.06
  22   5  -1    0.05    0.04
  22   5   0    0.58    0.07
  22   5   1    0.15    0.04
 -22   5  -1    0.26    0.06
 -22   5  -2    0.01    0.04
  22   5   2    0.06    0.04
 -23   0  19    0.03    0.04
 -23   0  18    0.09    0.04
 -23   0  17    0.00    0.04
 -23   0  16    0.70    0.08
 -23   0  16    0.86    0.11
 -23   0  15    0.00    0.06
 -23   0  15   -0.01    0.04
 -23   0  14    0.81    0.10
 -23   0  14    0.76    0.09
 -23   0  13   -0.03    0.05
 -23   0  13   -0.02    0.05
 -23   0  12    0.33    0.09
 -23   0  12    0.30    0.10
 -23   0  11   -0.01    0.05
  23   0 -11    0.04    0.10
 -23   0  11    0.02    0.06
 -23   0  10    0.67    0.09
  23   0 -10    0.92    0.15
 -23   0  10    0.88    0.11
 -23   0   9   -0.07    0.06
 -23   0   9    0.09    0.06
 -23   0   8    0.07    0.06
 -23   0   8    0.23    0.06
 -23   0   7    0.03    0.05
 -23   0   7    0.04    0.07
 -23   0   6    0.67    0.12
 -23   0   6    0.69    0.10
 -23   0   5    0.09    0.05
 -23   0   5    0.14    0.11
 -23   0   5   -0.02    0.07
 -23   0   5    0.01    0.06
 -23   0   4    0.90    0.13
 -23   0   4    0.74    0.15
 -23   0   4    0.64    0.10
 -23   0   4    0.90    0.11
 -23   0   3   -0.06    0.08
 -23   0   3    0.03    0.05
 -23   0   3    0.10    0.08
 -23   0   3   -0.09    0.06
 -23   0   2    2.88    0.18
 -23   0   2    2.71    0.16
 -23   0   2    2.66    0.20
 -23   0   2    2.76    0.16
 -23   0   1   -0.05    0.06
 -23   0   1    0.00    0.08
 -23   0   1    0.11    0.06
 -23   0   1   -0.11    0.06
 -23   0   0    1.66    0.13
 -23   0   0    1.59    0.13
 -23   0   0    1.62    0.12
 -23   0   0    1.80    0.18
 -23   0  -1    0.07    0.06
 -23   0  -1    0.07    0.06
 -23   0  -1   -0.03    0.05
 -23   0  -1    0.04    0.09
 -23   0  -2   -0.09    0.10
 -23   0  -2   -0.02    0.06
 -23   0  -2    0.12    0.06
 -23   0  -2   -0.05    0.05
 -23   0  -3   -0.07    0.10
 -23   0  -3   -0.01    0.05
 -23   0  -3   -0.03    0.06
 -23   0  -3    0.00    0.06
 -23   0  -4    5.72    0.28
 -23   0  -4    5.99    0.28
 -23   0  -4    6.19    0.27
 -23   0  -4    5.67    0.30
 -23   0  -5    0.05    0.06
 -23   0  -5   -0.02    0.05
 -23   0  -5    0.00    0.06
 -23   0  -5    0.06    0.09
 -23   0  -6    2.33    0.19
 -23   0  -6    2.55    0.16
 -23   0  -6    2.66    0.16
 -23   0  -6    2.51    0.16
 -23   0  -7    0.13    0.07
 -23   0  -7    0.02    0.09
 -23   0  -7    0.03    0.06
 -23   0  -7    0.07    0.07
 -23   0  -8   38.91    1.56
 -23   0  -8   39.77    1.56
 -23   0  -8   37.49    1.56
 -23   0  -8   38.03    1.56
 -23   0  -9   -0.02    0.08
 -23   0  -9    0.06    0.07
 -23   0  -9    0.02    0.07
 -23   0 -10    1.16    0.13
 -23   0 -10    0.97    0.14
 -23   0 -10    1.10    0.13
 -23   0 -11   -0.01    0.08
 -23   0 -11   -0.05    0.08
 -23   0 -11    0.11    0.07
 -23   0 -13    0.06    0.07
 -23   0 -13    0.04    0.07
 -23   0 -14    0.13    0.07
 -23   1  18    0.07    0.05
 -23   1  18    0.03    0.06
 -23  -1  18    0.05    0.04
 -23   1  17    0.06    0.05
 -23   1  17    0.02    0.04
 -23  -1  17    0.05    0.04
 -23   1  16   -0.02    0.04
 -23   1  16   -0.05    0.05
 -23  -1  16    0.03    0.04
 -23   1  15    0.21    0.06
 -23   1  15    0.05    0.05
 -23  -1  15    0.07    0.04
 -23   1  14    0.12    0.06
 -23   1  14    0.13    0.04
 -23  -1  14    0.15    0.05
 -23   1  13    0.31    0.09
 -23   1  13    0.35    0.07
  23   1 -13    0.16    0.08
 -23  -1  13    0.16    0.05
 -23   1  12    0.30    0.10
 -23   1  12    0.33    0.07
  23   1 -12    0.54    0.12
 -23  -1  12    0.29    0.07
 -23   1  11    0.19    0.05
  23   1 -11    0.14    0.08
 -23   1  11    0.03    0.07
 -23  -1  11    0.30    0.07
 -23  -1  11    0.10    0.08
  23   1 -10    1.23    0.14
 -23   1  10    1.05    0.09
 -23   1  10    1.21    0.13
 -23  -1  10    1.01    0.12
 -23  -1  10    0.98    0.14
 -23   1   9    0.97    0.13
 -23   1   9    0.61    0.08
  23   1  -9    0.60    0.12
 -23  -1   9    0.81    0.12
 -23  -1   9    0.63    0.10
 -23   1   8    3.32    0.17
 -23   1   8    3.32    0.21
  23   1  -8    3.50    0.19
 -23  -1   8    3.37    0.19
 -23  -1   8    3.45    0.19
 -23   1   7    4.88    0.27
 -23   1   7    5.00    0.25
 -23   1   7    5.26    0.23
 -23  -1   7    4.31    0.24
 -23  -1   7    5.34    0.25
 -23   1   6    5.91    0.27
 -23   1   6    5.19    0.30
 -23   1   6    5.86    0.28
 -23  -1   6    6.11    0.28
 -23  -1   6    5.84    0.27
 -23   1   5    0.39    0.11
 -23   1   5    0.30    0.08
 -23  -1   5    0.36    0.10
 -23  -1   5    0.63    0.16
 -23  -1   5    0.34    0.07
 -23   1   4    1.58    0.11
 -23   1   4    1.41    0.16
 -23   1   4    1.71    0.13
 -23  -1   4    1.51    0.13
 -23  -1   4    1.49    0.14
 -23  -1   4    1.45    0.16
 -23   1   3    1.69    0.13
 -23   1   3    1.58    0.12
 -23   1   3    1.74    0.14
 -23  -1   3    1.60    0.14
 -23  -1   3    1.81    0.15
 -23  -1   3    1.47    0.13
 -23   1   2    1.99    0.14
 -23   1   2    2.03    0.13
 -23   1   2    1.89    0.15
 -23  -1   2    2.17    0.15
 -23  -1   2    2.06    0.14
 -23  -1   2    1.88    0.15
 -23   1   1    1.78    0.13
 -23   1   1    1.68    0.13
 -23   1   1    1.82    0.13
 -23  -1   1    1.72    0.14
 -23  -1   1    1.85    0.13
 -23  -1   1    1.60    0.14
 -23  -1   1    1.58    0.13
 -23   1   0    2.82    0.17
 -23   1   0    3.01    0.17
 -23   1   0    3.01    0.17
 -23  -1   0    2.88    0.18
 -23  -1   0    2.98    0.17
 -23  -1   0    2.94    0.18
 -23  -1   0    2.85    0.18
 -23   1  -1    1.96    0.13
 -23   1  -1    1.67    0.13
 -23   1  -1    1.80    0.14
 -23  -1  -1    1.96    0.14
 -23  -1  -1    1.58    0.14
 -23  -1  -1    1.79    0.14
 -23  -1  -1    1.78    0.15
 -23   1  -2    0.11    0.06
 -23   1  -2    0.00    0.05
 -23   1  -2    0.10    0.06
 -23  -1  -2   -0.02    0.07
 -23  -1  -2    0.10    0.06
 -23  -1  -2    0.00    0.06
 -23  -1  -2    0.00    0.07
 -23   1  -3   -0.03    0.06
 -23   1  -3    0.08    0.07
 -23   1  -3    0.05    0.05
 -23  -1  -3    0.06    0.08
 -23  -1  -3    0.02    0.06
 -23  -1  -3    0.04    0.08
 -23  -1  -3    0.09    0.06
 -23   1  -4    0.65    0.13
 -23   1  -4    0.84    0.10
 -23   1  -4    0.74    0.10
 -23  -1  -4    0.78    0.10
 -23  -1  -4    0.77    0.13
 -23  -1  -4    0.73    0.11
 -23  -1  -4    0.52    0.12
 -23   1  -5    0.11    0.06
 -23   1  -5    0.02    0.07
 -23   1  -5    0.09    0.06
 -23  -1  -5    0.27    0.09
 -23  -1  -5    0.16    0.09
 -23  -1  -5    0.07    0.07
 -23  -1  -5    0.07    0.06
 -23   1  -6    5.04    0.27
 -23   1  -6    5.52    0.26
 -23   1  -6    5.34    0.25
 -23  -1  -6    5.11    0.27
 -23  -1  -6    4.95    0.26
 -23  -1  -6    5.64    0.27
 -23  -1  -6    5.30    0.26
 -23   1  -7    5.68    0.27
 -23   1  -7    5.94    0.27
 -23  -1  -7    5.40    0.28
 -23  -1  -7    5.69    0.27
 -23  -1  -7    5.46    0.28
 -23   1  -8    3.24    0.19
 -23   1  -8    3.32    0.19
 -23  -1  -8    3.71    0.20
 -23  -1  -8    3.38    0.19
 -23  -1  -8    3.69    0.20
 -23   1  -9    4.34    0.23
 -23   1  -9    4.20    0.22
 -23  -1  -9    4.32    0.23
 -23  -1  -9    4.30    0.22
 -23  -1  -9    4.48    0.24
 -23   1 -10    0.68    0.11
 -23   1 -10    0.67    0.11
 -23  -1 -10    0.72    0.11
 -23  -1 -10    0.45    0.09
 -23  -1 -10    0.58    0.14
 -23   1 -11    0.10    0.07
 -23   1 -11    0.05    0.07
 -23  -1 -11    0.05    0.06
 -23  -1 -11    0.15    0.07
 -23   1 -12    0.12    0.08
 -23   1 -12    0.01    0.08
 -23  -1 -12    0.02    0.05
 -23  -1 -12   -0.03    0.06
 -23  -1 -13    0.30    0.08
 -23  -1 -13    0.26    0.06
 -23  -1 -14    1.29    0.10
 -23  -1 -14    1.37    0.11
 -23  -1 -15    0.24    0.07
 -23  -1 -15    0.12    0.05
 -23  -1 -16    1.32    0.09
 -23  -1 -16    1.12    0.09
 -23  -1 -17    0.31    0.07
 -23  -2  17   -0.03    0.04
 -23   2  16    0.02    0.03
 -23  -2  16    0.06    0.04
 -23   2  15    0.06    0.03
  23   2 -15   -0.03    0.06
 -23  -2  15    0.09    0.05
  23   2 -14    0.10    0.06
 -23   2  14    0.03    0.04
 -23  -2  14    0.06    0.05
  23   2 -13    0.12    0.06
 -23   2  13    0.01    0.03
 -23  -2  13    0.03    0.05
  23   2 -12   -0.06    0.05
 -23   2  12   -0.02    0.03
 -23  -2  12    0.04    0.05
 -23   2  11    0.87    0.08
  23   2 -11    0.78    0.10
 -23  -2  11    0.84    0.10
  23   2 -10    0.08    0.06
 -23   2  10    0.09    0.04
 -23  -2  10    0.01    0.06
  23   2  -9    0.03    0.07
 -23   2   9    0.01    0.05
 -23  -2   9   -0.02    0.05
  23   2  -8    2.65    0.17
 -23   2   8    2.78    0.15
 -23  -2   8    2.76    0.17
  23   2  -7    1.79    0.14
 -23   2   7    1.70    0.12
 -23  -2   7    1.68    0.14
 -23   2   6    2.93    0.16
  23   2  -6    3.00    0.18
 -23  -2   6    2.88    0.18
 -23   2   5   -0.02    0.05
 -23   2   5    0.08    0.09
 -23   2   5   -0.04    0.09
  23   2  -5    0.12    0.06
 -23  -2   5    0.02    0.06
 -23  -2   5   -0.02    0.10
 -23   2   4    3.23    0.17
 -23   2   4    2.97    0.19
 -23   2   4    3.04    0.19
  23   2  -4    3.33    0.19
 -23  -2   4    3.05    0.22
 -23  -2   4    3.14    0.19
  23   2  -3    3.16    0.19
 -23   2   3    3.15    0.17
 -23   2   3    3.12    0.18
 -23   2   3    3.18    0.19
 -23  -2   3    3.07    0.21
 -23  -2   3    3.07    0.19
 -23  -2   3    3.11    0.20
 -23   2   2    1.03    0.12
 -23   2   2    1.14    0.11
 -23   2   2    1.24    0.12
 -23  -2   2    0.85    0.14
 -23  -2   2    1.04    0.13
 -23  -2   2    1.27    0.13
 -23   2   1    1.52    0.14
 -23   2   1    1.71    0.13
 -23   2   1    1.56    0.13
 -23  -2   1    1.61    0.14
 -23  -2   1    1.53    0.15
 -23  -2   1    1.54    0.14
 -23   2   0    3.81    0.21
 -23   2   0    3.88    0.20
 -23   2   0    3.91    0.20
 -23  -2   0    3.46    0.21
 -23  -2   0    3.89    0.22
 -23  -2   0    3.74    0.21
 -23   2  -1    1.97    0.14
 -23   2  -1    1.88    0.16
 -23   2  -1    1.80    0.13
 -23  -2  -1    2.12    0.16
 -23  -2  -1    1.83    0.15
 -23  -2  -1    1.79    0.15
 -23   2  -2    1.61    0.13
 -23   2  -2    1.73    0.13
 -23   2  -2    1.58    0.17
 -23  -2  -2    1.71    0.15
 -23  -2  -2    1.69    0.14
 -23  -2  -2    1.71    0.15
 -23   2  -3    0.12    0.06
 -23   2  -3    0.18    0.06
 -23  -2  -3    0.03    0.06
 -23  -2  -3    0.08    0.06
 -23  -2  -3    0.25    0.08
 -23   2  -4    4.52    0.23
 -23   2  -4    4.38    0.22
 -23  -2  -4    4.47    0.24
 -23  -2  -4    4.51    0.24
 -23  -2  -4    4.41    0.23
 -23   2  -5    0.31    0.09
 -23   2  -5    0.23    0.06
 -23  -2  -5    0.41    0.10
 -23  -2  -5    0.41    0.11
 -23  -2  -5    0.43    0.13
 -23   2  -6    0.08    0.06
 -23   2  -6    0.09    0.06
 -23  -2  -6    0.03    0.06
 -23  -2  -6    0.01    0.06
 -23  -2  -6    0.02    0.08
 -23   2  -7    1.31    0.11
 -23   2  -7    1.14    0.12
 -23  -2  -7    1.17    0.13
 -23  -2  -7    1.12    0.12
 -23  -2  -7    1.21    0.11
 -23   2  -8    1.12    0.11
 -23   2  -8    1.22    0.11
 -23  -2  -8    1.12    0.14
 -23  -2  -8    1.01    0.11
 -23  -2  -8    0.98    0.12
 -23   2  -9    7.77    0.34
 -23   2  -9    7.63    0.34
 -23  -2  -9    7.37    0.35
 -23  -2  -9    7.52    0.35
 -23  -2  -9    7.67    0.36
 -23   2 -10    4.31    0.21
 -23   2 -10    4.15    0.21
 -23  -2 -10    4.25    0.22
 -23  -2 -10    4.23    0.22
 -23   2 -11    0.37    0.09
 -23   2 -11    0.37    0.10
 -23  -2 -11    0.19    0.06
 -23  -2 -11    0.20    0.06
 -23   2 -12    3.07    0.16
 -23   2 -12    3.03    0.18
 -23  -2 -12    2.93    0.16
 -23  -2 -12    2.99    0.17
 -23   2 -13    0.11    0.05
 -23  -2 -13    0.09    0.05
 -23  -2 -13    0.15    0.05
 -23   2 -14    1.93    0.13
 -23  -2 -14    2.05    0.12
 -23  -2 -14    2.04    0.12
 -23  -2 -15    0.57    0.06
 -23  -2 -15    0.49    0.07
 -23  -2 -16    0.04    0.03
 -23  -2 -16    0.06    0.03
 -23  -2 -17    0.18    0.05
 -23  -2 -17    0.20    0.05
 -23   3  15    0.06    0.03
  23   3 -14    0.86    0.08
 -23   3  14    1.12    0.07
 -23  -3  14    0.80    0.12
 -23   3  13    0.07    0.03
  23   3 -13    0.05    0.04
 -23  -3  13    0.02    0.05
 -23   3  12    0.63    0.06
  23   3 -12    0.59    0.07
 -23  -3  12    0.38    0.09
 -23   3  11    2.01    0.11
  23   3 -11    1.96    0.12
 -23  -3  11    1.71    0.12
 -23   3  10    1.30    0.09
  23   3 -10    1.29    0.11
 -23  -3  10    1.28    0.12
  23   3  -9    3.37    0.18
 -23   3   9    3.29    0.16
 -23  -3   9    3.37    0.19
 -23   3   8    0.66    0.08
  23   3  -8    0.73    0.09
 -23  -3   8    0.60    0.10
  23   3  -7    0.86    0.10
 -23   3   7    0.93    0.09
 -23  -3   7    1.03    0.11
  23   3  -6    4.61    0.23
 -23   3   6    4.31    0.21
  23   3  -6    4.41    0.23
 -23  -3   6    4.03    0.23
 -23   3   5    1.51    0.12
 -23   3   5    1.32    0.16
  23   3  -5    1.58    0.14
  23   3  -5    1.32    0.13
 -23  -3   5    1.59    0.14
 -23   3   4    3.92    0.21
  23   3  -4    3.68    0.21
 -23   3   4    3.41    0.19
 -23  -3   4    3.86    0.22
 -23   3   3    1.00    0.13
 -23   3   3    1.15    0.13
 -23  -3   3    0.97    0.12
 -23   3   2    2.17    0.15
 -23   3   2    2.07    0.15
  23   3  -2    2.13    0.16
 -23  -3   2    1.82    0.16
  23   3  -1    0.06    0.09
 -23   3   1    0.23    0.07
 -23   3   1    0.33    0.10
 -23  -3   1    0.22    0.07
 -23   3   0    0.61    0.10
  23   3   0    0.41    0.10
 -23   3   0    0.46    0.10
 -23  -3   0    0.45    0.11
 -23  -3   0    0.55    0.15
 -23   3  -1    0.18    0.06
  23   3   1    0.17    0.10
 -23   3  -1    0.18    0.06
 -23  -3  -1    0.39    0.11
 -23  -3  -1    0.11    0.09
 -23   3  -2    1.47    0.12
  23   3   2    1.63    0.18
 -23   3  -2    1.51    0.12
 -23  -3  -2    1.46    0.15
 -23  -3  -2    1.55    0.14
 -23   3  -3    0.27    0.09
 -23   3  -3    0.33    0.09
 -23  -3  -3    0.46    0.11
 -23  -3  -3    0.52    0.12
 -23   3  -4    0.17    0.06
 -23   3  -4    0.34    0.09
 -23  -3  -4    0.10    0.07
 -23  -3  -4    0.00    0.06
 -23   3  -5    0.40    0.08
 -23   3  -5    0.30    0.09
 -23  -3  -5    0.20    0.07
 -23  -3  -5    0.19    0.07
 -23   3  -6    0.16    0.06
 -23   3  -6    0.21    0.06
 -23  -3  -6    0.34    0.09
 -23  -3  -6    0.12    0.06
 -23   3  -7    0.57    0.09
 -23  -3  -7    0.75    0.10
 -23  -3  -7    0.52    0.10
 -23   3  -8    0.91    0.09
 -23   3  -8    1.02    0.10
 -23  -3  -8    1.05    0.10
 -23  -3  -8    1.21    0.10
 -23   3  -9   -0.01    0.05
 -23  -3  -9    0.05    0.05
 -23  -3  -9   -0.07    0.05
  23   3  10    0.58    0.12
 -23   3 -10    0.63    0.08
 -23   3 -10    0.61    0.09
 -23  -3 -10    0.78    0.08
 -23  -3 -10    0.67    0.09
 -23   3 -11    0.28    0.07
 -23   3 -11    0.18    0.05
 -23  -3 -11    0.30    0.07
 -23  -3 -11    0.21    0.07
 -23   3 -12    0.00    0.04
 -23   3 -12   -0.03    0.06
 -23  -3 -12    0.02    0.04
 -23   3 -13   -0.05    0.04
 -23  -3 -13    0.07    0.03
 -23  -3 -13   -0.01    0.04
 -23   3 -14    2.85    0.13
 -23  -3 -14    2.52    0.12
 -23  -3 -14    2.49    0.13
  23   4 -11    0.18    0.05
  23   4 -10    0.17    0.05
  23   4  -9    0.06    0.04
  23   4  -8    1.12    0.08
  23   4  -7    0.30    0.07
  23   4  -6    0.25    0.07
  23   4  -6    0.38    0.07
  23   4  -5    0.99    0.09
  23   4  -5    0.94    0.10
 -23  -4   5    1.10    0.13
 -23   4   4    0.53    0.11
  23   4  -4    0.67    0.09
  23   4  -4    0.69    0.09
 -23  -4   4    0.79    0.12
  23   4  -3    0.39    0.09
 -23   4   3    0.50    0.10
 -23  -4   3    0.36    0.11
  23   4  -2    0.09    0.06
 -23   4   2    0.12    0.06
  23   4  -2    0.03    0.05
 -23  -4   2    0.20    0.07
  23   4  -1    0.04    0.06
  23   4  -1   -0.02    0.08
 -23   4   1   -0.06    0.05
 -23  -4   1   -0.01    0.07
 -23   4   0    0.14    0.05
  23   4   0    0.26    0.06
 -23  -4   0    0.19    0.07
 -23   4  -1    0.34    0.08
  23   4   1    0.36    0.09
 -23   4  -1    0.28    0.07
 -23  -4  -1    0.33    0.10
  23   4   2    1.48    0.12
 -23   4  -2    1.50    0.10
 -23   4  -2    1.45    0.11
 -23  -4  -2    1.45    0.12
 -23   4  -3    0.60    0.08
 -23   4  -3    0.55    0.08
  23   4   3    0.51    0.09
 -23  -4  -3    0.56    0.10
 -23   4  -4    1.38    0.10
  23   4   4    1.42    0.11
 -23   4  -4    1.46    0.10
 -23  -4  -4    1.35    0.12
 -23   4  -5    1.46    0.09
 -23   4  -5    1.48    0.10
  23   4   5    1.19    0.11
 -23  -4  -5    1.34    0.11
  23   4   6    0.03    0.05
 -23   4  -6    0.08    0.04
 -23   4  -6    0.05    0.04
 -23  -4  -6    0.08    0.06
 -23   4  -7   -0.04    0.04
  23   4   7   -0.03    0.06
 -23   4  -7    0.05    0.04
 -23  -4  -7    0.10    0.09
 -23  -4  -7   -0.01    0.05
  23   4   8    1.54    0.12
 -23   4  -8    1.37    0.09
 -23   4  -8    1.40    0.09
 -23  -4  -8    1.48    0.11
 -23   4  -9    0.85    0.07
 -23   4  -9    0.91    0.07
 -23  -4  -9    0.87    0.09
 -23  -4  -9    0.71    0.08
 -23   4 -10    0.77    0.06
 -23   4 -10    0.70    0.08
 -23  -4 -10    0.67    0.07
 -23   4 -11    0.03    0.03
 -24   0  18    0.10    0.04
 -24   0  17    0.01    0.04
 -24   0  16    0.13    0.10
 -24   0  16    0.08    0.04
 -24   0  15   -0.07    0.04
 -24   0  15   -0.10    0.05
 -24   0  14    3.02    0.17
 -24   0  14    3.29    0.17
 -24   0  13   -0.08    0.05
 -24   0  13    0.05    0.06
 -24   0  12    1.45    0.12
 -24   0  12    1.69    0.12
 -24   0  11   -0.08    0.06
 -24   0  11   -0.06    0.05
  24   0 -11   -0.11    0.10
 -24   0  10    1.51    0.12
  24   0 -10    1.80    0.16
 -24   0  10    1.81    0.14
 -24   0   9    0.04    0.06
 -24   0   9    0.00    0.05
 -24   0   8    1.59    0.14
 -24   0   8    1.73    0.12
 -24   0   7    0.05    0.07
 -24   0   7   -0.05    0.05
 -24   0   6    0.28    0.07
 -24   0   6    0.33    0.09
 -24   0   5   -0.05    0.06
 -24   0   5    0.01    0.06
 -24   0   5    0.00    0.10
 -24   0   5   -0.06    0.05
 -24   0   4    1.73    0.13
 -24   0   4    1.77    0.17
 -24   0   4    1.96    0.16
 -24   0   4    2.02    0.14
 -24   0   3    0.07    0.08
 -24   0   3    0.06    0.06
 -24   0   3    0.05    0.05
 -24   0   3    0.05    0.08
 -24   0   2    5.44    0.25
 -24   0   2    5.01    0.26
 -24   0   2    5.31    0.25
 -24   0   2    5.04    0.27
 -24   0   1   -0.05    0.08
 -24   0   1   -0.08    0.06
 -24   0   1   -0.06    0.06
 -24   0   1    0.01    0.05
 -24   0   0    0.35    0.10
 -24   0   0    0.47    0.09
 -24   0   0    0.46    0.10
 -24   0   0    0.58    0.10
 -24   0  -1   -0.08    0.06
 -24   0  -1    0.01    0.06
 -24   0  -1   -0.03    0.05
 -24   0  -1   -0.11    0.09
 -24   0  -2    1.13    0.17
 -24   0  -2    1.11    0.11
 -24   0  -2    0.99    0.11
 -24   0  -2    0.90    0.11
 -24   0  -3    0.00    0.06
 -24   0  -3    0.01    0.06
 -24   0  -3    0.17    0.10
 -24   0  -3    0.01    0.06
 -24   0  -4    1.13    0.12
 -24   0  -4    0.83    0.16
 -24   0  -4    1.10    0.11
 -24   0  -4    1.19    0.11
 -24   0  -5    0.04    0.06
 -24   0  -5   -0.03    0.05
 -24   0  -5    0.03    0.09
 -24   0  -5    0.01    0.06
 -24   0  -6   84.51    3.27
 -24   0  -6   71.91    3.27
 -24   0  -6   86.50    3.27
 -24   0  -6   84.30    3.26
 -24   0  -7    0.08    0.06
 -24   0  -7    0.01    0.07
 -24   0  -7    0.11    0.07
 -24   0  -8    1.47    0.13
 -24   0  -8    1.50    0.13
 -24   0  -8    1.47    0.14
 -24   0  -8    1.32    0.14
 -24   0  -9   -0.02    0.06
 -24   0  -9    0.10    0.06
 -24   0  -9   -0.12    0.08
 -24   0  -9    0.06    0.09
 -24   0 -10    3.24    0.19
 -24   0 -10    3.40    0.19
 -24   0 -11   -0.08    0.07
 -24   0 -11    0.06    0.06
 -24   0 -11    0.11    0.08
 -24   0 -13    0.03    0.06
 -24   0 -14   -0.05    0.07
 -24  -1  18    0.24    0.06
 -24   1  17   -0.02    0.05
 -24   1  17   -0.03    0.04
 -24  -1  17    0.00    0.03
 -24   1  16    1.13    0.10
 -24   1  16    1.15    0.08
 -24  -1  16    1.12    0.09
 -24   1  15    0.11    0.04
 -24   1  15    0.10    0.05
 -24  -1  15    0.05    0.04
 -24   1  14    1.22    0.09
 -24   1  14    1.07    0.10
 -24  -1  14    0.98    0.10
 -24   1  13   -0.02    0.04
 -24   1  13    0.07    0.06
  24   1 -13    0.01    0.07
 -24  -1  13    0.01    0.05
 -24   1  12    0.11    0.06
  24   1 -12    0.13    0.08
 -24   1  12    0.01    0.04
 -24  -1  12    0.00    0.05
 -24   1  11    0.05    0.05
 -24   1  11    0.02    0.07
  24   1 -11    0.08    0.08
 -24  -1  11   -0.14    0.08
 -24  -1  11   -0.03    0.05
  24   1 -10    0.17    0.08
 -24   1  10    0.10    0.05
 -24   1  10    0.09    0.07
 -24  -1  10    0.05    0.07
 -24  -1  10    0.03    0.05
 -24   1   9    0.10    0.05
  24   1  -9    0.08    0.07
 -24   1   9    0.16    0.08
 -24  -1   9   -0.03    0.06
 -24  -1   9    0.20    0.07
 -24   1   8    3.57    0.22
 -24   1   8    3.89    0.19
  24   1  -8    3.72    0.21
 -24  -1   8    3.72    0.20
 -24  -1   8    4.02    0.21
 -24   1   7    0.13    0.05
 -24   1   7    0.28    0.09
 -24   1   7    0.14    0.08
 -24  -1   7    0.05    0.06
 -24  -1   7    0.07    0.06
 -24   1   6   16.28    0.63
 -24   1   6   14.32    0.63
 -24   1   6   13.29    0.65
 -24  -1   6   16.14    0.65
 -24  -1   6   15.86    0.64
 -24   1   5    0.43    0.15
 -24   1   5    0.26    0.08
 -24   1   5    0.32    0.08
 -24  -1   5    0.35    0.10
 -24  -1   5    0.30    0.08
 -24   1   4    0.98    0.10
 -24   1   4    0.87    0.11
 -24   1   4    1.15    0.15
 -24  -1   4    0.87    0.14
 -24  -1   4    1.01    0.12
 -24  -1   4    0.80    0.11
 -24   1   3    0.45    0.09
 -24   1   3    0.40    0.10
 -24   1   3    0.43    0.12
 -24  -1   3    0.35    0.13
 -24  -1   3    0.55    0.11
 -24  -1   3    0.41    0.10
 -24   1   2   -0.04    0.06
 -24   1   2    0.01    0.05
 -24   1   2    0.12    0.07
 -24  -1   2    0.02    0.06
 -24  -1   2   -0.07    0.07
 -24   1   1    0.81    0.11
 -24   1   1    0.98    0.11
 -24   1   1    0.90    0.10
 -24  -1   1    1.06    0.11
 -24  -1   1    0.72    0.12
 -24  -1   1    0.73    0.12
 -24  -1   1    0.82    0.11
 -24   1   0    1.27    0.11
 -24   1   0    0.98    0.12
 -24   1   0    0.99    0.11
 -24  -1   0    1.16    0.11
 -24  -1   0    1.04    0.12
 -24  -1   0    1.14    0.12
 -24  -1   0    1.36    0.12
 -24   1  -1    2.36    0.15
 -24   1  -1    2.62    0.15
 -24   1  -1    2.63    0.16
 -24  -1  -1    2.35    0.17
 -24  -1  -1    2.47    0.16
 -24  -1  -1    2.57    0.16
 -24  -1  -1    2.58    0.16
 -24   1  -2    3.46    0.18
 -24   1  -2    3.40    0.18
 -24   1  -2    3.28    0.19
 -24  -1  -2    3.47    0.19
 -24  -1  -2    3.28    0.19
 -24  -1  -2    3.50    0.19
 -24  -1  -2    3.52    0.21
 -24   1  -3    0.12    0.06
 -24   1  -3    0.10    0.07
 -24  -1  -3    0.14    0.07
 -24  -1  -3    0.17    0.08
 -24  -1  -3   -0.01    0.06
 -24  -1  -3    0.03    0.06
 -24   1  -4   10.29    0.44
 -24   1  -4   10.30    0.44
 -24   1  -4    9.56    0.44
 -24  -1  -4   10.50    0.44
 -24  -1  -4    9.38    0.44
 -24  -1  -4   10.07    0.45
 -24  -1  -4   10.29    0.44
 -24   1  -5    2.12    0.14
 -24   1  -5    2.26    0.14
 -24   1  -5    2.15    0.17
 -24  -1  -5    2.11    0.15
 -24  -1  -5    2.02    0.16
 -24  -1  -5    2.44    0.15
 -24  -1  -5    2.53    0.16
 -24   1  -6   25.12    1.06
 -24   1  -6   26.04    1.06
 -24   1  -6   26.36    1.06
 -24  -1  -6   27.09    1.07
 -24  -1  -6   24.42    1.06
 -24  -1  -6   26.43    1.07
 -24  -1  -6   25.45    1.06
 -24   1  -7    4.53    0.22
 -24   1  -7    4.51    0.22
 -24   1  -7    4.24    0.24
 -24  -1  -7    4.36    0.23
 -24  -1  -7    4.54    0.24
 -24  -1  -7    4.40    0.24
 -24   1  -8   22.46    0.93
 -24   1  -8   22.30    0.93
 -24  -1  -8   22.57    0.94
 -24  -1  -8   22.57    0.94
 -24  -1  -8   23.02    0.94
 -24   1  -9    3.64    0.20
 -24   1  -9    3.27    0.19
 -24  -1  -9    3.66    0.20
 -24  -1  -9    3.57    0.20
 -24  -1  -9    3.36    0.21
 -24   1 -10    4.51    0.23
 -24   1 -10    4.57    0.23
 -24  -1 -10    4.42    0.25
 -24  -1 -10    4.66    0.23
 -24  -1 -10    4.53    0.23
 -24   1 -11    0.17    0.07
 -24   1 -11   -0.01    0.07
 -24  -1 -11    0.03    0.06
 -24  -1 -11    0.07    0.09
 -24  -1 -11   -0.02    0.05
 -24   1 -12    0.49    0.11
 -24   1 -12    0.32    0.10
 -24  -1 -12    0.62    0.09
 -24  -1 -12    0.69    0.09
 -24  -1 -13    0.44    0.09
 -24  -1 -13    0.30    0.08
 -24  -1 -14    0.61    0.09
 -24  -1 -14    0.76    0.09
 -24  -1 -15    0.09    0.04
 -24  -1 -15   -0.03    0.04
 -24  -1 -16    0.04    0.04
 -24  -1 -16   -0.02    0.04
 -24  -1 -17    0.43    0.08
 -24   2  17    0.01    0.03
 -24  -2  17    0.09    0.04
 -24   2  16    0.03    0.03
 -24  -2  16    0.07    0.04
  24   2 -15   -0.06    0.07
 -24   2  15    0.03    0.03
 -24  -2  15    0.00    0.04
 -24   2  14    0.09    0.04
  24   2 -14    0.15    0.06
 -24  -2  14    0.07    0.05
 -24   2  13    0.11    0.04
  24   2 -13    0.14    0.06
 -24  -2  13    0.10    0.05
  24   2 -12    0.05    0.05
 -24   2  12    0.00    0.04
 -24  -2  12    0.11    0.05
 -24   2  11    2.72    0.14
  24   2 -11    2.45    0.15
 -24  -2  11    2.62    0.16
 -24   2  10    0.77    0.08
  24   2 -10    0.83    0.11
 -24  -2  10    0.80    0.10
 -24   2   9    0.22    0.07
  24   2  -9    0.40    0.11
 -24  -2   9    0.20    0.06
 -24   2   8    8.03    0.35
  24   2  -8    8.04    0.37
 -24  -2   8    7.93    0.37
  24   2  -7    1.57    0.14
 -24   2   7    1.47    0.11
 -24  -2   7    1.63    0.13
 -24   2   6    0.31    0.08
  24   2  -6    0.53    0.11
 -24   2   6    0.42    0.15
 -24  -2   6    0.38    0.10
  24   2  -5    0.29    0.10
 -24   2   5    0.02    0.05
 -24   2   5    0.02    0.08
 -24   2   5    0.08    0.09
 -24  -2   5    0.15    0.10
 -24  -2   5    0.07    0.06
 -24   2   4   -0.05    0.08
 -24   2   4    0.12    0.05
 -24   2   4    0.13    0.08
  24   2  -4    0.11    0.07
 -24  -2   4    0.07    0.07
 -24  -2   4   -0.03    0.09
 -24   2   3    1.74    0.13
  24   2  -3    1.66    0.14
 -24   2   3    1.78    0.13
 -24   2   3    1.70    0.14
 -24  -2   3    1.70    0.14
 -24  -2   3    1.67    0.17
 -24  -2   3    1.70    0.15
 -24   2   2   -0.02    0.06
 -24   2   2   -0.04    0.06
 -24   2   2    0.05    0.06
 -24  -2   2   -0.08    0.05
 -24  -2   2   -0.08    0.07
 -24  -2   2   -0.02    0.08
 -24   2   1    0.41    0.08
 -24   2   1    0.32    0.10
 -24   2   1    0.51    0.10
 -24  -2   1    0.37    0.11
 -24  -2   1    0.46    0.12
 -24  -2   1    0.56    0.11
 -24   2   0    2.64    0.17
 -24   2   0    2.73    0.16
 -24   2   0    2.64    0.16
 -24  -2   0    2.86    0.18
 -24  -2   0    2.59    0.17
 -24  -2   0    2.55    0.18
 -24   2  -1    2.93    0.17
 -24   2  -1    2.75    0.19
 -24   2  -1    2.84    0.17
 -24  -2  -1    2.95    0.18
 -24  -2  -1    2.77    0.18
 -24  -2  -1    3.11    0.19
 -24   2  -2    1.18    0.16
 -24   2  -2    1.18    0.12
 -24   2  -2    1.33    0.12
 -24  -2  -2    1.14    0.13
 -24  -2  -2    1.42    0.14
 -24  -2  -2    1.26    0.14
 -24   2  -3    0.08    0.06
 -24   2  -3    0.12    0.06
 -24  -2  -3    0.07    0.06
 -24  -2  -3    0.14    0.08
 -24  -2  -3    0.10    0.07
 -24   2  -4    0.06    0.05
 -24   2  -4    0.07    0.06
 -24  -2  -4    0.09    0.06
 -24  -2  -4    0.13    0.07
 -24  -2  -4    0.12    0.07
 -24   2  -5    0.05    0.05
 -24   2  -5    0.11    0.06
 -24  -2  -5    0.03    0.06
 -24  -2  -5    0.12    0.07
 -24  -2  -5    0.01    0.06
 -24   2  -6    0.63    0.10
 -24   2  -6    0.62    0.10
 -24  -2  -6    0.50    0.10
 -24  -2  -6    0.58    0.11
 -24  -2  -6    0.64    0.12
 -24   2  -7    0.34    0.09
 -24   2  -7    0.29    0.09
 -24  -2  -7    0.24    0.07
 -24  -2  -7    0.32    0.09
 -24  -2  -7    0.16    0.08
 -24   2  -8    2.47    0.16
 -24   2  -8    2.66    0.15
 -24  -2  -8    2.44    0.17
 -24  -2  -8    2.56    0.16
 -24  -2  -8    2.69    0.18
 -24   2  -9    5.92    0.27
 -24   2  -9    5.93    0.28
 -24  -2  -9    5.99    0.28
 -24  -2  -9    5.66    0.28
 -24  -2  -9    5.74    0.29
 -24   2 -10    6.67    0.30
 -24   2 -10    6.47    0.30
 -24  -2 -10    6.33    0.30
 -24  -2 -10    6.61    0.31
 -24   2 -11    0.66    0.10
 -24   2 -11    0.59    0.09
 -24  -2 -11    0.49    0.08
 -24  -2 -11    0.44    0.09
 -24   2 -12    0.72    0.09
 -24   2 -12    0.62    0.10
 -24  -2 -12    0.80    0.08
 -24  -2 -12    0.66    0.08
 -24   2 -13    0.29    0.08
 -24  -2 -13    0.38    0.07
 -24  -2 -13    0.50    0.08
 -24   2 -14    0.01    0.06
 -24  -2 -14    0.18    0.06
 -24  -2 -14    0.11    0.04
 -24  -2 -15    0.01    0.04
 -24  -2 -15    0.04    0.03
 -24  -2 -16    0.28    0.05
 -24  -2 -16    0.20    0.05
 -24   3  14    1.68    0.09
  24   3 -14    1.40    0.09
  24   3 -13    1.00    0.08
 -24   3  13    1.16    0.08
 -24  -3  13    1.06    0.10
 -24   3  12   -0.01    0.03
  24   3 -12   -0.02    0.04
 -24  -3  12   -0.01    0.05
  24   3 -11    0.90    0.08
 -24   3  11    0.95    0.08
 -24  -3  11    1.02    0.10
  24   3 -10    0.23    0.07
 -24   3  10    0.13    0.04
 -24  -3  10    0.04    0.05
 -24   3   9    2.91    0.15
  24   3  -9    3.01    0.16
 -24  -3   9    2.74    0.16
  24   3  -8    0.53    0.09
 -24   3   8    0.46    0.08
 -24  -3   8    0.66    0.10
 -24   3   7    0.47    0.08
  24   3  -7    0.30    0.09
 -24  -3   7    0.40    0.10
  24   3  -6    1.67    0.15
 -24   3   6    1.47    0.12
  24   3  -6    1.96    0.14
 -24  -3   6    2.12    0.15
  24   3  -5    0.09    0.06
  24   3  -5   -0.03    0.08
 -24   3   5   -0.13    0.09
 -24   3   5   -0.04    0.06
 -24  -3   5    0.00    0.06
  24   3  -4    0.82    0.12
 -24   3   4    0.96    0.11
 -24   3   4    1.04    0.13
 -24  -3   4    0.85    0.12
 -24   3   3    1.63    0.14
  24   3  -3    1.68    0.14
 -24   3   3    1.69    0.13
 -24  -3   3    1.45    0.14
  24   3  -2    1.06    0.13
 -24   3   2    1.09    0.12
 -24   3   2    0.82    0.11
 -24  -3   2    1.11    0.13
 -24   3   1   -0.01    0.07
 -24   3   1   -0.07    0.06
  24   3  -1   -0.02    0.08
 -24  -3   1   -0.09    0.06
 -24   3   0    3.87    0.20
  24   3   0    3.56    0.22
 -24   3   0    4.09    0.20
 -24  -3   0    3.84    0.21
 -24  -3   0    3.48    0.23
  24   3   1    0.05    0.09
 -24   3  -1    0.09    0.06
 -24   3  -1    0.10    0.06
 -24  -3  -1    0.00    0.07
 -24  -3  -1   -0.06    0.08
 -24   3  -2    1.63    0.13
 -24   3  -2    1.74    0.12
  24   3   2    1.76    0.18
 -24  -3  -2    1.77    0.14
 -24  -3  -2    1.59    0.15
 -24   3  -3    0.54    0.09
 -24   3  -3    0.53    0.09
 -24  -3  -3    0.66    0.12
 -24  -3  -3    0.62    0.10
 -24   3  -4    0.13    0.06
 -24   3  -4    0.12    0.06
 -24  -3  -4    0.25    0.07
 -24  -3  -4    0.16    0.07
 -24   3  -5    0.03    0.05
 -24   3  -5    0.08    0.05
 -24  -3  -5    0.07    0.06
 -24  -3  -5    0.02    0.06
 -24   3  -6    0.55    0.09
 -24   3  -6    0.74    0.09
 -24  -3  -6    0.87    0.10
 -24  -3  -6    0.56    0.10
 -24   3  -7    0.49    0.08
 -24   3  -7    0.62    0.08
 -24  -3  -7    0.39    0.09
 -24  -3  -7    0.44    0.09
 -24   3  -8    1.52    0.11
 -24   3  -8    1.40    0.10
 -24  -3  -8    1.24    0.11
 -24  -3  -8    1.41    0.11
 -24   3  -9    0.09    0.05
 -24   3  -9    0.10    0.05
 -24  -3  -9    0.07    0.05
 -24  -3  -9    0.09    0.05
 -24   3 -10    0.23    0.06
  24   3  10    0.16    0.08
 -24   3 -10    0.31    0.07
 -24  -3 -10    0.14    0.05
 -24  -3 -10    0.35    0.07
 -24   3 -11    0.04    0.05
 -24   3 -11   -0.01    0.04
 -24  -3 -11    0.00    0.04
 -24  -3 -11    0.01    0.04
 -24   3 -12    0.66    0.07
 -24   3 -12    0.72    0.10
 -24  -3 -12    0.60    0.07
 -24  -3 -12    0.64    0.07
 -24   3 -13   -0.01    0.04
 -24  -3 -13   -0.03    0.03
 -24  -3 -13   -0.03    0.03
 -24  -3 -14    1.74    0.09
 -24  -3 -14    1.79    0.09
  24   4 -10    0.36    0.06
  24   4  -9    0.08    0.04
  24   4  -8    1.25    0.09
  24   4  -7    1.32    0.09
  24   4  -6    0.37    0.10
  24   4  -5    0.10    0.05
  24   4  -5    0.14    0.06
 -24  -4   5    0.09    0.08
  24   4  -4   -0.02    0.05
  24   4  -4   -0.07    0.05
 -24  -4   4   -0.03    0.07
  24   4  -3    0.22    0.08
  24   4  -3    0.03    0.06
 -24   4   3    0.06    0.06
 -24  -4   3    0.12    0.07
  24   4  -2    0.82    0.10
 -24   4   2    0.62    0.09
  24   4  -2    0.95    0.11
 -24  -4   2    1.03    0.12
 -24   4   1    0.06    0.05
  24   4  -1    0.09    0.08
  24   4  -1    0.00    0.05
 -24  -4   1   -0.02    0.07
 -24   4   0    1.43    0.10
  24   4   0    1.19    0.11
 -24   4   0    1.21    0.11
 -24  -4   0    1.27    0.12
  24   4   1    0.10    0.05
 -24   4  -1    0.28    0.08
 -24   4  -1    0.13    0.05
 -24  -4  -1    0.09    0.06
 -24   4  -2    0.38    0.08
 -24   4  -2    0.33    0.07
  24   4   2    0.35    0.09
 -24  -4  -2    0.35    0.09
  24   4   3    3.45    0.18
 -24   4  -3    3.43    0.17
 -24   4  -3    3.59    0.17
 -24  -4  -3    3.56    0.18
 -24   4  -4    0.03    0.04
 -24   4  -4    0.02    0.04
  24   4   4   -0.01    0.05
 -24  -4  -4   -0.02    0.05
 -24   4  -5    0.08    0.04
  24   4   5   -0.04    0.05
 -24   4  -5    0.04    0.04
 -24  -4  -5    0.10    0.06
 -24   4  -6    1.01    0.08
  24   4   6    0.90    0.09
 -24   4  -6    0.78    0.07
 -24  -4  -6    0.98    0.09
 -24   4  -7    1.79    0.10
  24   4   7    1.52    0.11
 -24   4  -7    1.67    0.09
 -24  -4  -7    1.46    0.11
 -24   4  -8    0.00    0.04
 -24   4  -8    0.04    0.03
  24   4   8    0.04    0.07
 -24  -4  -8   -0.01    0.05
 -24   4  -9    0.05    0.03
 -24  -4  -9    0.07    0.04
 -24   4 -10    0.14    0.05
 -24  -4 -10    0.12    0.05
 -25   0  18    0.02    0.04
 -25   0  17   -0.04    0.04
 -25   0  16    0.11    0.04
 -25   0  15    0.03    0.04
 -25   0  15    0.06    0.06
 -25   0  14    0.84    0.10
 -25   0  14    1.10    0.10
 -25   0  13   -0.09    0.05
 -25   0  13    0.00    0.05
 -25   0  12    3.04    0.18
 -25   0  12    3.06    0.17
 -25   0  11   -0.05    0.05
  25   0 -11    0.13    0.10
 -25   0  11    0.08    0.06
 -25   0  10    2.99    0.17
  25   0 -10    2.46    0.18
 -25   0  10    2.80    0.16
 -25   0   9    0.01    0.05
 -25   0   9   -0.04    0.06
 -25   0   8    5.97    0.28
 -25   0   8    6.22    0.30
 -25   0   7   -0.04    0.06
 -25   0   7    0.12    0.06
 -25   0   6    0.71    0.10
 -25   0   6    0.75    0.12
 -25   0   5   -0.04    0.06
 -25   0   5   -0.01    0.10
 -25   0   5   -0.01    0.07
 -25   0   5    0.04    0.05
 -25   0   4    1.51    0.16
 -25   0   4    1.42    0.15
 -25   0   4    1.56    0.12
 -25   0   4    1.61    0.12
 -25   0   3    0.10    0.05
 -25   0   3   -0.01    0.06
 -25   0   3    0.14    0.08
 -25   0   3   -0.05    0.07
 -25   0   2    4.89    0.25
 -25   0   2    4.65    0.26
 -25   0   2    4.95    0.24
 -25   0   2    4.97    0.24
 -25   0   1    0.18    0.09
 -25   0   1   -0.02    0.05
 -25   0   1    0.07    0.07
 -25   0   1   -0.03    0.05
 -25   0   0    1.54    0.12
 -25   0   0    1.74    0.16
 -25   0   0    1.63    0.13
 -25   0   0    1.40    0.12
 -25   0  -1    0.09    0.09
 -25   0  -1    0.00    0.06
 -25   0  -1   -0.06    0.06
 -25   0  -1    0.00    0.05
 -25   0  -2    0.47    0.09
 -25   0  -2    0.37    0.10
 -25   0  -2    0.52    0.16
 -25   0  -2    0.41    0.09
 -25   0  -3    0.03    0.09
 -25   0  -3    0.09    0.06
 -25   0  -3    0.01    0.06
 -25   0  -3    0.01    0.05
 -25   0  -4   12.85    0.55
 -25   0  -4   12.37    0.56
 -25   0  -4   12.81    0.55
 -25   0  -4   13.07    0.54
 -25   0  -5   -0.11    0.06
 -25   0  -5   -0.03    0.06
 -25   0  -5   -0.02    0.09
 -25   0  -5   -0.02    0.06
 -25   0  -6   70.00    2.85
 -25   0  -6   71.18    2.85
 -25   0  -6   71.90    2.84
 -25   0  -7    0.04    0.06
 -25   0  -7   -0.14    0.09
 -25   0  -7    0.00    0.06
 -25   0  -7   -0.04    0.07
 -25   0  -8   11.16    0.49
 -25   0  -8   10.94    0.49
 -25   0  -8   11.28    0.49
 -25   0  -8   11.13    0.48
 -25   0  -9    0.03    0.08
 -25   0  -9    0.07    0.09
 -25   0  -9    0.04    0.06
 -25   0  -9    0.01    0.06
 -25   0 -10    0.80    0.12
 -25   0 -11    0.06    0.06
 -25   0 -11   -0.05    0.07
 -25   0 -11    0.10    0.08
 -25   0 -13    0.12    0.06
 -25   0 -14   -0.09    0.08
 -25   1  17   -0.05    0.04
 -25   1  17   -0.05    0.05
 -25  -1  17   -0.04    0.04
 -25   1  16    2.56    0.13
 -25   1  16    2.38    0.13
 -25  -1  16    2.30    0.13
 -25   1  15    0.12    0.05
 -25   1  15    0.04    0.04
 -25  -1  15    0.03    0.04
 -25   1  14    0.75    0.10
 -25   1  14    0.88    0.08
 -25  -1  14    0.86    0.09
  25   1 -13    0.12    0.08
 -25   1  13    0.10    0.04
 -25   1  13    0.11    0.06
 -25  -1  13    0.12    0.05
  25   1 -12    0.51    0.11
 -25   1  12    0.50    0.11
 -25   1  12    0.46    0.08
 -25  -1  12    0.59    0.09
  25   1 -11    1.35    0.14
 -25   1  11    1.48    0.10
 -25   1  11    1.17    0.13
 -25  -1  11    1.52    0.12
 -25  -1  11    1.47    0.14
 -25   1  10    1.33    0.10
 -25   1  10    1.08    0.14
  25   1 -10    1.30    0.14
 -25  -1  10    1.27    0.13
 -25  -1  10    1.47    0.12
  25   1  -9    1.28    0.12
 -25   1   9    1.11    0.14
 -25   1   9    1.25    0.10
 -25  -1   9    0.96    0.13
 -25  -1   9    1.22    0.12
 -25   1   8   16.40    0.68
 -25   1   8   16.37    0.69
  25   1  -8   16.46    0.69
 -25  -1   8   16.09    0.69
 -25  -1   8   16.78    0.70
 -25   1   7    8.30    0.40
 -25   1   7    8.97    0.38
 -25   1   7    8.94    0.39
 -25  -1   7    8.34    0.38
 -25  -1   7    8.48    0.39
 -25   1   6    7.55    0.33
 -25   1   6    7.20    0.32
 -25  -1   6    6.97    0.33
 -25  -1   6    7.23    0.34
 -25   1   5    1.04    0.10
 -25   1   5    0.93    0.16
 -25   1   5    1.27    0.12
 -25  -1   5    1.09    0.12
 -25  -1   5    0.99    0.11
 -25  -1   5    1.42    0.18
 -25   1   4   -0.01    0.08
 -25   1   4    0.12    0.07
 -25   1   4    0.07    0.05
 -25  -1   4    0.05    0.09
 -25  -1   4    0.08    0.07
 -25  -1   4    0.03    0.06
 -25   1   3    0.02    0.05
 -25   1   3    0.02    0.07
 -25   1   3   -0.04    0.06
 -25  -1   3   -0.05    0.06
 -25  -1   3   -0.06    0.08
 -25  -1   3    0.06    0.06
 -25   1   2    2.12    0.15
 -25   1   2    2.08    0.14
 -25   1   2    2.09    0.14
 -25  -1   2    2.14    0.16
 -25  -1   2    2.14    0.16
 -25  -1   2    2.15    0.15
 -25   1   1    0.02    0.06
 -25   1   1    0.05    0.05
 -25   1   1    0.03    0.06
 -25  -1   1    0.01    0.06
 -25  -1   1    0.11    0.06
 -25  -1   1    0.19    0.07
 -25  -1   1   -0.02    0.07
 -25   1   0   10.57    0.47
 -25   1   0   11.12    0.47
 -25   1   0   10.87    0.47
 -25  -1   0   10.83    0.48
 -25  -1   0   10.98    0.48
 -25  -1   0   11.05    0.48
 -25  -1   0   11.17    0.47
 -25   1  -1    0.20    0.06
 -25   1  -1    0.26    0.09
 -25   1  -1    0.16    0.06
 -25  -1  -1    0.12    0.06
 -25  -1  -1    0.16    0.07
 -25  -1  -1    0.26    0.08
 -25  -1  -1    0.23    0.07
 -25   1  -2    9.72    0.40
 -25   1  -2    9.28    0.41
 -25   1  -2    7.76    0.40
 -25  -1  -2    9.88    0.41
 -25  -1  -2    9.45    0.42
 -25  -1  -2    9.42    0.40
 -25  -1  -2    8.56    0.41
 -25   1  -3    0.08    0.06
 -25   1  -3    0.02    0.06
 -25   1  -3    0.05    0.07
 -25  -1  -3    0.10    0.06
 -25  -1  -3    0.20    0.08
 -25  -1  -3    0.08    0.06
 -25  -1  -3    0.06    0.07
 -25   1  -4   14.22    0.61
 -25   1  -4   14.41    0.62
 -25   1  -4   14.61    0.61
 -25  -1  -4   14.90    0.62
 -25  -1  -4   15.11    0.63
 -25  -1  -4   14.11    0.61
 -25  -1  -4   14.64    0.62
 -25   1  -5   22.25    0.90
 -25   1  -5   21.77    0.90
 -25   1  -5   21.47    0.91
 -25  -1  -5   21.89    0.91
 -25  -1  -5   21.39    0.90
 -25  -1  -5   21.74    0.91
 -25  -1  -5   22.71    0.91
 -25   1  -6    7.55    0.34
 -25   1  -6    7.55    0.35
 -25   1  -6    7.59    0.35
 -25  -1  -6    7.57    0.35
 -25  -1  -6    7.75    0.36
 -25  -1  -6    7.86    0.35
 -25  -1  -6    7.53    0.35
 -25   1  -7    2.87    0.17
 -25   1  -7    3.00    0.20
 -25   1  -7    3.23    0.18
 -25  -1  -7    3.22    0.19
 -25  -1  -7    2.94    0.18
 -25  -1  -7    3.03    0.17
 -25   1  -8   19.90    0.83
 -25   1  -8   20.26    0.83
 -25  -1  -8   19.30    0.84
 -25  -1  -8   19.82    0.84
 -25  -1  -8   21.24    0.84
 -25   1  -9    1.22    0.12
 -25   1  -9    1.11    0.12
 -25  -1  -9    1.09    0.12
 -25  -1  -9    1.48    0.14
 -25  -1  -9    1.29    0.12
 -25   1 -10    4.01    0.21
 -25   1 -10    4.13    0.21
 -25  -1 -10    4.05    0.21
 -25  -1 -10    3.64    0.22
 -25  -1 -10    3.92    0.21
 -25   1 -11    0.04    0.07
 -25   1 -11   -0.04    0.06
 -25  -1 -11    0.07    0.06
 -25  -1 -11   -0.08    0.05
 -25  -1 -11    0.42    0.14
 -25   1 -12    1.78    0.13
 -25   1 -12    1.41    0.13
 -25  -1 -12    1.71    0.12
 -25  -1 -12    1.59    0.12
 -25  -1 -13   -0.03    0.04
 -25  -1 -13    0.00    0.05
 -25  -1 -14    0.21    0.05
 -25  -1 -14    0.23    0.08
 -25  -1 -15    0.32    0.07
 -25  -1 -15    0.34    0.07
 -25  -1 -16    0.13    0.05
 -25  -1 -16    0.16    0.05
 -25   2  16    0.02    0.03
 -25  -2  16    0.05    0.04
 -25   2  15    0.16    0.05
 -25  -2  15    0.26    0.06
 -25   2  14    0.47    0.06
  25   2 -14    0.37    0.09
 -25  -2  14    0.38    0.07
 -25   2  13    0.26    0.06
  25   2 -13    0.21    0.06
 -25  -2  13    0.18    0.05
  25   2 -12    0.33    0.08
 -25   2  12    0.43    0.06
 -25  -2  12    0.43    0.08
  25   2 -11    0.13    0.05
 -25   2  11    0.24    0.06
 -25  -2  11    0.12    0.05
  25   2 -10    0.28    0.09
 -25   2  10    0.38    0.07
 -25  -2  10    0.43    0.09
  25   2  -9    6.50    0.30
 -25   2   9    6.24    0.28
 -25  -2   9    6.13    0.30
 -25   2   8    9.14    0.39
  25   2  -8    9.02    0.41
 -25  -2   8    9.10    0.41
 -25   2   7    6.70    0.30
  25   2  -7    6.79    0.32
 -25  -2   7    6.42    0.31
 -25   2   6    1.37    0.11
  25   2  -6    1.29    0.12
 -25   2   6    1.06    0.15
 -25  -2   6    1.23    0.12
 -25   2   5    0.81    0.13
 -25   2   5    0.89    0.10
 -25   2   5    0.88    0.14
  25   2  -5    1.01    0.12
 -25  -2   5    0.89    0.16
 -25  -2   5    0.87    0.11
  25   2  -4    1.33    0.13
 -25   2   4    1.18    0.11
 -25   2   4    1.46    0.15
 -25   2   4    1.49    0.13
 -25  -2   4    1.16    0.16
 -25  -2   4    1.38    0.13
 -25   2   3    0.77    0.11
 -25   2   3    0.39    0.11
  25   2  -3    0.54    0.12
 -25   2   3    0.59    0.10
 -25  -2   3    0.53    0.12
 -25  -2   3    0.72    0.13
 -25  -2   3    0.58    0.11
 -25   2   2    0.91    0.11
 -25   2   2    0.86    0.11
 -25   2   2    1.00    0.11
 -25  -2   2    0.88    0.13
 -25  -2   2    0.78    0.12
 -25  -2   2    0.98    0.12
 -25   2   1    0.02    0.06
 -25   2   1   -0.04    0.06
 -25   2   1    0.03    0.06
 -25  -2   1   -0.05    0.06
 -25  -2   1    0.07    0.07
 -25  -2   1   -0.02    0.07
 -25   2   0    2.21    0.16
 -25   2   0    2.40    0.15
 -25   2   0    2.26    0.14
 -25  -2   0    2.32    0.16
 -25  -2   0    1.95    0.16
 -25  -2   0    2.28    0.16
 -25   2  -1    1.49    0.14
 -25   2  -1    1.57    0.12
 -25   2  -1    1.59    0.12
 -25  -2  -1    1.48    0.14
 -25  -2  -1    1.52    0.14
 -25  -2  -1    1.55    0.14
 -25   2  -2    0.29    0.09
 -25   2  -2    0.36    0.09
 -25   2  -2    0.34    0.09
 -25  -2  -2    0.25    0.07
 -25  -2  -2    0.32    0.11
 -25  -2  -2    0.25    0.07
 -25   2  -3    0.76    0.10
 -25   2  -3    0.79    0.10
 -25  -2  -3    0.78    0.13
 -25  -2  -3    0.75    0.11
 -25  -2  -3    0.74    0.12
 -25   2  -4   -0.03    0.05
 -25   2  -4    0.08    0.06
 -25  -2  -4   -0.05    0.06
 -25  -2  -4    0.10    0.07
 -25  -2  -4    0.05    0.06
 -25   2  -5    0.51    0.09
 -25   2  -5    0.71    0.09
 -25  -2  -5    0.46    0.11
 -25  -2  -5    0.40    0.11
 -25  -2  -5    0.66    0.12
 -25   2  -6    1.34    0.11
 -25   2  -6    1.24    0.11
 -25  -2  -6    1.34    0.13
 -25  -2  -6    1.17    0.13
 -25  -2  -6    1.24    0.12
 -25   2  -7    3.09    0.17
 -25   2  -7    3.03    0.18
 -25  -2  -7    3.23    0.18
 -25  -2  -7    3.15    0.19
 -25  -2  -7    3.23    0.19
 -25   2  -8    3.10    0.17
 -25   2  -8    2.99    0.17
 -25  -2  -8    2.84    0.18
 -25  -2  -8    2.89    0.17
 -25  -2  -8    2.88    0.19
 -25   2  -9    0.16    0.06
 -25   2  -9    0.15    0.06
 -25  -2  -9    0.16    0.08
 -25  -2  -9    0.15    0.06
 -25  -2  -9    0.09    0.06
 -25   2 -10    4.09    0.21
 -25   2 -10    4.06    0.21
 -25  -2 -10    4.09    0.21
 -25  -2 -10    4.41    0.22
 -25   2 -11    0.46    0.08
 -25   2 -11    0.28    0.09
 -25  -2 -11    0.49    0.08
 -25  -2 -11    0.45    0.09
 -25   2 -12    0.04    0.05
 -25   2 -12    0.03    0.07
 -25  -2 -12   -0.05    0.04
 -25  -2 -12    0.05    0.04
 -25   2 -13    0.35    0.08
 -25  -2 -13    0.24    0.07
 -25  -2 -13    0.12    0.05
 -25   2 -14    1.15    0.10
 -25  -2 -14    1.17    0.09
 -25  -2 -14    1.19    0.08
 -25  -2 -15    0.56    0.06
 -25  -2 -15    0.42    0.06
 -25  -2 -16    1.30    0.08
 -25  -2 -16    1.42    0.08
 -25   3  14    0.36    0.05
  25   3 -14    0.23    0.08
 -25   3  13    0.34    0.06
 -25  -3  13    0.44    0.09
  25   3 -12    0.22    0.06
 -25   3  12    0.30    0.06
 -25  -3  12    0.29    0.08
 -25   3  11    0.00    0.04
  25   3 -11   -0.02    0.04
 -25  -3  11    0.01    0.05
  25   3 -10    1.85    0.12
 -25   3  10    1.97    0.11
 -25  -3  10    2.24    0.13
 -25   3   9    1.26    0.09
  25   3  -9    1.32    0.10
 -25  -3   9    1.33    0.11
  25   3  -8    6.13    0.28
 -25   3   8    5.82    0.27
 -25  -3   8    6.26    0.29
 -25   3   7    0.15    0.05
  25   3  -7   -0.17    0.10
  25   3  -7    0.15    0.05
 -25  -3   7    0.16    0.06
  25   3  -6    0.62    0.13
  25   3  -6    0.63    0.10
 -25   3   6    0.77    0.09
 -25  -3   6    0.56    0.10
  25   3  -5    0.58    0.12
 -25   3   5    0.51    0.09
  25   3  -5    0.38    0.10
 -25  -3   5    0.44    0.11
 -25   3   4   -0.01    0.06
  25   3  -4    0.15    0.07
 -25   3   4    0.06    0.07
 -25  -3   4    0.10    0.07
  25   3  -3    2.18    0.15
 -25   3   3    1.66    0.14
 -25   3   3    1.91    0.14
 -25  -3   3    1.82    0.15
 -25   3   2    0.11    0.07
  25   3  -2    0.14    0.08
 -25   3   2    0.00    0.06
 -25  -3   2    0.09    0.07
 -25   3   1    0.15    0.06
 -25   3   1    0.16    0.06
  25   3  -1    0.07    0.08
 -25  -3   1    0.03    0.06
 -25   3   0    9.63    0.42
  25   3   0    9.57    0.43
 -25   3   0    9.52    0.42
 -25  -3   0    9.28    0.43
 -25  -3   0    9.98    0.43
 -25   3  -1    0.46    0.09
  25   3   1    0.47    0.10
 -25   3  -1    0.30    0.09
 -25  -3  -1    0.23    0.07
 -25  -3  -1    0.26    0.09
 -25   3  -2    0.67    0.10
 -25   3  -2    0.68    0.10
  25   3   2    1.10    0.17
 -25  -3  -2    0.38    0.12
 -25  -3  -2    0.74    0.11
 -25   3  -3    1.32    0.11
 -25   3  -3    1.28    0.11
 -25  -3  -3    1.43    0.13
 -25  -3  -3    1.65    0.13
 -25   3  -4    0.15    0.05
 -25   3  -4    0.05    0.05
 -25  -3  -4    0.14    0.07
 -25  -3  -4    0.35    0.10
 -25   3  -5    2.38    0.14
 -25   3  -5    2.50    0.15
 -25  -3  -5    2.45    0.16
 -25  -3  -5    2.55    0.16
 -25   3  -6    0.40    0.08
 -25   3  -6    0.50    0.08
 -25  -3  -6    0.45    0.09
 -25  -3  -6    0.41    0.09
 -25   3  -7    0.22    0.07
 -25   3  -7    0.27    0.07
 -25  -3  -7    0.24    0.08
 -25  -3  -7    0.21    0.06
 -25   3  -8    0.04    0.05
 -25   3  -8    0.01    0.04
 -25  -3  -8    0.06    0.05
 -25  -3  -8    0.00    0.05
 -25   3  -9    0.15    0.05
 -25   3  -9    0.26    0.07
 -25  -3  -9    0.14    0.05
 -25  -3  -9    0.22    0.07
 -25   3 -10    2.16    0.12
  25   3  10    1.85    0.15
 -25   3 -10    2.15    0.12
 -25  -3 -10    2.13    0.13
 -25  -3 -10    2.07    0.12
 -25   3 -11    0.16    0.05
 -25   3 -11    0.19    0.05
 -25  -3 -11    0.28    0.06
 -25  -3 -11    0.09    0.04
 -25   3 -12    1.13    0.12
 -25   3 -12    1.56    0.09
 -25  -3 -12    1.43    0.09
 -25  -3 -12    1.46    0.09
 -25   3 -13    0.09    0.04
 -25  -3 -13    0.00    0.03
 -25  -3 -13    0.05    0.03
 -25  -3 -14    0.11    0.03
 -25  -3 -14    0.08    0.03
  25   4 -10    1.01    0.07
  25   4  -9    0.03    0.04
  25   4  -8    1.17    0.08
  25   4  -7    0.20    0.06
  25   4  -6    0.30    0.10
  25   4  -5    0.36    0.07
  25   4  -5    0.29    0.08
 -25  -4   5    0.14    0.08
  25   4  -4    0.72    0.09
  25   4  -4    0.52    0.08
 -25  -4   4    0.85    0.11
  25   4  -3    0.04    0.05
  25   4  -3   -0.02    0.06
 -25  -4   3    0.02    0.07
  25   4  -2    1.67    0.11
 -25   4   2    1.57    0.11
  25   4  -2    1.52    0.13
 -25  -4   2    1.53    0.13
  25   4  -1    0.04    0.05
 -25   4   1    0.01    0.05
  25   4  -1   -0.03    0.08
 -25  -4   1    0.00    0.06
 -25   4   0    1.54    0.11
  25   4   0    1.59    0.11
 -25   4   0    1.62    0.12
 -25  -4   0    1.58    0.12
 -25   4  -1    0.07    0.05
  25   4   1    0.20    0.06
 -25   4  -1    0.09    0.04
 -25  -4  -1    0.14    0.06
 -25   4  -2    0.32    0.07
 -25   4  -2    0.26    0.06
  25   4   2    0.17    0.05
 -25  -4  -2    0.29    0.09
 -25   4  -3    2.85    0.14
  25   4   3    2.83    0.15
 -25   4  -3    2.80    0.14
 -25  -4  -3    2.77    0.15
 -25   4  -4    7.27    0.31
  25   4   4    7.55    0.32
 -25   4  -4    7.32    0.31
 -25  -4  -4    7.00    0.32
 -25   4  -5    0.34    0.06
  25   4   5    0.36    0.08
 -25   4  -5    0.31    0.06
 -25  -4  -5    0.27    0.08
  25   4   6    6.59    0.30
 -25   4  -6    6.97    0.30
 -25   4  -6    7.36    0.30
 -25  -4  -6    7.06    0.31
  25   4   7    0.00    0.05
 -25   4  -7    0.07    0.04
 -25   4  -7   -0.02    0.03
 -25  -4  -7    0.04    0.05
  25   4   8    0.19    0.06
 -25   4  -8    0.16    0.05
 -25  -4  -8    0.11    0.05
 -25   4  -9    0.08    0.03
 -25   4  -9    0.03    0.04
 -25  -4  -9   -0.05    0.04
 -26   0  17    0.04    0.04
 -26   0  16    0.09    0.04
 -26   0  15    0.01    0.04
 -26   0  15    0.04    0.06
 -26   0  14    0.06    0.05
 -26   0  14    0.10    0.05
 -26   0  13   -0.03    0.05
 -26   0  13    0.05    0.05
 -26   0  12    2.32    0.14
 -26   0  12    1.94    0.14
 -26   0  11   -0.03    0.06
 -26   0  11   -0.01    0.06
  26   0 -11   -0.02    0.10
  26   0 -10    3.72    0.21
 -26   0  10    3.72    0.19
 -26   0  10    3.87    0.21
 -26   0   9    0.04    0.06
 -26   0   9   -0.10    0.06
 -26   0   8    7.75    0.35
 -26   0   8    7.90    0.36
 -26   0   7   -0.08    0.06
 -26   0   7   -0.03    0.05
 -26   0   6    0.13    0.07
 -26   0   6    0.10    0.06
 -26   0   5    0.01    0.05
 -26   0   5    0.03    0.07
 -26   0   5    0.05    0.10
 -26   0   4    0.25    0.06
 -26   0   4    0.41    0.09
 -26   0   4    0.25    0.08
 -26   0   4    0.31    0.09
 -26   0   3   -0.01    0.07
 -26   0   3    0.33    0.12
 -26   0   3   -0.02    0.05
 -26   0   3   -0.02    0.06
 -26   0   2    3.69    0.18
 -26   0   2    2.90    0.21
 -26   0   2    3.59    0.18
 -26   0   2    3.32    0.20
 -26   0   1    0.01    0.05
 -26   0   1    0.08    0.07
 -26   0   1    0.00    0.08
 -26   0   1    0.09    0.06
 -26   0   0    0.16    0.06
 -26   0   0    0.27    0.07
 -26   0   0    0.19    0.09
 -26   0   0    0.25    0.07
 -26   0  -1    0.02    0.06
 -26   0  -1   -0.05    0.09
 -26   0  -1    0.00    0.06
 -26   0  -1   -0.04    0.05
 -26   0  -2    8.72    0.38
 -26   0  -2    8.85    0.38
 -26   0  -2    7.78    0.40
 -26   0  -2    8.52    0.38
 -26   0  -3    0.02    0.09
 -26   0  -3    0.12    0.06
 -26   0  -3    0.03    0.06
 -26   0  -3   -0.12    0.06
 -26   0  -4    3.00    0.17
 -26   0  -4    3.02    0.17
 -26   0  -4    2.93    0.17
 -26   0  -4    2.57    0.20
 -26   0  -5    0.05    0.07
 -26   0  -5    0.17    0.06
 -26   0  -5   -0.07    0.09
 -26   0  -6   28.20    1.19
 -26   0  -6   29.10    1.19
 -26   0  -6   29.72    1.18
 -26   0  -6   29.23    1.19
 -26   0  -7   -0.04    0.06
 -26   0  -7   -0.05    0.06
 -26   0  -7    0.06    0.09
 -26   0  -7    0.02    0.07
 -26   0  -8   13.36    0.57
 -26   0  -8   13.12    0.57
 -26   0  -8   13.49    0.57
 -26   0  -9    0.13    0.08
 -26   0  -9   -0.04    0.09
 -26   0  -9   -0.01    0.06
 -26   0  -9    0.01    0.06
 -26   0 -10    0.09    0.09
 -26   0 -10   -0.03    0.07
 -26   0 -10   -0.02    0.06
 -26   0 -10    0.04    0.10
 -26   0 -11    0.03    0.06
 -26   0 -11    0.05    0.07
 -26   0 -12    0.15    0.06
 -26   0 -12    0.08    0.08
 -26   0 -13    0.03    0.06
 -26   1  17   -0.03    0.05
 -26  -1  17   -0.03    0.04
 -26   1  16    0.69    0.09
 -26   1  16    0.78    0.07
 -26  -1  16    0.78    0.07
 -26   1  15    0.06    0.04
 -26   1  15    0.27    0.08
 -26  -1  15   -0.01    0.04
 -26   1  14    0.04    0.04
 -26   1  14    0.02    0.06
 -26  -1  14    0.00    0.04
 -26   1  13    0.31    0.07
 -26   1  13    0.33    0.09
  26   1 -13    0.41    0.11
 -26  -1  13    0.37    0.08
 -26   1  12    0.80    0.11
  26   1 -12    0.80    0.11
 -26   1  12    0.68    0.08
 -26  -1  12    0.55    0.09
  26   1 -11    0.40    0.09
 -26   1  11    0.23    0.07
 -26   1  11    0.38    0.07
 -26  -1  11    0.58    0.12
 -26  -1  11    0.28    0.09
  26   1 -10    1.14    0.13
 -26   1  10    1.21    0.10
 -26   1  10    1.13    0.13
 -26  -1  10    1.08    0.12
 -26  -1  10    1.02    0.11
 -26   1   9    0.96    0.14
 -26   1   9    0.79    0.09
  26   1  -9    0.77    0.11
 -26  -1   9    0.73    0.10
 -26  -1   9    0.96    0.11
  26   1  -8    6.60    0.30
 -26   1   8    5.41    0.30
 -26   1   8    6.42    0.29
 -26  -1   8    6.68    0.30
 -26  -1   8    6.34    0.30
 -26   1   7    5.75    0.27
 -26  -1   7    5.65    0.27
 -26  -1   7    5.68    0.28
 -26   1   6    0.06    0.07
 -26   1   6   -0.01    0.05
 -26  -1   6    0.11    0.06
 -26  -1   6   -0.20    0.11
 -26  -1   6   -0.06    0.05
 -26   1   5    2.06    0.13
 -26   1   5    1.86    0.18
 -26   1   5    1.94    0.15
 -26  -1   5    2.24    0.14
 -26  -1   5    2.15    0.16
 -26  -1   5    2.23    0.20
 -26   1   4    0.28    0.09
 -26   1   4    0.35    0.09
 -26   1   4    0.28    0.09
 -26  -1   4    0.28    0.09
 -26  -1   4    0.44    0.10
 -26  -1   4    0.43    0.11
 -26   1   3    0.02    0.08
 -26   1   3    0.03    0.07
 -26   1   3    0.00    0.05
 -26  -1   3   -0.04    0.06
 -26  -1   3   -0.05    0.08
 -26  -1   3    0.09    0.06
 -26   1   2    6.04    0.28
 -26   1   2    6.04    0.28
 -26   1   2    5.70    0.28
 -26  -1   2    5.80    0.29
 -26  -1   2    6.17    0.28
 -26  -1   2    5.87    0.29
 -26   1   1    0.58    0.10
 -26   1   1    0.65    0.10
 -26   1   1    0.67    0.11
 -26  -1   1    0.49    0.11
 -26  -1   1    0.71    0.11
 -26  -1   1    0.65    0.12
 -26   1   0    9.71    0.43
 -26   1   0    9.98    0.43
 -26   1   0    9.63    0.42
 -26  -1   0    9.56    0.43
 -26  -1   0    9.59    0.43
 -26  -1   0    9.88    0.44
 -26  -1   0    9.97    0.43
 -26   1  -1    0.92    0.11
 -26   1  -1    0.99    0.10
 -26   1  -1    1.04    0.11
 -26  -1  -1    0.91    0.13
 -26  -1  -1    0.85    0.11
 -26  -1  -1    0.85    0.11
 -26  -1  -1    0.90    0.11
 -26   1  -2    4.64    0.24
 -26  -1  -2    4.84    0.26
 -26  -1  -2    4.75    0.24
 -26  -1  -2    4.79    0.24
 -26  -1  -2    4.79    0.24
 -26   1  -3    0.68    0.10
 -26   1  -3    0.69    0.12
 -26   1  -3    0.53    0.09
 -26  -1  -3    0.62    0.10
 -26  -1  -3    0.69    0.11
 -26  -1  -3    0.59    0.11
 -26  -1  -3    0.53    0.12
 -26   1  -4    9.41    0.43
 -26   1  -4    9.47    0.42
 -26   1  -4    9.59    0.42
 -26  -1  -4    9.25    0.42
 -26  -1  -4   10.05    0.44
 -26  -1  -4    9.72    0.43
 -26  -1  -4   10.09    0.43
 -26   1  -5    0.51    0.10
 -26   1  -5    0.49    0.09
 -26   1  -5    0.45    0.12
 -26  -1  -5    0.34    0.11
 -26  -1  -5    0.35    0.10
 -26  -1  -5    0.35    0.12
 -26  -1  -5    0.50    0.10
 -26   1  -6    1.43    0.12
 -26   1  -6    1.28    0.14
 -26   1  -6    1.44    0.12
 -26  -1  -6    1.35    0.14
 -26  -1  -6    1.13    0.13
 -26  -1  -6    1.12    0.11
 -26  -1  -6    1.16    0.13
 -26   1  -7    5.65    0.29
 -26   1  -7    5.85    0.28
 -26   1  -7    6.05    0.28
 -26  -1  -7    5.95    0.29
 -26  -1  -7    6.21    0.29
 -26  -1  -7    6.23    0.30
 -26   1  -8    7.26    0.34
 -26   1  -8    7.55    0.33
 -26  -1  -8    7.37    0.34
 -26  -1  -8    7.45    0.35
 -26  -1  -8    7.00    0.34
 -26   1  -9    0.31    0.09
 -26   1  -9    0.29    0.10
 -26  -1  -9    0.48    0.09
 -26  -1  -9    0.22    0.08
 -26  -1  -9    0.30    0.10
 -26   1 -10    1.29    0.12
 -26   1 -10    1.41    0.12
 -26  -1 -10    1.53    0.13
 -26  -1 -10    1.72    0.15
 -26  -1 -10    1.35    0.12
 -26   1 -11    0.12    0.06
 -26   1 -11    0.10    0.07
 -26  -1 -11    0.05    0.05
 -26  -1 -11   -0.01    0.06
 -26  -1 -11    0.07    0.08
 -26   1 -12    1.76    0.14
 -26   1 -12    1.34    0.12
 -26  -1 -12    1.73    0.12
 -26  -1 -12    1.76    0.12
 -26  -1 -13    0.19    0.05
 -26  -1 -13    0.22    0.08
 -26  -1 -14    0.03    0.04
 -26  -1 -14    0.06    0.05
 -26  -1 -15    0.79    0.08
 -26  -1 -15    0.73    0.08
 -26  -1 -16    0.28    0.08
 -26  -1 -16    0.25    0.05
 -26   2  16    0.25    0.05
 -26   2  15    0.19    0.05
 -26  -2  15    0.10    0.04
 -26   2  14    0.66    0.06
  26   2 -14    0.68    0.09
 -26  -2  14    0.69    0.08
 -26   2  13    0.05    0.03
  26   2 -13    0.04    0.05
 -26  -2  13    0.12    0.05
 -26   2  12    2.11    0.12
  26   2 -12    2.24    0.13
 -26  -2  12    2.08    0.13
  26   2 -11    3.35    0.17
 -26   2  11    3.26    0.16
 -26  -2  11    3.13    0.17
 -26   2  10    0.03    0.04
  26   2 -10   -0.02    0.05
 -26  -2  10    0.06    0.05
 -26   2   9    0.86    0.09
  26   2  -9    0.81    0.11
 -26  -2   9    1.11    0.11
  26   2  -8    0.15    0.07
 -26   2   8    0.06    0.05
 -26  -2   8    0.06    0.06
 -26   2   7    0.02    0.05
  26   2  -7   -0.05    0.06
 -26  -2   7    0.02    0.05
 -26   2   6    3.36    0.19
 -26   2   6    2.94    0.17
  26   2  -6    3.32    0.18
 -26  -2   6    2.73    0.25
 -26  -2   6    3.08    0.18
 -26   2   5    0.59    0.15
 -26   2   5    0.83    0.10
  26   2  -5    0.90    0.11
 -26   2   5    1.11    0.13
 -26  -2   5    0.82    0.11
 -26  -2   5    0.70    0.11
 -26   2   4    1.08    0.13
 -26   2   4    1.09    0.11
 -26   2   4    0.90    0.12
  26   2  -4    1.19    0.12
 -26  -2   4    0.97    0.12
 -26  -2   4    1.06    0.14
 -26   2   3    0.40    0.10
 -26   2   3    0.63    0.12
  26   2  -3    0.48    0.11
 -26   2   3    0.45    0.08
 -26  -2   3    0.67    0.13
 -26  -2   3    0.48    0.12
 -26  -2   3    0.59    0.10
 -26   2   2    0.86    0.12
 -26   2   2    1.17    0.11
 -26   2   2    1.04    0.11
  26   2  -2    0.98    0.12
 -26  -2   2    1.11    0.12
 -26  -2   2    1.32    0.14
 -26  -2   2    1.09    0.13
 -26   2   1    0.08    0.07
 -26   2   1    0.00    0.06
 -26   2   1    0.07    0.06
 -26  -2   1    0.11    0.07
 -26  -2   1    0.01    0.07
 -26  -2   1   -0.02    0.07
 -26   2   0    1.30    0.13
 -26   2   0    1.42    0.12
 -26   2   0    1.50    0.12
 -26  -2   0    1.60    0.14
 -26  -2   0    1.42    0.14
 -26  -2   0    1.36    0.14
 -26   2  -1    0.52    0.09
 -26   2  -1    0.72    0.12
 -26   2  -1    0.47    0.10
 -26  -2  -1    0.50    0.11
 -26  -2  -1    0.45    0.11
 -26  -2  -1    0.31    0.11
 -26   2  -2    0.14    0.08
 -26   2  -2    0.13    0.06
 -26   2  -2    0.20    0.06
 -26  -2  -2    0.16    0.07
 -26  -2  -2    0.16    0.07
 -26  -2  -2    0.08    0.07
 -26   2  -3    1.01    0.10
 -26   2  -3    1.07    0.11
 -26  -2  -3    1.00    0.12
 -26  -2  -3    0.91    0.12
 -26  -2  -3    1.13    0.13
 -26   2  -4    0.54    0.09
 -26   2  -4    0.68    0.09
 -26  -2  -4    0.62    0.11
 -26  -2  -4    0.38    0.10
 -26  -2  -4    0.66    0.12
 -26   2  -5    0.43    0.09
 -26   2  -5    0.52    0.09
 -26  -2  -5    0.65    0.10
 -26  -2  -5    0.47    0.11
 -26  -2  -5    0.56    0.12
 -26   2  -6    0.73    0.10
 -26   2  -6    0.76    0.10
 -26  -2  -6    0.80    0.11
 -26  -2  -6    0.81    0.12
 -26  -2  -6    0.64    0.10
 -26   2  -7    1.46    0.12
 -26   2  -7    1.56    0.12
 -26  -2  -7    1.76    0.14
 -26  -2  -7    1.51    0.13
 -26  -2  -7    1.72    0.13
 -26   2  -8    1.50    0.11
 -26   2  -8    1.52    0.12
 -26  -2  -8    1.49    0.14
 -26  -2  -8    1.38    0.12
 -26  -2  -8    1.53    0.13
 -26   2  -9    2.22    0.13
 -26   2  -9    2.03    0.13
 -26  -2  -9    1.90    0.15
 -26  -2  -9    1.81    0.13
 -26  -2  -9    1.83    0.14
 -26   2 -10    0.28    0.09
 -26   2 -10    0.42    0.08
 -26  -2 -10    0.22    0.06
 -26  -2 -10    0.36    0.08
 -26   2 -11    0.17    0.05
 -26   2 -11    0.11    0.05
 -26  -2 -11    0.14    0.05
 -26  -2 -11    0.15    0.05
 -26   2 -12    0.46    0.10
 -26   2 -12    0.43    0.08
 -26  -2 -12    0.43    0.08
 -26  -2 -12    0.51    0.07
 -26   2 -13    0.01    0.05
 -26  -2 -13   -0.04    0.04
 -26  -2 -13    0.01    0.04
 -26  -2 -14    3.67    0.17
 -26  -2 -14    3.64    0.17
 -26  -2 -15    0.84    0.07
 -26  -2 -15    0.83    0.07
 -26  -2 -16    1.91    0.12
  26   3 -13    0.21    0.06
 -26   3  13    0.27    0.05
 -26  -3  13    0.14    0.07
 -26   3  12    0.02    0.03
 -26  -3  12    0.12    0.05
 -26   3  11    0.04    0.04
  26   3 -11    0.05    0.04
 -26  -3  11   -0.01    0.05
  26   3 -10    1.41    0.10
 -26   3  10    1.42    0.09
 -26  -3  10    1.40    0.11
  26   3  -9    0.59    0.08
 -26   3   9    0.51    0.07
 -26  -3   9    0.42    0.09
  26   3  -8    0.39    0.08
 -26   3   8    0.47    0.08
 -26  -3   8    0.61    0.09
  26   3  -7    0.64    0.08
 -26   3   7    0.64    0.08
 -26  -3   7    0.48    0.10
  26   3  -6    0.66    0.10
  26   3  -6    0.55    0.12
 -26   3   6    0.72    0.09
 -26  -3   6    0.81    0.11
  26   3  -5    0.25    0.08
 -26   3   5    0.28    0.09
  26   3  -5    0.41    0.09
 -26  -3   5    0.40    0.09
  26   3  -4   -0.01    0.06
  26   3  -4    0.02    0.07
 -26   3   4    0.04    0.06
 -26  -3   4    0.02    0.06
  26   3  -3    1.82    0.14
 -26   3   3    1.69    0.14
 -26   3   3    1.56    0.13
 -26  -3   3    1.42    0.13
 -26   3   2    0.44    0.10
  26   3  -2    0.62    0.12
 -26   3   2    0.34    0.10
 -26  -3   2    0.60    0.11
  26   3  -1    0.09    0.08
 -26   3   1    0.11    0.06
 -26   3   1    0.09    0.06
 -26  -3   1   -0.01    0.06
 -26   3   0    5.72    0.27
  26   3   0    5.79    0.29
 -26   3   0    5.84    0.27
 -26  -3   0    6.02    0.29
 -26  -3   0    5.77    0.29
  26   3   1    1.42    0.15
 -26   3  -1    1.42    0.11
 -26   3  -1    1.35    0.11
 -26  -3  -1    1.43    0.14
 -26  -3  -1    1.39    0.13
 -26   3  -2    0.07    0.05
  26   3   2    0.25    0.10
 -26   3  -2    0.08    0.05
 -26  -3  -2   -0.04    0.07
 -26  -3  -2    0.08    0.06
 -26   3  -3    0.76    0.09
 -26   3  -3    0.82    0.09
 -26  -3  -3    0.62    0.11
 -26  -3  -3    0.93    0.11
 -26   3  -4    0.67    0.09
 -26   3  -4    0.72    0.09
 -26  -3  -4    0.72    0.10
 -26  -3  -4    0.59    0.10
 -26   3  -5    0.20    0.06
 -26   3  -5    0.25    0.08
 -26  -3  -5    0.30    0.09
 -26  -3  -5    0.20    0.06
 -26   3  -6    0.56    0.08
 -26   3  -6    0.55    0.08
 -26  -3  -6    0.51    0.09
 -26  -3  -6    0.48    0.09
 -26   3  -7    0.13    0.05
 -26   3  -7    0.21    0.07
 -26  -3  -7    0.10    0.05
 -26  -3  -7    0.13    0.05
 -26   3  -8    1.39    0.10
 -26   3  -8    1.39    0.10
 -26  -3  -8    1.25    0.10
 -26  -3  -8    1.42    0.10
 -26   3  -9    0.05    0.04
 -26   3  -9    0.01    0.04
 -26  -3  -9    0.08    0.04
 -26  -3  -9    0.03    0.04
 -26   3 -10    2.20    0.12
  26   3  10    2.08    0.15
 -26   3 -10    2.37    0.13
 -26  -3 -10    2.19    0.12
 -26  -3 -10    2.17    0.13
 -26   3 -11    0.49    0.08
 -26   3 -11    0.49    0.06
 -26  -3 -11    0.36    0.07
 -26  -3 -11    0.45    0.06
 -26   3 -12    1.09    0.07
 -26  -3 -12    0.98    0.07
 -26  -3 -12    1.05    0.07
 -26   3 -13    0.15    0.04
 -26  -3 -13    0.09    0.03
 -26  -3 -13    0.11    0.04
  26   4  -9    1.23    0.08
  26   4  -8    0.01    0.04
  26   4  -7    0.18    0.06
  26   4  -6    0.00    0.05
  26   4  -5    0.11    0.05
  26   4  -5    0.00    0.06
 -26  -4   5    0.21    0.07
  26   4  -4    0.75    0.09
  26   4  -4    0.63    0.08
 -26  -4   4    0.98    0.11
  26   4  -3   -0.01    0.05
  26   4  -3    0.00    0.06
 -26   4   3    0.00    0.06
 -26  -4   3   -0.04    0.06
  26   4  -2    0.86    0.11
  26   4  -2    1.04    0.09
 -26   4   2    0.78    0.10
 -26  -4   2    1.08    0.11
  26   4  -1    0.04    0.05
 -26   4   1    0.21    0.07
 -26  -4   1    0.06    0.06
 -26   4   0    0.08    0.05
  26   4   0    0.12    0.05
 -26   4   0    0.15    0.08
 -26  -4   0    0.10    0.06
 -26   4  -1    1.04    0.09
  26   4   1    0.99    0.09
 -26   4  -1    0.97    0.08
 -26  -4  -1    1.00    0.10
 -26   4  -2    1.93    0.11
  26   4   2    2.03    0.12
 -26   4  -2    1.93    0.11
 -26  -4  -2    2.04    0.13
 -26   4  -3    0.21    0.06
 -26   4  -3    0.19    0.06
  26   4   3    0.14    0.05
 -26  -4  -3    0.36    0.08
 -26   4  -4    0.02    0.04
  26   4   4    0.09    0.05
 -26   4  -4    0.24    0.06
 -26  -4  -4    0.05    0.05
 -26   4  -5    0.20    0.06
  26   4   5    0.11    0.05
 -26   4  -5    0.09    0.04
 -26  -4  -5    0.25    0.08
 -26   4  -6    0.05    0.04
  26   4   6    0.03    0.05
 -26   4  -6    0.07    0.04
 -26  -4  -6   -0.02    0.05
 -26   4  -7    0.01    0.03
 -26   4  -7    0.01    0.03
  26   4   7   -0.03    0.05
 -26  -4  -7   -0.02    0.05
 -26   4  -8    0.21    0.05
 -26   4  -8    0.11    0.03
 -26  -4  -8    0.17    0.05
 -27   0  17   -0.02    0.04
 -27   0  16    0.06    0.04
 -27   0  15    0.03    0.04
 -27   0  15    0.07    0.06
 -27   0  14    0.79    0.08
 -27   0  14    0.78    0.09
 -27   0  13   -0.02    0.05
 -27   0  13   -0.03    0.05
 -27   0  12    0.04    0.05
 -27   0  12    0.07    0.05
  27   0 -11    0.10    0.09
 -27   0  11   -0.08    0.05
 -27   0  11    0.08    0.06
 -27   0  10    0.33    0.09
  27   0 -10    0.38    0.12
 -27   0  10    0.22    0.07
 -27   0   9    0.00    0.05
 -27   0   9   -0.11    0.06
 -27   0   8    0.23    0.07
 -27   0   8    0.32    0.09
 -27   0   7   -0.01    0.06
 -27   0   7    0.03    0.05
 -27   0   6    1.09    0.13
 -27   0   6    0.79    0.10
 -27   0   5    0.00    0.07
 -27   0   5    0.01    0.05
 -27   0   5   -0.02    0.06
 -27   0   5    0.11    0.10
 -27   0   4    0.15    0.06
 -27   0   4    0.15    0.09
 -27   0   4    0.12    0.07
 -27   0   4    0.28    0.09
 -27   0   3    0.07    0.06
 -27   0   3    0.01    0.05
 -27   0   3   -0.04    0.07
 -27   0   3    0.14    0.08
 -27   0   2    1.22    0.15
 -27   0   2    1.21    0.11
 -27   0   2    1.13    0.11
 -27   0   2    1.32    0.13
 -27   0   1    0.02    0.06
 -27   0   1    0.12    0.07
 -27   0   1    0.13    0.08
 -27   0   1    0.05    0.05
 -27   0   0    0.08    0.06
 -27   0   0    0.06    0.06
 -27   0   0   -0.02    0.09
 -27   0   0    0.08    0.06
 -27   0  -1    0.07    0.10
 -27   0  -1    0.06    0.06
 -27   0  -1   -0.01    0.06
 -27   0  -1    0.07    0.06
 -27   0  -2    0.12    0.10
 -27   0  -2    0.06    0.06
 -27   0  -2    0.07    0.06
 -27   0  -3    0.08    0.09
 -27   0  -3    0.06    0.06
 -27   0  -3    0.06    0.06
 -27   0  -4   48.51    1.90
 -27   0  -4   48.52    1.89
 -27   0  -4   43.32    1.89
 -27   0  -4   47.37    1.90
 -27   0  -5    0.03    0.06
 -27   0  -5    0.03    0.09
 -27   0  -5    0.04    0.06
 -27   0  -5    0.03    0.06
 -27   0  -6    6.99    0.32
 -27   0  -6    6.84    0.31
 -27   0  -6    6.89    0.32
 -27   0  -6    6.24    0.32
 -27   0  -7   -0.03    0.09
 -27   0  -7    0.08    0.06
 -27   0  -7    0.06    0.06
 -27   0  -7    0.07    0.07
 -27   0  -8   -0.10    0.09
 -27   0  -8    0.05    0.06
 -27   0  -8    0.00    0.07
 -27   0  -9   -0.02    0.06
 -27   0  -9   -0.04    0.06
 -27   0  -9   -0.04    0.08
 -27   0 -10    0.40    0.10
 -27   0 -10    0.57    0.10
 -27   0 -11    0.00    0.07
 -27   0 -11    0.11    0.06
 -27   0 -12    0.52    0.10
 -27   0 -12    0.56    0.13
 -27   0 -13   -0.01    0.06
 -27  -1  17   -0.01    0.03
 -27   1  16    0.04    0.04
 -27   1  16    0.06    0.07
 -27  -1  16    0.01    0.04
 -27   1  15    0.02    0.06
 -27   1  15    0.03    0.04
 -27  -1  15    0.04    0.04
 -27   1  14    1.24    0.11
 -27   1  14    1.48    0.09
 -27  -1  14    1.46    0.10
 -27   1  13    0.74    0.08
 -27   1  13    1.03    0.10
  27   1 -13    0.86    0.11
 -27  -1  13    0.80    0.09
 -27   1  12    0.77    0.08
  27   1 -12    0.85    0.11
 -27  -1  12    0.68    0.09
  27   1 -11    4.60    0.24
 -27   1  11    4.69    0.24
 -27   1  11    5.04    0.23
 -27  -1  11    4.50    0.24
 -27  -1  11    5.03    0.24
  27   1 -10    0.92    0.12
 -27   1  10    1.01    0.09
 -27   1  10    0.77    0.13
 -27  -1  10    1.17    0.11
 -27  -1  10    1.06    0.13
  27   1  -9    1.20    0.12
 -27   1   9    1.18    0.10
 -27  -1   9    1.22    0.12
 -27  -1   9    1.29    0.12
  27   1  -8   -0.06    0.06
 -27   1   8    0.03    0.09
 -27   1   8    0.09    0.05
 -27  -1   8   -0.07    0.06
 -27  -1   8    0.12    0.07
 -27   1   7    0.34    0.06
 -27  -1   7    0.35    0.10
 -27  -1   7    0.40    0.10
 -27   1   6    3.25    0.18
 -27   1   6    3.32    0.19
 -27  -1   6    3.42    0.19
 -27  -1   6    3.19    0.19
 -27   1   5    2.54    0.20
 -27   1   5    2.93    0.16
 -27   1   5    2.86    0.17
 -27  -1   5    2.98    0.18
 -27  -1   5    2.78    0.21
 -27  -1   5    2.73    0.17
 -27   1   4    1.67    0.15
 -27   1   4    1.42    0.12
 -27   1   4    1.52    0.13
 -27  -1   4    1.75    0.13
 -27  -1   4    1.49    0.16
 -27  -1   4    1.47    0.13
 -27   1   3    0.09    0.07
 -27   1   3    0.02    0.06
 -27   1   3    0.02    0.06
 -27  -1   3    0.03    0.06
 -27  -1   3   -0.04    0.06
 -27  -1   3    0.04    0.08
 -27   1   2    5.72    0.28
 -27   1   2    5.76    0.27
 -27   1   2    5.56    0.27
 -27  -1   2    5.85    0.28
 -27  -1   2    5.77    0.28
 -27  -1   2    5.89    0.29
 -27   1   1    0.06    0.06
 -27   1   1    0.04    0.06
 -27   1   1   -0.02    0.06
 -27  -1   1    0.02    0.06
 -27  -1   1    0.05    0.07
 -27  -1   1    0.06    0.07
 -27   1   0    0.11    0.06
 -27   1   0    0.11    0.07
 -27   1   0    0.12    0.06
 -27  -1   0    0.00    0.07
 -27  -1   0    0.10    0.06
 -27  -1   0    0.09    0.07
 -27  -1   0    0.13    0.07
 -27   1  -1    1.30    0.12
 -27   1  -1    1.33    0.11
 -27   1  -1    1.40    0.12
 -27  -1  -1    1.47    0.14
 -27  -1  -1    1.34    0.12
 -27  -1  -1    1.18    0.12
 -27  -1  -1    1.27    0.12
 -27   1  -2    0.44    0.09
 -27   1  -2    0.34    0.09
 -27   1  -2    0.30    0.07
 -27  -1  -2    0.32    0.08
 -27  -1  -2    0.30    0.10
 -27  -1  -2    0.36    0.10
 -27  -1  -2    0.24    0.08
 -27   1  -3   -0.09    0.07
 -27   1  -3    0.09    0.06
 -27   1  -3    0.13    0.06
 -27  -1  -3    0.03    0.06
 -27  -1  -3    0.08    0.07
 -27  -1  -3   -0.03    0.06
 -27  -1  -3    0.08    0.07
 -27   1  -4   24.14    1.00
 -27   1  -4   24.10    0.99
 -27   1  -4   24.04    1.00
 -27  -1  -4   23.99    1.00
 -27  -1  -4   24.29    0.99
 -27  -1  -4   25.18    1.01
 -27  -1  -4   24.03    1.00
 -27   1  -5    3.45    0.19
 -27   1  -5    3.62    0.21
 -27   1  -5    3.63    0.19
 -27  -1  -5    3.27    0.19
 -27  -1  -5    3.38    0.20
 -27  -1  -5    3.65    0.20
 -27  -1  -5    3.61    0.20
 -27   1  -6    0.87    0.12
 -27   1  -6    1.04    0.11
 -27   1  -6    1.05    0.11
 -27  -1  -6    0.98    0.13
 -27  -1  -6    0.82    0.11
 -27  -1  -6    0.85    0.13
 -27  -1  -6    0.96    0.11
 -27   1  -7    2.21    0.17
 -27   1  -7    2.51    0.16
 -27   1  -7    2.38    0.15
 -27  -1  -7    2.66    0.17
 -27  -1  -7    2.58    0.17
 -27  -1  -7    2.48    0.16
 -27   1  -8    0.78    0.10
 -27   1  -8    0.69    0.10
 -27  -1  -8    0.79    0.12
 -27  -1  -8    0.91    0.12
 -27  -1  -8    0.65    0.10
 -27   1  -9    0.18    0.06
 -27   1  -9    0.25    0.06
 -27  -1  -9    0.15    0.06
 -27  -1  -9    0.19    0.07
 -27  -1  -9    0.18    0.06
 -27   1 -10    0.41    0.09
 -27   1 -10    0.34    0.10
 -27  -1 -10    0.40    0.12
 -27  -1 -10    0.42    0.09
 -27  -1 -10    0.56    0.11
 -27   1 -11    0.41    0.09
 -27   1 -11    0.41    0.09
 -27  -1 -11    0.45    0.13
 -27  -1 -11    0.42    0.08
 -27  -1 -11    0.56    0.09
 -27   1 -12    0.19    0.07
 -27   1 -12    0.19    0.07
 -27  -1 -12    0.28    0.08
 -27  -1 -12    0.11    0.06
 -27  -1 -13    0.39    0.08
 -27  -1 -13    0.34    0.07
 -27  -1 -14    0.16    0.05
 -27  -1 -14    0.12    0.05
 -27  -1 -15    0.46    0.07
 -27  -1 -15    0.32    0.07
 -27  -2  15    0.31    0.06
 -27   2  14    0.70    0.07
 -27  -2  14    0.72    0.07
 -27   2  13    0.92    0.07
  27   2 -13    0.92    0.09
 -27  -2  13    0.87    0.08
  27   2 -12    1.52    0.11
 -27   2  12    1.46    0.10
 -27  -2  12    1.54    0.11
  27   2 -11    0.09    0.05
 -27   2  11    0.11    0.04
 -27  -2  11    0.11    0.05
 -27   2  10    2.10    0.12
  27   2 -10    2.15    0.13
 -27  -2  10    2.02    0.14
 -27   2   9    0.02    0.04
  27   2  -9    0.08    0.06
 -27  -2   9   -0.04    0.05
 -27   2   8    0.71    0.09
  27   2  -8    0.88    0.11
 -27  -2   8    0.86    0.10
  27   2  -7    0.56    0.11
 -27   2   7    0.62    0.09
 -27  -2   7    0.78    0.10
  27   2  -6    3.27    0.19
 -27   2   6    3.42    0.20
 -27   2   6    3.38    0.18
 -27  -2   6    3.27    0.19
 -27  -2   6    3.62    0.21
 -27   2   5   -0.05    0.08
 -27   2   5    0.03    0.12
 -27   2   5    0.11    0.06
  27   2  -5   -0.01    0.06
 -27  -2   5    0.03    0.06
 -27  -2   5    0.05    0.08
 -27   2   4    0.30    0.08
 -27   2   4    0.33    0.07
 -27   2   4    0.20    0.08
  27   2  -4    0.29    0.07
 -27  -2   4    0.45    0.13
 -27  -2   4    0.18    0.07
  27   2  -3    0.68    0.11
 -27   2   3    0.84    0.11
 -27   2   3    0.84    0.11
 -27   2   3    0.90    0.11
 -27  -2   3    1.04    0.13
 -27  -2   3    0.70    0.12
 -27  -2   3    1.02    0.12
 -27   2   2    0.08    0.06
 -27   2   2    0.09    0.06
 -27   2   2    0.05    0.06
  27   2  -2    0.06    0.07
 -27  -2   2    0.17    0.07
 -27  -2   2    0.15    0.07
 -27  -2   2    0.04    0.07
 -27   2   1    0.10    0.06
 -27   2   1    0.22    0.07
 -27   2   1    0.08    0.06
 -27  -2   1    0.16    0.07
 -27  -2   1    0.03    0.06
 -27  -2   1    0.17    0.07
 -27   2   0   -0.03    0.06
 -27   2   0    0.02    0.05
 -27   2   0   -0.04    0.06
 -27  -2   0    0.03    0.07
 -27  -2   0    0.12    0.06
 -27  -2   0   -0.03    0.06
 -27   2  -1    0.33    0.08
 -27   2  -1    0.28    0.09
 -27   2  -1    0.24    0.06
 -27  -2  -1    0.30    0.10
 -27  -2  -1    0.45    0.11
 -27  -2  -1    0.40    0.10
 -27   2  -2    2.45    0.15
 -27   2  -2    2.55    0.17
 -27   2  -2    2.21    0.14
 -27  -2  -2    2.37    0.16
 -27  -2  -2    2.24    0.16
 -27  -2  -2    2.48    0.16
 -27   2  -3    4.23    0.22
 -27   2  -3    4.49    0.22
 -27  -2  -3    4.43    0.23
 -27  -2  -3    4.32    0.23
 -27  -2  -3    4.53    0.24
 -27   2  -4    2.66    0.16
 -27   2  -4    2.70    0.16
 -27  -2  -4    2.68    0.17
 -27  -2  -4    2.49    0.17
 -27  -2  -4    2.68    0.17
 -27   2  -5    3.08    0.17
 -27   2  -5    3.10    0.17
 -27  -2  -5    3.10    0.19
 -27  -2  -5    3.03    0.18
 -27  -2  -5    2.91    0.19
 -27   2  -6    0.83    0.10
 -27   2  -6    0.91    0.10
 -27  -2  -6    1.01    0.11
 -27  -2  -6    0.94    0.11
 -27  -2  -6    0.98    0.12
 -27   2  -7   -0.05    0.05
 -27   2  -7    0.00    0.05
 -27  -2  -7   -0.03    0.05
 -27  -2  -7    0.06    0.07
 -27  -2  -7    0.05    0.06
 -27   2  -8    0.01    0.05
 -27   2  -8    0.05    0.05
 -27  -2  -8    0.15    0.07
 -27  -2  -8   -0.06    0.05
 -27  -2  -8    0.03    0.05
 -27   2  -9    2.74    0.15
 -27   2  -9    2.65    0.15
 -27  -2  -9    2.63    0.16
 -27  -2  -9    2.42    0.15
 -27   2 -10    0.59    0.08
 -27   2 -10    0.48    0.09
 -27  -2 -10    0.72    0.09
 -27  -2 -10    0.55    0.08
 -27   2 -11    0.04    0.05
 -27   2 -11    0.00    0.05
 -27  -2 -11    0.03    0.04
 -27  -2 -11    0.03    0.05
 -27   2 -12    1.16    0.11
 -27   2 -12    1.21    0.09
 -27  -2 -12    1.18    0.09
 -27  -2 -12    1.26    0.09
 -27   2 -13    0.44    0.08
 -27  -2 -13    0.41    0.06
 -27  -2 -13    0.34    0.06
 -27  -2 -14    1.83    0.11
 -27  -2 -14    2.01    0.11
 -27  -2 -15    0.90    0.07
 -27  -2 -15    0.87    0.07
  27   3 -13    0.05    0.04
 -27   3  13    0.05    0.03
  27   3 -12   -0.04    0.04
 -27   3  12    0.00    0.03
 -27  -3  12    0.01    0.05
  27   3 -11    0.04    0.04
 -27   3  11    0.03    0.04
 -27  -3  11   -0.02    0.05
 -27   3  10    5.45    0.24
  27   3 -10    5.52    0.24
 -27  -3  10    5.29    0.25
  27   3  -9    3.65    0.18
 -27   3   9    3.64    0.17
 -27  -3   9    3.61    0.19
  27   3  -8   -0.01    0.05
 -27   3   8   -0.04    0.04
 -27  -3   8   -0.03    0.05
  27   3  -7    0.01    0.05
 -27   3   7    0.04    0.05
 -27  -3   7    0.07    0.06
  27   3  -6   -0.04    0.05
  27   3  -6   -0.02    0.08
 -27   3   6    0.00    0.05
 -27  -3   6   -0.02    0.05
  27   3  -5    0.10    0.06
  27   3  -5    0.11    0.07
 -27   3   5    0.19    0.06
 -27  -3   5    0.19    0.06
  27   3  -4    0.20    0.06
 -27   3   4    0.14    0.06
 -27   3   4    0.13    0.07
  27   3  -4    0.17    0.07
 -27  -3   4    0.17    0.06
 -27   3   3    0.34    0.11
  27   3  -3    0.57    0.10
 -27   3   3    0.28    0.07
 -27  -3   3    0.32    0.10
 -27   3   2    1.72    0.12
  27   3  -2    1.74    0.14
 -27   3   2    1.88    0.13
 -27  -3   2    1.81    0.13
 -27   3   1    0.46    0.09
 -27   3   1    0.46    0.09
  27   3  -1    0.28    0.08
 -27  -3   1    0.32    0.10
 -27   3   0    0.66    0.09
 -27   3   0    0.63    0.09
  27   3   0    0.81    0.12
 -27  -3   0    0.72    0.13
 -27  -3   0    0.83    0.11
  27   3   1    1.48    0.15
 -27   3  -1    1.54    0.12
 -27   3  -1    1.74    0.12
 -27  -3  -1    1.79    0.13
 -27  -3  -1    1.80    0.14
 -27   3  -2    0.08    0.05
 -27   3  -2    0.02    0.05
  27   3   2    0.22    0.10
 -27  -3  -2   -0.01    0.06
 -27  -3  -2    0.08    0.06
 -27   3  -3    0.13    0.05
 -27   3  -3    0.03    0.05
 -27  -3  -3    0.04    0.05
 -27  -3  -3    0.08    0.06
 -27   3  -4    0.04    0.05
 -27   3  -4    0.02    0.05
 -27  -3  -4    0.05    0.05
 -27  -3  -4    0.01    0.05
 -27   3  -5    1.18    0.10
 -27   3  -5    1.30    0.10
 -27  -3  -5    1.10    0.11
 -27  -3  -5    1.34    0.11
 -27   3  -6    1.92    0.12
 -27   3  -6    1.91    0.12
 -27  -3  -6    1.85    0.13
 -27  -3  -6    1.88    0.13
 -27   3  -7    0.12    0.04
 -27   3  -7    0.01    0.04
 -27  -3  -7    0.02    0.05
 -27  -3  -7    0.04    0.05
 -27   3  -8    1.99    0.11
 -27   3  -8    1.81    0.11
 -27  -3  -8    2.08    0.12
 -27  -3  -8    1.77    0.12
 -27   3  -9    0.01    0.04
  27   3   9   -0.07    0.07
 -27   3  -9    0.00    0.04
 -27  -3  -9   -0.04    0.04
 -27  -3  -9    0.01    0.04
 -27   3 -10    0.52    0.06
 -27   3 -10    0.42    0.08
  27   3  10    0.60    0.12
 -27  -3 -10    0.47    0.07
 -27  -3 -10    0.53    0.07
 -27   3 -11    0.39    0.06
 -27   3 -11    0.48    0.08
 -27  -3 -11    0.48    0.06
 -27  -3 -11    0.50    0.06
 -27   3 -12    0.05    0.04
 -27  -3 -12    0.01    0.03
 -27  -3 -12    0.03    0.03
  27   4  -8    1.21    0.08
  27   4  -7    0.08    0.04
  27   4  -6    0.07    0.04
  27   4  -5    0.09    0.06
  27   4  -5    0.08    0.05
 -27  -4   5   -0.11    0.07
  27   4  -4    0.02    0.05
  27   4  -4    0.07    0.05
 -27  -4   4    0.01    0.07
  27   4  -3   -0.03    0.06
  27   4  -3   -0.06    0.05
 -27  -4   3    0.01    0.06
  27   4  -2   -0.04    0.07
 -27   4   2    0.00    0.05
  27   4  -2    0.02    0.05
 -27  -4   2    0.07    0.06
 -27   4   1    0.08    0.05
  27   4  -1    0.11    0.05
 -27  -4   1    0.08    0.06
 -27   4   0    0.93    0.08
  27   4   0    0.85    0.09
 -27  -4   0    0.99    0.10
 -27   4  -1    0.91    0.09
  27   4   1    0.76    0.08
 -27   4  -1    0.80    0.08
 -27  -4  -1    0.77    0.09
  27   4   2    1.84    0.11
 -27   4  -2    1.58    0.10
 -27   4  -2    1.78    0.10
 -27  -4  -2    1.76    0.11
 -27   4  -3    0.04    0.04
 -27   4  -3    0.05    0.04
  27   4   3    0.07    0.05
 -27  -4  -3    0.01    0.05
 -27   4  -4    0.05    0.04
 -27   4  -4    0.06    0.04
  27   4   4   -0.01    0.05
 -27  -4  -4    0.02    0.05
  27   4   5    0.98    0.09
 -27   4  -5    1.17    0.08
 -27   4  -5    1.03    0.07
 -27  -4  -5    1.18    0.09
 -27   4  -6    0.14    0.05
 -27   4  -6    0.13    0.04
  27   4   6    0.12    0.05
 -27  -4  -6    0.10    0.05
 -27   4  -7    0.02    0.03
 -27   4  -7    0.03    0.03
  27   4   7   -0.04    0.06
 -27  -4  -7    0.04    0.05
 -27   4  -8    0.46    0.06
 -27   4  -8    0.36    0.05
 -28   0  17    0.04    0.04
 -28   0  16    0.03    0.04
 -28   0  15    0.12    0.06
 -28   0  15    0.00    0.04
 -28   0  14    0.64    0.08
 -28   0  14    0.56    0.09
 -28   0  13   -0.08    0.05
 -28   0  13    0.03    0.05
 -28   0  12    1.76    0.11
 -28   0  12    1.65    0.12
  28   0 -11    0.05    0.09
 -28   0  11    0.06    0.05
 -28   0  11   -0.04    0.05
 -28   0  10    1.23    0.11
 -28   0  10    1.10    0.10
  28   0 -10    0.96    0.13
  28   0  -9    0.02    0.08
 -28   0   9    0.02    0.05
 -28   0   9   -0.03    0.06
 -28   0   8    8.84    0.40
 -28   0   8    9.04    0.39
 -28   0   7    0.00    0.05
 -28   0   7   -0.02    0.06
 -28   0   6    1.60    0.12
 -28   0   6    1.51    0.14
 -28   0   5   -0.06    0.05
 -28   0   5   -0.06    0.07
 -28   0   5    0.05    0.09
 -28   0   4    0.95    0.14
 -28   0   4    0.96    0.10
 -28   0   4    0.96    0.11
 -28   0   4    1.05    0.14
 -28   0   3   -0.01    0.05
 -28   0   3    0.08    0.06
 -28   0   3   -0.06    0.08
 -28   0   3    0.01    0.08
 -28   0   2    0.21    0.07
 -28   0   2    0.50    0.14
 -28   0   2    0.31    0.09
 -28   0   2    0.28    0.08
 -28   0   1    0.03    0.05
 -28   0   1    0.02    0.06
 -28   0   1    0.02    0.08
 -28   0   1    0.04    0.06
 -28   0   0    0.04    0.06
 -28   0   0    0.15    0.06
 -28   0   0    0.14    0.10
 -28   0   0    0.11    0.05
 -28   0  -1   -0.02    0.06
 -28   0  -1    0.07    0.10
 -28   0  -1    0.01    0.06
 -28   0  -1   -0.05    0.06
 -28   0  -2   59.25    2.35
 -28   0  -2   56.38    2.36
 -28   0  -2   58.30    2.36
 -28   0  -2   60.86    2.36
 -28   0  -3   -0.01    0.09
 -28   0  -3    0.02    0.06
 -28   0  -3    0.03    0.06
 -28   0  -3    0.04    0.06
 -28   0  -4    0.24    0.07
 -28   0  -4    0.22    0.09
 -28   0  -4    0.14    0.06
 -28   0  -4    0.15    0.06
 -28   0  -5   -0.07    0.06
 -28   0  -5   -0.05    0.06
 -28   0  -5   -0.11    0.09
 -28   0  -5    0.02    0.06
 -28   0  -6    0.02    0.06
 -28   0  -6   -0.04    0.06
 -28   0  -6   -0.09    0.09
 -28   0  -6    0.01    0.05
 -28   0  -7   -0.05    0.05
 -28   0  -7   -0.01    0.07
 -28   0  -7    0.02    0.06
 -28   0  -7   -0.10    0.08
 -28   0  -8   16.78    0.69
 -28   0  -8   16.63    0.70
 -28   0  -8   16.56    0.70
 -28   0  -9   -0.02    0.07
 -28   0  -9   -0.02    0.06
 -28   0  -9    0.02    0.06
 -28   0 -10    0.58    0.10
 -28   0 -10    0.58    0.11
 -28   0 -11    0.11    0.06
 -28   0 -11    0.11    0.07
 -28   0 -12    0.45    0.09
 -28   0 -12    0.30    0.07
 -28   0 -13   -0.02    0.06
 -28   1  16    1.20    0.08
 -28  -1  16    0.92    0.08
 -28   1  15    0.71    0.11
 -28   1  15    0.94    0.07
 -28  -1  15    0.81    0.07
 -28   1  14    1.52    0.12
 -28   1  14    1.55    0.10
 -28  -1  14    1.62    0.10
  28   1 -13    0.53    0.10
 -28   1  13    0.51    0.07
 -28   1  13    0.44    0.10
 -28  -1  13    0.57    0.08
 -28   1  12    0.10    0.04
  28   1 -12    0.16    0.07
 -28   1  12    0.01    0.07
 -28  -1  12    0.10    0.05
 -28   1  11    0.62    0.12
  28   1 -11    0.85    0.11
 -28   1  11    0.86    0.08
 -28  -1  11    0.91    0.13
 -28  -1  11    0.91    0.09
 -28   1  10    0.13    0.05
  28   1 -10    0.38    0.10
 -28   1  10    0.02    0.08
 -28  -1  10    0.12    0.07
 -28  -1  10    0.11    0.06
 -28   1   9   -0.02    0.08
  28   1  -9    0.01    0.06
 -28   1   9    0.05    0.05
 -28  -1   9    0.08    0.06
 -28  -1   9    0.17    0.07
  28   1  -8    3.74    0.20
 -28   1   8    3.77    0.19
 -28  -1   8    3.77    0.21
 -28  -1   8    3.72    0.20
  28   1  -7    1.08    0.12
 -28   1   7    1.25    0.11
 -28  -1   7    1.19    0.12
 -28  -1   7    0.87    0.12
 -28   1   6    3.88    0.21
 -28   1   6    4.20    0.21
 -28  -1   6    4.19    0.22
 -28  -1   6    4.31    0.22
 -28   1   5    2.53    0.15
 -28   1   5    2.62    0.16
 -28   1   5    2.23    0.19
 -28  -1   5    2.28    0.19
 -28  -1   5    2.43    0.16
 -28  -1   5    2.79    0.16
 -28   1   4    1.51    0.13
 -28   1   4    1.75    0.12
 -28   1   4    1.52    0.16
 -28  -1   4    1.46    0.13
 -28  -1   4    1.73    0.14
 -28  -1   4    1.89    0.16
 -28   1   3    0.09    0.06
 -28   1   3    0.20    0.06
 -28   1   3    0.09    0.07
 -28  -1   3    0.10    0.08
 -28  -1   3    0.06    0.06
 -28  -1   3    0.13    0.07
 -28   1   2    1.89    0.14
 -28   1   2    2.01    0.13
 -28   1   2    1.88    0.13
 -28  -1   2    1.96    0.14
 -28  -1   2    1.63    0.15
 -28  -1   2    2.01    0.15
 -28   1   1    1.19    0.12
 -28   1   1    0.92    0.11
 -28   1   1    1.18    0.11
 -28  -1   1    1.17    0.12
 -28  -1   1    1.27    0.14
 -28  -1   1    1.28    0.13
 -28   1   0    5.48    0.26
 -28   1   0    5.47    0.27
 -28   1   0    5.70    0.26
 -28  -1   0    5.34    0.27
 -28  -1   0    5.21    0.27
 -28  -1   0    5.62    0.28
 -28   1  -1    1.16    0.12
 -28   1  -1    1.07    0.12
 -28   1  -1    1.13    0.10
 -28  -1  -1    1.02    0.12
 -28  -1  -1    1.34    0.14
 -28  -1  -1    1.15    0.12
 -28  -1  -1    1.41    0.12
 -28   1  -2   10.31    0.45
 -28   1  -2   10.49    0.46
 -28  -1  -2   10.19    0.46
 -28  -1  -2   10.58    0.47
 -28  -1  -2   10.42    0.45
 -28  -1  -2   10.40    0.46
 -28   1  -3    0.33    0.09
 -28   1  -3    0.32    0.08
 -28   1  -3    0.35    0.09
 -28  -1  -3    0.32    0.11
 -28  -1  -3    0.55    0.09
 -28  -1  -3    0.32    0.10
 -28  -1  -3    0.22    0.07
 -28   1  -4    0.01    0.06
 -28   1  -4    0.03    0.05
 -28   1  -4    0.08    0.07
 -28  -1  -4    0.07    0.06
 -28  -1  -4    0.05    0.07
 -28  -1  -4    0.02    0.06
 -28  -1  -4    0.00    0.07
 -28   1  -5    2.13    0.14
 -28   1  -5    1.82    0.14
 -28   1  -5    2.16    0.15
 -28  -1  -5    2.12    0.15
 -28  -1  -5    2.02    0.15
 -28  -1  -5    2.13    0.14
 -28  -1  -5    1.93    0.15
 -28   1  -6    1.21    0.11
 -28   1  -6    1.25    0.13
 -28   1  -6    1.15    0.11
 -28  -1  -6    1.07    0.11
 -28  -1  -6    1.24    0.12
 -28  -1  -6    1.24    0.14
 -28  -1  -6    1.11    0.13
 -28   1  -7    0.09    0.05
 -28   1  -7    0.14    0.08
 -28   1  -7    0.04    0.06
 -28  -1  -7    0.12    0.06
 -28  -1  -7    0.11    0.06
 -28  -1  -7    0.02    0.06
 -28   1  -8   -0.07    0.05
 -28   1  -8   -0.05    0.05
 -28   1  -8   -0.01    0.08
 -28  -1  -8    0.04    0.06
 -28  -1  -8    0.01    0.07
 -28  -1  -8   -0.02    0.05
 -28   1  -9    0.27    0.09
 -28   1  -9    0.40    0.09
 -28  -1  -9    0.18    0.06
 -28  -1  -9    0.31    0.10
 -28  -1  -9    0.40    0.11
 -28   1 -10    0.10    0.06
 -28   1 -10    0.11    0.06
 -28  -1 -10    0.13    0.05
 -28  -1 -10    0.16    0.06
 -28  -1 -10    0.12    0.08
 -28   1 -11    0.71    0.10
 -28   1 -11    0.57    0.09
 -28  -1 -11    0.48    0.12
 -28  -1 -11    0.53    0.09
 -28  -1 -11    0.70    0.09
 -28   1 -12    1.16    0.12
 -28  -1 -12    1.17    0.10
 -28  -1 -12    1.24    0.10
 -28  -1 -13    0.17    0.05
 -28  -1 -13    0.10    0.06
 -28  -1 -14    0.33    0.07
 -28  -1 -14    0.44    0.07
 -28  -1 -15   -0.02    0.04
 -28   2  15    0.49    0.06
 -28  -2  15    0.56    0.06
  28   2 -14    0.27    0.09
 -28   2  14    0.37    0.06
 -28  -2  14    0.38    0.06
 -28   2  13   -0.01    0.03
  28   2 -13    0.25    0.07
 -28  -2  13   -0.01    0.04
 -28   2  12    4.58    0.21
  28   2 -12    4.58    0.21
 -28  -2  12    4.53    0.22
  28   2 -11   -0.02    0.05
 -28   2  11    0.08    0.04
 -28  -2  11    0.04    0.04
 -28   2  10    1.64    0.10
  28   2 -10    1.71    0.12
 -28  -2  10    1.53    0.11
 -28   2   9   -0.04    0.04
  28   2  -9    0.01    0.05
 -28  -2   9   -0.03    0.05
 -28   2   8    0.61    0.08
  28   2  -8    0.57    0.10
 -28  -2   8    0.61    0.09
  28   2  -7    0.39    0.10
 -28   2   7    0.26    0.06
 -28  -2   7    0.28    0.09
 -28   2   6    1.62    0.12
  28   2  -6    1.88    0.14
 -28   2   6    1.82    0.15
 -28  -2   6    1.45    0.13
 -28  -2   6    1.44    0.16
 -28   2   5    0.54    0.09
 -28   2   5    0.58    0.11
  28   2  -5    0.73    0.10
 -28  -2   5    0.66    0.13
 -28  -2   5    0.38    0.10
  28   2  -4    0.13    0.06
 -28   2   4    0.05    0.07
 -28   2   4    0.08    0.08
 -28  -2   4    0.12    0.06
 -28   2   3    0.84    0.11
 -28   2   3    0.54    0.10
  28   2  -3    0.67    0.11
 -28   2   3    0.65    0.11
 -28  -2   3    0.75    0.11
 -28  -2   3    0.64    0.12
 -28   2   2    0.91    0.11
 -28   2   2    0.95    0.11
 -28   2   2    0.88    0.11
  28   2  -2    0.97    0.12
 -28  -2   2    1.01    0.12
 -28  -2   2    1.00    0.12
 -28  -2   2    0.92    0.12
 -28   2   1   -0.06    0.06
 -28   2   1    0.01    0.06
  28   2  -1   -0.03    0.07
 -28   2   1    0.00    0.05
 -28  -2   1   -0.01    0.07
 -28  -2   1    0.08    0.06
 -28  -2   1    0.05    0.07
 -28   2   0    4.53    0.22
 -28   2   0    4.32    0.23
 -28   2   0    4.30    0.23
 -28  -2   0    4.56    0.24
 -28  -2   0    4.76    0.24
 -28  -2   0    4.77    0.24
 -28   2  -1    0.47    0.12
 -28   2  -1    0.67    0.10
 -28   2  -1    0.50    0.09
 -28  -2  -1    0.58    0.11
 -28  -2  -1    0.46    0.10
 -28  -2  -1    0.52    0.11
 -28   2  -2    9.78    0.45
 -28   2  -2   10.27    0.45
 -28   2  -2   10.27    0.45
 -28  -2  -2   10.57    0.46
 -28  -2  -2   10.64    0.46
 -28   2  -3    0.77    0.09
 -28   2  -3    0.93    0.10
 -28  -2  -3    0.69    0.11
 -28  -2  -3    0.85    0.12
 -28  -2  -3    0.72    0.12
 -28   2  -4    0.09    0.05
 -28   2  -4    0.07    0.05
 -28  -2  -4    0.11    0.06
 -28  -2  -4    0.13    0.06
 -28  -2  -4   -0.03    0.06
 -28   2  -5    0.80    0.10
  28   2   5    1.06    0.17
 -28   2  -5    0.84    0.10
 -28  -2  -5    0.89    0.12
 -28  -2  -5    0.97    0.11
 -28  -2  -5    0.85    0.11
 -28   2  -6    5.18    0.25
 -28   2  -6    5.14    0.25
 -28  -2  -6    5.22    0.26
 -28  -2  -6    5.21    0.26
 -28  -2  -6    5.32    0.26
 -28   2  -7    1.24    0.11
 -28   2  -7    1.40    0.11
 -28  -2  -7    1.24    0.13
 -28  -2  -7    1.16    0.12
 -28  -2  -7    1.45    0.12
 -28   2  -8    2.82    0.15
 -28   2  -8    2.83    0.15
 -28  -2  -8    2.34    0.15
 -28  -2  -8    3.03    0.16
 -28  -2  -8    2.63    0.17
 -28   2  -9    0.33    0.08
 -28   2  -9    0.43    0.08
 -28  -2  -9    0.45    0.08
 -28  -2  -9    0.31    0.08
 -28   2 -10    1.53    0.11
 -28   2 -10    1.59    0.11
 -28  -2 -10    1.56    0.11
 -28  -2 -10    1.58    0.11
 -28   2 -11   -0.07    0.05
 -28   2 -11    0.03    0.04
 -28  -2 -11   -0.03    0.05
 -28  -2 -11   -0.02    0.04
 -28   2 -12    1.81    0.12
 -28   2 -12    1.67    0.11
 -28  -2 -12    1.87    0.11
 -28  -2 -12    1.72    0.11
 -28   2 -13    0.67    0.09
 -28  -2 -13    0.42    0.07
 -28  -2 -13    0.57    0.07
 -28  -2 -14    0.04    0.04
 -28  -2 -14    0.03    0.03
 -28   3  12    0.55    0.06
  28   3 -12    0.45    0.06
 -28  -3  12    0.56    0.08
  28   3 -11    0.05    0.04
 -28   3  11    0.06    0.04
  28   3 -10    0.09    0.04
 -28   3  10    0.08    0.04
 -28  -3  10    0.23    0.07
 -28   3   9    0.36    0.07
  28   3  -9    0.22    0.07
 -28  -3   9    0.29    0.08
 -28   3   8    0.02    0.04
  28   3  -8    0.06    0.05
 -28  -3   8    0.02    0.05
  28   3  -7    0.00    0.05
 -28   3   7   -0.05    0.05
 -28  -3   7    0.00    0.05
  28   3  -6    0.94    0.13
  28   3  -6    1.00    0.09
 -28   3   6    1.18    0.10
 -28  -3   6    1.17    0.10
  28   3  -5    0.10    0.05
 -28   3   5    0.09    0.05
  28   3  -5    0.00    0.07
 -28  -3   5    0.04    0.05
 -28   3   4    0.72    0.12
  28   3  -4    0.76    0.11
 -28   3   4    0.81    0.10
  28   3  -4    0.76    0.10
 -28  -3   4    0.68    0.10
 -28   3   3    0.23    0.07
  28   3  -3    0.12    0.06
 -28   3   3    0.09    0.06
 -28   3   3    0.07    0.07
 -28  -3   3    0.14    0.06
 -28   3   2    1.61    0.12
  28   3  -2    1.86    0.13
 -28   3   2    1.65    0.12
 -28  -3   2    1.98    0.13
 -28   3   1    0.62    0.09
  28   3  -1    0.42    0.11
 -28   3   1    0.40    0.09
 -28  -3   1    0.44    0.09
 -28   3   0    0.10    0.05
  28   3   0    0.00    0.07
 -28   3   0    0.04    0.05
 -28  -3   0    0.06    0.08
 -28  -3   0    0.26    0.08
  28   3   1    1.11    0.13
 -28   3  -1    1.01    0.09
 -28   3  -1    1.10    0.10
 -28  -3  -1    1.02    0.12
 -28  -3  -1    0.98    0.10
 -28   3  -2    0.76    0.09
  28   3   2    0.67    0.14
 -28   3  -2    0.55    0.08
 -28  -3  -2    0.68    0.11
 -28  -3  -2    0.53    0.09
 -28   3  -3    0.02    0.05
 -28   3  -3    0.10    0.05
 -28  -3  -3   -0.04    0.05
 -28  -3  -3    0.02    0.06
 -28   3  -4    1.97    0.12
 -28   3  -4    1.99    0.12
 -28  -3  -4    1.85    0.13
 -28  -3  -4    2.03    0.13
 -28   3  -5    0.28    0.07
 -28   3  -5    0.35    0.07
 -28  -3  -5    0.35    0.08
 -28  -3  -5    0.30    0.08
 -28   3  -6    2.18    0.13
 -28   3  -6    2.02    0.12
 -28  -3  -6    2.21    0.13
 -28  -3  -6    1.99    0.13
 -28   3  -7    0.27    0.06
 -28   3  -7    0.23    0.06
 -28  -3  -7    0.32    0.07
 -28  -3  -7    0.20    0.05
 -28   3  -8    1.17    0.08
 -28   3  -8    1.09    0.09
 -28  -3  -8    1.11    0.09
 -28  -3  -8    1.08    0.09
 -28   3  -9    0.00    0.04
  28   3   9    0.15    0.06
 -28   3  -9    0.07    0.04
 -28  -3  -9    0.06    0.04
 -28  -3  -9    0.05    0.04
 -28   3 -10    0.06    0.04
  28   3  10   -0.10    0.08
 -28   3 -10    0.05    0.04
 -28  -3 -10    0.05    0.04
 -28  -3 -10   -0.01    0.04
 -28  -3 -11    0.19    0.06
 -28  -3 -11    0.27    0.05
 -28   3 -12    0.66    0.06
 -28  -3 -12    0.53    0.06
 -28  -3 -12    0.61    0.06
  28   4  -7    0.03    0.04
  28   4  -6    0.00    0.04
  28   4  -5    0.00    0.05
  28   4  -4    0.48    0.08
  28   4  -4    0.30    0.08
 -28  -4   4    0.45    0.10
  28   4  -3    0.05    0.06
  28   4  -3    0.00    0.05
 -28  -4   3   -0.08    0.06
  28   4  -2    0.11    0.05
 -28  -4   2    0.17    0.06
 -28   4   1    0.32    0.07
  28   4  -1    0.27    0.07
 -28  -4   1    0.28    0.08
 -28   4   0    1.03    0.08
  28   4   0    1.02    0.09
 -28  -4   0    1.04    0.09
 -28   4  -1    0.85    0.07
 -28   4  -1    0.80    0.10
  28   4   1    0.80    0.08
 -28  -4  -1    0.78    0.09
 -28   4  -2    0.19    0.05
 -28   4  -2    0.21    0.06
  28   4   2    0.11    0.05
 -28  -4  -2    0.23    0.08
  28   4   3    4.04    0.19
 -28   4  -3    3.92    0.18
 -28   4  -3    3.88    0.18
 -28  -4  -3    3.99    0.19
 -28   4  -4    0.39    0.06
  28   4   4    0.37    0.07
 -28   4  -4    0.45    0.06
 -28  -4  -4    0.53    0.08
 -28   4  -5    0.03    0.04
 -28   4  -5    0.00    0.03
  28   4   5    0.08    0.05
 -28  -4  -5    0.01    0.05
 -28   4  -6    0.06    0.03
 -28   4  -6    0.18    0.05
  28   4   6    0.05    0.05
 -28  -4  -6    0.05    0.05
 -28   4  -7    0.03    0.03
 -28   4  -7    0.00    0.03
 -29   0  16    0.04    0.04
 -29   0  15    0.01    0.04
 -29   0  14    0.48    0.08
 -29   0  14    0.30    0.07
 -29   0  13    0.11    0.05
 -29   0  13    0.05    0.05
 -29   0  12    1.36    0.11
 -29   0  12    1.54    0.11
 -29   0  11    0.03    0.05
 -29   0  11    0.03    0.06
  29   0 -11    0.04    0.09
 -29   0  10    6.02    0.26
 -29   0  10    5.52    0.27
  29   0 -10    5.43    0.27
  29   0  -9    0.07    0.07
 -29   0   9    0.08    0.06
 -29   0   8   22.25    0.93
 -29   0   8   22.81    0.93
 -29   0   7   -0.01    0.07
 -29   0   7    0.01    0.05
 -29   0   6   -0.03    0.05
 -29   0   6   -0.06    0.07
 -29   0   5   -0.03    0.07
 -29   0   5    0.02    0.05
 -29   0   5   -0.06    0.09
 -29   0   4    1.66    0.16
 -29   0   4    1.93    0.13
 -29   0   4    1.89    0.13
 -29   0   4    1.80    0.15
 -29   0   3    0.07    0.06
 -29   0   3    0.01    0.08
 -29   0   3   -0.02    0.05
 -29   0   3   -0.06    0.07
 -29   0   2    7.07    0.32
 -29   0   2    6.51    0.32
 -29   0   2    7.09    0.32
 -29   0   2    7.12    0.34
 -29   0   1   -0.07    0.08
 -29   0   1    0.03    0.06
 -29   0   1    0.04    0.06
 -29   0   0    1.89    0.18
 -29   0   0    1.97    0.13
 -29   0   0    1.97    0.14
 -29   0   0    1.97    0.14
 -29   0  -1    0.00    0.06
 -29   0  -1    0.03    0.06
 -29   0  -1    0.11    0.06
 -29   0  -1    0.06    0.10
 -29   0  -2   24.74    1.02
 -29   0  -2   24.74    1.01
 -29   0  -2   24.31    1.02
 -29   0  -2   24.91    1.02
 -29   0  -3   -0.04    0.06
 -29   0  -3    0.02    0.06
 -29   0  -3   -0.03    0.06
 -29   0  -3   -0.11    0.09
 -29   0  -4    8.31    0.37
 -29   0  -4    7.94    0.37
 -29   0  -4    8.51    0.38
 -29   0  -5    0.00    0.05
 -29   0  -5    0.14    0.09
 -29   0  -5    0.14    0.06
 -29   0  -5   -0.08    0.05
 -29   0  -6    6.44    0.29
 -29   0  -6    6.50    0.30
 -29   0  -6    5.96    0.30
 -29   0  -7    0.04    0.06
 -29   0  -7    0.03    0.06
 -29   0  -7    0.08    0.07
 -29   0  -8   22.14    0.91
 -29   0  -8   22.35    0.92
 -29   0  -8   22.49    0.92
 -29   0  -9   -0.04    0.06
 -29   0  -9   -0.05    0.06
 -29   0  -9    0.41    0.11
 -29   0 -10    0.23    0.06
 -29   0 -11    0.12    0.07
 -29   0 -11    0.07    0.06
 -29   0 -12    0.02    0.06
 -29   0 -12    0.14    0.08
 -29   0 -13   -0.04    0.07
 -29  -1  16    0.80    0.07
 -29   1  15    1.32    0.08
 -29  -1  15    1.02    0.08
 -29   1  14    1.03    0.08
 -29  -1  14    1.00    0.08
 -29   1  13   -0.08    0.07
 -29   1  13    0.00    0.04
  29   1 -13   -0.08    0.07
 -29  -1  13   -0.03    0.04
 -29   1  12    0.14    0.07
  29   1 -12    0.15    0.06
 -29   1  12    0.15    0.04
 -29  -1  12    0.20    0.07
 -29   1  11    1.81    0.11
  29   1 -11    1.74    0.13
 -29  -1  11    1.90    0.12
 -29  -1  11    1.55    0.14
 -29   1  10   -0.02    0.08
  29   1 -10    0.09    0.06
 -29   1  10   -0.02    0.04
 -29  -1  10    0.05    0.05
 -29  -1  10    0.01    0.06
 -29   1   9    1.54    0.11
  29   1  -9    1.52    0.13
 -29  -1   9    1.64    0.13
 -29  -1   9    1.58    0.13
  29   1  -8    3.45    0.19
 -29   1   8    3.53    0.18
 -29  -1   8    3.60    0.19
 -29  -1   8    3.48    0.19
 -29   1   7    1.69    0.12
  29   1  -7    1.56    0.13
 -29  -1   7    1.58    0.13
 -29  -1   7    1.96    0.14
 -29   1   6    0.48    0.10
 -29   1   6    0.54    0.09
 -29  -1   6    0.56    0.10
 -29   1   5    1.71    0.12
 -29   1   5    1.81    0.13
 -29   1   5    1.60    0.16
 -29  -1   5    1.63    0.14
 -29  -1   5    1.46    0.13
 -29  -1   5    1.52    0.16
 -29   1   4    0.89    0.13
 -29   1   4    0.56    0.09
 -29   1   4    0.76    0.10
 -29  -1   4    0.76    0.11
 -29  -1   4    0.93    0.15
 -29  -1   4    0.55    0.11
 -29   1   3   -0.02    0.07
 -29   1   3    0.06    0.06
 -29   1   3    0.07    0.06
 -29  -1   3   -0.05    0.07
 -29  -1   3   -0.01    0.06
 -29  -1   3    0.05    0.06
 -29   1   2    0.21    0.06
 -29   1   2    0.08    0.06
 -29   1   2    0.14    0.07
 -29  -1   2    0.24    0.07
 -29  -1   2   -0.05    0.06
 -29  -1   2    0.00    0.07
 -29   1   1    2.05    0.15
 -29   1   1    2.04    0.14
 -29   1   1    2.12    0.14
 -29  -1   1    2.21    0.16
 -29  -1   1    2.30    0.15
 -29  -1   1    2.23    0.16
 -29   1   0    1.72    0.13
 -29   1   0    1.81    0.13
 -29   1   0    1.68    0.14
 -29  -1   0    1.89    0.14
 -29  -1   0    1.79    0.15
 -29  -1   0    1.99    0.14
 -29   1  -1   13.71    0.58
 -29   1  -1   13.77    0.58
 -29   1  -1   13.15    0.58
 -29  -1  -1   13.90    0.59
 -29  -1  -1   13.99    0.59
 -29  -1  -1   13.24    0.58
 -29   1  -2    3.23    0.17
 -29   1  -2    2.98    0.17
 -29   1  -2    3.06    0.18
 -29  -1  -2    3.04    0.19
 -29  -1  -2    3.18    0.18
 -29  -1  -2    3.15    0.18
 -29   1  -3    3.63    0.20
 -29   1  -3    3.81    0.21
 -29   1  -3    3.80    0.20
 -29  -1  -3    3.92    0.22
 -29  -1  -3    3.66    0.21
 -29  -1  -3    3.76    0.21
 -29  -1  -3    4.17    0.20
 -29   1  -4    5.36    0.26
 -29   1  -4    5.20    0.25
 -29  -1  -4    5.11    0.26
 -29  -1  -4    5.32    0.26
 -29  -1  -4    4.92    0.26
 -29  -1  -4    5.32    0.27
 -29   1  -5    0.24    0.07
 -29   1  -5    0.21    0.06
 -29   1  -5    0.19    0.06
 -29  -1  -5    0.41    0.10
 -29  -1  -5    0.17    0.06
 -29  -1  -5    0.40    0.11
 -29   1  -6    1.39    0.12
 -29   1  -6    1.57    0.12
 -29   1  -6    1.43    0.13
 -29  -1  -6    1.44    0.13
 -29  -1  -6    1.48    0.12
 -29  -1  -6    1.40    0.13
 -29   1  -7    0.33    0.08
 -29   1  -7    0.28    0.06
 -29  -1  -7    0.27    0.09
 -29  -1  -7    0.33    0.11
 -29  -1  -7    0.45    0.11
 -29   1  -8    0.01    0.08
 -29   1  -8    0.05    0.06
 -29   1  -8    0.00    0.05
 -29  -1  -8    0.03    0.06
 -29  -1  -8   -0.03    0.05
 -29  -1  -8    0.01    0.06
 -29   1  -9    0.08    0.06
 -29   1  -9    0.01    0.05
 -29  -1  -9    0.07    0.05
 -29  -1  -9    0.01    0.06
 -29  -1  -9    0.00    0.06
 -29   1 -10    0.02    0.06
 -29   1 -10    0.06    0.05
 -29  -1 -10   -0.04    0.05
 -29  -1 -10    0.03    0.07
 -29  -1 -10    0.02    0.06
 -29   1 -11    0.08    0.06
 -29   1 -11    0.13    0.06
 -29  -1 -11    0.09    0.05
 -29  -1 -11    0.15    0.07
 -29  -1 -11    0.07    0.06
 -29   1 -12    4.42    0.22
 -29  -1 -12    4.27    0.23
 -29  -1 -12    4.44    0.21
 -29  -1 -12    4.31    0.21
 -29  -1 -13    0.05    0.04
 -29  -1 -13    0.02    0.05
 -29  -1 -14    0.38    0.07
 -29  -1 -14    0.31    0.08
 -29  -1 -15    3.16    0.16
 -29   2  14    0.09    0.03
 -29  -2  14    0.18    0.06
  29   2 -13    1.54    0.10
 -29   2  13    1.73    0.09
 -29  -2  13    1.57    0.10
  29   2 -12    1.35    0.10
 -29   2  12    1.48    0.09
 -29  -2  12    1.44    0.10
  29   2 -11    0.27    0.07
 -29   2  11    0.25    0.06
 -29  -2  11    0.37    0.07
 -29   2  10    0.52    0.07
  29   2 -10    0.41    0.08
 -29  -2  10    0.58    0.08
  29   2  -9    0.24    0.08
 -29  -2   9    0.27    0.08
 -29   2   8    0.38    0.07
  29   2  -8    0.31    0.09
  29   2  -7    0.39    0.10
 -29   2   7    0.30    0.08
 -29  -2   7    0.22    0.06
 -29   2   6    0.09    0.05
  29   2  -6    0.18    0.07
 -29   2   6    0.18    0.08
 -29  -2   6    0.19    0.09
  29   2  -5    1.73    0.13
 -29   2   5    1.84    0.13
 -29   2   5    1.96    0.14
 -29  -2   5    1.98    0.14
 -29  -2   5    1.75    0.15
 -29   2   4    0.40    0.10
 -29   2   4    0.30    0.06
  29   2  -4    0.30    0.09
 -29   2   4    0.36    0.08
 -29  -2   4    0.24    0.08
 -29  -2   4    0.22    0.07
  29   2  -3    0.36    0.07
 -29   2   3    0.29    0.10
 -29   2   3    0.49    0.11
 -29   2   3    0.36    0.09
 -29  -2   3    0.27    0.07
 -29  -2   3    0.38    0.08
 -29   2   2    3.78    0.20
  29   2  -2    4.12    0.21
 -29   2   2    3.75    0.20
 -29   2   2    3.64    0.20
 -29  -2   2    3.87    0.21
 -29  -2   2    3.76    0.21
 -29  -2   2    3.73    0.21
  29   2  -1    0.67    0.11
 -29   2   1    0.65    0.11
 -29   2   1    0.65    0.10
 -29   2   1    0.58    0.09
 -29  -2   1    0.65    0.11
 -29  -2   1    0.77    0.11
 -29  -2   1    0.78    0.11
  29   2   0   14.85    0.62
 -29   2   0   13.68    0.61
 -29   2   0   14.03    0.61
 -29   2   0   14.11    0.61
 -29  -2   0   14.84    0.62
 -29  -2   0   15.15    0.63
 -29  -2   0   14.64    0.62
 -29   2  -1    0.09    0.07
 -29   2  -1    0.19    0.06
 -29   2  -1    0.09    0.05
 -29  -2  -1    0.11    0.07
 -29  -2  -1   -0.04    0.06
 -29  -2  -1    0.11    0.07
 -29   2  -2    0.68    0.13
 -29   2  -2    0.78    0.09
 -29   2  -2    0.79    0.09
 -29  -2  -2    0.70    0.11
 -29  -2  -2    0.69    0.11
 -29  -2  -2    0.80    0.11
 -29   2  -3    0.93    0.09
 -29   2  -3    0.91    0.10
 -29  -2  -3    0.93    0.11
 -29  -2  -3    0.85    0.11
 -29  -2  -3    0.95    0.11
 -29   2  -4   -0.03    0.05
  29   2   4    0.20    0.09
 -29   2  -4    0.03    0.05
 -29  -2  -4   -0.05    0.05
 -29  -2  -4    0.06    0.06
 -29  -2  -4   -0.11    0.06
 -29   2  -5    0.04    0.05
 -29   2  -5    0.02    0.05
  29   2   5   -0.05    0.10
 -29  -2  -5    0.00    0.05
 -29  -2  -5    0.14    0.07
 -29  -2  -5    0.02    0.06
 -29   2  -6    6.35    0.29
 -29   2  -6    6.33    0.29
 -29  -2  -6    6.39    0.30
 -29  -2  -6    6.21    0.30
 -29  -2  -6    6.33    0.30
 -29   2  -7    1.10    0.10
 -29   2  -7    1.09    0.10
 -29  -2  -7    1.14    0.12
 -29  -2  -7    1.03    0.10
 -29  -2  -7    1.09    0.11
 -29   2  -8    5.09    0.25
 -29   2  -8    5.67    0.26
 -29  -2  -8    5.47    0.26
 -29  -2  -8    5.38    0.26
 -29  -2  -8    5.60    0.27
 -29   2  -9    0.27    0.07
 -29   2  -9    0.36    0.08
 -29  -2  -9    0.31    0.07
 -29  -2  -9    0.32    0.08
 -29   2 -10    0.72    0.08
 -29   2 -10    0.83    0.09
 -29  -2 -10    0.76    0.09
 -29  -2 -10    0.74    0.08
 -29   2 -11   -0.02    0.04
 -29   2 -11    0.09    0.05
 -29  -2 -11    0.04    0.04
 -29  -2 -11    0.07    0.04
 -29   2 -12    0.97    0.08
 -29   2 -12    0.78    0.11
 -29  -2 -12    0.81    0.08
 -29  -2 -12    0.81    0.07
 -29   2 -13    0.34    0.08
 -29  -2 -13    0.41    0.06
 -29  -2 -13    0.24    0.06
 -29  -2 -14    2.23    0.11
 -29  -2 -14    2.03    0.11
 -29   3  11    1.13    0.08
  29   3 -11    1.00    0.07
 -29  -3  11    1.04    0.09
 -29   3  10    0.32    0.06
  29   3 -10    0.28    0.06
 -29  -3  10    0.37    0.07
  29   3  -9    0.07    0.04
 -29   3   9   -0.01    0.04
 -29  -3   9    0.08    0.05
 -29   3   8    0.09    0.05
  29   3  -8    0.20    0.06
 -29  -3   8    0.11    0.05
  29   3  -7    0.07    0.05
 -29   3   7    0.07    0.05
 -29  -3   7    0.08    0.05
 -29   3   6    1.60    0.11
  29   3  -6    1.82    0.11
 -29  -3   6    1.80    0.12
  29   3  -5    0.09    0.07
 -29   3   5    0.07    0.05
  29   3  -5    0.02    0.05
 -29  -3   5    0.08    0.05
  29   3  -4    1.21    0.11
  29   3  -4    1.21    0.12
 -29   3   4    1.07    0.14
 -29   3   4    1.27    0.11
 -29  -3   4    1.21    0.11
 -29   3   3    0.63    0.10
  29   3  -3    0.67    0.10
 -29   3   3    0.71    0.11
 -29  -3   3    0.70    0.09
 -29   3   2    0.45    0.09
 -29   3   2    0.31    0.08
  29   3  -2    0.39    0.10
 -29  -3   2    0.46    0.09
 -29   3   1    0.14    0.06
 -29   3   1    0.17    0.05
 -29  -3   1    0.13    0.06
 -29   3   0    0.31    0.08
  29   3   0    0.44    0.11
 -29   3   0    0.58    0.08
 -29  -3   0    0.38    0.09
 -29  -3   0    0.55    0.12
  29   3   1    0.26    0.08
 -29   3  -1    0.17    0.05
 -29   3  -1    0.08    0.05
 -29  -3  -1    0.08    0.05
 -29  -3  -1    0.22    0.07
  29   3   2    0.21    0.09
 -29   3  -2    0.25    0.06
 -29   3  -2    0.21    0.07
 -29  -3  -2    0.13    0.05
 -29  -3  -2    0.18    0.06
 -29   3  -3    0.10    0.05
 -29   3  -3    0.07    0.04
 -29  -3  -3    0.16    0.06
 -29  -3  -3    0.06    0.05
 -29   3  -4    2.44    0.13
 -29   3  -4    2.43    0.13
 -29  -3  -4    2.18    0.14
 -29  -3  -4    2.26    0.14
 -29   3  -5    0.00    0.04
 -29   3  -5    0.08    0.04
 -29  -3  -5    0.01    0.05
 -29  -3  -5    0.12    0.05
 -29   3  -6    1.05    0.09
 -29   3  -6    1.13    0.08
 -29  -3  -6    1.29    0.10
 -29  -3  -6    1.12    0.09
 -29   3  -7    0.36    0.06
 -29   3  -7    0.56    0.07
 -29  -3  -7    0.44    0.07
 -29  -3  -7    0.45    0.07
 -29   3  -8    0.18    0.05
 -29   3  -8    0.13    0.04
 -29  -3  -8    0.21    0.06
 -29  -3  -8    0.21    0.06
 -29   3  -9    0.39    0.06
 -29   3  -9    0.30    0.06
  29   3   9    0.34    0.09
 -29  -3  -9    0.32    0.06
 -29  -3  -9    0.46    0.07
 -29   3 -10    0.43    0.05
 -29   3 -10    0.49    0.07
  29   3  10    0.76    0.16
 -29  -3 -10    0.52    0.06
 -29  -3 -10    0.41    0.06
 -29   3 -11   -0.01    0.03
 -29  -3 -11    0.08    0.04
 -29  -3 -11   -0.01    0.03
  29   4  -5    0.07    0.06
  29   4  -4    0.66    0.11
 -29  -4   3    0.30    0.09
  29   4  -2    0.22    0.07
  29   4  -1    0.00    0.04
 -29   4   1    0.04    0.05
 -29  -4   1   -0.01    0.05
  29   4   0    0.05    0.04
 -29   4   0   -0.03    0.04
 -29  -4   0   -0.03    0.05
 -29   4  -1    1.52    0.09
  29   4   1    1.53    0.10
 -29  -4  -1    1.52    0.10
 -29   4  -2    1.00    0.09
  29   4   2    1.29    0.09
 -29   4  -2    1.23    0.08
 -29  -4  -2    1.11    0.09
 -29   4  -3    0.89    0.08
 -29   4  -3    0.71    0.07
  29   4   3    0.71    0.08
 -29  -4  -3    0.87    0.08
 -29   4  -4    0.02    0.03
  29   4   4    0.07    0.04
 -29   4  -4    0.01    0.04
 -29  -4  -4    0.03    0.05
 -29   4  -5    0.05    0.04
 -29   4  -5    0.02    0.03
  29   4   5    0.08    0.04
 -29  -4  -5   -0.03    0.05
 -30   0  15   -0.06    0.04
 -30   0  14    0.19    0.07
 -30   0  14    0.30    0.09
 -30   0  13    0.02    0.04
 -30   0  13   -0.05    0.05
 -30   0  12    1.26    0.11
 -30   0  12    1.62    0.10
  30   0 -11   -0.01    0.08
 -30   0  11    0.00    0.05
 -30   0  11    0.02    0.05
 -30   0  10    2.97    0.16
  30   0 -10    2.79    0.17
 -30   0  10    2.90    0.17
 -30   0   9    0.00    0.05
  30   0  -9    0.00    0.06
 -30   0   9    0.05    0.06
 -30   0   8   10.66    0.47
 -30   0   8   11.01    0.47
 -30   0   7    0.00    0.07
 -30   0   7   -0.06    0.05
 -30   0   6    7.75    0.34
 -30   0   6    7.65    0.36
 -30   0   5   -0.01    0.07
 -30   0   5    0.10    0.09
 -30   0   5   -0.09    0.05
 -30   0   4    2.77    0.16
 -30   0   4    2.62    0.18
 -30   0   4    2.72    0.18
 -30   0   3    0.01    0.06
 -30   0   3   -0.01    0.05
 -30   0   3    0.08    0.08
 -30   0   3   -0.13    0.07
 -30   0   2    7.71    0.34
 -30   0   2    7.11    0.36
 -30   0   2    7.76    0.35
 -30   0   2    7.79    0.35
 -30   0   1    0.00    0.07
 -30   0   1    0.09    0.09
 -30   0   1   -0.01    0.06
 -30   0   1   -0.07    0.05
 -30   0   0    9.36    0.41
 -30   0   0    9.49    0.41
 -30   0   0    8.86    0.41
 -30   0   0    9.51    0.43
 -30   0  -1    0.03    0.06
 -30   0  -1   -0.04    0.06
 -30   0  -1   -0.02    0.06
 -30   0  -1    0.10    0.09
 -30   0  -2    0.62    0.10
 -30   0  -2    0.42    0.14
 -30   0  -2    0.51    0.10
 -30   0  -2    0.68    0.10
 -30   0  -3   -0.08    0.05
 -30   0  -3    0.13    0.09
 -30   0  -3    0.02    0.06
 -30   0  -3    0.04    0.06
 -30   0  -4   10.00    0.45
 -30   0  -4   10.58    0.45
 -30   0  -4   10.24    0.44
 -30   0  -5    0.07    0.11
 -30   0  -5    0.03    0.06
 -30   0  -5    0.02    0.05
 -30   0  -5   -0.07    0.05
 -30   0  -6   14.30    0.62
 -30   0  -6   14.43    0.61
 -30   0  -6   15.01    0.62
 -30   0  -7    0.12    0.06
 -30   0  -7    0.07    0.06
 -30   0  -7    0.03    0.07
 -30   0  -8    3.53    0.19
 -30   0  -8    3.50    0.19
 -30   0  -8    3.52    0.19
 -30   0  -9    0.04    0.06
 -30   0  -9    0.00    0.07
 -30   0  -9   -0.09    0.05
 -30   0 -10   -0.02    0.06
 -30   0 -10    0.02    0.06
 -30   0 -11   -0.06    0.05
 -30   0 -11   -0.12    0.06
 -30   0 -12    0.04    0.08
 -30   0 -12   -0.02    0.06
 -30   1  15    0.07    0.04
 -30  -1  15    0.10    0.04
 -30   1  14    1.49    0.09
 -30  -1  14    1.72    0.10
 -30   1  13    0.32    0.06
 -30  -1  13    0.25    0.06
  30   1 -12    0.26    0.08
 -30   1  12    0.19    0.04
 -30  -1  12    0.13    0.04
  30   1 -11    0.44    0.09
 -30   1  11    0.27    0.07
 -30  -1  11    0.18    0.05
 -30  -1  11    0.32    0.08
 -30   1  10    0.05    0.04
  30   1 -10    0.02    0.06
 -30  -1  10    0.10    0.06
 -30  -1  10    0.00    0.05
  30   1  -9    3.59    0.19
 -30   1   9    3.32    0.18
 -30  -1   9    3.49    0.19
 -30  -1   9    3.61    0.19
 -30   1   8    0.45    0.08
  30   1  -8    0.59    0.10
 -30  -1   8    0.47    0.10
 -30  -1   8    0.47    0.10
 -30   1   7    0.10    0.05
  30   1  -7    0.05    0.06
 -30  -1   7    0.05    0.06
 -30  -1   7    0.10    0.06
 -30   1   6    0.63    0.09
 -30  -1   6    0.77    0.10
 -30  -1   6    0.79    0.11
 -30   1   5    0.76    0.16
 -30   1   5    1.04    0.10
 -30   1   5    0.79    0.10
 -30  -1   5    0.77    0.14
 -30  -1   5    0.78    0.11
 -30  -1   5    0.94    0.11
 -30   1   4    0.26    0.09
 -30   1   4    0.47    0.12
 -30   1   4    0.27    0.09
 -30  -1   4    0.27    0.07
 -30  -1   4    0.27    0.07
 -30  -1   4    0.25    0.09
 -30   1   3    0.34    0.12
 -30   1   3    0.07    0.06
 -30   1   3    0.06    0.05
 -30  -1   3    0.09    0.06
 -30  -1   3    0.03    0.06
 -30   1   2    0.00    0.06
 -30   1   2    0.07    0.06
 -30   1   2    0.05    0.05
 -30  -1   2    0.03    0.07
 -30  -1   2    0.02    0.06
 -30  -1   2    0.11    0.07
 -30   1   1    0.52    0.10
 -30   1   1    0.41    0.10
 -30   1   1    0.38    0.09
 -30  -1   1    0.52    0.12
 -30  -1   1    0.43    0.11
 -30  -1   1    0.30    0.09
 -30   1   0    4.93    0.24
 -30   1   0    4.57    0.24
 -30   1   0    4.93    0.24
 -30  -1   0    4.97    0.25
 -30  -1   0    4.68    0.24
 -30  -1   0    5.13    0.26
 -30   1  -1    6.21    0.29
 -30   1  -1    6.21    0.29
 -30   1  -1    5.94    0.29
 -30  -1  -1    6.36    0.30
 -30  -1  -1    6.26    0.30
 -30  -1  -1    6.53    0.31
 -30   1  -2    5.91    0.28
 -30   1  -2    6.00    0.28
 -30   1  -2    5.74    0.27
 -30  -1  -2    5.79    0.29
 -30  -1  -2    5.54    0.28
 -30  -1  -2    5.78    0.28
 -30   1  -3    1.40    0.12
 -30   1  -3    1.42    0.11
 -30   1  -3    1.34    0.13
 -30  -1  -3    1.32    0.12
 -30  -1  -3    1.46    0.13
 -30  -1  -3    1.35    0.13
 -30   1  -4    4.02    0.22
 -30   1  -4    4.07    0.22
 -30   1  -4    4.28    0.21
 -30  -1  -4    4.43    0.22
 -30  -1  -4    4.26    0.22
 -30  -1  -4    4.25    0.23
 -30   1  -5    0.23    0.06
 -30   1  -5    0.32    0.07
 -30   1  -5    0.17    0.07
 -30  -1  -5    0.37    0.10
 -30  -1  -5    0.21    0.07
 -30  -1  -5    0.30    0.09
 -30   1  -6    0.57    0.09
 -30   1  -6    0.67    0.09
 -30   1  -6    0.57    0.12
 -30  -1  -6    0.65    0.11
 -30  -1  -6    0.68    0.11
 -30  -1  -6    0.67    0.09
 -30   1  -7    0.78    0.09
 -30   1  -7    0.76    0.10
 -30   1  -7    0.58    0.12
 -30  -1  -7    0.82    0.10
 -30  -1  -7    0.74    0.11
 -30  -1  -7    0.75    0.12
 -30   1  -8    0.36    0.09
 -30   1  -8    0.12    0.07
 -30   1  -8    0.20    0.06
 -30  -1  -8    0.19    0.06
 -30  -1  -8    0.11    0.07
 -30  -1  -8    0.19    0.06
 -30   1  -9    0.47    0.08
 -30   1  -9    0.32    0.08
 -30  -1  -9    0.50    0.10
 -30  -1  -9    0.36    0.11
 -30  -1  -9    0.48    0.08
 -30   1 -10    0.24    0.06
 -30   1 -10    0.27    0.08
 -30  -1 -10    0.16    0.06
 -30  -1 -10    0.30    0.10
 -30  -1 -10    0.25    0.08
 -30   1 -11    0.52    0.09
 -30   1 -11    0.47    0.09
 -30  -1 -11    0.46    0.11
 -30  -1 -11    0.26    0.09
 -30  -1 -11    0.30    0.06
 -30   1 -12    3.94    0.19
 -30  -1 -12    3.91    0.18
 -30  -1 -12    3.44    0.18
 -30  -1 -13    0.18    0.06
 -30  -1 -13    0.36    0.07
 -30  -1 -14    0.81    0.08
 -30   2  14    0.49    0.06
 -30  -2  14    0.48    0.07
  30   2 -13    0.59    0.08
 -30   2  13    0.66    0.06
 -30  -2  13    0.63    0.07
 -30   2  12    1.43    0.09
  30   2 -12    1.30    0.09
 -30  -2  12    1.42    0.09
 -30   2  11    0.86    0.07
  30   2 -11    0.65    0.08
 -30  -2  11    0.66    0.08
  30   2 -10    0.01    0.04
 -30   2  10    0.03    0.04
 -30  -2  10   -0.02    0.04
  30   2  -9    0.27    0.07
 -30   2   9    0.41    0.07
 -30  -2   9    0.27    0.08
 -30   2   8    0.08    0.04
  30   2  -8    0.13    0.06
 -30  -2   8    0.05    0.05
 -30   2   7    2.25    0.14
  30   2  -7    2.42    0.15
 -30  -2   7    2.42    0.15
  30   2  -6    0.77    0.10
 -30   2   6    0.86    0.09
 -30  -2   6    0.76    0.10
 -30  -2   6    1.05    0.13
 -30   2   5    0.83    0.11
  30   2  -5    0.90    0.11
 -30   2   5    1.07    0.10
 -30  -2   5    0.79    0.11
 -30  -2   5    0.85    0.12
 -30   2   4    1.09    0.13
 -30   2   4    0.94    0.11
 -30   2   4    1.07    0.10
  30   2  -4    0.85    0.11
 -30  -2   4    1.03    0.12
 -30  -2   4    1.07    0.11
 -30   2   3    0.38    0.09
  30   2  -3    0.52    0.10
 -30   2   3    0.32    0.11
 -30   2   3    0.44    0.09
 -30  -2   3    0.39    0.11
 -30  -2   3    0.43    0.10
 -30   2   2    3.46    0.19
 -30   2   2    3.49    0.19
 -30   2   2    3.57    0.18
  30   2  -2    3.50    0.19
 -30  -2   2    3.56    0.20
 -30  -2   2    3.41    0.20
 -30  -2   2    3.47    0.19
 -30   2   1    0.71    0.11
  30   2  -1    1.06    0.12
 -30   2   1    0.85    0.10
 -30   2   1    1.01    0.11
 -30  -2   1    0.89    0.11
 -30  -2   1    0.89    0.12
 -30  -2   1    1.09    0.12
 -30   2   0    2.23    0.14
 -30   2   0    2.20    0.15
  30   2   0    2.48    0.16
 -30   2   0    2.14    0.14
 -30  -2   0    2.40    0.16
 -30  -2   0    2.45    0.16
 -30  -2   0    2.49    0.15
 -30   2  -1    0.25    0.08
  30   2   1    0.28    0.08
 -30   2  -1    0.34    0.08
 -30   2  -1    0.45    0.11
 -30  -2  -1    0.48    0.10
 -30  -2  -1    0.43    0.10
 -30  -2  -1    0.39    0.10
 -30   2  -2    0.05    0.05
 -30   2  -2    0.06    0.07
 -30   2  -2   -0.04    0.05
  30   2   2    0.03    0.07
 -30  -2  -2   -0.07    0.05
 -30  -2  -2    0.07    0.06
 -30   2  -3   -0.09    0.08
  30   2   3    0.06    0.08
 -30   2  -3    0.03    0.05
 -30   2  -3   -0.06    0.05
 -30  -2  -3   -0.06    0.05
 -30  -2  -3    0.15    0.06
 -30  -2  -3    0.06    0.06
  30   2   4    0.00    0.08
 -30   2  -4    0.01    0.05
 -30   2  -4    0.04    0.05
 -30  -2  -4   -0.03    0.05
 -30  -2  -4    0.09    0.06
 -30  -2  -4   -0.02    0.06
  30   2   5    0.07    0.14
 -30   2  -5    0.28    0.07
 -30   2  -5    0.14    0.05
 -30  -2  -5    0.01    0.06
 -30  -2  -5    0.16    0.06
 -30  -2  -5    0.12    0.06
 -30   2  -6    2.71    0.15
 -30   2  -6    2.82    0.16
 -30  -2  -6    2.83    0.17
 -30  -2  -6    2.78    0.16
 -30  -2  -6    2.70    0.16
 -30   2  -7    0.00    0.05
 -30   2  -7    0.05    0.05
 -30  -2  -7    0.01    0.05
 -30  -2  -7    0.04    0.05
 -30  -2  -7   -0.11    0.06
 -30   2  -8    1.97    0.12
 -30   2  -8    2.05    0.13
 -30  -2  -8    2.02    0.13
 -30  -2  -8    2.09    0.13
 -30   2  -9    1.20    0.09
 -30   2  -9    1.43    0.10
 -30  -2  -9    1.19    0.09
 -30  -2  -9    1.23    0.10
 -30   2 -10   -0.02    0.04
 -30   2 -10   -0.04    0.05
 -30  -2 -10   -0.01    0.04
 -30  -2 -10    0.03    0.05
 -30   2 -11    0.06    0.05
 -30   2 -11    0.06    0.04
 -30  -2 -11    0.11    0.04
 -30  -2 -11    0.04    0.03
 -30   2 -12    0.22    0.07
 -30   2 -12    0.07    0.05
 -30  -2 -12    0.11    0.04
 -30  -2 -12    0.11    0.04
 -30  -2 -13    0.04    0.04
 -30  -2 -13    0.03    0.03
 -30   3  11    0.01    0.04
  30   3 -11    0.01    0.04
 -30  -3  11    0.08    0.06
 -30   3  10    0.20    0.06
  30   3 -10    0.20    0.05
 -30   3   9    0.24    0.06
  30   3  -9    0.02    0.04
 -30  -3   9    0.04    0.05
 -30   3   8    0.45    0.07
  30   3  -8    0.37    0.06
 -30  -3   8    0.31    0.07
 -30   3   7    0.30    0.08
  30   3  -7    0.16    0.05
 -30  -3   7    0.24    0.08
  30   3  -6    0.86    0.08
 -30   3   6    0.77    0.09
 -30  -3   6    0.87    0.09
 -30   3   5    0.34    0.09
  30   3  -5    0.09    0.07
 -30  -3   5    0.25    0.08
 -30   3   4    0.33    0.07
  30   3  -4    0.42    0.10
  30   3  -4    0.49    0.08
 -30  -3   4    0.51    0.08
  30   3  -3    0.42    0.09
 -30   3   3    0.43    0.10
 -30   3   3    0.47    0.10
  30   3  -3    0.41    0.10
 -30  -3   3    0.41    0.08
 -30   3   2    0.06    0.06
 -30   3   2    0.14    0.06
  30   3  -2    0.12    0.06
 -30  -3   2    0.05    0.05
  30   3  -1    0.03    0.06
 -30   3   1   -0.04    0.05
 -30   3   1    0.12    0.06
 -30  -3   1    0.03    0.05
 -30   3   0    1.13    0.09
 -30   3   0    1.07    0.09
  30   3   0    1.04    0.12
 -30  -3   0    1.03    0.10
 -30  -3   0    1.34    0.13
  30   3   1    0.10    0.08
 -30   3  -1    0.02    0.05
 -30   3  -1    0.02    0.04
 -30  -3  -1   -0.01    0.07
 -30  -3  -1    0.01    0.05
 -30   3  -2    0.03    0.04
 -30   3  -2   -0.02    0.04
 -30  -3  -2   -0.02    0.05
 -30  -3  -2    0.05    0.06
 -30   3  -3    0.54    0.07
 -30   3  -3    0.58    0.07
 -30  -3  -3    0.55    0.09
 -30  -3  -3    0.62    0.08
 -30   3  -4    0.86    0.08
 -30   3  -4    1.01    0.08
 -30  -3  -4    0.94    0.09
 -30  -3  -4    0.97    0.10
 -30   3  -5    0.22    0.06
 -30   3  -5    0.31    0.06
 -30  -3  -5    0.15    0.05
 -30  -3  -5    0.31    0.08
 -30   3  -6    0.03    0.04
 -30   3  -6    0.01    0.04
 -30  -3  -6    0.08    0.04
 -30  -3  -6   -0.04    0.04
 -30   3  -7    0.10    0.04
 -30   3  -7    0.18    0.05
 -30  -3  -7    0.22    0.06
 -30  -3  -7    0.06    0.05
 -30   3  -8    0.10    0.04
  30   3   8    0.12    0.06
 -30   3  -8    0.05    0.03
 -30  -3  -8    0.06    0.04
 -30  -3  -8   -0.01    0.04
  30   3   9    0.73    0.10
 -30   3  -9    0.89    0.06
 -30   3  -9    0.97    0.08
 -30  -3  -9    0.85    0.07
 -30  -3  -9    0.90    0.07
 -30   3 -10    0.30    0.05
 -30   3 -10    0.47    0.07
 -30  -3 -10    0.43    0.06
 -30  -3 -10    0.42    0.06
  30   4  -2    0.02    0.05
  30   4  -1   -0.04    0.05
 -30  -4   1    0.04    0.05
  30   4   0    2.84    0.14
 -30   4   0    2.61    0.14
 -30  -4   0    2.63    0.14
  30   4   1    1.25    0.08
 -30   4  -1    1.28    0.09
 -30  -4  -1    1.08    0.09
 -30   4  -2    0.02    0.04
  30   4   2    0.08    0.04
 -30  -4  -2    0.05    0.05
  30   4   3    0.92    0.07
 -30   4  -3    0.75    0.07
 -30  -4  -3    0.79    0.08
  30   4   4    0.29    0.06
 -30   4  -4    0.22    0.05
 -31   0  15    0.08    0.05
 -31   0  14    0.38    0.07
 -31   0  14    0.23    0.06
 -31   0  13   -0.01    0.05
 -31   0  13   -0.05    0.04
 -31   0  12    0.04    0.04
 -31   0  12    0.04    0.05
 -31   0  11    0.02    0.05
 -31   0  11    0.01    0.04
 -31   0  10    0.08    0.05
  31   0 -10    0.05    0.07
 -31   0  10    0.05    0.05
  31   0  -9   -0.02    0.06
 -31   0   9    0.03    0.05
 -31   0   9   -0.02    0.06
 -31   0   8    0.07    0.05
 -31   0   8    0.16    0.07
 -31   0   7   -0.04    0.07
 -31   0   7   -0.03    0.05
 -31   0   6   17.45    0.75
 -31   0   6   18.43    0.75
 -31   0   5    0.00    0.07
 -31   0   5    0.01    0.05
 -31   0   5    0.09    0.10
 -31   0   4    1.85    0.13
 -31   0   4    1.82    0.16
 -31   0   4    1.61    0.15
 -31   0   3    0.01    0.08
 -31   0   3    0.05    0.07
 -31   0   3    0.00    0.06
 -31   0   3    0.02    0.05
 -31   0   2    0.97    0.10
 -31   0   2    1.18    0.12
 -31   0   2    1.09    0.15
 -31   0   2    1.08    0.11
 -31   0   1   -0.03    0.05
 -31   0   1    0.05    0.09
 -31   0   1   -0.01    0.06
 -31   0   1   -0.03    0.06
 -31   0   0   15.29    0.65
 -31   0   0   15.37    0.66
 -31   0   0   15.42    0.65
 -31   0   0   15.50    0.65
 -31   0  -1    0.02    0.06
 -31   0  -1    0.06    0.06
 -31   0  -1    0.05    0.09
 -31   0  -2    0.14    0.09
 -31   0  -2    0.29    0.09
 -31   0  -2    0.37    0.09
 -31   0  -2    0.37    0.09
 -31   0  -3    0.08    0.09
 -31   0  -3    0.01    0.06
 -31   0  -3   -0.03    0.06
 -31   0  -3    0.00    0.06
 -31   0  -4    4.64    0.23
 -31   0  -4    4.36    0.23
 -31   0  -4    4.44    0.22
 -31   0  -5    0.04    0.06
 -31   0  -5    0.09    0.06
 -31   0  -5    0.02    0.05
 -31   0  -6   10.89    0.47
 -31   0  -6   10.78    0.47
 -31   0  -6   10.36    0.46
 -31   0  -7    0.00    0.06
 -31   0  -7    0.00    0.06
 -31   0  -7   -0.03    0.05
 -31   0  -8    3.02    0.17
 -31   0  -8    3.43    0.18
 -31   0  -8    3.25    0.18
 -31   0  -9   -0.02    0.05
 -31   0  -9    0.06    0.07
 -31   0  -9   -0.02    0.05
 -31   0 -10    0.12    0.06
 -31   0 -10    0.08    0.05
 -31   0 -11    0.03    0.05
 -31   0 -11    0.35    0.10
 -31   0 -12    0.07    0.06
 -31   0 -12   -0.11    0.08
 -31  -1  15    2.76    0.13
 -31   1  14    0.83    0.07
 -31  -1  14    0.99    0.08
 -31   1  13    0.05    0.04
 -31  -1  13    0.02    0.04
 -31   1  12    0.11    0.04
  31   1 -12    0.08    0.06
 -31  -1  12    0.17    0.06
 -31   1  11   -0.04    0.04
  31   1 -11    0.04    0.06
 -31  -1  11    0.05    0.04
 -31  -1  11   -0.14    0.10
 -31   1  10    0.04    0.04
  31   1 -10   -0.10    0.06
 -31  -1  10    0.03    0.06
 -31  -1  10    0.03    0.05
  31   1  -9    2.63    0.15
 -31   1   9    2.52    0.14
 -31  -1   9    2.51    0.15
 -31  -1   9    2.40    0.15
  31   1  -8    0.14    0.06
 -31   1   8    0.07    0.04
 -31  -1   8    0.07    0.05
 -31  -1   8    0.08    0.06
  31   1  -7    1.04    0.10
 -31   1   7    0.81    0.09
 -31  -1   7    0.78    0.10
 -31  -1   7    0.84    0.11
 -31   1   6    1.10    0.10
 -31  -1   6    1.11    0.11
 -31  -1   6    0.95    0.11
 -31   1   5    0.45    0.09
 -31   1   5    0.51    0.09
 -31  -1   5    0.41    0.09
 -31  -1   5    0.58    0.14
 -31  -1   5    0.35    0.10
 -31   1   4    0.57    0.09
 -31   1   4    0.39    0.09
 -31   1   4    0.42    0.12
 -31  -1   4    0.47    0.10
 -31  -1   4    0.75    0.10
 -31  -1   4    0.76    0.13
 -31   1   3    0.10    0.07
 -31   1   3   -0.01    0.06
 -31   1   3    0.15    0.06
 -31  -1   3    0.15    0.06
 -31  -1   3    0.04    0.07
 -31  -1   3    0.08    0.08
 -31   1   2    0.02    0.06
 -31   1   2   -0.05    0.05
 -31   1   2    0.07    0.07
 -31  -1   2    0.02    0.06
 -31  -1   2    0.07    0.07
 -31  -1   2    0.05    0.07
 -31   1   1    0.62    0.10
 -31   1   1    0.73    0.09
 -31   1   1    0.72    0.11
 -31  -1   1    0.53    0.12
 -31  -1   1    0.55    0.11
 -31  -1   1    0.58    0.10
 -31   1   0   25.51    1.05
 -31   1   0   25.37    1.04
 -31   1   0   24.81    1.05
 -31  -1   0   26.33    1.06
 -31  -1   0   25.30    1.05
 -31  -1   0   25.76    1.05
 -31   1  -1    0.00    0.06
 -31   1  -1    0.12    0.06
 -31   1  -1    0.07    0.06
 -31  -1  -1    0.30    0.10
 -31  -1  -1    0.07    0.06
 -31  -1  -1   -0.05    0.07
 -31   1  -2    1.46    0.12
 -31   1  -2    1.51    0.13
 -31   1  -2    1.54    0.12
 -31  -1  -2    1.57    0.13
 -31  -1  -2    1.49    0.12
 -31  -1  -2    1.38    0.14
 -31   1  -3    0.72    0.11
 -31   1  -3    0.65    0.09
 -31   1  -3    0.60    0.09
 -31  -1  -3    0.74    0.11
 -31  -1  -3    0.52    0.11
 -31  -1  -3    0.68    0.10
 -31   1  -4    0.16    0.06
 -31   1  -4    0.16    0.06
 -31   1  -4    0.03    0.05
 -31  -1  -4    0.13    0.06
 -31  -1  -4    0.12    0.06
 -31  -1  -4    0.10    0.06
 -31   1  -5    0.89    0.10
 -31   1  -5    1.02    0.12
 -31   1  -5    0.89    0.10
 -31  -1  -5    0.98    0.10
 -31  -1  -5    1.04    0.12
 -31  -1  -5    1.00    0.12
 -31   1  -6    0.19    0.06
 -31   1  -6    0.24    0.08
 -31   1  -6    0.26    0.07
 -31  -1  -6    0.20    0.07
 -31  -1  -6    0.20    0.06
 -31  -1  -6    0.21    0.07
 -31   1  -7    0.25    0.09
 -31   1  -7    0.15    0.06
 -31   1  -7    0.12    0.07
 -31  -1  -7    0.11    0.06
 -31  -1  -7    0.14    0.06
 -31  -1  -7    0.08    0.06
 -31   1  -8    0.01    0.05
 -31   1  -8   -0.01    0.05
 -31  -1  -8    0.00    0.05
 -31  -1  -8    0.05    0.06
 -31  -1  -8   -0.01    0.06
 -31   1  -9    0.67    0.09
 -31   1  -9    0.63    0.08
 -31  -1  -9    0.71    0.10
 -31  -1  -9    0.76    0.10
 -31  -1  -9    0.75    0.09
 -31   1 -10    1.47    0.11
 -31   1 -10    1.40    0.10
 -31  -1 -10    1.44    0.10
 -31  -1 -10    1.30    0.12
 -31  -1 -10    1.07    0.11
 -31   1 -11    1.05    0.10
 -31   1 -11    1.02    0.10
 -31  -1 -11    1.08    0.09
 -31  -1 -11    1.14    0.12
 -31  -1 -11    1.11    0.10
 -31   1 -12    0.90    0.11
 -31  -1 -12    0.86    0.08
 -31  -1 -13    4.48    0.20
 -31  -1 -14    0.08    0.05
 -31   2  13    0.25    0.05
 -31  -2  13    0.22    0.06
 -31   2  12    0.05    0.03
  31   2 -12    0.06    0.05
 -31  -2  12    0.02    0.04
 -31   2  11    0.35    0.06
  31   2 -11    0.35    0.06
 -31  -2  11    0.27    0.06
  31   2 -10    0.25    0.06
 -31   2  10    0.25    0.06
 -31  -2  10    0.28    0.07
 -31   2   9    0.36    0.06
  31   2  -9    0.34    0.08
 -31  -2   9    0.30    0.07
  31   2  -8    2.60    0.14
 -31   2   8    2.63    0.14
 -31  -2   8    2.37    0.14
 -31   2   7    2.25    0.13
  31   2  -7    2.35    0.14
 -31  -2   7    2.31    0.14
  31   2  -6    3.34    0.18
 -31   2   6    3.12    0.16
 -31  -2   6    3.11    0.18
 -31  -2   6    3.14    0.19
 -31   2   5    0.08    0.06
 -31   2   5    0.07    0.05
  31   2  -5   -0.03    0.05
 -31  -2   5    0.00    0.07
 -31  -2   5    0.06    0.06
 -31   2   4    0.55    0.08
 -31   2   4    0.44    0.13
  31   2  -4    0.51    0.09
 -31   2   4    0.52    0.09
 -31  -2   4    0.35    0.11
 -31  -2   4    0.69    0.10
 -31   2   3    1.45    0.12
 -31   2   3    1.48    0.11
  31   2  -3    1.34    0.12
 -31   2   3    1.21    0.11
 -31  -2   3    1.35    0.12
 -31  -2   3    1.38    0.12
 -31   2   2    0.24    0.06
  31   2  -2    0.11    0.06
 -31   2   2    0.24    0.07
 -31  -2   2    0.34    0.10
 -31  -2   2    0.21    0.06
 -31   2   1    0.44    0.08
 -31   2   1    0.28    0.09
  31   2  -1    0.19    0.07
 -31  -2   1    0.31    0.09
 -31  -2   1    0.34    0.10
 -31  -2   1    0.47    0.10
  31   2   0    3.34    0.18
 -31   2   0    3.13    0.17
 -31   2   0    2.97    0.18
 -31   2   0    3.22    0.18
 -31  -2   0    3.21    0.18
 -31  -2   0    3.13    0.18
 -31  -2   0    3.34    0.19
 -31   2  -1    0.57    0.11
 -31   2  -1    0.50    0.09
  31   2   1    0.61    0.11
 -31   2  -1    0.59    0.09
 -31  -2  -1    0.49    0.10
 -31  -2  -1    0.75    0.10
 -31  -2  -1    0.51    0.10
 -31   2  -2    0.03    0.05
 -31   2  -2    0.02    0.07
  31   2   2    0.21    0.07
 -31   2  -2    0.04    0.05
 -31  -2  -2    0.02    0.06
 -31  -2  -2   -0.04    0.06
 -31  -2  -2    0.03    0.06
 -31   2  -3    0.20    0.05
 -31   2  -3    0.24    0.08
  31   2   3    0.15    0.07
 -31   2  -3    0.06    0.09
 -31  -2  -3    0.27    0.09
 -31  -2  -3    0.21    0.06
 -31  -2  -3    0.12    0.06
 -31   2  -4    0.03    0.05
  31   2   4    0.10    0.08
 -31   2  -4    0.02    0.04
 -31  -2  -4    0.05    0.05
 -31  -2  -4   -0.04    0.05
 -31  -2  -4    0.01    0.06
 -31   2  -5    0.18    0.05
 -31   2  -5    0.13    0.05
 -31  -2  -5    0.06    0.05
 -31  -2  -5    0.26    0.09
 -31  -2  -5    0.26    0.08
 -31   2  -6    0.46    0.08
 -31   2  -6    0.52    0.07
 -31  -2  -6    0.48    0.08
 -31  -2  -6    0.55    0.08
 -31  -2  -6    0.51    0.09
 -31   2  -7    0.72    0.08
 -31   2  -7    0.79    0.08
 -31  -2  -7    0.66    0.08
 -31  -2  -7    0.71    0.09
 -31  -2  -7    0.82    0.10
 -31   2  -8    0.16    0.05
 -31   2  -8    0.26    0.06
 -31  -2  -8    0.16    0.05
 -31  -2  -8    0.09    0.05
 -31   2  -9    0.87    0.08
 -31   2  -9    0.65    0.07
 -31  -2  -9    0.65    0.08
 -31  -2  -9    0.73    0.08
 -31   2 -10    0.45    0.06
 -31   2 -10    0.54    0.08
 -31  -2 -10    0.39    0.07
 -31  -2 -10    0.37    0.07
 -31   2 -11   -0.01    0.04
 -31   2 -11    0.03    0.05
 -31  -2 -11    0.09    0.04
 -31  -2 -11   -0.01    0.04
 -31   2 -12    1.93    0.11
 -31  -2 -12    1.75    0.10
 -31  -2 -12    2.03    0.10
 -31  -2 -13    2.55    0.14
  31   3 -10    0.42    0.06
 -31  -3  10    0.44    0.07
 -31   3   9    0.17    0.04
  31   3  -9    0.00    0.04
 -31  -3   9    0.07    0.04
  31   3  -8    0.25    0.06
 -31   3   8    0.22    0.07
  31   3  -7    1.62    0.10
 -31   3   7    1.63    0.11
 -31  -3   7    1.68    0.11
 -31   3   6   -0.04    0.05
  31   3  -6    0.02    0.04
 -31  -3   6    0.05    0.05
 -31   3   5    0.01    0.05
  31   3  -5    0.12    0.07
  31   3  -5    0.05    0.04
 -31  -3   5    0.07    0.05
  31   3  -4    0.11    0.05
  31   3  -4    0.17    0.06
 -31   3   4    0.15    0.07
 -31  -3   4    0.14    0.05
  31   3  -3    0.00    0.06
 -31   3   3    0.15    0.07
  31   3  -3   -0.03    0.05
 -31   3   3    0.02    0.06
 -31  -3   3    0.04    0.05
 -31   3   2    1.41    0.11
 -31   3   2    1.43    0.11
  31   3  -2    1.29    0.11
 -31  -3   2    1.55    0.11
  31   3  -1    0.00    0.06
 -31   3   1   -0.02    0.05
 -31   3   1    0.01    0.05
 -31  -3   1   -0.01    0.05
 -31   3   0    0.29    0.07
 -31   3   0    0.24    0.07
  31   3   0    0.30    0.10
 -31   3  -1    0.30    0.07
 -31   3  -1    0.30    0.07
 -31  -3  -1    0.36    0.07
 -31  -3  -1    0.40    0.11
 -31   3  -2    0.00    0.04
 -31   3  -2    0.01    0.04
 -31  -3  -2    0.02    0.05
 -31  -3  -2   -0.01    0.06
 -31   3  -3    0.65    0.07
 -31   3  -3    0.58    0.07
 -31  -3  -3    0.63    0.08
 -31  -3  -3    0.73    0.09
 -31   3  -4    0.06    0.04
 -31   3  -4    0.06    0.04
 -31  -3  -4    0.06    0.05
 -31  -3  -4    0.08    0.04
 -31   3  -5    0.07    0.04
 -31   3  -5    0.12    0.04
 -31  -3  -5    0.07    0.05
 -31  -3  -5    0.03    0.04
 -31   3  -6    0.37    0.06
 -31   3  -6    0.37    0.05
 -31  -3  -6    0.48    0.07
 -31  -3  -6    0.35    0.07
 -31   3  -7    0.13    0.04
 -31   3  -7    0.22    0.06
 -31  -3  -7    0.14    0.04
 -31  -3  -7    0.12    0.04
 -31   3  -8    0.68    0.06
 -31   3  -8    0.62    0.07
  31   3   8    0.62    0.09
 -31  -3  -8    0.62    0.07
 -31  -3  -8    0.67    0.07
  31   3   9    0.57    0.10
 -31   3  -9    0.92    0.07
 -31   3  -9    0.84    0.06
 -31  -3  -9    0.84    0.07
 -31  -3  -9    0.72    0.07
 -31  -3 -10    0.24    0.05
 -31  -3 -10    0.28    0.05
  31   4  -1    0.94    0.08
  31   4   0    0.82    0.08
  31   4   1    0.24    0.07
 -32   0  14    0.33    0.08
 -32   0  13    0.00    0.05
 -32   0  13    0.02    0.05
 -32   0  12    1.27    0.09
 -32   0  12    1.13    0.10
 -32   0  11    0.02    0.05
 -32   0  11    0.06    0.04
 -32   0  10    1.14    0.11
 -32   0  10    1.21    0.09
  32   0 -10    1.21    0.12
 -32   0   9   -0.01    0.06
  32   0  -9   -0.07    0.06
 -32   0   9    0.03    0.04
  32   0  -8   10.66    0.45
 -32   0   8    9.98    0.45
 -32   0   8   10.66    0.45
 -32   0   7    0.17    0.07
 -32   0   7    0.11    0.05
 -32   0   6    6.81    0.31
 -32   0   6    6.59    0.32
 -32   0   5   -0.17    0.09
 -32   0   5    0.09    0.08
 -32   0   5    0.04    0.05
 -32   0   4    0.15    0.08
 -32   0   4    0.03    0.08
 -32   0   4    0.09    0.06
 -32   0   3    0.02    0.05
 -32   0   3    0.04    0.08
 -32   0   3   -0.06    0.07
 -32   0   2   16.42    0.68
 -32   0   2   16.24    0.69
 -32   0   2   16.71    0.68
 -32   0   2   15.75    0.69
 -32   0   1    0.02    0.09
 -32   0   1    0.07    0.05
 -32   0   1    0.05    0.06
 -32   0   1    0.09    0.06
 -32   0   0    1.99    0.14
 -32   0   0    1.61    0.17
 -32   0   0    1.95    0.14
 -32   0   0    2.15    0.13
 -32   0  -1   -0.04    0.06
 -32   0  -1   -0.05    0.05
 -32   0  -1   -0.08    0.09
 -32   0  -1    0.01    0.05
 -32   0  -2    3.29    0.19
 -32   0  -2    3.40    0.18
 -32   0  -2    3.31    0.19
 -32   0  -3   -0.02    0.06
 -32   0  -3   -0.01    0.12
 -32   0  -3    0.01    0.06
 -32   0  -3    0.05    0.05
 -32   0  -4    1.46    0.12
 -32   0  -4    1.47    0.12
 -32   0  -4    1.64    0.12
 -32   0  -5   -0.06    0.05
 -32   0  -5   -0.04    0.05
 -32   0  -5   -0.05    0.06
 -32   0  -6    1.45    0.12
 -32   0  -6    1.33    0.12
 -32   0  -6    1.55    0.12
 -32   0  -7   -0.02    0.06
 -32   0  -7    0.14    0.05
 -32   0  -7   -0.02    0.05
 -32   0  -8   10.85    0.48
 -32   0  -8   11.70    0.49
 -32   0  -8   11.62    0.49
 -32   0  -9    0.03    0.05
 -32   0  -9    0.01    0.05
 -32   0 -10    0.56    0.10
 -32   0 -10    0.75    0.09
 -32   0 -11    0.02    0.05
 -32   0 -11    0.14    0.06
 -32   0 -12    0.86    0.13
 -32   0 -12    1.07    0.11
 -32   1  14    0.03    0.04
 -32  -1  14    0.09    0.04
 -32   1  13    0.02    0.03
 -32  -1  13    0.01    0.04
  32   1 -12    0.03    0.07
 -32   1  12    0.17    0.06
 -32  -1  12    0.09    0.04
 -32   1  11    0.09    0.04
  32   1 -11    0.12    0.06
 -32  -1  11    0.08    0.04
 -32   1  10    0.63    0.07
  32   1 -10    0.54    0.09
 -32  -1  10    0.53    0.10
 -32  -1  10    0.47    0.08
 -32   1   9    0.29    0.07
  32   1  -9    0.27    0.07
 -32  -1   9    0.40    0.08
 -32  -1   9    0.34    0.09
  32   1  -8    0.06    0.05
 -32   1   8   -0.04    0.04
 -32  -1   8    0.05    0.06
 -32  -1   8    0.05    0.05
 -32   1   7    0.93    0.09
  32   1  -7    1.00    0.10
 -32  -1   7    0.98    0.10
 -32  -1   7    1.06    0.10
  32   1  -6    0.12    0.06
 -32   1   6    0.05    0.05
 -32  -1   6    0.13    0.06
 -32  -1   6   -0.04    0.05
 -32   1   5   -0.02    0.05
 -32  -1   5   -0.01    0.06
 -32  -1   5    0.10    0.09
 -32  -1   5   -0.02    0.06
 -32   1   4   -0.07    0.06
 -32   1   4   -0.07    0.05
 -32   1   4    0.09    0.08
 -32  -1   4    0.02    0.05
 -32  -1   4    0.05    0.08
 -32  -1   4   -0.08    0.06
 -32   1   3    0.30    0.08
 -32   1   3    0.22    0.07
 -32   1   3    0.30    0.09
 -32  -1   3    0.30    0.10
 -32  -1   3    0.20    0.08
 -32  -1   3    0.20    0.06
 -32   1   2    0.34    0.09
 -32   1   2    0.38    0.09
 -32   1   2    0.35    0.10
 -32  -1   2    0.59    0.12
 -32  -1   2    0.36    0.09
 -32  -1   2    0.36    0.11
 -32   1   1    0.11    0.05
 -32   1   1    0.13    0.06
 -32   1   1    0.08    0.06
 -32  -1   1    0.11    0.07
 -32  -1   1    0.13    0.06
 -32  -1   1    0.00    0.07
 -32   1   0    0.01    0.05
 -32   1   0    0.13    0.06
 -32   1   0    0.01    0.06
 -32  -1   0    0.02    0.05
 -32  -1   0    0.08    0.07
 -32  -1   0   -0.02    0.06
 -32   1  -1    1.02    0.10
 -32   1  -1    0.99    0.11
 -32   1  -1    0.91    0.11
 -32  -1  -1    0.85    0.11
 -32  -1  -1    0.90    0.10
 -32  -1  -1    0.90    0.12
 -32   1  -2    0.30    0.09
 -32   1  -2    0.18    0.06
 -32   1  -2    0.14    0.07
 -32  -1  -2    0.16    0.07
 -32  -1  -2    0.15    0.07
 -32  -1  -2    0.15    0.06
 -32   1  -3    0.38    0.09
 -32   1  -3    0.57    0.09
 -32   1  -3    0.57    0.10
 -32  -1  -3    0.49    0.11
 -32  -1  -3    0.38    0.08
 -32  -1  -3    0.48    0.10
 -32   1  -4    2.05    0.13
 -32   1  -4    2.01    0.13
 -32   1  -4    2.20    0.14
 -32  -1  -4    2.12    0.15
 -32  -1  -4    1.87    0.14
 -32  -1  -4    1.91    0.14
 -32   1  -5    0.55    0.10
 -32   1  -5    0.63    0.09
 -32   1  -5    0.67    0.09
 -32  -1  -5    0.45    0.10
 -32  -1  -5    0.42    0.10
 -32  -1  -5    0.66    0.09
 -32   1  -6    3.41    0.18
 -32   1  -6    3.42    0.19
 -32  -1  -6    3.65    0.19
 -32  -1  -6    3.37    0.19
 -32  -1  -6    3.10    0.19
 -32   1  -7    0.36    0.08
 -32   1  -7    0.21    0.07
 -32   1  -7    0.32    0.08
 -32  -1  -7    0.43    0.09
 -32  -1  -7    0.36    0.08
 -32  -1  -7    0.34    0.09
 -32   1  -8    0.34    0.07
 -32   1  -8    0.34    0.08
 -32  -1  -8    0.29    0.08
 -32  -1  -8    0.28    0.07
 -32  -1  -8    0.32    0.07
 -32   1  -9    0.05    0.05
 -32   1  -9    0.02    0.05
 -32  -1  -9    0.00    0.06
 -32  -1  -9    0.10    0.06
 -32  -1  -9    0.04    0.04
 -32   1 -10    1.98    0.13
 -32   1 -10    2.17    0.12
 -32  -1 -10    2.08    0.12
 -32  -1 -10    1.95    0.13
 -32  -1 -10    2.03    0.13
 -32   1 -11    0.34    0.07
 -32   1 -11    0.33    0.09
 -32  -1 -11    0.44    0.09
 -32  -1 -11    0.36    0.11
 -32  -1 -11    0.34    0.07
 -32   1 -12    0.72    0.12
 -32  -1 -12    0.78    0.07
 -32  -1 -13    1.12    0.09
 -32   2  12    0.02    0.03
  32   2 -12    0.05    0.05
 -32  -2  12    0.02    0.04
  32   2 -11    0.18    0.06
 -32   2  11    0.17    0.05
 -32  -2  11    0.14    0.04
  32   2 -10    0.29    0.07
 -32   2  10    0.30    0.06
 -32  -2  10    0.21    0.07
 -32   2   9    0.10    0.04
  32   2  -9    0.07    0.05
 -32  -2   9    0.08    0.04
 -32   2   8    4.77    0.22
  32   2  -8    4.96    0.23
 -32  -2   8    4.83    0.23
  32   2  -7    0.24    0.08
 -32   2   7    0.34    0.07
 -32  -2   7    0.34    0.08
 -32   2   6    2.69    0.15
  32   2  -6    2.85    0.16
 -32  -2   6    2.61    0.16
 -32   2   5    0.34    0.09
 -32   2   5    0.35    0.07
  32   2  -5    0.30    0.08
 -32  -2   5    0.45    0.09
 -32  -2   5    0.26    0.07
 -32   2   4    0.01    0.08
 -32   2   4    0.11    0.06
  32   2  -4    0.02    0.05
 -32   2   4    0.04    0.05
 -32  -2   4    0.15    0.06
 -32  -2   4    0.06    0.06
 -32   2   3    2.82    0.15
  32   2  -3    2.72    0.16
 -32   2   3    2.74    0.15
 -32   2   3    2.62    0.16
 -32  -2   3    2.75    0.16
 -32  -2   3    2.55    0.16
  32   2  -2    2.02    0.13
 -32   2   2    1.85    0.13
 -32   2   2    1.84    0.12
 -32   2   2    1.78    0.12
 -32  -2   2    1.86    0.13
 -32  -2   2    1.76    0.14
 -32   2   1    7.04    0.31
 -32   2   1    6.96    0.32
 -32   2   1    6.94    0.32
  32   2  -1    6.82    0.32
 -32  -2   1    7.08    0.33
 -32  -2   1    7.36    0.32
 -32   2   0    2.80    0.15
 -32   2   0    2.61    0.16
  32   2   0    2.92    0.16
 -32   2   0    2.77    0.16
 -32  -2   0    2.93    0.17
 -32  -2   0    3.12    0.17
 -32  -2   0    2.92    0.17
 -32   2  -1   -0.03    0.06
  32   2   1   -0.02    0.06
 -32   2  -1    0.03    0.05
 -32   2  -1    0.06    0.05
 -32  -2  -1    0.01    0.05
 -32  -2  -1    0.00    0.05
 -32  -2  -1    0.08    0.06
 -32   2  -2    0.22    0.08
  32   2   2    0.39    0.10
 -32   2  -2    0.34    0.07
 -32   2  -2    0.16    0.07
 -32  -2  -2    0.41    0.09
 -32  -2  -2    0.29    0.09
 -32  -2  -2    0.39    0.09
 -32   2  -3    0.41    0.08
  32   2   3    0.43    0.10
 -32   2  -3    0.40    0.07
 -32  -2  -3    0.39    0.09
 -32  -2  -3    0.57    0.09
 -32  -2  -3    0.48    0.09
 -32   2  -4   -0.02    0.04
 -32   2  -4    0.08    0.04
  32   2   4    0.07    0.08
 -32  -2  -4    0.04    0.05
 -32  -2  -4    0.04    0.06
 -32  -2  -4    0.00    0.05
 -32   2  -5    0.12    0.05
 -32   2  -5    0.27    0.07
 -32  -2  -5    0.13    0.05
 -32  -2  -5    0.08    0.05
 -32  -2  -5    0.25    0.08
 -32   2  -6    0.05    0.04
 -32   2  -6    0.04    0.04
 -32  -2  -6    0.05    0.04
 -32  -2  -6    0.05    0.05
 -32  -2  -6    0.07    0.06
 -32   2  -7    0.81    0.08
 -32   2  -7    0.91    0.09
 -32  -2  -7    0.98    0.09
 -32  -2  -7    0.93    0.09
 -32   2  -8    2.87    0.14
 -32   2  -8    2.86    0.15
 -32  -2  -8    2.83    0.15
 -32  -2  -8    2.91    0.15
 -32   2  -9    0.01    0.04
 -32   2  -9    0.05    0.04
 -32  -2  -9    0.01    0.04
 -32  -2  -9    0.10    0.04
 -32   2 -10    0.88    0.07
 -32   2 -10    0.93    0.08
 -32  -2 -10    0.94    0.08
 -32  -2 -10    0.93    0.08
 -32  -2 -11    0.05    0.03
 -32  -2 -11    0.04    0.04
 -32  -2 -12    0.15    0.04
 -32  -2 -12    0.19    0.05
  32   3  -9    0.17    0.05
 -32  -3   9    0.09    0.04
 -32  -3   8    0.00    0.04
  32   3  -7    2.01    0.11
 -32   3   7    1.62    0.11
 -32  -3   7    1.89    0.11
  32   3  -6    0.18    0.06
 -32   3   6    0.11    0.06
 -32  -3   6    0.22    0.07
  32   3  -5    0.05    0.05
 -32   3   5    0.05    0.06
 -32  -3   5    0.04    0.04
  32   3  -4    1.27    0.09
  32   3  -4    1.46    0.11
 -32  -3   4    1.18    0.09
  32   3  -3    0.06    0.06
 -32   3   3    0.11    0.09
  32   3  -3    0.24    0.07
 -32   3   2    1.02    0.10
 -32   3   2    1.04    0.10
  32   3  -2    1.18    0.10
  32   3  -2    1.12    0.10
 -32  -3   2    1.12    0.09
 -32   3   1    0.00    0.05
 -32   3   1    0.00    0.05
  32   3  -1    0.02    0.06
 -32  -3   1   -0.08    0.04
 -32   3   0    0.24    0.07
  32   3   0    0.44    0.10
 -32   3   0    0.36    0.07
 -32  -3   0    0.28    0.07
  32   3   1    0.10    0.08
 -32   3  -1    0.10    0.05
 -32   3  -1    0.26    0.06
 -32  -3  -1    0.13    0.07
 -32  -3  -1    0.15    0.05
 -32   3  -2    0.07    0.04
 -32   3  -2    0.04    0.04
 -32  -3  -2    0.06    0.04
 -32  -3  -2    0.06    0.05
 -32   3  -3    0.65    0.07
 -32   3  -3    0.52    0.07
 -32  -3  -3    0.69    0.08
 -32  -3  -3    0.73    0.09
 -32   3  -4    1.15    0.08
 -32   3  -4    1.19    0.09
 -32  -3  -4    1.09    0.09
 -32  -3  -4    1.27    0.10
 -32   3  -5    0.07    0.04
 -32   3  -5   -0.01    0.04
 -32  -3  -5   -0.03    0.04
 -32  -3  -5    0.04    0.04
 -32   3  -6    1.74    0.10
 -32   3  -6    1.74    0.09
 -32  -3  -6    1.58    0.10
 -32  -3  -6    1.62    0.10
 -32   3  -7    0.58    0.06
 -32   3  -7    0.44    0.06
  32   3   7    0.55    0.08
 -32  -3  -7    0.49    0.07
 -32  -3  -7    0.52    0.06
 -32   3  -8    0.83    0.07
 -32   3  -8    0.74    0.06
  32   3   8    0.98    0.09
 -32  -3  -8    0.72    0.07
 -32  -3  -8    0.94    0.07
 -32   3  -9    0.21    0.05
 -32   3  -9    0.20    0.06
 -32  -3  -9    0.19    0.05
 -32  -3  -9    0.11    0.04
 -33   0  13    0.11    0.05
 -33   0  13    0.02    0.06
 -33   0  12    2.39    0.14
 -33   0  12    2.44    0.13
 -33   0  11   -0.04    0.05
 -33   0  11   -0.03    0.04
  33   0 -10    1.98    0.14
 -33   0  10    1.93    0.12
 -33   0  10    1.79    0.13
 -33   0   9    0.02    0.04
  33   0  -9    0.06    0.06
 -33   0   9   -0.10    0.06
 -33   0   8    9.75    0.41
  33   0  -8    9.43    0.41
 -33   0   8    9.24    0.41
 -33   0   7    0.08    0.07
 -33   0   7    0.05    0.05
 -33   0   6    1.48    0.11
 -33   0   6    1.23    0.13
 -33   0   5   -0.17    0.10
 -33   0   5   -0.09    0.07
 -33   0   5    0.00    0.05
 -33   0   4    0.18    0.08
 -33   0   4    0.14    0.06
 -33   0   4    0.40    0.13
 -33   0   3   -0.02    0.08
 -33   0   3    0.01    0.07
 -33   0   3   -0.04    0.05
 -33   0   2   16.63    0.71
 -33   0   2   17.17    0.71
 -33   0   2   16.77    0.70
 -33   0   2   16.96    0.71
 -33   0   1   -0.05    0.05
 -33   0   1   -0.03    0.05
 -33   0   1    0.01    0.09
 -33   0   1    0.00    0.06
 -33   0   0    0.16    0.06
 -33   0   0    0.34    0.09
 -33   0   0    0.15    0.06
 -33   0  -1   -0.09    0.09
 -33   0  -1    0.03    0.06
 -33   0  -1    0.08    0.05
 -33   0  -1    0.04    0.05
 -33   0  -2    1.62    0.13
 -33   0  -2    1.76    0.13
 -33   0  -2    1.71    0.12
 -33   0  -3   -0.08    0.05
 -33   0  -3   -0.01    0.05
 -33   0  -3   -0.02    0.05
 -33   0  -4    1.19    0.11
 -33   0  -4    1.36    0.11
 -33   0  -4    1.13    0.11
 -33   0  -5    0.11    0.06
 -33   0  -5   -0.04    0.05
 -33   0  -5   -0.01    0.05
 -33   0  -6    1.22    0.11
 -33   0  -6    1.30    0.10
 -33   0  -6    1.15    0.11
 -33   0  -7   -0.01    0.05
 -33   0  -7    0.02    0.05
 -33   0  -7    0.01    0.05
 -33   0  -8    6.64    0.30
 -33   0  -8    6.73    0.30
 -33   0  -8    6.52    0.29
 -33   0  -9    0.04    0.05
 -33   0  -9    0.01    0.07
 -33   0  -9   -0.02    0.05
 -33   0 -10    0.46    0.09
 -33   0 -10    0.74    0.09
 -33   0 -11   -0.10    0.05
 -33   0 -12    0.00    0.11
 -33   1  13    0.02    0.03
 -33  -1  13    0.01    0.04
  33   1 -12    0.30    0.08
 -33   1  12    0.31    0.06
 -33  -1  12    0.29    0.07
 -33   1  11    0.30    0.06
  33   1 -11    0.14    0.06
 -33  -1  11    0.19    0.05
 -33   1  10    1.27    0.09
  33   1 -10    1.20    0.10
 -33  -1  10    0.93    0.09
 -33  -1  10    1.26    0.12
  33   1  -9    0.15    0.06
 -33   1   9    0.21    0.06
 -33  -1   9    0.06    0.05
 -33  -1   9    0.12    0.06
 -33   1   8    0.40    0.07
  33   1  -8    0.24    0.08
 -33  -1   8    0.42    0.09
 -33  -1   8    0.40    0.08
 -33   1   7    0.05    0.04
  33   1  -7   -0.03    0.05
 -33  -1   7   -0.03    0.05
 -33  -1   7    0.04    0.05
  33   1  -6   -0.02    0.05
 -33   1   6    0.03    0.04
 -33  -1   6    0.06    0.05
 -33  -1   6   -0.06    0.05
 -33   1   5    0.10    0.05
 -33  -1   5    0.04    0.09
 -33  -1   5    0.15    0.06
 -33  -1   5    0.10    0.05
 -33   1   4    3.72    0.18
 -33   1   4    3.40    0.20
 -33   1   4    3.67    0.18
 -33  -1   4    3.25    0.20
 -33  -1   4    3.20    0.19
 -33  -1   4    3.69    0.19
 -33   1   3    4.09    0.20
 -33   1   3    3.69    0.21
 -33   1   3    3.98    0.20
 -33  -1   3    4.08    0.22
 -33  -1   3    4.00    0.21
 -33  -1   3    4.24    0.22
 -33   1   2   11.83    0.50
 -33   1   2   11.71    0.51
 -33   1   2   11.95    0.51
 -33  -1   2   11.91    0.51
 -33  -1   2   12.02    0.52
 -33  -1   2   11.87    0.51
 -33   1   1    5.64    0.27
 -33   1   1    5.37    0.26
 -33   1   1    5.69    0.27
 -33  -1   1    5.78    0.28
 -33  -1   1    5.48    0.27
 -33  -1   1    5.99    0.28
 -33   1   0   -0.04    0.06
 -33   1   0    0.03    0.05
 -33   1   0    0.12    0.06
 -33  -1   0    0.02    0.05
 -33  -1   0    0.00    0.07
 -33  -1   0    0.02    0.06
 -33   1  -1    0.51    0.09
 -33   1  -1    0.46    0.08
 -33  -1  -1    0.48    0.10
 -33  -1  -1    0.47    0.11
 -33  -1  -1    0.65    0.09
 -33   1  -2    0.84    0.10
 -33   1  -2    0.75    0.09
 -33   1  -2    0.82    0.09
 -33  -1  -2    0.61    0.09
 -33  -1  -2    0.50    0.10
 -33  -1  -2    0.54    0.11
 -33   1  -3    0.19    0.06
 -33   1  -3    0.20    0.06
 -33   1  -3    0.23    0.08
 -33  -1  -3    0.09    0.05
 -33  -1  -3    0.27    0.10
 -33   1  -4    4.50    0.24
 -33   1  -4    5.24    0.24
 -33   1  -4    5.02    0.24
 -33  -1  -4    5.21    0.25
 -33  -1  -4    5.27    0.25
 -33  -1  -4    4.70    0.25
 -33   1  -5    0.11    0.05
 -33   1  -5    0.02    0.06
 -33  -1  -5    0.03    0.06
 -33  -1  -5    0.06    0.05
 -33  -1  -5    0.02    0.06
 -33   1  -6    4.04    0.21
 -33   1  -6    4.28    0.20
 -33   1  -6    4.05    0.21
 -33  -1  -6    4.26    0.21
 -33  -1  -6    4.27    0.21
 -33  -1  -6    4.28    0.22
 -33   1  -7    1.64    0.13
 -33   1  -7    1.62    0.11
 -33   1  -7    1.73    0.11
 -33  -1  -7    1.81    0.12
 -33  -1  -7    1.71    0.13
 -33  -1  -7    1.60    0.12
 -33   1  -8    0.87    0.08
 -33   1  -8    1.03    0.09
 -33  -1  -8    0.90    0.10
 -33  -1  -8    0.98    0.11
 -33  -1  -8    0.91    0.09
 -33   1  -9    0.78    0.08
 -33   1  -9    0.80    0.08
 -33  -1  -9    0.71    0.08
 -33  -1  -9    0.66    0.09
 -33  -1  -9    0.49    0.09
 -33   1 -10    0.74    0.09
 -33   1 -10    0.85    0.09
 -33  -1 -10    0.86    0.08
 -33  -1 -10    0.76    0.10
 -33  -1 -10    0.75    0.10
 -33   1 -11    0.80    0.09
 -33   1 -11    0.50    0.11
 -33  -1 -11    0.72    0.07
 -33  -1 -12    0.96    0.08
 -33   2  12    0.11    0.03
 -33  -2  12    0.01    0.04
  33   2 -11   -0.06    0.04
 -33   2  11   -0.02    0.03
 -33  -2  11   -0.02    0.04
  33   2 -10    0.01    0.04
 -33   2  10    0.05    0.04
 -33  -2  10    0.06    0.04
 -33   2   9    0.08    0.04
  33   2  -9    0.09    0.04
 -33  -2   9    0.10    0.04
  33   2  -8    2.33    0.13
 -33   2   8    2.29    0.12
 -33  -2   8    2.18    0.13
  33   2  -7    0.03    0.05
 -33   2   7    0.28    0.06
 -33  -2   7    0.12    0.05
 -33   2   6    0.46    0.07
  33   2  -6    0.48    0.08
 -33  -2   6    0.48    0.08
 -33   2   5    0.17    0.05
  33   2  -5    0.30    0.08
 -33  -2   5    0.23    0.07
 -33  -2   5    0.11    0.05
 -33   2   4    0.59    0.08
 -33   2   4    0.67    0.09
  33   2  -4    0.71    0.09
 -33  -2   4    0.55    0.10
 -33  -2   4    0.75    0.09
  33   2  -3    1.26    0.11
 -33   2   3    1.18    0.12
 -33   2   3    1.25    0.10
 -33   2   3    1.08    0.10
 -33  -2   3    0.92    0.11
 -33  -2   3    1.23    0.11
 -33   2   2    0.15    0.06
 -33   2   2    0.22    0.07
  33   2  -2    0.18    0.06
 -33   2   2    0.24    0.08
 -33  -2   2    0.22    0.06
 -33  -2   2    0.11    0.06
  33   2  -1    0.14    0.06
 -33   2   1    0.11    0.06
 -33   2   1    0.08    0.06
 -33   2   1    0.16    0.05
 -33  -2   1    0.13    0.06
 -33  -2   1    0.29    0.09
 -33   2   0    7.63    0.35
 -33   2   0    8.07    0.35
  33   2   0    7.65    0.35
 -33   2   0    7.94    0.35
 -33  -2   0    8.37    0.36
 -33  -2   0    8.28    0.35
 -33   2  -1    0.00    0.04
 -33   2  -1    0.08    0.06
  33   2   1   -0.02    0.06
 -33   2  -1    0.05    0.05
 -33  -2  -1   -0.03    0.05
 -33  -2  -1   -0.01    0.05
 -33  -2  -1   -0.03    0.05
 -33   2  -2    0.16    0.05
 -33   2  -2    0.26    0.07
  33   2   2    0.23    0.07
 -33  -2  -2    0.21    0.06
 -33  -2  -2    0.32    0.08
 -33  -2  -2    0.28    0.08
 -33   2  -3    0.16    0.05
  33   2   3    0.29    0.10
 -33   2  -3    0.24    0.05
 -33  -2  -3    0.18    0.06
 -33  -2  -3    0.18    0.06
 -33  -2  -3    0.20    0.05
 -33   2  -4    0.22    0.07
 -33   2  -4    0.25    0.06
  33   2   4    0.21    0.08
 -33  -2  -4    0.26    0.08
 -33  -2  -4    0.23    0.08
 -33  -2  -4    0.29    0.08
 -33   2  -5    0.12    0.05
 -33   2  -5    0.26    0.07
 -33  -2  -5    0.16    0.06
 -33  -2  -5    0.12    0.05
 -33  -2  -5    0.18    0.05
 -33   2  -6    0.00    0.04
 -33   2  -6    0.03    0.04
 -33  -2  -6   -0.02    0.05
 -33  -2  -6    0.07    0.04
 -33   2  -7    0.18    0.04
 -33   2  -7    0.22    0.05
 -33  -2  -7    0.26    0.07
 -33  -2  -7    0.15    0.05
 -33   2  -8    2.32    0.13
 -33   2  -8    2.31    0.12
 -33  -2  -8    2.31    0.13
 -33  -2  -8    2.31    0.13
 -33   2  -9    0.06    0.04
 -33   2  -9    0.09    0.04
 -33  -2  -9    0.09    0.04
 -33  -2  -9    0.08    0.04
 -33   2 -10    1.19    0.08
 -33   2 -10    1.34    0.09
 -33  -2 -10    1.38    0.08
 -33  -2 -10    1.01    0.09
 -33   2 -11    1.14    0.12
 -33  -2 -11    1.17    0.08
 -33  -2 -11    1.41    0.08
  33   3  -8    0.27    0.05
 -33  -3   8    0.27    0.06
  33   3  -7    0.42    0.06
 -33  -3   7    0.56    0.07
  33   3  -6    0.22    0.06
 -33  -3   6    0.20    0.06
  33   3  -5    0.07    0.04
 -33  -3   5   -0.03    0.04
  33   3  -4    0.83    0.08
  33   3  -4    0.55    0.11
 -33  -3   4    0.83    0.08
  33   3  -3   -0.08    0.06
  33   3  -3    0.05    0.05
 -33  -3   3   -0.04    0.04
 -33   3   2    1.36    0.11
  33   3  -2    1.67    0.11
 -33   3   2    1.57    0.11
  33   3  -2    1.79    0.11
 -33  -3   2    1.48    0.10
 -33   3   1   -0.08    0.05
 -33   3   1    0.02    0.05
  33   3  -1    0.02    0.05
  33   3  -1   -0.02    0.05
 -33  -3   1    0.00    0.04
 -33   3   0    0.30    0.07
 -33   3   0    0.46    0.07
  33   3   0    0.41    0.10
 -33  -3   0    0.48    0.07
 -33   3  -1    0.22    0.07
 -33  -3  -1    0.19    0.06
 -33   3  -2    0.04    0.04
 -33   3  -2    0.07    0.04
 -33  -3  -2    0.07    0.06
 -33  -3  -2   -0.02    0.04
 -33   3  -3    0.22    0.04
 -33   3  -3    0.25    0.06
 -33  -3  -3    0.21    0.06
 -33  -3  -3    0.19    0.06
 -33   3  -4    1.76    0.10
 -33   3  -4    1.84    0.10
 -33  -3  -4    1.75    0.11
 -33  -3  -4    1.86    0.11
 -33   3  -5    0.32    0.06
 -33   3  -5    0.24    0.05
 -33  -3  -5    0.16    0.06
 -33  -3  -5    0.20    0.05
 -33   3  -6    1.80    0.10
  33   3   6    1.97    0.11
 -33   3  -6    1.94    0.11
 -33  -3  -6    1.93    0.11
 -33  -3  -6    1.85    0.11
 -33   3  -7    0.22    0.05
  33   3   7    0.27    0.07
 -33   3  -7    0.15    0.05
 -33  -3  -7    0.22    0.06
 -33  -3  -7    0.11    0.04
 -33   3  -8    0.29    0.06
 -33  -3  -8    0.14    0.04
 -33  -3  -8    0.17    0.05
 -34   0  12    1.47    0.10
 -34   0  12    1.33    0.10
 -34   0  11    0.02    0.05
 -34   0  11   -0.01    0.04
  34   0 -10    0.33    0.11
 -34   0  10    0.44    0.07
 -34   0  10    0.36    0.09
  34   0  -9   -0.01    0.06
 -34   0   9   -0.02    0.04
 -34   0   9    0.02    0.06
 -34   0   8    0.30    0.10
  34   0  -8    0.29    0.08
 -34   0   8    0.40    0.07
 -34   0   7   -0.02    0.04
 -34   0   7    0.05    0.06
 -34   0   6    6.65    0.32
 -34   0   6    7.06    0.31
 -34   0   5   -0.02    0.07
 -34   0   5   -0.05    0.04
 -34   0   4    0.35    0.12
 -34   0   4    0.44    0.08
 -34   0   4    0.52    0.13
 -34   0   3    0.05    0.07
 -34   0   3   -0.10    0.08
 -34   0   3    0.07    0.05
 -34   0   2   10.01    0.43
 -34   0   2    9.78    0.43
 -34   0   1    0.06    0.08
 -34   0   1    0.10    0.06
 -34   0   1   -0.04    0.05
 -34   0   0    0.28    0.08
 -34   0   0    0.24    0.07
 -34   0   0    0.17    0.06
 -34   0  -1    0.04    0.06
 -34   0  -1    0.07    0.05
 -34   0  -1    0.11    0.05
 -34   0  -2   -0.04    0.05
 -34   0  -2    0.06    0.05
 -34   0  -2    0.06    0.05
 -34   0  -3    0.11    0.05
 -34   0  -3   -0.05    0.05
 -34   0  -3    0.00    0.05
 -34   0  -4    0.45    0.08
 -34   0  -4    0.54    0.09
 -34   0  -4    0.57    0.08
 -34   0  -5   -0.07    0.05
 -34   0  -5   -0.02    0.05
 -34   0  -5    0.10    0.05
 -34   0  -6    4.92    0.23
 -34   0  -6    5.00    0.24
 -34   0  -6    5.13    0.24
 -34   0  -7    0.01    0.05
 -34   0  -7   -0.01    0.05
 -34   0  -7   -0.01    0.05
 -34   0  -8    0.27    0.09
 -34   0  -8    0.27    0.08
 -34   0  -8    0.31    0.08
 -34   0  -9    0.03    0.05
 -34   0  -9   -0.09    0.05
 -34   0 -10    0.08    0.05
 -34   0 -10    0.09    0.05
 -34   0 -11    0.08    0.06
 -34   0 -11    0.03    0.06
 -34   1  13    0.02    0.04
 -34  -1  13    0.07    0.04
 -34   1  12    0.19    0.06
 -34  -1  12    0.24    0.06
  34   1 -11    0.01    0.06
 -34   1  11    0.12    0.04
 -34  -1  11    0.07    0.04
  34   1 -10    0.10    0.05
 -34   1  10    0.18    0.06
 -34  -1  10    0.13    0.07
 -34  -1  10    0.27    0.07
  34   1  -9    0.23    0.06
 -34   1   9    0.23    0.06
 -34  -1   9    0.38    0.09
 -34  -1   9    0.39    0.07
  34   1  -8    0.06    0.05
 -34   1   8   -0.01    0.03
 -34  -1   8    0.04    0.05
 -34  -1   8    0.07    0.05
  34  -1  -8    0.14    0.08
  34   1  -7    0.70    0.08
 -34   1   7    0.61    0.07
 -34  -1   7    0.59    0.09
 -34  -1   7    0.57    0.08
 -34   1   6    1.29    0.10
  34   1  -6    1.27    0.10
 -34  -1   6    1.18    0.11
 -34  -1   6    1.39    0.11
  34   1  -5    0.23    0.08
 -34  -1   5    0.21    0.06
 -34  -1   5    0.14    0.06
 -34   1   4    3.70    0.21
 -34   1   4    3.61    0.19
 -34  -1   4    3.57    0.19
 -34  -1   4    3.50    0.20
 -34  -1   4    3.79    0.20
 -34   1   3    2.49    0.14
 -34   1   3    2.47    0.14
 -34   1   3    2.51    0.16
 -34  -1   3    2.71    0.16
 -34  -1   3    2.51    0.16
 -34  -1   3    2.58    0.15
 -34   1   2    2.43    0.14
 -34   1   2    2.78    0.16
 -34   1   2    2.54    0.15
 -34  -1   2    2.59    0.16
 -34  -1   2    2.62    0.15
 -34  -1   2    2.58    0.16
 -34   1   1    1.00    0.09
 -34   1   1    0.80    0.09
 -34   1   1    1.00    0.10
 -34  -1   1    1.00    0.11
 -34  -1   1    0.88    0.10
 -34  -1   1    0.91    0.11
 -34   1   0    0.16    0.06
 -34   1   0    0.17    0.06
 -34   1   0    0.07    0.05
 -34  -1   0    0.13    0.07
 -34  -1   0    0.13    0.06
 -34  -1   0    0.10    0.05
 -34   1  -1    0.13    0.05
 -34   1  -1    0.11    0.05
 -34   1  -1    0.17    0.06
 -34  -1  -1    0.14    0.05
 -34  -1  -1    0.36    0.10
 -34  -1  -1    0.16    0.06
 -34   1  -2    2.92    0.15
 -34   1  -2    2.75    0.15
 -34   1  -2    2.37    0.14
 -34  -1  -2    2.31    0.16
 -34  -1  -2    2.82    0.16
 -34  -1  -2    2.31    0.15
 -34   1  -3    0.03    0.04
 -34   1  -3    0.14    0.05
 -34   1  -3    0.08    0.05
 -34  -1  -3    0.29    0.09
 -34  -1  -3    0.09    0.06
 -34  -1  -3    0.11    0.05
 -34   1  -4    3.30    0.17
 -34   1  -4    3.06    0.17
 -34   1  -4    3.19    0.16
 -34  -1  -4    3.41    0.18
 -34  -1  -4    3.22    0.18
 -34  -1  -4    3.22    0.18
 -34   1  -5    0.09    0.06
 -34   1  -5   -0.03    0.04
 -34   1  -5    0.01    0.04
 -34  -1  -5   -0.02    0.05
 -34  -1  -5    0.01    0.06
 -34  -1  -5   -0.09    0.05
 -34   1  -6    1.00    0.09
 -34   1  -6    1.12    0.09
 -34   1  -6    1.01    0.11
 -34  -1  -6    1.06    0.11
 -34  -1  -6    1.09    0.09
 -34  -1  -6    0.84    0.10
 -34   1  -7    1.30    0.12
 -34   1  -7    1.46    0.10
 -34   1  -7    1.38    0.10
 -34  -1  -7    1.37    0.11
 -34  -1  -7    1.30    0.11
 -34  -1  -7    1.46    0.10
 -34   1  -8    0.11    0.05
 -34   1  -8    0.14    0.05
 -34  -1  -8    0.13    0.05
 -34  -1  -8    0.36    0.09
 -34  -1  -8    0.21    0.07
 -34   1  -9    0.74    0.08
 -34   1  -9    0.83    0.08
 -34  -1  -9    0.69    0.10
 -34  -1  -9    0.79    0.08
 -34  -1  -9    0.63    0.09
 -34   1 -10    0.54    0.09
 -34   1 -10    0.72    0.08
 -34  -1 -10    0.69    0.12
 -34  -1 -10    0.55    0.07
 -34  -1 -10    0.68    0.09
 -34   1 -11    2.42    0.14
 -34  -1 -11    2.52    0.13
 -34  -1 -12    2.40    0.12
 -34   2  11    0.19    0.05
 -34  -2  11    0.20    0.06
 -34   2  10    0.08    0.03
  34   2 -10    0.07    0.04
 -34  -2  10    0.09    0.04
  34   2  -9    0.30    0.06
 -34   2   9    0.22    0.05
 -34  -2   9    0.25    0.06
  34   2  -8    0.05    0.04
 -34   2   8    0.08    0.04
 -34  -2   8    0.00    0.04
 -34   2   7    0.00    0.04
  34   2  -7    0.05    0.05
 -34  -2   7    0.02    0.05
  34   2  -6    0.01    0.05
 -34   2   6   -0.02    0.04
 -34  -2   6    0.03    0.05
 -34   2   5    0.07    0.04
  34   2  -5    0.15    0.05
 -34  -2   5    0.07    0.05
 -34  -2   5    0.09    0.07
 -34   2   4    0.00    0.04
  34   2  -4    0.00    0.05
 -34  -2   4    0.07    0.05
 -34  -2   4    0.02    0.06
 -34   2   3    0.35    0.10
 -34   2   3    0.15    0.05
 -34   2   3    0.12    0.05
  34   2  -3    0.11    0.05
 -34  -2   3    0.02    0.05
 -34  -2   3    0.05    0.06
 -34   2   2    2.76    0.15
 -34   2   2    2.95    0.16
  34   2  -2    2.95    0.16
 -34   2   2    2.82    0.15
 -34  -2   2    2.83    0.16
 -34  -2   2    2.89    0.16
  34   2  -1    0.28    0.08
 -34   2   1    0.11    0.06
 -34   2   1    0.19    0.07
 -34   2   1    0.14    0.06
 -34  -2   1    0.32    0.08
 -34  -2   1    0.15    0.05
 -34   2   0    2.00    0.12
 -34   2   0    1.93    0.13
  34   2   0    2.01    0.13
 -34   2   0    1.89    0.13
 -34  -2   0    2.00    0.13
 -34  -2   0    1.99    0.13
  34   2   1    0.06    0.06
 -34   2  -1   -0.03    0.04
 -34   2  -1    0.00    0.06
 -34   2  -1    0.07    0.04
 -34  -2  -1    0.01    0.05
  34   2   2    0.00    0.06
 -34   2  -2    0.08    0.07
 -34   2  -2    0.02    0.04
 -34   2  -2    0.10    0.05
 -34  -2  -2   -0.06    0.05
 -34  -2  -2    0.01    0.04
 -34   2  -3   -0.06    0.04
 -34   2  -3    0.01    0.04
  34   2   3   -0.01    0.07
 -34  -2  -3   -0.01    0.05
 -34  -2  -3    0.00    0.04
  34   2   4    0.50    0.12
 -34   2  -4    0.21    0.06
 -34   2  -4    0.27    0.07
 -34  -2  -4    0.33    0.07
 -34  -2  -4    0.24    0.07
 -34   2  -5    0.03    0.04
 -34   2  -5    0.09    0.04
 -34  -2  -5    0.05    0.04
 -34  -2  -5    0.08    0.05
 -34   2  -6    0.19    0.07
 -34   2  -6    0.26    0.06
 -34  -2  -6    0.30    0.07
 -34  -2  -6    0.27    0.07
 -34   2  -7    0.03    0.04
 -34   2  -7    0.05    0.04
 -34  -2  -7   -0.02    0.04
 -34  -2  -7    0.00    0.04
 -34   2  -8    0.27    0.06
 -34  -2  -8    0.09    0.05
 -34  -2  -8    0.14    0.04
 -34   2  -9    0.43    0.06
 -34   2  -9    0.52    0.07
 -34  -2  -9    0.44    0.07
 -34  -2  -9    0.45    0.06
 -34   2 -10    4.60    0.20
 -34   2 -10    4.82    0.21
 -34  -2 -10    4.46    0.21
 -34  -2 -10    4.81    0.21
  34   3  -7    0.10    0.04
 -34  -3   7    0.19    0.06
  34   3  -6    0.03    0.04
 -34  -3   6    0.17    0.06
  34   3  -5    0.03    0.04
 -34  -3   5    0.02    0.04
  34   3  -4   -0.02    0.04
 -34  -3   4   -0.05    0.04
  34   3  -3    0.12    0.05
  34   3  -3    0.11    0.06
 -34  -3   3    0.05    0.04
  34   3  -2    0.06    0.05
 -34  -3   2    0.08    0.04
  34   3  -1   -0.07    0.05
 -34   3   1    0.00    0.05
  34   3  -1    0.09    0.06
 -34   3   1    0.02    0.05
 -34  -3   1    0.10    0.04
 -34   3   0    0.07    0.05
  34   3   0    0.02    0.05
 -34   3   0    0.10    0.05
  34   3   0    0.02    0.08
 -34  -3   0    0.06    0.04
 -34   3  -1    0.05    0.04
 -34   3  -1    0.02    0.04
 -34  -3  -1    0.05    0.04
 -34   3  -2    0.09    0.04
 -34   3  -2    0.01    0.04
 -34  -3  -2    0.04    0.04
 -34   3  -3   -0.01    0.04
 -34   3  -3    0.07    0.04
 -34  -3  -3    0.05    0.05
 -34  -3  -3    0.00    0.04
 -34   3  -4    0.57    0.07
 -34   3  -4    0.62    0.06
  34   3   4    0.69    0.08
 -34  -3  -4    0.58    0.06
 -34  -3  -4    0.42    0.08
  34   3   5    0.40    0.07
 -34   3  -5    0.42    0.05
 -34   3  -5    0.39    0.06
 -34  -3  -5    0.46    0.06
  34   3   6    0.75    0.08
 -34  -3  -6    0.53    0.06
 -34  -3  -6    0.49    0.09
 -35   0  12    0.14    0.05
 -35   0  11    0.35    0.10
  35   0 -10    0.03    0.08
 -35   0  10    0.12    0.06
 -35   0  10    0.06    0.04
 -35   0   9    0.01    0.04
  35   0  -9    0.06    0.06
 -35   0   9   -0.01    0.06
 -35   0   8    2.10    0.12
 -35   0   8    2.00    0.14
  35   0  -8    1.77    0.12
 -35   0   7    0.09    0.07
 -35   0   7   -0.02    0.04
  35   0  -7   -0.04    0.05
 -35   0   6    0.32    0.07
 -35   0   6    0.21    0.08
 -35   0   5   -0.01    0.08
 -35   0   5    0.02    0.04
 -35   0   4    5.20    0.28
 -35   0   4    5.29    0.27
 -35   0   4    5.62    0.25
 -35   0   3    0.01    0.05
 -35   0   3    0.10    0.08
 -35   0   3    0.00    0.07
 -35   0   2    0.67    0.09
 -35   0   1   -0.03    0.06
 -35   0   1    0.01    0.05
 -35   0   1   -0.14    0.09
 -35   0   0   -0.06    0.05
 -35   0   0    0.06    0.05
 -35   0   0    0.00    0.05
 -35   0  -1    0.03    0.05
 -35   0  -1    0.05    0.05
 -35   0  -2    2.23    0.14
 -35   0  -2    2.22    0.14
 -35   0  -2    2.16    0.13
 -35   0  -3    0.23    0.07
 -35   0  -3    0.02    0.05
 -35   0  -3   -0.01    0.05
 -35   0  -4    0.17    0.05
 -35   0  -4    0.14    0.05
 -35   0  -4    0.26    0.08
 -35   0  -5   -0.01    0.05
 -35   0  -5    0.08    0.05
 -35   0  -5    0.01    0.05
 -35   0  -6    3.74    0.19
 -35   0  -6    3.76    0.19
 -35   0  -6    3.57    0.18
 -35   0  -7   -0.02    0.05
 -35   0  -7   -0.03    0.05
 -35   0  -7    0.03    0.05
 -35   0  -8    0.73    0.09
 -35   0  -8    0.75    0.08
 -35   0  -9    0.03    0.05
 -35   0  -9    0.06    0.05
 -35   0 -10    0.29    0.09
 -35   0 -10    0.31    0.08
 -35   0 -11    0.06    0.06
 -35   1  12    0.21    0.05
 -35  -1  12    0.31    0.07
  35   1 -11    0.08    0.06
 -35   1  11   -0.02    0.03
 -35  -1  11    0.05    0.04
  35   1 -10    0.60    0.08
 -35   1  10    0.83    0.07
 -35  -1  10    0.82    0.08
  35   1  -9    0.12    0.05
 -35   1   9    0.06    0.04
 -35  -1   9    0.03    0.04
 -35  -1   9    0.10    0.06
 -35   1   8    3.44    0.17
  35   1  -8    3.59    0.18
 -35  -1   8    3.48    0.18
 -35  -1   8    3.63    0.18
  35   1  -7    1.21    0.09
 -35   1   7    1.13    0.09
 -35  -1   7    1.16    0.10
 -35  -1   7    1.21    0.10
  35   1  -6    2.16    0.13
 -35   1   6    2.13    0.13
 -35  -1   6    2.10    0.14
 -35  -1   6    2.18    0.13
  35   1  -5    0.81    0.09
 -35   1   5    0.85    0.08
 -35  -1   5    0.80    0.10
 -35  -1   5    0.91    0.09
 -35   1   4   12.13    0.53
  35   1  -4   12.89    0.53
 -35   1   4   12.53    0.53
 -35  -1   4   12.59    0.54
 -35  -1   4   12.22    0.53
 -35  -1   4   13.20    0.53
 -35   1   3    2.29    0.13
 -35   1   3    2.17    0.13
 -35   1   3    2.24    0.15
 -35  -1   3    2.41    0.14
 -35  -1   3    2.29    0.15
 -35  -1   3    2.23    0.15
 -35   1   2    0.51    0.08
 -35   1   2    0.50    0.10
 -35   1   2    0.44    0.08
 -35  -1   2    0.52    0.10
 -35  -1   2    0.47    0.10
 -35  -1   2    0.46    0.08
 -35   1   1    0.13    0.06
 -35   1   1    0.06    0.05
 -35   1   1    0.11    0.05
 -35  -1   1    0.03    0.05
 -35  -1   1    0.10    0.06
 -35  -1   1    0.05    0.06
 -35   1   0    1.12    0.11
 -35   1   0    1.27    0.10
 -35   1   0    1.10    0.09
 -35  -1   0    1.20    0.11
 -35  -1   0    1.04    0.11
 -35  -1   0    1.14    0.10
 -35   1  -1    0.07    0.05
 -35   1  -1   -0.05    0.05
 -35   1  -1   -0.01    0.05
 -35  -1  -1    0.00    0.06
 -35  -1  -1   -0.03    0.04
 -35  -1  -1   -0.01    0.06
 -35   1  -2    2.59    0.15
 -35   1  -2    2.54    0.14
 -35   1  -2    2.49    0.14
 -35  -1  -2    2.50    0.15
 -35  -1  -2    2.45    0.15
 -35  -1  -2    2.50    0.15
 -35   1  -3    0.46    0.07
 -35   1  -3    0.39    0.08
 -35   1  -3    0.33    0.08
 -35  -1  -3    0.39    0.08
 -35  -1  -3    0.38    0.10
 -35  -1  -3    0.34    0.09
 -35   1  -4    0.71    0.08
 -35   1  -4    0.67    0.08
 -35   1  -4    0.54    0.09
 -35  -1  -4    0.72    0.08
 -35  -1  -4    0.59    0.09
 -35  -1  -4    0.51    0.10
 -35   1  -5    0.11    0.06
 -35   1  -5    0.08    0.04
 -35   1  -5    0.09    0.05
 -35  -1  -5    0.05    0.06
 -35  -1  -5    0.10    0.05
 -35  -1  -5    0.06    0.05
 -35   1  -6    0.37    0.07
 -35   1  -6    0.47    0.07
 -35   1  -6    0.19    0.06
 -35  -1  -6    0.33    0.07
 -35  -1  -6    0.48    0.08
 -35  -1  -6    0.32    0.09
 -35   1  -7   -0.01    0.04
 -35   1  -7   -0.05    0.06
 -35   1  -7   -0.05    0.04
 -35  -1  -7   -0.07    0.06
 -35  -1  -7    0.03    0.05
 -35  -1  -7   -0.08    0.04
 -35   1  -8    0.95    0.08
 -35   1  -8    0.96    0.09
 -35  -1  -8    0.95    0.08
 -35  -1  -8    0.91    0.10
 -35  -1  -8    1.09    0.09
 -35   1  -9    0.05    0.04
 -35   1  -9    0.01    0.05
 -35  -1  -9   -0.04    0.04
 -35  -1  -9   -0.04    0.05
 -35   1 -10    0.78    0.09
 -35   1 -10    1.14    0.10
 -35  -1 -10    0.94    0.08
 -35   1 -11    0.92    0.13
 -35  -1 -11    0.85    0.07
  35   2 -10    0.27    0.06
 -35   2  10    0.23    0.05
 -35  -2  10    0.15    0.04
  35   2  -9   -0.01    0.04
 -35   2   9   -0.02    0.03
 -35  -2   9    0.01    0.04
 -35   2   8    0.23    0.06
  35   2  -8    0.32    0.06
 -35  -2   8    0.33    0.07
 -35   2   7    0.54    0.07
  35   2  -7    0.66    0.07
 -35  -2   7    0.54    0.07
  35   2  -6   -0.02    0.04
 -35   2   6    0.02    0.04
 -35  -2   6    0.02    0.04
  35   2  -5    0.10    0.05
 -35   2   5    0.06    0.04
 -35  -2   5    0.03    0.05
 -35   2   4    0.03    0.04
  35   2  -4    0.03    0.05
 -35  -2   4    0.00    0.05
 -35  -2   4    0.07    0.06
 -35   2   3    0.29    0.07
 -35   2   3    0.31    0.07
  35   2  -3    0.40    0.08
 -35   2   3    0.34    0.11
 -35  -2   3    0.41    0.09
 -35  -2   3    0.25    0.07
 -35   2   2    3.72    0.19
  35   2  -2    3.90    0.19
 -35   2   2    3.86    0.18
 -35   2   2    3.78    0.19
 -35  -2   2    3.90    0.19
 -35  -2   2    3.86    0.19
 -35   2   1    0.05    0.04
 -35   2   1    0.00    0.05
 -35   2   1    0.08    0.05
  35   2  -1    0.08    0.05
 -35  -2   1    0.08    0.05
 -35  -2   1    0.08    0.05
 -35   2   0   -0.02    0.05
  35   2   0    0.09    0.05
 -35   2   0    0.02    0.05
 -35   2   0    0.01    0.04
 -35  -2   0    0.01    0.05
 -35  -2   0    0.00    0.05
 -35   2  -1    0.04    0.06
  35   2   1    0.07    0.06
 -35   2  -1   -0.04    0.04
 -35   2  -1   -0.06    0.04
 -35  -2  -1    0.01    0.05
 -35  -2  -1    0.08    0.05
 -35   2  -2    0.03    0.04
 -35   2  -2    0.04    0.04
  35   2   2    0.16    0.06
 -35  -2  -2    0.13    0.04
 -35  -2  -2    0.03    0.05
 -35   2  -3    0.24    0.07
  35   2   3    0.40    0.11
 -35   2  -3    0.37    0.06
 -35  -2  -3    0.23    0.07
 -35  -2  -3    0.38    0.07
 -35   2  -4   -0.04    0.04
 -35   2  -4    0.01    0.04
 -35  -2  -4    0.01    0.04
 -35  -2  -4   -0.01    0.04
 -35   2  -5    0.05    0.04
 -35   2  -5    0.04    0.04
 -35  -2  -5    0.04    0.04
 -35  -2  -5    0.07    0.05
 -35   2  -6    0.79    0.07
 -35   2  -6    0.69    0.07
 -35  -2  -6    0.83    0.08
 -35  -2  -6    0.78    0.07
 -35   2  -7    0.11    0.04
 -35   2  -7    0.09    0.04
 -35  -2  -7    0.04    0.03
 -35  -2  -7    0.07    0.04
 -35   2  -8    0.02    0.04
 -35   2  -8   -0.06    0.03
 -35  -2  -8    0.01    0.04
 -35  -2  -8   -0.03    0.03
 -35   2  -9    2.48    0.12
 -35   2  -9    2.46    0.12
 -35  -2  -9    2.20    0.12
  35   3  -5    0.32    0.07
 -35  -3   5    0.42    0.06
  35   3  -4    0.25    0.07
 -35  -3   4    0.28    0.06
  35   3  -3   -0.04    0.05
 -35  -3   3   -0.07    0.04
  35   3  -2    0.26    0.08
  35   3  -2    0.38    0.09
 -35  -3   2    0.21    0.06
  35   3  -1    0.16    0.07
  35   3  -1    0.03    0.05
 -35   3   1    0.08    0.09
 -35  -3   1    0.05    0.04
 -35   3   0    0.30    0.07
 -35   3   0    0.34    0.07
  35   3   0    0.29    0.07
 -35  -3   0    0.22    0.06
 -35   3  -1    0.02    0.04
 -35   3  -1    0.03    0.04
  35   3   1    0.04    0.05
 -35  -3  -1   -0.01    0.04
  35   3   2    0.02    0.04
 -35   3  -2    0.05    0.04
 -35   3  -2    0.03    0.04
 -35  -3  -2    0.02    0.04
 -35   3  -3    0.68    0.07
  35   3   3    0.81    0.08
 -35   3  -3    0.61    0.06
 -35  -3  -3    0.71    0.06
 -35   3  -4    0.05    0.03
 -35   3  -4   -0.02    0.03
  35   3   4    0.02    0.04
 -35  -3  -4   -0.05    0.04
  35   3   5    0.39    0.07
 -35   3  -5    0.48    0.06
 -35   3  -5    0.55    0.05
 -35  -3  -5    0.45    0.06
 -36   0  11    0.01    0.04
 -36   0  10    0.48    0.11
 -36   0  10    0.36    0.07
  36   0  -9    0.04    0.07
 -36   0   9    0.00    0.04
 -36   0   9   -0.07    0.07
  36   0  -8    2.56    0.14
 -36   0   8    2.62    0.13
 -36   0   8    2.27    0.16
 -36   0   7    0.01    0.04
 -36   0   7    0.02    0.07
  36   0  -7   -0.03    0.05
 -36   0   6    0.26    0.07
 -36   0   6    0.21    0.08
 -36   0   5   -0.01    0.04
 -36   0   5   -0.04    0.08
 -36   0   4    8.11    0.37
 -36   0   4    8.50    0.36
 -36   0   3   -0.08    0.09
 -36   0   3    0.00    0.07
 -36   0   3   -0.03    0.04
 -36   0   2    0.43    0.10
 -36   0   2    0.57    0.08
 -36   0   1   -0.06    0.04
 -36   0   1   -0.04    0.06
 -36   0   0    0.04    0.06
 -36   0   0    0.01    0.05
 -36   0  -1    0.00    0.05
 -36   0  -1   -0.01    0.04
 -36   0  -2    3.32    0.17
 -36   0  -2    3.43    0.18
 -36   0  -2    3.31    0.18
 -36   0  -3   -0.02    0.04
 -36   0  -3    0.04    0.05
 -36   0  -3    0.00    0.05
 -36   0  -4    1.86    0.12
 -36   0  -4    1.83    0.12
 -36   0  -4    1.73    0.11
 -36   0  -5   -0.04    0.04
 -36   0  -5    0.05    0.05
 -36   0  -5    0.01    0.05
 -36   0  -6    0.71    0.08
 -36   0  -6    0.54    0.08
 -36   0  -7   -0.04    0.04
 -36   0  -7    0.05    0.05
 -36   0  -8    0.79    0.08
 -36   0  -8    0.70    0.08
 -36   0  -9   -0.03    0.05
 -36   0  -9   -0.01    0.05
 -36   0 -10    1.63    0.11
 -36   0 -10    1.78    0.12
 -36   1  11    0.05    0.03
 -36  -1  11   -0.03    0.04
 -36   1  10    2.67    0.13
  36   1 -10    2.45    0.14
 -36  -1  10    2.72    0.14
 -36   1   9   -0.02    0.03
  36   1  -9    0.08    0.05
 -36  -1   9   -0.11    0.06
 -36  -1   9    0.02    0.04
  36   1  -8    3.59    0.17
 -36   1   8    3.52    0.17
 -36  -1   8    3.47    0.18
 -36  -1   8    3.70    0.18
 -36   1   7    0.95    0.08
  36   1  -7    1.03    0.09
 -36  -1   7    0.88    0.09
  36  -1  -7    0.70    0.11
 -36  -1   7    0.86    0.09
 -36   1   6    0.00    0.04
  36   1  -6    0.06    0.05
 -36  -1   6    0.11    0.05
 -36  -1   6   -0.03    0.05
 -36   1   5    1.37    0.10
  36   1  -5    1.34    0.10
 -36  -1   5    1.23    0.11
 -36  -1   5    1.42    0.10
  36   1  -4    0.66    0.08
 -36   1   4    0.54    0.07
 -36  -1   4    0.56    0.08
 -36  -1   4    0.42    0.09
 -36   1   3    0.24    0.07
 -36   1   3    0.37    0.11
 -36  -1   3    0.11    0.05
 -36  -1   3    0.17    0.06
 -36  -1   3    0.22    0.07
 -36   1   2    1.33    0.10
 -36   1   2    1.44    0.12
 -36   1   2    1.34    0.10
 -36  -1   2    1.49    0.12
 -36  -1   2    1.52    0.12
 -36  -1   2    1.39    0.10
 -36   1   1    0.08    0.06
 -36   1   1    0.03    0.05
 -36   1   1    0.02    0.05
 -36  -1   1    0.05    0.06
 -36  -1   1   -0.07    0.06
 -36  -1   1    0.01    0.04
 -36   1   0    1.66    0.12
 -36   1   0    1.70    0.12
 -36   1   0    1.79    0.11
 -36  -1   0    1.69    0.13
 -36  -1   0    1.53    0.12
 -36  -1   0    1.77    0.11
 -36   1  -1    0.03    0.04
 -36   1  -1    0.04    0.05
 -36   1  -1    0.06    0.05
 -36  -1  -1    0.02    0.04
 -36  -1  -1    0.02    0.06
 -36  -1  -1    0.01    0.05
 -36   1  -2    0.84    0.08
 -36   1  -2    0.81    0.09
 -36   1  -2    0.83    0.09
 -36  -1  -2    0.75    0.08
 -36  -1  -2    0.71    0.09
 -36  -1  -2    0.91    0.10
 -36   1  -3    0.05    0.05
 -36   1  -3    0.12    0.05
 -36   1  -3    0.06    0.04
 -36  -1  -3    0.06    0.04
 -36  -1  -3    0.09    0.06
 -36  -1  -3    0.07    0.05
 -36   1  -4    0.01    0.04
 -36   1  -4    0.07    0.05
 -36   1  -4    0.06    0.05
 -36  -1  -4    0.07    0.05
 -36  -1  -4    0.07    0.04
 -36  -1  -4    0.02    0.06
 -36   1  -5   -0.02    0.04
 -36   1  -5    0.12    0.05
 -36   1  -5    0.13    0.05
 -36  -1  -5   -0.04    0.04
 -36  -1  -5   -0.02    0.05
 -36  -1  -5    0.03    0.06
 -36   1  -6    3.48    0.17
 -36   1  -6    3.48    0.18
 -36   1  -6    3.63    0.17
 -36  -1  -6    3.21    0.18
 -36  -1  -6    3.47    0.18
 -36  -1  -6    3.62    0.17
 -36   1  -7    1.77    0.11
 -36   1  -7    1.96    0.11
 -36  -1  -7    2.04    0.12
 -36  -1  -7    1.94    0.12
 -36  -1  -7    1.91    0.13
 -36   1  -8    3.43    0.17
 -36   1  -8    3.18    0.16
 -36  -1  -8    3.59    0.17
 -36  -1  -8    3.35    0.17
 -36   1  -9    1.32    0.09
 -36   1  -9    1.42    0.10
 -36  -1  -9    1.36    0.10
 -36  -1  -9    1.32    0.09
 -36   1 -10    0.36    0.08
 -36   2   9    0.05    0.03
  36   2  -9    0.05    0.04
 -36  -2   9    0.03    0.04
  36   2  -8    0.11    0.04
 -36   2   8    0.11    0.04
 -36  -2   8    0.05    0.04
  36   2  -7    1.93    0.11
 -36   2   7    1.83    0.10
 -36  -2   7    1.58    0.10
 -36   2   6    0.00    0.04
  36   2  -6   -0.01    0.04
 -36  -2   6    0.04    0.04
 -36   2   5    2.88    0.15
  36   2  -5    3.05    0.15
 -36  -2   5    2.98    0.15
 -36   2   4    2.11    0.12
  36   2  -4    2.28    0.12
 -36  -2   4    2.02    0.14
 -36  -2   4    1.97    0.12
 -36   2   3    0.83    0.08
  36   2  -3    0.76    0.08
 -36  -2   3    0.82    0.08
 -36  -2   3    0.61    0.10
 -36   2   2    0.70    0.09
 -36   2   2    0.77    0.10
  36   2  -2    0.53    0.09
 -36   2   2    0.74    0.07
 -36  -2   2    0.67    0.09
 -36  -2   2    0.76    0.08
 -36   2   1    0.14    0.05
 -36   2   1    0.16    0.05
 -36   2   1    0.13    0.05
  36   2  -1    0.28    0.08
 -36  -2   1    0.05    0.05
 -36  -2   1    0.08    0.05
 -36   2   0    0.75    0.07
 -36   2   0    0.94    0.08
 -36   2   0    0.63    0.10
  36   2   0    0.69    0.09
 -36  -2   0    0.87    0.08
 -36  -2   0    0.72    0.08
 -36   2  -1   -0.04    0.06
  36   2   1    0.04    0.06
 -36   2  -1    0.04    0.04
 -36   2  -1    0.10    0.04
 -36  -2  -1    0.07    0.04
 -36  -2  -1    0.08    0.05
 -36   2  -2    0.32    0.07
  36   2   2    0.34    0.10
 -36   2  -2    0.30    0.06
 -36  -2  -2    0.25    0.07
 -36  -2  -2    0.22    0.05
  36   2   3    0.44    0.08
 -36   2  -3    0.61    0.07
 -36   2  -3    0.56    0.06
 -36  -2  -3    0.43    0.07
 -36  -2  -3    0.55    0.07
 -36   2  -4    0.55    0.06
 -36   2  -4    0.54    0.07
 -36  -2  -4    0.51    0.07
 -36  -2  -4    0.48    0.07
 -36   2  -5    0.32    0.06
 -36   2  -5    0.30    0.05
 -36  -2  -5    0.31    0.06
 -36  -2  -5    0.29    0.06
 -36   2  -6    0.80    0.07
 -36   2  -6    0.70    0.06
 -36  -2  -6    0.78    0.08
 -36  -2  -6    0.71    0.07
 -36   2  -7    0.05    0.04
 -36   2  -7   -0.01    0.04
 -36  -2  -7   -0.01    0.04
 -36  -2  -7    0.00    0.03
 -36   2  -8    0.79    0.07
 -36   2  -8    0.76    0.07
 -36  -2  -8    0.66    0.07
 -36  -2  -8    0.79    0.06
 -36  -3   3    0.03    0.04
 -36  -3   2    1.34    0.09
  36   3  -1    0.02    0.06
 -36  -3   1    0.02    0.04
  36   3   0    0.87    0.08
 -36   3  -1    0.11    0.07
  36   3   1    0.07    0.05
 -36  -3  -1    0.02    0.04
 -36   3  -2    0.05    0.04
  36   3   2   -0.03    0.04
 -36   3  -2    0.09    0.04
 -36  -3  -2    0.06    0.04
 -37   0  10    1.18    0.09
  37   0  -9    0.38    0.11
 -37   0   8    0.77    0.07
  37   0  -8    0.77    0.09
 -37   0   7   -0.06    0.04
  37   0  -7   -0.06    0.05
  37   0  -6    6.06    0.27
 -37   0   6    6.05    0.27
 -37   0   5    0.08    0.04
 -37   0   4    0.51    0.14
 -37   0   4    0.60    0.08
 -37   0   3   -0.03    0.07
 -37   0   3    0.03    0.04
 -37   0   2    0.48    0.10
 -37   0   2    0.26    0.07
 -37   0   1    0.00    0.06
 -37   0   1    0.02    0.04
 -37   0   0    0.31    0.07
 -37   0   0    0.40    0.09
 -37   0  -1   -0.03    0.04
 -37   0  -1    0.02    0.05
 -37   0  -2    1.87    0.13
 -37   0  -2    2.00    0.12
 -37   0  -3    0.00    0.05
 -37   0  -3    0.02    0.04
 -37   0  -4    1.32    0.10
 -37   0  -4    1.50    0.11
 -37   0  -5    0.00    0.04
 -37   0  -5    0.05    0.04
 -37   0  -6    0.06    0.04
 -37   0  -6    0.05    0.05
 -37   0  -7    0.00    0.04
 -37   0  -7    0.03    0.04
 -37   0  -8    0.23    0.05
 -37   0  -8    0.26    0.07
 -37   0  -9   -0.07    0.05
 -37   0  -9   -0.06    0.05
 -37   0 -10    0.46    0.09
 -37   1  10    1.01    0.07
 -37  -1  10    0.83    0.08
 -37   1   9   -0.04    0.03
  37   1  -9    0.04    0.05
 -37  -1   9   -0.01    0.05
  37   1  -8    0.06    0.05
 -37   1   8    0.06    0.03
 -37  -1   8    0.02    0.05
 -37  -1   8    0.00    0.05
 -37   1   7    0.03    0.03
  37   1  -7    0.08    0.05
  37  -1  -7    0.02    0.07
 -37  -1   7    0.00    0.05
 -37  -1   7    0.03    0.05
  37   1  -6    3.51    0.17
 -37   1   6    3.45    0.17
 -37  -1   6    3.46    0.18
 -37  -1   6    3.59    0.17
  37   1  -5    0.08    0.05
 -37   1   5    0.04    0.04
 -37  -1   5    0.02    0.04
 -37  -1   5    0.01    0.05
  37   1  -4    0.64    0.08
 -37   1   4    0.47    0.07
 -37  -1   4    0.51    0.08
 -37  -1   4    0.55    0.09
  37   1  -3    0.23    0.06
 -37   1   3    0.12    0.05
 -37   1   3    0.13    0.07
 -37  -1   3    0.14    0.05
 -37  -1   3    0.14    0.06
 -37   1   2    0.46    0.07
 -37   1   2    0.30    0.09
 -37  -1   2    0.41    0.07
 -37  -1   2    0.29    0.09
 -37   1   1    0.51    0.07
 -37   1   1    0.67    0.08
 -37   1   1    0.46    0.09
 -37  -1   1    0.56    0.09
 -37  -1   1    0.55    0.07
 -37  -1   1    0.67    0.09
 -37   1   0    0.47    0.07
 -37   1   0    0.33    0.08
 -37   1   0    0.41    0.08
 -37  -1   0    0.47    0.07
 -37  -1   0    0.45    0.08
 -37  -1   0    0.33    0.09
 -37   1  -1    0.01    0.04
 -37   1  -1    0.04    0.05
 -37   1  -1   -0.03    0.04
 -37  -1  -1    0.00    0.04
 -37  -1  -1    0.00    0.06
 -37  -1  -1    0.02    0.05
 -37   1  -2    0.03    0.04
 -37   1  -2    0.04    0.04
 -37   1  -2    0.02    0.04
 -37  -1  -2    0.13    0.06
 -37  -1  -2    0.10    0.05
 -37  -1  -2    0.03    0.04
 -37   1  -3    0.29    0.07
 -37   1  -3    0.20    0.05
 -37   1  -3    0.30    0.06
 -37  -1  -3    0.38    0.09
 -37  -1  -3    0.21    0.05
 -37  -1  -3    0.30    0.07
 -37   1  -4    0.56    0.09
 -37   1  -4    0.61    0.07
 -37   1  -4    0.61    0.08
 -37  -1  -4    0.65    0.08
 -37  -1  -4    0.35    0.10
 -37  -1  -4    0.67    0.08
 -37   1  -5    0.05    0.04
 -37   1  -5    0.04    0.04
 -37   1  -5   -0.02    0.06
 -37  -1  -5    0.02    0.04
 -37  -1  -5    0.10    0.06
 -37  -1  -5    0.04    0.04
 -37   1  -6    3.58    0.20
 -37   1  -6    4.32    0.19
  37   1   6    3.84    0.20
 -37   1  -6    4.20    0.18
 -37  -1  -6    4.30    0.19
 -37  -1  -6    4.10    0.19
 -37  -1  -6    3.81    0.20
 -37   1  -7    1.65    0.10
 -37   1  -7    1.80    0.11
 -37  -1  -7    1.70    0.11
 -37  -1  -7    1.84    0.10
 -37   1  -8    8.44    0.35
 -37   1  -8    8.78    0.36
 -37  -1  -8    7.93    0.35
 -37  -1  -8    8.35    0.36
 -37   1  -9   10.13    0.41
 -37  -1  -9    9.48    0.41
 -37  -1 -10    0.27    0.06
  37   2  -8    0.06    0.04
 -37   2   8   -0.03    0.04
 -37  -2   8    0.07    0.04
 -37   2   7    0.35    0.06
  37   2  -7    0.37    0.06
 -37  -2   7    0.28    0.06
  37   2  -6    0.26    0.06
 -37   2   6    0.19    0.06
 -37  -2   6    0.26    0.06
 -37   2   5    0.27    0.06
  37   2  -5    0.31    0.06
 -37  -2   5    0.32    0.07
  37   2  -4    0.01    0.05
 -37   2   4   -0.01    0.04
 -37  -2   4   -0.01    0.04
  37   2  -3    0.83    0.08
 -37   2   3    0.86    0.08
 -37  -2   3    0.83    0.08
 -37  -2   3    0.76    0.10
 -37   2   2    0.06    0.07
 -37   2   2    0.06    0.05
  37   2  -2   -0.02    0.05
 -37  -2   2    0.02    0.05
 -37  -2   2    0.02    0.04
 -37   2   1    0.44    0.08
 -37   2   1    0.30    0.06
  37   2  -1    0.21    0.06
 -37   2   1    0.32    0.09
 -37  -2   1    0.35    0.07
 -37  -2   1    0.21    0.05
 -37   2   0    0.71    0.07
 -37   2   0    0.64    0.10
 -37   2   0    0.93    0.08
  37   2   0    0.77    0.09
 -37  -2   0    0.77    0.08
 -37  -2   0    0.79    0.08
 -37   2  -1    0.19    0.07
 -37   2  -1    0.24    0.05
  37   2   1    0.16    0.06
 -37  -2  -1    0.12    0.04
 -37  -2  -1    0.13    0.04
 -37   2  -2    0.38    0.07
  37   2   2    0.52    0.09
 -37   2  -2    0.34    0.06
 -37  -2  -2    0.37    0.07
 -37  -2  -2    0.36    0.07
 -37   2  -3    0.38    0.06
  37   2   3    0.76    0.16
 -37   2  -3    0.25    0.06
 -37  -2  -3    0.30    0.07
 -37  -2  -3    0.44    0.07
 -37   2  -4    1.75    0.10
 -37   2  -4    1.76    0.10
 -37  -2  -4    1.70    0.10
 -37  -2  -4    1.86    0.10
 -37   2  -5    0.06    0.04
 -37   2  -5   -0.03    0.04
 -37  -2  -5   -0.05    0.04
 -37  -2  -5    0.04    0.03
 -37   2  -6    0.03    0.04
 -37   2  -6   -0.04    0.03
 -37  -2  -6    0.00    0.03
 -37  -2  -6    0.06    0.04
 -37   2  -7    2.10    0.11
 -37   2  -7    2.00    0.10
 -37  -2  -7    1.69    0.11
 -37  -2  -7    2.00    0.10
 -38   0   9    0.04    0.04
  38   0  -8    0.04    0.06
 -38   0   8    0.08    0.04
 -38   0   7    0.01    0.04
  38   0  -7    0.09    0.05
  38   0  -6   16.87    0.69
 -38   0   6   17.03    0.69
 -38   0   5    0.00    0.04
  38   0  -5    0.01    0.05
 -38   0   4    0.64    0.07
 -38   0   3   -0.02    0.07
 -38   0   3   -0.04    0.04
 -38   0   2   -0.03    0.04
 -38   0   2    0.03    0.06
 -38   0   1    0.07    0.06
 -38   0   1   -0.03    0.04
 -38   0   0    1.32    0.11
 -38   0   0    1.36    0.10
 -38   0  -1   -0.04    0.04
 -38   0  -1    0.01    0.05
 -38   0  -2    0.45    0.07
 -38   0  -2    0.47    0.08
 -38   0  -3    0.04    0.04
 -38   0  -3    0.04    0.05
 -38   0  -4   -0.01    0.04
 -38   0  -4    0.01    0.05
 -38   0  -5    0.01    0.04
 -38   0  -5    0.09    0.04
 -38   0  -6    0.87    0.09
 -38   0  -6    1.14    0.09
 -38   0  -7   -0.05    0.04
 -38   0  -7   -0.03    0.04
 -38   0  -8    0.53    0.08
 -38   0  -8    0.40    0.07
 -38   0  -9    0.03    0.05
 -38   1   9    0.06    0.03
  38   1  -8    0.36    0.07
 -38  -1   8    0.45    0.08
  38   1  -7    4.91    0.22
 -38   1   7    4.79    0.21
 -38  -1   7    4.84    0.22
 -38  -1   7    4.87    0.22
 -38   1   6    0.05    0.04
  38   1  -6    0.05    0.04
  38  -1  -6    0.12    0.06
 -38  -1   6    0.06    0.04
  38   1  -5    0.39    0.07
 -38   1   5    0.36    0.06
 -38  -1   5    0.30    0.08
 -38  -1   5    0.31    0.07
 -38   1   4    0.33    0.06
  38   1  -4    0.41    0.07
 -38  -1   4    0.29    0.08
 -38  -1   4    0.46    0.07
 -38   1   3    0.42    0.07
 -38   1   3    0.12    0.16
  38   1  -3    0.46    0.07
 -38  -1   3    0.27    0.07
 -38  -1   3    0.49    0.08
 -38   1   2    0.00    0.04
  38   1  -2    0.04    0.05
 -38   1   2    0.09    0.06
 -38  -1   2    0.02    0.06
 -38  -1   2   -0.03    0.04
  38   1  -1    0.80    0.08
 -38   1   1    0.81    0.09
 -38   1   1    0.72    0.08
 -38  -1   1    0.88    0.08
 -38  -1   1    0.73    0.09
 -38  -1   1    0.63    0.09
 -38   1   0    0.23    0.07
 -38   1   0    0.18    0.05
 -38  -1   0    0.11    0.06
 -38  -1   0    0.16    0.05
 -38  -1   0    0.17    0.04
 -38   1  -1    0.12    0.04
 -38   1  -1    0.08    0.04
 -38   1  -1    0.09    0.05
 -38  -1  -1    0.14    0.05
 -38  -1  -1    0.06    0.04
 -38  -1  -1    0.29    0.09
 -38   1  -2    0.32    0.06
 -38   1  -2    0.37    0.07
 -38   1  -2    0.38    0.07
 -38  -1  -2    0.24    0.07
 -38  -1  -2    0.36    0.09
 -38  -1  -2    0.38    0.07
 -38   1  -3    0.65    0.07
 -38   1  -3    0.84    0.08
 -38   1  -3    0.76    0.08
 -38  -1  -3    0.65    0.07
 -38  -1  -3    0.70    0.08
 -38  -1  -3    0.67    0.10
 -38   1  -4    0.88    0.07
 -38   1  -4    0.87    0.09
 -38   1  -4    0.89    0.08
 -38  -1  -4    0.82    0.08
 -38  -1  -4    0.93    0.08
 -38  -1  -4    0.71    0.10
  38   1   5    0.13    0.07
 -38   1  -5    0.24    0.06
 -38   1  -5    0.26    0.06
 -38   1  -5    0.35    0.09
 -38  -1  -5    0.17    0.05
 -38  -1  -5    0.27    0.06
 -38   1  -6    1.01    0.08
 -38   1  -6    0.94    0.07
 -38  -1  -6    0.92    0.08
 -38  -1  -6    0.99    0.08
 -38   1  -7    2.81    0.14
 -38   1  -7    2.81    0.14
 -38  -1  -7    2.73    0.14
 -38  -1  -7    2.72    0.14
 -38  -1  -8    1.71    0.10
 -38  -1  -9    1.54    0.09
 -38   2   6    0.58    0.07
 -38  -2   6    0.62    0.07
  38   2  -5    0.23    0.06
 -38   2   5    0.26    0.07
 -38  -2   5    0.27    0.06
  38   2  -4    0.13    0.05
 -38   2   4    0.21    0.07
 -38  -2   4    0.14    0.04
  38   2  -3    0.10    0.04
 -38  -2   3    0.05    0.04
 -38   2   2    0.92    0.09
  38   2  -2    0.82    0.09
 -38  -2   2    0.86    0.08
 -38  -2   2    0.84    0.09
  38   2  -1    0.28    0.07
 -38   2   1    0.20    0.06
 -38   2   1    0.50    0.09
 -38  -2   1    0.37    0.07
 -38  -2   1    0.30    0.06
  38   2   0    0.46    0.09
 -38   2   0    0.42    0.08
 -38   2   0    0.45    0.06
 -38  -2   0    0.47    0.07
 -38  -2   0    0.52    0.07
 -38   2  -1    0.09    0.04
  38   2   1    0.20    0.07
 -38   2  -1    0.06    0.04
 -38  -2  -1    0.01    0.04
 -38  -2  -1    0.09    0.04
 -38   2  -2    0.27    0.05
 -38   2  -2    0.19    0.06
  38   2   2    0.35    0.11
 -38  -2  -2    0.28    0.06
 -38  -2  -2    0.25    0.06
 -38   2  -3    0.06    0.04
 -38   2  -3    0.06    0.04
 -38  -2  -3   -0.03    0.03
 -38  -2  -3    0.06    0.04
 -38   2  -4    1.08    0.07
 -38   2  -4    1.03    0.08
 -38  -2  -4    0.94    0.08
 -38  -2  -4    1.19    0.08
 -38   2  -5    0.53    0.06
 -38   2  -5    0.48    0.06
 -38  -2  -5    0.61    0.06
 -38  -2  -5    0.62    0.07
 -38   2  -6    0.80    0.06
 -38   2  -6    0.76    0.07
 -38  -2  -6    0.66    0.06
 -39   0   8    0.40    0.07
 -39   0   7    0.03    0.04
 -39   0   6    0.08    0.04
  39   0  -6    0.10    0.05
  39   0  -5   -0.04    0.04
 -39   0   5    0.05    0.04
 -39   0   4    0.24    0.06
 -39   0   3   -0.02    0.04
 -39   0   2    0.30    0.06
 -39   0   2    0.28    0.09
 -39   0   1   -0.04    0.04
 -39   0   1    0.08    0.05
 -39   0   0    1.72    0.12
 -39   0   0    1.75    0.11
 -39   0  -1   -0.03    0.04
 -39   0  -1    0.05    0.05
 -39   0  -2    0.04    0.05
 -39   0  -2   -0.01    0.04
 -39   0  -3   -0.01    0.04
 -39   0  -3   -0.03    0.04
 -39   0  -4    1.53    0.10
 -39   0  -4    1.64    0.10
 -39   0  -5    0.00    0.04
 -39   0  -5   -0.06    0.04
 -39   0  -6    3.72    0.18
 -39   0  -6    3.76    0.18
 -39   0  -7    0.08    0.04
 -39   0  -7    0.00    0.04
 -39   0  -8    0.41    0.07
  39   1  -8    0.25    0.09
 -39   1   8    0.24    0.05
  39   1  -7    0.27    0.07
 -39   1   7    0.26    0.05
 -39  -1   7    0.29    0.09
  39   1  -6    4.27    0.19
 -39   1   6    3.99    0.18
 -39  -1   6    4.04    0.18
 -39  -1   6    3.76    0.19
 -39   1   5    0.37    0.06
  39   1  -5    0.42    0.07
 -39  -1   5    0.54    0.08
 -39  -1   5    0.26    0.07
  39  -1  -5    0.59    0.08
 -39   1   4   -0.02    0.03
  39   1  -4    0.06    0.04
 -39  -1   4    0.02    0.04
 -39  -1   4    0.12    0.06
  39   1  -3    0.19    0.06
 -39   1   3    0.18    0.04
 -39  -1   3    0.25    0.06
 -39  -1   3    0.10    0.06
 -39   1   2    0.17    0.07
 -39   1   2    0.04    0.04
  39   1  -2    0.14    0.05
 -39  -1   2    0.09    0.04
 -39  -1   2    0.28    0.09
  39   1  -1    0.18    0.05
 -39   1   1    0.16    0.04
 -39   1   1    0.31    0.09
 -39  -1   1    0.18    0.06
 -39  -1   1    0.15    0.04
 -39   1   0    1.70    0.10
  39   1   0    1.72    0.11
 -39   1   0    1.80    0.11
 -39  -1   0    1.42    0.12
 -39  -1   0    1.80    0.11
 -39  -1   0    1.85    0.11
 -39   1  -1    0.11    0.04
  39   1   1    0.15    0.05
 -39   1  -1    0.11    0.05
 -39  -1  -1    0.11    0.05
 -39  -1  -1    0.23    0.06
  39   1   2    0.57    0.08
 -39   1  -2    0.56    0.07
 -39   1  -2    0.60    0.07
 -39  -1  -2    0.60    0.07
 -39  -1  -2    0.48    0.11
 -39  -1  -2    0.53    0.07
 -39   1  -3    0.10    0.04
 -39   1  -3    0.18    0.06
  39   1   3    0.00    0.05
 -39   1  -3    0.09    0.05
 -39  -1  -3    0.11    0.04
 -39  -1  -3    0.20    0.12
 -39  -1  -3    0.07    0.04
 -39   1  -4    0.65    0.07
 -39   1  -4    0.61    0.06
  39   1   4    0.69    0.09
 -39   1  -4    0.72    0.09
 -39  -1  -4    0.57    0.07
 -39  -1  -4    0.66    0.07
 -39   1  -5    0.02    0.04
  39   1   5    0.18    0.10
 -39  -1  -5    0.05    0.04
 -39  -1  -5    0.07    0.04
 -39   1  -6    0.65    0.07
 -39  -1  -6    0.82    0.07
 -39  -1  -6    0.71    0.07
 -39   1  -7    0.68    0.07
  39   2  -4    0.83    0.08
 -39  -2   4    0.84    0.07
  39   2  -3    0.06    0.04
 -39  -2   3    0.03    0.04
  39   2  -2    1.29    0.09
 -39  -2   2    1.10    0.08
  39   2  -1    0.27    0.07
 -39  -2   1    0.11    0.04
 -39   2   0   -0.07    0.06
  39   2   0    0.06    0.06
 -39  -2   0    0.08    0.04
 -39   2  -1    0.05    0.05
 -39  -2  -1    0.05    0.04
 -39  -2  -1   -0.01    0.04
 -39   2  -2    0.03    0.04
 -39   2  -2    0.05    0.04
 -39  -2  -2    0.01    0.04
 -39  -2  -2    0.19    0.06
 -39   2  -3    0.00    0.03
 -39   2  -3    0.01    0.04
 -39  -2  -3   -0.03    0.04
 -39  -2  -3    0.07    0.05
 -39   2  -4    0.03    0.04
 -39   2  -4    0.09    0.04
 -39  -2  -4    0.00    0.03
 -40   0   7    0.01    0.03
  40   0  -6    0.07    0.05
 -40   0   6    0.00    0.03
  40   0  -5   -0.06    0.04
 -40   0   5   -0.04    0.03
 -40   0   4    0.62    0.06
  40   0  -4    0.43    0.07
 -40   0   3   -0.03    0.03
 -40   0   2    0.66    0.07
 -40   0   2    0.62    0.10
 -40   0   1    0.00    0.03
 -40   0   1    0.00    0.05
 -40   0   0    1.18    0.08
 -40   0   0    0.87    0.09
 -40   0  -1    0.04    0.05
 -40   0  -1   -0.03    0.03
 -40   0  -2    0.43    0.07
 -40   0  -2    0.46    0.06
 -40   0  -3    0.00    0.04
 -40   0  -3   -0.02    0.04
 -40   0  -4    3.17    0.16
 -40   0  -4    3.23    0.15
 -40   0  -5   -0.04    0.04
 -40   0  -5   -0.02    0.04
 -40   0  -6    2.99    0.14
 -40   0  -6    2.88    0.14
 -40   0  -7   -0.04    0.04
  40   1  -6    0.12    0.05
 -40   1   5    0.94    0.07
  40   1  -5    0.91    0.08
 -40  -1   5    0.96    0.08
  40   1  -4    0.03    0.04
 -40   1   4    0.07    0.04
 -40  -1   4    0.11    0.04
 -40   1   3    0.05    0.04
  40   1  -3    0.18    0.06
 -40  -1   3    0.05    0.04
 -40  -1   3    0.01    0.07
  40   1  -2    0.15    0.04
 -40   1   2    0.27    0.06
 -40  -1   2    0.41    0.10
 -40  -1   2    0.21    0.06
 -40   1   1    0.15    0.07
 -40   1   1    0.08    0.04
 -40  -1   1    0.09    0.07
 -40  -1   1    0.10    0.04
 -40   1   0    1.97    0.12
 -40   1   0    1.95    0.11
  40   1   0    1.59    0.10
 -40  -1   0    1.54    0.17
 -40  -1   0    1.87    0.10
 -40   1  -1    0.10    0.05
 -40   1  -1    0.13    0.04
 -40  -1  -1    0.21    0.06
 -40   1  -2    0.15    0.04
 -40   1  -2    0.20    0.05
  40   1   2    0.20    0.07
 -40  -1  -2    0.18    0.05
 -40  -1  -2    0.23    0.07
  40   1   3    0.10    0.06
 -40   1  -3    0.16    0.04
 -40   1  -3    0.35    0.08
 -40  -1  -3    0.21    0.06
 -40   1  -4    0.08    0.04
 -40  -1  -4    0.07    0.04
 -40  -1  -4    0.18    0.04
 -40   1  -5    0.71    0.07
 -40   1  -6    0.02    0.04
 -40  -1  -6    0.00    0.03
 -41   0   5    0.25    0.05
  41   0  -5    0.23    0.07
  41   0  -4    0.17    0.05
 -41   0   4    0.23    0.05
  41   0  -3   -0.03    0.04
 -41   0   3   -0.03    0.03
 -41   0   2    0.30    0.06
  41   0  -2    0.44    0.07
 -41   0   1    0.03    0.06
 -41   0   1    0.07    0.03
 -41   0   0    0.03    0.04
 -41   0   0    0.09    0.05
 -41   0  -1    0.01    0.05
 -41   0  -1    0.01    0.03
 -41   0  -2    1.49    0.10
 -41   0  -2    1.48    0.09
 -41   0  -3    0.07    0.04
 -41   0  -3   -0.01    0.04
 -41   0  -4    1.78    0.10
 -41   0  -4    1.77    0.10
 -41   0  -5    0.01    0.04
 -41   0  -5    0.08    0.04
  41   1  -4    0.12    0.04
 -41   1   4    0.02    0.03
 -41   1   3   -0.05    0.03
  41   1  -3    0.03    0.04
 -41  -1   3   -0.02    0.04
  41   1  -2    0.63    0.07
 -41  -1   2    0.70    0.07
 -41   1   1    0.90    0.08
  41   1  -1    0.95    0.08
 -41  -1   1    1.01    0.08
  41   1   0    0.56    0.07
 -41   1   0    0.46    0.07
 -41   1   0    0.61    0.10
 -41  -1   0    0.61    0.06
  41   1   1    0.05    0.05
 -41   1  -1    0.01    0.05
 -41   1  -1   -0.07    0.04
 -41  -1  -1    0.04    0.03
  41   1   2    0.04    0.05
 -41   1  -2    0.04    0.04
 -41  -1  -2   -0.02    0.03
 -41   1  -3    0.22    0.07
  42   0  -3    0.04    0.04
 -42   0   2    0.04    0.03
  42   0  -2    0.01    0.04
 -42   0   1    0.00    0.03
  42   0  -1   -0.02    0.04
 -42   0   0    0.32    0.05
  42   0   0    0.24    0.06
 -42   0  -1   -0.02    0.05
 -42   0  -1    0.01    0.04
 -42   0  -2    0.76    0.08
 -42   0  -2    0.86    0.07
   0   0   0    0.00    0.00
;
_shelx_hkl_checksum              4892
_shelx_res_file
;
    JTM782_0ma.res created by SHELXL-2014/7
TITL JTM782_0ma_a.res in P2(1)/c
REM Old TITL JTM782_0ma in P2(1)/c
REM SHELXT solution in P2(1)/c
REM R1 0.182,  Rweak 0.004,  Alpha 0.032,  Orientation as input
REM Formula found by SHELXT:  C35 N O S
CELL  1.54178  33.8411   4.7106  18.0987   90.000   90.470   90.000
ZERR    4.000   0.0007   0.0001   0.0004    0.000    0.001    0.000
LATT  1
SYMM -X, 1/2+Y, 1/2-Z
SFAC C H N O S
UNIT 132 188 4 4 4
TEMP -123
SIZE 0.026 0.108 0.238
L.S. 5
OMIT 25 0 14
OMIT 22 0 14
OMIT 24 0 14
OMIT 21 0 14
BOND $H
LIST 4
FMAP 2
EQIV $1 x, 0.5-y, 0.5+z
HTAB C3 O1_$1
HTAB C9 O1
HTAB C11 S1
HTAB C16 O1
PLAN 5
MPLA C1 > C6
MPLA C10 > C15
MPLA C10A > C15A
MPLA C1 > C6
CONF
ACTA 142
WGHT    0.051100    1.365100
FVAR       0.08850   0.50308
S1    5    0.105928    0.773615    0.552507    11.00000    0.03292    0.02952 =
         0.03329    0.00035   -0.01019    0.00240
O1    4    0.171143    0.259542    0.439400    11.00000    0.03164    0.08269 =
         0.02465   -0.00481   -0.00119    0.01505
N1    3    0.173204    0.335706    0.562928    11.00000    0.02023    0.03501 =
         0.02300   -0.00040   -0.00445   -0.00015
C1    1    0.155062    0.414021    0.630565    11.00000    0.01846    0.03081 =
         0.02405   -0.00030   -0.00329   -0.00388
C2    1    0.168039    0.294444    0.697428    11.00000    0.02436    0.03673 =
         0.02721    0.00339   -0.00404    0.00177
H2    2    0.187328    0.151249    0.697362    11.00000    0.03268
C3    1    0.152612    0.383842    0.764168    11.00000    0.03334    0.04630 =
         0.02484    0.00303   -0.00427   -0.00423
H3    2    0.162326    0.302562    0.808911    11.00000    0.04695
C4    1    0.123617    0.589145    0.765944    11.00000    0.03495    0.04539 =
         0.02701   -0.00538    0.00169   -0.00313
H4    2    0.112510    0.650927    0.810729    11.00000    0.05092
C5    1    0.109451    0.702423    0.700175    11.00000    0.02934    0.03750 =
         0.03487   -0.00458   -0.00117    0.00028
H5    2    0.088092    0.846240    0.700215    11.00000    0.04030
C6    1    0.125063    0.615673    0.632909    11.00000    0.02255    0.02931 =
         0.02898   -0.00077   -0.00469   -0.00386
C7    1    0.116577    0.509489    0.488017    11.00000    0.02323    0.03261 =
         0.02602    0.00518   -0.00183   -0.00180
C8    1    0.155563    0.360580    0.493876    11.00000    0.02299    0.04255 =
         0.02495    0.00174   -0.00346   -0.00151
C9    1    0.093749    0.446781    0.428661    11.00000    0.02493    0.03726 =
         0.02506    0.00345   -0.00275   -0.00189
H9    2    0.105670    0.313205    0.394584    11.00000    0.03192
PART 1
AFIX  66
C10   1    0.054769    0.545635    0.402458    21.00000    0.01582    0.03528 =
         0.04283    0.00341    0.00660   -0.00406
C11   1    0.038282    0.799756    0.426153    21.00000    0.02765    0.03639 =
         0.02767    0.00413   -0.00633   -0.00179
AFIX  43
H11   2    0.053228    0.924806    0.456630    21.00000   -1.20000
AFIX  65
C12   1   -0.000073    0.870911    0.405255    21.00000    0.03162    0.04064 =
         0.03252    0.00766   -0.00180    0.00555
AFIX  43
H12   2   -0.011340    1.044593    0.421449    21.00000   -1.20000
AFIX  65
C13   1   -0.021941    0.687946    0.360661    21.00000    0.02389    0.03717 =
         0.04719    0.01634   -0.01167    0.00357
AFIX  43
H13   2   -0.048155    0.736579    0.346379    21.00000   -1.20000
AFIX  65
C14   1   -0.005455    0.433823    0.336966    21.00000    0.03318    0.05174 =
         0.05151    0.00517   -0.02076   -0.00802
AFIX  43
H14   2   -0.020401    0.308775    0.306489    21.00000   -1.20000
AFIX  65
C15   1    0.032900    0.362665    0.357864    21.00000    0.03276    0.04017 =
         0.04339   -0.00109   -0.01048   -0.00203
AFIX  43
H15   2    0.044168    0.188983    0.341669    21.00000   -1.20000
AFIX  66
PART 2
C10A  1    0.052528    0.537843    0.410161   -21.00000    0.03022    0.02767 =
         0.00915    0.00880   -0.01241   -0.00433
C11A  1    0.025884    0.657959    0.459140   -21.00000    0.02831    0.03307 =
         0.02852    0.00141   -0.00251   -0.00230
AFIX  43
H11A  2    0.033880    0.698641    0.508452   -21.00000   -1.20000
AFIX  65
C12A  1   -0.012459    0.718552    0.435969   -21.00000    0.02592    0.03244 =
         0.03568    0.00283   -0.00028   -0.00263
AFIX  43
H12A  2   -0.030669    0.800646    0.469445   -21.00000   -1.20000
AFIX  65
C13A  1   -0.024158    0.659029    0.363818   -21.00000    0.02767    0.03858 =
         0.03473    0.00697   -0.00601   -0.00894
AFIX  43
H13A  2   -0.050364    0.700442    0.347982   -21.00000   -1.20000
AFIX  65
C14A  1    0.002486    0.538913    0.314838   -21.00000    0.03358    0.04079 =
         0.02884    0.00407   -0.01196   -0.00544
AFIX  43
H14A  2   -0.005510    0.498232    0.265526   -21.00000   -1.20000
AFIX  65
C15A  1    0.040829    0.478319    0.338008   -21.00000    0.03011    0.03638 =
         0.02237    0.00037   -0.00554    0.00031
AFIX  43
H15A  2    0.059038    0.396225    0.304532   -21.00000   -1.20000
AFIX   0
PART 0
C16   1    0.210022    0.169453    0.566816    11.00000    0.02222    0.03617 =
         0.03081   -0.00336   -0.00422    0.00222
H16A  2    0.205125   -0.003502    0.597974    11.00000    0.03740
H16B  2    0.216221    0.114431    0.516529    11.00000    0.04288
C17   1    0.244551    0.339582    0.598596    11.00000    0.01949    0.03633 =
         0.03524    0.00074   -0.00315    0.00046
H17A  2    0.235048    0.459399    0.639530    11.00000    0.03926
H17B  2    0.253433    0.472802    0.560260    11.00000    0.04263
C18   1    0.277949    0.148498    0.625435    11.00000    0.02182    0.03875 =
         0.03925   -0.00137   -0.00583    0.00135
H18A  2    0.266325    0.010843    0.662445    11.00000    0.04521
H18B  2    0.288530    0.045762    0.583156    11.00000    0.04681
C19   1    0.311034    0.311780    0.663995    11.00000    0.02095    0.04009 =
         0.03830   -0.00070   -0.00510    0.00126
H19A  2    0.299127    0.420671    0.705600    11.00000    0.03846
H19B  2    0.322228    0.448140    0.630699    11.00000    0.04019
C20   1    0.343701    0.122086    0.694646    11.00000    0.02187    0.04562 =
         0.04127   -0.00127   -0.00575    0.00317
H20A  2    0.331607   -0.017097    0.729320    11.00000    0.04592
H20B  2    0.354464    0.011847    0.654178    11.00000    0.05156
C21   1    0.375604    0.285157    0.736557    11.00000    0.02229    0.04773 =
         0.03948   -0.00012   -0.00544    0.00054
H21A  2    0.362680    0.390055    0.779891    11.00000    0.04523
H21B  2    0.387908    0.423807    0.702879    11.00000    0.04498
C22   1    0.408331    0.096276    0.768005    11.00000    0.02235    0.05049 =
         0.04077   -0.00149   -0.00479    0.00189
H22A  2    0.396418   -0.048263    0.801687    11.00000    0.05081
H22B  2    0.421372   -0.015804    0.727583    11.00000    0.05218
C23   1    0.439979    0.260984    0.810152    11.00000    0.02345    0.05382 =
         0.03854    0.00083   -0.00635    0.00070
H23A  2    0.426878    0.369478    0.851204    11.00000    0.04568
H23B  2    0.452275    0.398334    0.776266    11.00000    0.04810
C24   1    0.472782    0.073861    0.841794    11.00000    0.02227    0.05571 =
         0.03923   -0.00251   -0.00527    0.00228
H24A  2    0.485214   -0.046078    0.800952    11.00000    0.05663
H24B  2    0.460897   -0.072236    0.875130    11.00000    0.05328
C25   1    0.504525    0.240378    0.883368    11.00000    0.02382    0.05550 =
         0.03730    0.00117   -0.00670   -0.00010
H25A  2    0.491582    0.354111    0.924511    11.00000    0.04725
H25B  2    0.516558    0.384425    0.848874    11.00000    0.05007
C26   1    0.537384    0.054365    0.915561    11.00000    0.02334    0.05383 =
         0.03849   -0.00283   -0.00476    0.00236
H26A  2    0.549779   -0.068658    0.874285    11.00000    0.05186
H26B  2    0.525307   -0.087231    0.951192    11.00000    0.04621
C27   1    0.569260    0.223497    0.956099    11.00000    0.02608    0.05228 =
         0.03778    0.00162   -0.00668    0.00121
H27A  2    0.556783    0.337738    0.995705    11.00000    0.04900
H27B  2    0.580479    0.362711    0.920818    11.00000    0.04612
C28   1    0.602293    0.041097    0.988695    11.00000    0.02453    0.05066 =
         0.03689   -0.00343   -0.00571    0.00255
H28A  2    0.590514   -0.100186    1.023091    11.00000    0.03936
H28B  2    0.614625   -0.083002    0.947367    11.00000    0.04449
C29   1    0.634456    0.213715    1.027291    11.00000    0.02745    0.04573 =
         0.03883    0.00057   -0.00859    0.00187
H29A  2    0.645336    0.355781    0.990203    11.00000    0.05253
H29B  2    0.622395    0.330944    1.066418    11.00000    0.04488
C30   1    0.667710    0.034542    1.060142    11.00000    0.02609    0.04358 =
         0.03666   -0.00182   -0.00615    0.00399
H30A  2    0.679875   -0.093616    1.020571    11.00000    0.04667
H30B  2    0.656101   -0.097907    1.098189    11.00000    0.04233
C31   1    0.699998    0.210223    1.097478    11.00000    0.03055    0.04136 =
         0.04025    0.00057   -0.01114    0.00437
H31A  2    0.687139    0.326773    1.135055    11.00000    0.05168
H31B  2    0.711162    0.341224    1.058875    11.00000    0.05672
C32   1    0.733608    0.034491    1.130482    11.00000    0.03092    0.04414 =
         0.04241   -0.00075   -0.00914    0.00596
H32A  2    0.721599   -0.103363    1.167175    11.00000    0.05313
H32B  2    0.745513   -0.087853    1.091300    11.00000    0.05384
C33   1    0.765597    0.215804    1.166233    11.00000    0.03647    0.05374 =
         0.05239   -0.00143   -0.02012    0.00475
H33A  2    0.754634    0.321740    1.206956    11.00000    0.06686
H33B  2    0.787099    0.105034    1.185708    11.00000    0.06520
H33C  2    0.776430    0.352203    1.129143    11.00000    0.07615
HKLF 4
REM  JTM782_0ma_a.res in P2(1)/c
REM R1 =  0.0456 for    4927 Fo > 4sig(Fo)  and  0.0544 for all    5792 data
REM    524 parameters refined using      0 restraints
END
WGHT      0.0511      1.3649
REM Highest difference peak  0.339,  deepest hole -0.461,  1-sigma level  0.049
Q1    1   0.1184  0.9559  0.5924  11.00000  0.05    0.34
Q2    1   0.0678  0.5362  0.4118  11.00000  0.05    0.25
Q3    1   0.0705  0.7736  0.5645  11.00000  0.05    0.25
Q4    1   0.1297  0.7635  0.5165  11.00000  0.05    0.22
Q5    1   0.1515  0.5591  0.6394  11.00000  0.05    0.21
;
_shelx_res_checksum              92495
loop_
_space_group_symop_operation_xyz
'x, y, z'
'-x, y+1/2, -z+1/2'
'-x, -y, -z'
'x, -y-1/2, z-1/2'
loop_
_atom_site_type_symbol
_atom_site_label
_atom_site_fract_x
_atom_site_fract_y
_atom_site_fract_z
_atom_site_U_iso_or_equiv
_atom_site_adp_type
_atom_site_calc_flag
_atom_site_occupancy
_atom_site_disorder_assembly
_atom_site_disorder_group
S S1 0.10593(2) 0.77362(9) 0.55251(2) 0.03197(13) Uani d 1 . .
O O1 0.17114(4) 0.2595(3) 0.43940(7) 0.0463(4) Uani d 1 . .
N N1 0.17320(4) 0.3357(3) 0.56293(7) 0.0261(3) Uani d 1 . .
C C1 0.15506(4) 0.4140(3) 0.63057(8) 0.0245(3) Uani d 1 . .
C C2 0.16804(5) 0.2944(4) 0.69743(9) 0.0295(3) Uani d 1 . .
H H2 0.1873(6) 0.151(4) 0.6974(10) 0.033(5) Uiso d 1 . .
C C3 0.15261(5) 0.3838(4) 0.76417(9) 0.0348(4) Uani d 1 . .
H H3 0.1623(6) 0.303(5) 0.8089(12) 0.047(6) Uiso d 1 . .
C C4 0.12362(5) 0.5891(4) 0.76594(10) 0.0358(4) Uani d 1 . .
H H4 0.1125(7) 0.651(5) 0.8107(13) 0.051(6) Uiso d 1 . .
C C5 0.10945(5) 0.7024(4) 0.70018(10) 0.0339(4) Uani d 1 . .
H H5 0.0881(6) 0.846(5) 0.7002(11) 0.040(5) Uiso d 1 . .
C C6 0.12506(4) 0.6157(3) 0.63291(9) 0.0270(3) Uani d 1 . .
C C7 0.11658(4) 0.5095(4) 0.48802(9) 0.0273(3) Uani d 1 . .
C C8 0.15556(5) 0.3606(4) 0.49388(9) 0.0302(4) Uani d 1 . .
C C9 0.09375(5) 0.4468(4) 0.42866(9) 0.0291(3) Uani d 1 . .
H H9 0.1057(6) 0.313(4) 0.3946(10) 0.032(5) Uiso d 1 . .
C C10 0.05477(6) 0.5456(5) 0.40246(18) 0.031(2) Uani d 0.503(4) A 1
C C11 0.03828(7) 0.7998(5) 0.42615(15) 0.0306(9) Uani d 0.503(4) A 1
H H11 0.0532 0.9248 0.4566 0.037 Uiso calc 0.503(4) A 1
C C12 -0.00007(7) 0.8709(5) 0.40525(15) 0.0349(9) Uani d 0.503(4) A 1
H H12 -0.0113 1.0446 0.4214 0.042 Uiso calc 0.503(4) A 1
C C13 -0.02194(6) 0.6879(6) 0.36066(17) 0.036(2) Uani d 0.503(4) A 1
H H13 -0.0482 0.7366 0.3464 0.043 Uiso calc 0.503(4) A 1
C C14 -0.00545(9) 0.4338(6) 0.3370(2) 0.0456(12) Uani d 0.503(4) A 1
H H14 -0.0204 0.3088 0.3065 0.055 Uiso calc 0.503(4) A 1
C C15 0.03290(9) 0.3627(5) 0.3579(2) 0.0388(10) Uani d 0.503(4) A 1
H H15 0.0442 0.1890 0.3417 0.047 Uiso calc 0.503(4) A 1
C C10A 0.05253(6) 0.5378(6) 0.41016(14) 0.0224(19) Uani d 0.497(4) A 2
C C11A 0.02588(7) 0.6580(6) 0.45914(11) 0.0300(9) Uani d 0.497(4) A 2
H H11A 0.0339 0.6986 0.5085 0.036 Uiso calc 0.497(4) A 2
C C12A -0.01246(6) 0.7186(6) 0.43597(13) 0.0313(9) Uani d 0.497(4) A 2
H H12A -0.0307 0.8006 0.4694 0.038 Uiso calc 0.497(4) A 2
C C13A -0.02416(6) 0.6590(7) 0.36382(13) 0.034(2) Uani d 0.497(4) A 2
H H13A -0.0504 0.7004 0.3480 0.040 Uiso calc 0.497(4) A 2
C C14A 0.00249(8) 0.5389(7) 0.31484(10) 0.0345(10) Uani d 0.497(4) A 2
H H14A -0.0055 0.4982 0.2655 0.041 Uiso calc 0.497(4) A 2
C C15A 0.04083(7) 0.4783(7) 0.33801(13) 0.0297(9) Uani d 0.497(4) A 2
H H15A 0.0590 0.3962 0.3045 0.036 Uiso calc 0.497(4) A 2
C C16 0.21002(5) 0.1695(4) 0.56682(10) 0.0298(4) Uani d 1 . .
H H16A 0.2051(6) -0.004(5) 0.5980(11) 0.037(5) Uiso d 1 . .
H H16B 0.2162(6) 0.114(5) 0.5165(12) 0.043(6) Uiso d 1 . .
C C17 0.24455(5) 0.3396(4) 0.59860(10) 0.0304(4) Uani d 1 . .
H H17A 0.2350(6) 0.459(5) 0.6395(11) 0.039(5) Uiso d 1 . .
H H17B 0.2534(6) 0.473(5) 0.5603(12) 0.043(6) Uiso d 1 . .
C C18 0.27795(5) 0.1485(4) 0.62544(11) 0.0333(4) Uani d 1 . .
H H18A 0.2663(6) 0.011(5) 0.6624(12) 0.045(6) Uiso d 1 . .
H H18B 0.2885(6) 0.046(5) 0.5832(12) 0.047(6) Uiso d 1 . .
C C19 0.31103(5) 0.3118(4) 0.66399(10) 0.0331(4) Uani d 1 . .
H H19A 0.2991(6) 0.421(4) 0.7056(11) 0.038(5) Uiso d 1 . .
H H19B 0.3222(6) 0.448(5) 0.6307(11) 0.040(5) Uiso d 1 . .
C C20 0.34370(5) 0.1221(4) 0.69465(11) 0.0363(4) Uani d 1 . .
H H20A 0.3316(6) -0.017(5) 0.7293(12) 0.046(6) Uiso d 1 . .
H H20B 0.3545(7) 0.012(5) 0.6542(13) 0.052(6) Uiso d 1 . .
C C21 0.37560(5) 0.2852(4) 0.73656(11) 0.0365(4) Uani d 1 . .
H H21A 0.3627(6) 0.390(5) 0.7799(12) 0.045(6) Uiso d 1 . .
H H21B 0.3879(6) 0.424(5) 0.7029(12) 0.045(6) Uiso d 1 . .
C C22 0.40833(5) 0.0963(5) 0.76801(11) 0.0379(4) Uani d 1 . .
H H22A 0.3964(7) -0.048(5) 0.8017(13) 0.051(6) Uiso d 1 . .
H H22B 0.4214(7) -0.016(5) 0.7276(13) 0.052(6) Uiso d 1 . .
C C23 0.43998(5) 0.2610(5) 0.81015(11) 0.0386(4) Uani d 1 . .
H H23A 0.4269(6) 0.369(5) 0.8512(12) 0.046(6) Uiso d 1 . .
H H23B 0.4523(7) 0.398(5) 0.7763(12) 0.048(6) Uiso d 1 . .
C C24 0.47278(5) 0.0739(5) 0.84179(11) 0.0391(4) Uani d 1 . .
H H24A 0.4852(7) -0.046(5) 0.8010(13) 0.057(7) Uiso d 1 . .
H H24B 0.4609(7) -0.072(5) 0.8751(13) 0.053(6) Uiso d 1 . .
C C25 0.50452(5) 0.2404(5) 0.88337(11) 0.0389(4) Uani d 1 . .
H H25A 0.4916(6) 0.354(5) 0.9245(12) 0.047(6) Uiso d 1 . .
H H25B 0.5166(7) 0.384(5) 0.8489(12) 0.050(6) Uiso d 1 . .
C C26 0.53738(5) 0.0544(5) 0.91556(11) 0.0386(4) Uani d 1 . .
H H26A 0.5498(7) -0.069(5) 0.8743(13) 0.052(6) Uiso d 1 . .
H H26B 0.5253(6) -0.087(5) 0.9512(12) 0.046(6) Uiso d 1 . .
C C27 0.56926(5) 0.2235(5) 0.95610(11) 0.0388(4) Uani d 1 . .
H H27A 0.5568(7) 0.338(5) 0.9957(12) 0.049(6) Uiso d 1 . .
H H27B 0.5805(6) 0.363(5) 0.9208(12) 0.046(6) Uiso d 1 . .
C C28 0.60229(5) 0.0411(4) 0.98870(11) 0.0374(4) Uani d 1 . .
H H28A 0.5905(6) -0.100(5) 1.0231(11) 0.039(5) Uiso d 1 . .
H H28B 0.6146(6) -0.083(5) 0.9474(12) 0.044(6) Uiso d 1 . .
C C29 0.63446(5) 0.2137(4) 1.02729(11) 0.0374(4) Uani d 1 . .
H H29A 0.6453(7) 0.356(5) 0.9902(13) 0.053(6) Uiso d 1 . .
H H29B 0.6224(6) 0.331(5) 1.0664(12) 0.045(6) Uiso d 1 . .
C C30 0.66771(5) 0.0345(4) 1.06014(10) 0.0355(4) Uani d 1 . .
H H30A 0.6799(6) -0.094(5) 1.0206(12) 0.047(6) Uiso d 1 . .
H H30B 0.6561(6) -0.098(5) 1.0982(11) 0.042(6) Uiso d 1 . .
C C31 0.70000(5) 0.2102(4) 1.09748(11) 0.0374(4) Uani d 1 . .
H H31A 0.6871(7) 0.327(5) 1.1351(13) 0.052(6) Uiso d 1 . .
H H31B 0.7112(7) 0.341(5) 1.0589(13) 0.057(7) Uiso d 1 . .
C C32 0.73361(5) 0.0345(4) 1.13048(11) 0.0392(4) Uani d 1 . .
H H32A 0.7216(7) -0.103(5) 1.1672(13) 0.053(6) Uiso d 1 . .
H H32B 0.7455(7) -0.088(5) 1.0913(13) 0.054(6) Uiso d 1 . .
C C33 0.76560(6) 0.2158(5) 1.16623(14) 0.0476(5) Uani d 1 . .
H H33A 0.7546(8) 0.322(6) 1.2070(15) 0.067(8) Uiso d 1 . .
H H33B 0.7871(8) 0.105(6) 1.1857(14) 0.065(7) Uiso d 1 . .
H H33C 0.7764(8) 0.352(6) 1.1291(16) 0.076(9) Uiso d 1 . .
loop_
_atom_site_aniso_label
_atom_site_aniso_U_11
_atom_site_aniso_U_22
_atom_site_aniso_U_33
_atom_site_aniso_U_12
_atom_site_aniso_U_13
_atom_site_aniso_U_23
S1 0.0329(2) 0.0295(2) 0.0333(2) 0.00240(16) -0.01019(16) 0.00035(16)
O1 0.0316(6) 0.0827(11) 0.0247(6) 0.0151(7) -0.0012(5) -0.0048(6)
N1 0.0202(6) 0.0350(7) 0.0230(6) -0.0002(5) -0.0045(5) -0.0004(5)
C1 0.0185(6) 0.0308(8) 0.0240(7) -0.0039(6) -0.0033(6) -0.0003(6)
C2 0.0244(7) 0.0367(9) 0.0272(8) 0.0018(7) -0.0040(6) 0.0034(7)
C3 0.0333(8) 0.0463(10) 0.0248(8) -0.0042(8) -0.0043(7) 0.0030(7)
C4 0.0350(9) 0.0454(10) 0.0270(8) -0.0031(8) 0.0017(7) -0.0054(7)
C5 0.0293(8) 0.0375(9) 0.0349(9) 0.0003(7) -0.0012(7) -0.0046(7)
C6 0.0226(7) 0.0293(8) 0.0290(8) -0.0039(6) -0.0047(6) -0.0008(6)
C7 0.0232(7) 0.0326(8) 0.0260(8) -0.0018(6) -0.0018(6) 0.0052(6)
C8 0.0230(7) 0.0426(9) 0.0250(8) -0.0015(7) -0.0035(6) 0.0017(7)
C9 0.0249(7) 0.0373(9) 0.0251(8) -0.0019(7) -0.0027(6) 0.0035(7)
C10 0.016(3) 0.035(5) 0.043(4) -0.004(3) 0.007(3) 0.003(3)
C11 0.0276(16) 0.036(2) 0.0277(17) -0.0018(14) -0.0063(14) 0.0041(15)
C12 0.0316(17) 0.041(2) 0.0325(18) 0.0055(16) -0.0018(14) 0.0077(16)
C13 0.024(3) 0.037(3) 0.047(5) 0.004(3) -0.012(3) 0.016(3)
C14 0.033(2) 0.052(3) 0.052(3) -0.008(2) -0.021(2) 0.005(2)
C15 0.033(2) 0.040(2) 0.043(2) -0.0020(18) -0.0105(17) -0.0011(19)
C10A 0.030(3) 0.028(4) 0.009(2) -0.004(3) -0.012(2) 0.009(2)
C11A 0.0283(16) 0.0331(19) 0.0285(18) -0.0023(14) -0.0025(14) 0.0014(15)
C12A 0.0259(16) 0.0324(19) 0.0357(19) -0.0026(14) -0.0003(14) 0.0028(15)
C13A 0.028(4) 0.039(4) 0.035(4) -0.009(3) -0.006(3) 0.007(3)
C14A 0.034(2) 0.041(2) 0.029(2) -0.0054(17) -0.0120(16) 0.0041(16)
C15A 0.0301(18) 0.036(2) 0.0224(19) 0.0003(16) -0.0055(14) 0.0004(15)
C16 0.0222(7) 0.0362(9) 0.0308(9) 0.0022(7) -0.0042(6) -0.0034(7)
C17 0.0195(7) 0.0363(9) 0.0352(9) 0.0005(7) -0.0031(6) 0.0007(7)
C18 0.0218(7) 0.0388(9) 0.0393(10) 0.0013(7) -0.0058(7) -0.0014(8)
C19 0.0209(7) 0.0401(10) 0.0383(9) 0.0013(7) -0.0051(7) -0.0007(8)
C20 0.0219(7) 0.0456(11) 0.0413(10) 0.0032(7) -0.0058(7) -0.0013(9)
C21 0.0223(8) 0.0477(11) 0.0395(10) 0.0005(7) -0.0054(7) -0.0001(8)
C22 0.0223(8) 0.0505(11) 0.0408(10) 0.0019(8) -0.0048(7) -0.0015(9)
C23 0.0235(8) 0.0538(12) 0.0385(10) 0.0007(8) -0.0063(7) 0.0008(9)
C24 0.0223(8) 0.0557(12) 0.0392(10) 0.0023(8) -0.0053(7) -0.0025(9)
C25 0.0238(8) 0.0555(12) 0.0373(10) -0.0001(8) -0.0067(7) 0.0012(9)
C26 0.0233(8) 0.0538(12) 0.0385(10) 0.0024(8) -0.0048(7) -0.0028(9)
C27 0.0261(8) 0.0523(12) 0.0378(10) 0.0012(8) -0.0067(7) 0.0016(9)
C28 0.0245(8) 0.0507(11) 0.0369(10) 0.0025(8) -0.0057(7) -0.0034(8)
C29 0.0274(8) 0.0457(11) 0.0388(10) 0.0019(8) -0.0086(7) 0.0006(8)
C30 0.0261(8) 0.0436(10) 0.0367(9) 0.0040(7) -0.0061(7) -0.0018(8)
C31 0.0306(8) 0.0414(10) 0.0402(10) 0.0044(8) -0.0111(8) 0.0006(8)
C32 0.0309(8) 0.0441(11) 0.0424(10) 0.0060(8) -0.0091(8) -0.0007(9)
C33 0.0365(10) 0.0537(13) 0.0524(13) 0.0048(9) -0.0201(9) -0.0014(10)
loop_
_atom_type_symbol
_atom_type_description
_atom_type_scat_dispersion_real
_atom_type_scat_dispersion_imag
_atom_type_scat_source
C C 0.0181 0.0091 'International Tables Vol C Tables 4.2.6.8 and 6.1.1.4'
H H 0.0000 0.0000 'International Tables Vol C Tables 4.2.6.8 and 6.1.1.4'
N N 0.0311 0.0180 'International Tables Vol C Tables 4.2.6.8 and 6.1.1.4'
O O 0.0492 0.0322 'International Tables Vol C Tables 4.2.6.8 and 6.1.1.4'
S S 0.3331 0.5567 'International Tables Vol C Tables 4.2.6.8 and 6.1.1.4'
loop_
_geom_angle_atom_site_label_1
_geom_angle_atom_site_label_2
_geom_angle_atom_site_label_3
_geom_angle
C7 S1 C6 100.11(8)
C8 N1 C1 124.64(13)
C8 N1 C16 116.50(13)
C1 N1 C16 117.88(13)
C6 C1 C2 118.13(15)
C6 C1 N1 121.57(14)
C2 C1 N1 120.28(14)
C3 C2 C1 120.85(16)
C3 C2 H2 119.1(11)
C1 C2 H2 120.0(11)
C4 C3 C2 120.47(16)
C4 C3 H3 120.2(13)
C2 C3 H3 119.3(13)
C3 C4 C5 119.42(17)
C3 C4 H4 121.7(14)
C5 C4 H4 118.8(14)
C4 C5 C6 120.45(17)
C4 C5 H5 120.6(12)
C6 C5 H5 118.9(12)
C1 C6 C5 120.61(15)
C1 C6 S1 121.94(12)
C5 C6 S1 117.44(13)
C9 C7 C8 116.86(15)
C9 C7 S1 124.60(13)
C8 C7 S1 118.24(11)
O1 C8 N1 120.71(15)
O1 C8 C7 120.83(14)
N1 C8 C7 118.45(14)
C7 C9 C10 133.75(18)
C7 C9 C10A 129.94(18)
C7 C9 H9 114.1(11)
C10 C9 H9 112.1(11)
C10A C9 H9 115.8(11)
C11 C10 C15 120.0
C11 C10 C9 122.23(17)
C15 C10 C9 117.51(17)
C12 C11 C10 120.0
C12 C11 H11 120.0
C10 C11 H11 120.0
C13 C12 C11 120.0
C13 C12 H12 120.0
C11 C12 H12 120.0
C12 C13 C14 120.0
C12 C13 H13 120.0
C14 C13 H13 120.0
C13 C14 C15 120.0
C13 C14 H14 120.0
C15 C14 H14 120.0
C14 C15 C10 120.0
C14 C15 H15 120.0
C10 C15 H15 120.0
C11A C10A C15A 120.0
C11A C10A C9 125.66(17)
C15A C10A C9 114.25(17)
C10A C11A C12A 120.0
C10A C11A H11A 120.0
C12A C11A H11A 120.0
C13A C12A C11A 120.0
C13A C12A H12A 120.0
C11A C12A H12A 120.0
C12A C13A C14A 120.0
C12A C13A H13A 120.0
C14A C13A H13A 120.0
C15A C14A C13A 120.0
C15A C14A H14A 120.0
C13A C14A H14A 120.0
C14A C15A C10A 120.0
C14A C15A H15A 120.0
C10A C15A H15A 120.0
N1 C16 C17 112.56(14)
N1 C16 H16A 108.3(11)
C17 C16 H16A 110.1(11)
N1 C16 H16B 106.6(12)
C17 C16 H16B 108.8(13)
H16A C16 H16B 110.3(17)
C18 C17 C16 111.98(15)
C18 C17 H17A 110.1(12)
C16 C17 H17A 109.3(12)
C18 C17 H17B 111.8(12)
C16 C17 H17B 107.8(12)
H17A C17 H17B 105.5(17)
C17 C18 C19 112.89(15)
C17 C18 H18A 107.3(12)
C19 C18 H18A 107.9(12)
C17 C18 H18B 108.6(13)
C19 C18 H18B 109.7(13)
H18A C18 H18B 110.3(18)
C20 C19 C18 113.54(16)
C20 C19 H19A 108.8(12)
C18 C19 H19A 107.8(12)
C20 C19 H19B 109.4(12)
C18 C19 H19B 110.0(12)
H19A C19 H19B 107.0(17)
C21 C20 C19 113.28(16)
C21 C20 H20A 108.1(12)
C19 C20 H20A 108.3(12)
C21 C20 H20B 112.1(13)
C19 C20 H20B 108.3(13)
H20A C20 H20B 106.3(18)
C20 C21 C22 113.64(16)
C20 C21 H21A 108.6(12)
C22 C21 H21A 107.9(12)
C20 C21 H21B 109.1(12)
C22 C21 H21B 107.9(13)
H21A C21 H21B 109.7(18)
C23 C22 C21 113.26(17)
C23 C22 H22A 109.1(13)
C21 C22 H22A 109.2(13)
C23 C22 H22B 108.7(13)
C21 C22 H22B 110.8(13)
H22A C22 H22B 105.5(19)
C22 C23 C24 113.61(17)
C22 C23 H23A 108.4(12)
C24 C23 H23A 109.8(12)
C22 C23 H23B 108.8(13)
C24 C23 H23B 107.6(13)
H23A C23 H23B 108.4(19)
C25 C24 C23 113.32(17)
C25 C24 H24A 110.4(14)
C23 C24 H24A 110.5(13)
C25 C24 H24B 109.9(13)
C23 C24 H24B 109.2(13)
H24A C24 H24B 103.0(19)
C24 C25 C26 113.65(17)
C24 C25 H25A 109.0(12)
C26 C25 H25A 109.8(12)
C24 C25 H25B 109.1(13)
C26 C25 H25B 109.0(13)
H25A C25 H25B 106.0(18)
C27 C26 C25 113.19(17)
C27 C26 H26A 110.5(13)
C25 C26 H26A 110.1(13)
C27 C26 H26B 108.9(12)
C25 C26 H26B 108.9(12)
H26A C26 H26B 104.9(18)
C26 C27 C28 113.91(17)
C26 C27 H27A 109.1(13)
C28 C27 H27A 109.9(13)
C26 C27 H27B 108.0(13)
C28 C27 H27B 109.8(13)
H27A C27 H27B 105.9(19)
C29 C28 C27 113.29(17)
C29 C28 H28A 111.0(12)
C27 C28 H28A 108.8(12)
C29 C28 H28B 109.9(12)
C27 C28 H28B 109.6(12)
H28A C28 H28B 103.8(17)
C30 C29 C28 113.95(16)
C30 C29 H29A 110.6(13)
C28 C29 H29A 108.0(13)
C30 C29 H29B 109.7(13)
C28 C29 H29B 109.2(13)
H29A C29 H29B 105.0(18)
C29 C30 C31 113.38(16)
C29 C30 H30A 110.7(12)
C31 C30 H30A 109.8(12)
C29 C30 H30B 108.5(12)
C31 C30 H30B 108.3(12)
H30A C30 H30B 105.8(18)
C30 C31 C32 114.12(16)
C30 C31 H31A 106.9(14)
C32 C31 H31A 111.5(13)
C30 C31 H31B 107.2(14)
C32 C31 H31B 108.7(14)
H31A C31 H31B 108(2)
C33 C32 C31 112.85(17)
C33 C32 H32A 111.6(13)
C31 C32 H32A 107.6(13)
C33 C32 H32B 109.6(13)
C31 C32 H32B 109.8(13)
H32A C32 H32B 105.1(19)
C32 C33 H33A 109.8(16)
C32 C33 H33B 112.7(16)
H33A C33 H33B 107(2)
C32 C33 H33C 109.8(16)
H33A C33 H33C 109(2)
H33B C33 H33C 108(2)
loop_
_geom_bond_atom_site_label_1
_geom_bond_atom_site_label_2
_geom_bond_distance
S1 C7 1.7456(17)
S1 C6 1.7536(16)
O1 C8 1.219(2)
N1 C8 1.386(2)
N1 C1 1.423(2)
N1 C16 1.473(2)
C1 C6 1.391(2)
C1 C2 1.402(2)
C2 C3 1.385(2)
C2 H2 0.94(2)
C3 C4 1.378(3)
C3 H3 0.95(2)
C4 C5 1.386(3)
C4 H4 0.94(2)
C5 C6 1.392(2)
C5 H5 0.99(2)
C7 C9 1.351(2)
C7 C8 1.497(2)
C9 C10 1.474(2)
C9 C10A 1.495(2)
C9 H9 0.97(2)
C10 C11 1.3900
C10 C15 1.3900
C11 C12 1.3900
C11 H11 0.9500
C12 C13 1.3900
C12 H12 0.9500
C13 C14 1.3900
C13 H13 0.9500
C14 C15 1.3900
C14 H14 0.9500
C15 H15 0.9500
C10A C11A 1.3900
C10A C15A 1.3900
C11A C12A 1.3900
C11A H11A 0.9500
C12A C13A 1.3900
C12A H12A 0.9500
C13A C14A 1.3900
C13A H13A 0.9500
C14A C15A 1.3900
C14A H14A 0.9500
C15A H15A 0.9500
C16 C17 1.526(2)
C16 H16A 1.01(2)
C16 H16B 0.97(2)
C17 C18 1.521(2)
C17 H17A 0.99(2)
C17 H17B 0.98(2)
C18 C19 1.523(2)
C18 H18A 1.01(2)
C18 H18B 0.98(2)
C19 C20 1.523(2)
C19 H19A 1.00(2)
C19 H19B 0.96(2)
C20 C21 1.522(2)
C20 H20A 1.00(2)
C20 H20B 0.97(2)
C21 C22 1.527(2)
C21 H21A 1.03(2)
C21 H21B 0.99(2)
C22 C23 1.522(3)
C22 H22A 1.00(2)
C22 H22B 1.01(2)
C23 C24 1.525(3)
C23 H23A 1.01(2)
C23 H23B 0.99(2)
C24 C25 1.524(3)
C24 H24A 1.02(2)
C24 H24B 1.00(2)
C25 C26 1.527(3)
C25 H25A 1.02(2)
C25 H25B 1.01(2)
C26 C27 1.524(3)
C26 H26A 1.04(2)
C26 H26B 1.02(2)
C27 C28 1.525(2)
C27 H27A 0.99(2)
C27 H27B 0.99(2)
C28 C29 1.524(3)
C28 H28A 1.00(2)
C28 H28B 1.04(2)
C29 C30 1.524(2)
C29 H29A 1.02(2)
C29 H29B 0.99(2)
C30 C31 1.524(2)
C30 H30A 1.03(2)
C30 H30B 1.01(2)
C31 C32 1.525(2)
C31 H31A 0.98(2)
C31 H31B 1.01(3)
C32 C33 1.519(3)
C32 H32A 1.02(2)
C32 H32B 1.00(2)
C33 H33A 0.97(3)
C33 H33B 0.96(3)
C33 H33C 1.00(3)
loop_
_geom_hbond_atom_site_label_D
_geom_hbond_atom_site_label_H
_geom_hbond_atom_site_label_A
_geom_hbond_site_symmetry_A
_geom_hbond_distance_DH
_geom_hbond_distance_HA
_geom_hbond_distance_DA
_geom_hbond_angle_DHA
C3 H3 O1 4_566 0.95(2) 2.40(2) 3.298(2) 158.0(18)
C9 H9 O1 . 0.97(2) 2.367(19) 2.769(2) 104.1(13)
C11 H11 S1 . 0.95 2.58 3.225(2) 126
C16 H16B O1 . 0.97(2) 2.17(2) 2.679(2) 111.3(15)
loop_
_geom_torsion_atom_site_label_1
_geom_torsion_atom_site_label_2
_geom_torsion_atom_site_label_3
_geom_torsion_atom_site_label_4
_geom_torsion
C8 N1 C1 C6 -24.7(2)
C16 N1 C1 C6 167.07(14)
C8 N1 C1 C2 157.30(16)
C16 N1 C1 C2 -10.9(2)
C6 C1 C2 C3 -2.8(2)
N1 C1 C2 C3 175.29(15)
C1 C2 C3 C4 1.2(3)
C2 C3 C4 C5 1.1(3)
C3 C4 C5 C6 -1.7(3)
C2 C1 C6 C5 2.2(2)
N1 C1 C6 C5 -175.88(15)
C2 C1 C6 S1 -178.72(12)
N1 C1 C6 S1 3.2(2)
C4 C5 C6 C1 0.1(3)
C4 C5 C6 S1 -179.09(14)
C7 S1 C6 C1 25.40(15)
C7 S1 C6 C5 -155.46(13)
C6 S1 C7 C9 146.07(15)
C6 S1 C7 C8 -40.46(14)
C1 N1 C8 O1 -171.61(16)
C16 N1 C8 O1 -3.2(2)
C1 N1 C8 C7 7.2(2)
C16 N1 C8 C7 175.62(14)
C9 C7 C8 O1 21.7(3)
S1 C7 C8 O1 -152.32(15)
C9 C7 C8 N1 -157.19(16)
S1 C7 C8 N1 28.8(2)
C8 C7 C9 C10 -179.2(2)
S1 C7 C9 C10 -5.6(3)
C8 C7 C9 C10A 174.2(2)
S1 C7 C9 C10A -12.3(3)
C7 C9 C10 C11 20.0(4)
C7 C9 C10 C15 -154.1(2)
C15 C10 C11 C12 0.0
C9 C10 C11 C12 -174.0(3)
C10 C11 C12 C13 0.0
C11 C12 C13 C14 0.0
C12 C13 C14 C15 0.0
C13 C14 C15 C10 0.0
C11 C10 C15 C14 0.0
C9 C10 C15 C14 174.3(3)
C7 C9 C10A C11A -15.3(3)
C7 C9 C10A C15A 168.19(19)
C15A C10A C11A C12A 0.0
C9 C10A C11A C12A -176.3(3)
C10A C11A C12A C13A 0.0
C11A C12A C13A C14A 0.0
C12A C13A C14A C15A 0.0
C13A C14A C15A C10A 0.0
C11A C10A C15A C14A 0.0
C9 C10A C15A C14A 176.7(2)
C8 N1 C16 C17 122.78(16)
C1 N1 C16 C17 -68.02(19)
N1 C16 C17 C18 161.52(15)
C16 C17 C18 C19 -174.54(15)
C17 C18 C19 C20 177.06(16)
C18 C19 C20 C21 -177.02(16)
C19 C20 C21 C22 179.56(16)
C20 C21 C22 C23 -179.70(16)
C21 C22 C23 C24 179.97(16)
C22 C23 C24 C25 179.53(16)
C23 C24 C25 C26 179.72(16)
C24 C25 C26 C27 179.20(16)
C25 C26 C27 C28 179.93(16)
C26 C27 C28 C29 178.50(16)
C27 C28 C29 C30 -179.97(16)
C28 C29 C30 C31 179.07(16)
C29 C30 C31 C32 -179.82(17)
C30 C31 C32 C33 179.12(18)

_cod_database_fobs_code 1546660
