#------------------------------------------------------------------------------
#$Date: 2017-09-12 07:05:29 +0300 (Tue, 12 Sep 2017) $
#$Revision: 200745 $
#$URL: file:///home/coder/svn-repositories/cod/cif/1/54/64/1546422.cif $
#------------------------------------------------------------------------------
#
# This file is available in the Crystallography Open Database (COD),
# http://www.crystallography.net/
#
# All data on this site have been placed in the public domain by the
# contributors.
#
data_1546422
loop_
_publ_author_name
'Pan, Dong'
'Wei, Yin'
'Shi, Min'
_publ_section_title
;
 Rh(II)-Catalyzed Chemoselective Oxidative Amination and Cyclization
 Cascade of 1-(Arylethynyl)cycloalkyl)methyl Sulfamates.
;
_journal_issue                   13
_journal_name_full               'Organic letters'
_journal_page_first              3584
_journal_page_last               3587
_journal_paper_doi               10.1021/acs.orglett.7b01558
_journal_volume                  19
_journal_year                    2017
_chemical_formula_sum            'C12 H10 Br N O3 S'
_chemical_formula_weight         328.18
_chemical_name_systematic
; 
 ? 
;
_space_group_crystal_system      triclinic
_space_group_IT_number           2
_space_group_name_Hall           '-P 1'
_space_group_name_H-M_alt        'P -1'
_symmetry_space_group_name_Hall  '-P 1'
_symmetry_space_group_name_H-M   'P -1'
_atom_sites_solution_hydrogens   geom
_audit_creation_method           SHELXL-2013
_cell_angle_alpha                89.100(3)
_cell_angle_beta                 82.956(3)
_cell_angle_gamma                66.053(2)
_cell_formula_units_Z            8
_cell_length_a                   12.1801(15)
_cell_length_b                   14.4847(18)
_cell_length_c                   15.6426(19)
_cell_measurement_reflns_used    2207
_cell_measurement_temperature    293(2)
_cell_measurement_theta_max      46.675
_cell_measurement_theta_min      4.753
_cell_volume                     2501.4(5)
_computing_cell_refinement       'Bruker SMART'
_computing_data_collection       'Bruker SMART'
_computing_data_reduction        'Bruker SHELXTL'
_computing_molecular_graphics    'Bruker SHELXTL'
_computing_publication_material  'Bruker SHELXTL'
_computing_structure_refinement  'SHELXL-2013 (Sheldrick, 2013)'
_computing_structure_solution    'Bruker SHELXTL'
_diffrn_ambient_temperature      293(2)
_diffrn_measured_fraction_theta_full 0.999
_diffrn_measured_fraction_theta_max 0.999
_diffrn_measurement_device_type  'CCD area detector'
_diffrn_measurement_method       'phi and omega scans'
_diffrn_radiation_type           MoK\a
_diffrn_radiation_wavelength     0.71073
_diffrn_reflns_av_R_equivalents  0.0326
_diffrn_reflns_av_unetI/netI     0.0770
_diffrn_reflns_Laue_measured_fraction_full 0.999
_diffrn_reflns_Laue_measured_fraction_max 0.999
_diffrn_reflns_limit_h_max       14
_diffrn_reflns_limit_h_min       -10
_diffrn_reflns_limit_k_max       17
_diffrn_reflns_limit_k_min       -17
_diffrn_reflns_limit_l_max       18
_diffrn_reflns_limit_l_min       -18
_diffrn_reflns_number            14515
_diffrn_reflns_point_group_measured_fraction_full 0.999
_diffrn_reflns_point_group_measured_fraction_max 0.999
_diffrn_reflns_theta_full        25.242
_diffrn_reflns_theta_max         25.500
_diffrn_reflns_theta_min         1.313
_exptl_absorpt_coefficient_mu    3.452
_exptl_absorpt_correction_T_max  0.7456
_exptl_absorpt_correction_T_min  0.4881
_exptl_absorpt_correction_type   multi-scan
_exptl_absorpt_process_details   sadabs
_exptl_crystal_colour            colorless
_exptl_crystal_density_diffrn    1.743
_exptl_crystal_description       prismatic
_exptl_crystal_F_000             1312
_exptl_crystal_size_max          0.200
_exptl_crystal_size_mid          0.160
_exptl_crystal_size_min          0.130
_refine_diff_density_max         0.477
_refine_diff_density_min         -0.324
_refine_diff_density_rms         0.077
_refine_ls_extinction_method     none
_refine_ls_goodness_of_fit_ref   1.007
_refine_ls_hydrogen_treatment    constr
_refine_ls_matrix_type           full
_refine_ls_number_parameters     649
_refine_ls_number_reflns         9299
_refine_ls_number_restraints     0
_refine_ls_restrained_S_all      1.007
_refine_ls_R_factor_all          0.0965
_refine_ls_R_factor_gt           0.0495
_refine_ls_shift/su_max          0.000
_refine_ls_shift/su_mean         0.000
_refine_ls_structure_factor_coef Fsqd
_refine_ls_weighting_details
'w=1/[\s^2^(Fo^2^)+(0.0496P)^2^+0.1622P] where P=(Fo^2^+2Fc^2^)/3'
_refine_ls_weighting_scheme      calc
_refine_ls_wR_factor_gt          0.1080
_refine_ls_wR_factor_ref         0.1284
_reflns_Friedel_coverage         0.000
_reflns_number_gt                5604
_reflns_number_total             9299
_reflns_threshold_expression     'I > 2\s(I)'
_cod_data_source_file            ol7b01558_si_003.cif
_cod_data_source_block           cd16591
_cod_depositor_comments
'Adding full bibliography for 1546422--1546423.cif.'
_cod_database_code               1546422
_shelx_space_group_comment
; 
The symmetry employed for this shelxl refinement is uniquely defined 
by the following loop, which should always be used as a source of 
symmetry information in preference to the above space-group names. 
They are only intended as comments. 
;
_shelx_estimated_absorpt_t_min   0.545
_shelx_estimated_absorpt_t_max   0.662
_shelxl_version_number           2013-4
_shelx_res_file
; 
TITL cd16591 in P-1 
CELL 0.71073  12.1801  14.4847  15.6426  89.100  82.956  66.053 
ZERR    8.00   0.0015   0.0018   0.0019   0.003   0.003   0.002 
LATT 1 
SFAC C  H  N  O  S  Br 
UNIT 96 80 8 24 8 8 
OMIT  -3.00  51.00 
L.S. 10 
ACTA 
BOND $H 
FMAP 2 
PLAN 20 
conf 
htab 
mpla c43 > c48 
mpla c38 > c41 
mpla c31 > c36 
mpla c26 > c29 
mpla c19 > c24 
mpla c14 > c17 
mpla c7 > c12 
mpla c2 > c5 
wpdb -1 
size 0.20 0.16 0.13 
WGHT    0.049600    0.162200 
FVAR       0.06879 
MOLE 1 
BR1   6   -0.437430    0.823028    0.161189    11.00000    0.03659    0.07380 = 
         0.08545   -0.00488    0.00320   -0.02727 
BR2   6   -0.471923    0.858374    0.913259    11.00000    0.03856    0.08579 = 
         0.08407    0.00108   -0.00138   -0.02725 
BR3   6   -0.445477    0.344049    0.673452    11.00000    0.03069    0.08492 = 
         0.09617    0.00859    0.00088   -0.02259 
MOLE 2 
BR4   6   -0.455393    0.324326    0.417710    11.00000    0.04475    0.10892 = 
         0.09457    0.01137   -0.00960   -0.04657 
MOLE 1 
S1    5    0.235703    0.855781    0.065095    11.00000    0.04925    0.04237 = 
         0.05869   -0.00002   -0.00014   -0.02894 
S2    5    0.275978    0.533573    0.884598    11.00000    0.04256    0.03234 = 
         0.06061   -0.00332   -0.00594   -0.01105 
S3    5    0.306032    0.029547    0.565472    11.00000    0.03537    0.02689 = 
         0.06553    0.00130    0.00634   -0.00512 
MOLE 2 
S4    5    0.210142    0.367430    0.387397    11.00000    0.04128    0.03693 = 
         0.05991    0.00912   -0.01157   -0.02109 
MOLE 1 
N1    3    0.108296    0.842063    0.079563    11.00000    0.03958    0.03759 = 
         0.05650    0.00553   -0.00101   -0.01773 
N2    3    0.133449    0.607643    0.897796    11.00000    0.04078    0.03337 = 
         0.05530   -0.00170   -0.00398   -0.01570 
N3    3    0.159801    0.097552    0.580256    11.00000    0.03596    0.03021 = 
         0.06248    0.00305    0.00117   -0.01025 
MOLE 2 
N4    3    0.086453    0.348468    0.398161    11.00000    0.03206    0.03068 = 
         0.07621    0.00562   -0.01322   -0.01362 
MOLE 1 
O1    4    0.338509    0.754680    0.023444    11.00000    0.04295    0.04312 = 
         0.07031    0.00166    0.00381   -0.02353 
O2    4    0.264663    0.875912    0.144944    11.00000    0.07162    0.07371 = 
         0.05840   -0.00984   -0.00581   -0.04656 
O3    4    0.222700    0.926103   -0.001363    11.00000    0.07052    0.05012 = 
         0.07292    0.00819    0.00051   -0.03861 
O4    4    0.354246    0.593298    0.903012    11.00000    0.04401    0.04390 = 
         0.06759    0.00116   -0.00864   -0.01622 
O5    4    0.295937    0.464540    0.952143    11.00000    0.06026    0.04094 = 
         0.09366    0.01600   -0.02224   -0.01649 
MOLE 2 
O6    4    0.307264    0.496779    0.797709    11.00000    0.05678    0.05677 = 
         0.07951   -0.02039   -0.00054   -0.01290 
MOLE 1 
O7    4    0.373126    0.094964    0.523581    11.00000    0.03935    0.03865 = 
         0.05293   -0.00127    0.00969   -0.01409 
O8    4    0.344354   -0.002780    0.645932    11.00000    0.05687    0.06131 = 
         0.05330    0.02455   -0.00152   -0.00529 
O9    4    0.326047   -0.042939    0.498486    11.00000    0.05534    0.03859 = 
         0.08302   -0.01331    0.01320   -0.01506 
MOLE 2 
O10   4    0.320057    0.268250    0.406888    11.00000    0.03416    0.04323 = 
         0.06547    0.00819   -0.01565   -0.01488 
O11   4    0.196410    0.435918    0.456600    11.00000    0.06115    0.04693 = 
         0.08408   -0.00208   -0.01988   -0.03131 
O12   4    0.231981    0.392853    0.302714    11.00000    0.06849    0.06583 = 
         0.06250    0.02275   -0.01299   -0.03737 
MOLE 1 
C1    1    0.396526    0.672543    0.078647    11.00000    0.04240    0.05156 = 
         0.07561    0.00185   -0.00627   -0.01976 
AFIX  23 
H1A   2    0.423529    0.697328    0.125642    11.00000   -1.20000 
H1B   2    0.466833    0.620715    0.045977    11.00000   -1.20000 
AFIX   0 
C2    1    0.311675    0.629866    0.112988    11.00000    0.03584    0.03910 = 
         0.05619   -0.00494   -0.00558   -0.01427 
MOLE 2 
C3    1    0.327295    0.529570    0.152225    11.00000    0.04394    0.03685 = 
         0.08224    0.00730   -0.01117   -0.01097 
AFIX  23 
H3A   2    0.359779    0.519188    0.206886    11.00000   -1.20000 
H3B   2    0.370498    0.471426    0.112947    11.00000   -1.20000 
AFIX   0 
C4    1    0.187904    0.567939    0.160658    11.00000    0.03899    0.03995 = 
         0.07504    0.01420   -0.00320   -0.01415 
AFIX  23 
H4A   2    0.159130    0.529979    0.125495    11.00000   -1.20000 
H4B   2    0.148405    0.577721    0.219574    11.00000   -1.20000 
AFIX   0 
MOLE 1 
C5    1    0.190554    0.664153    0.119998    11.00000    0.03972    0.03339 = 
         0.04581    0.00345   -0.00470   -0.01803 
C6    1    0.095230    0.760660    0.103735    11.00000    0.03670    0.03106 = 
         0.04069   -0.00173    0.00041   -0.01472 
C7    1   -0.032656    0.772336    0.120585    11.00000    0.03331    0.03426 = 
         0.04821    0.00403   -0.00608   -0.01530 
C8    1   -0.066703    0.696185    0.098205    11.00000    0.04148    0.03179 = 
         0.06148   -0.00212   -0.00238   -0.01585 
AFIX  43 
H8    2   -0.008219    0.634665    0.074976    11.00000   -1.20000 
AFIX   0 
C9    1   -0.186769    0.711615    0.110344    11.00000    0.04582    0.03867 = 
         0.05915    0.00401   -0.00512   -0.02556 
AFIX  43 
H9    2   -0.209570    0.660896    0.094673    11.00000   -1.20000 
AFIX   0 
C10   1   -0.272235    0.801331    0.145365    11.00000    0.03598    0.04517 = 
         0.03976    0.00706   -0.00115   -0.01941 
C11   1   -0.241658    0.878257    0.168883    11.00000    0.03949    0.04048 = 
         0.05352   -0.00680    0.00357   -0.01502 
AFIX  43 
H11   2   -0.301124    0.938985    0.192790    11.00000   -1.20000 
AFIX   0 
C12   1   -0.121717    0.863986    0.156495    11.00000    0.04158    0.03614 = 
         0.06982   -0.00430   -0.00180   -0.02030 
AFIX  43 
H12   2   -0.099940    0.915361    0.172030    11.00000   -1.20000 
AFIX   0 
C13   1    0.374394    0.658500    0.834687    11.00000    0.04148    0.04393 = 
         0.09243    0.00641   -0.00265   -0.01928 
AFIX  23 
H13A  2    0.436795    0.679597    0.847696    11.00000   -1.20000 
H13B  2    0.401578    0.620906    0.779839    11.00000   -1.20000 
AFIX   0 
C14   1    0.261620    0.747545    0.828984    11.00000    0.03845    0.04188 = 
         0.05911    0.00007   -0.00586   -0.01881 
C15   1    0.237794    0.851972    0.798459    11.00000    0.05225    0.04772 = 
         0.05486    0.01077   -0.00883   -0.02827 
AFIX  23 
H15A  2    0.261037    0.854718    0.737217    11.00000   -1.20000 
H15B  2    0.268406    0.889738    0.832264    11.00000   -1.20000 
AFIX   0 
C16   1    0.101915    0.875827    0.823726    11.00000    0.04734    0.04451 = 
         0.08999    0.02154   -0.02456   -0.02486 
AFIX  23 
H16A  2    0.062688    0.925238    0.871054    11.00000   -1.20000 
H16B  2    0.054882    0.891637    0.775612    11.00000   -1.20000 
AFIX   0 
C17   1    0.144117    0.766058    0.850272    11.00000    0.04167    0.03347 = 
         0.04886    0.00305   -0.00762   -0.01929 
C18   1    0.081774    0.701754    0.879733    11.00000    0.04347    0.03682 = 
         0.03990   -0.00436   -0.00305   -0.01886 
C19   1   -0.051972    0.742905    0.886846    11.00000    0.03524    0.03224 = 
         0.04824    0.00581   -0.00411   -0.01473 
C20   1   -0.106056    0.680075    0.864974    11.00000    0.05354    0.04087 = 
         0.05378   -0.00636   -0.00451   -0.02377 
AFIX  43 
H20   2   -0.057788    0.613993    0.845261    11.00000   -1.20000 
AFIX   0 
C21   1   -0.229499    0.714209    0.872073    11.00000    0.05003    0.05609 = 
         0.06106   -0.00568   -0.00760   -0.03273 
AFIX  43 
H21   2   -0.264920    0.672147    0.856045    11.00000   -1.20000 
AFIX   0 
C22   1   -0.300838    0.811485    0.903193    11.00000    0.03541    0.04792 = 
         0.05665    0.00321   -0.00730   -0.01847 
C23   1   -0.249537    0.874918    0.925285    11.00000    0.03905    0.03476 = 
         0.06991   -0.00232   -0.00366   -0.01080 
AFIX  43 
H23   2   -0.298211    0.940328    0.946499    11.00000   -1.20000 
AFIX   0 
C24   1   -0.125059    0.840731    0.915724    11.00000    0.04951    0.03972 = 
         0.05303    0.00118   -0.00712   -0.02400 
AFIX  43 
H24   2   -0.090010    0.884189    0.928916    11.00000   -1.20000 
AFIX   0 
C25   1    0.395717    0.161584    0.581480    11.00000    0.02983    0.04575 = 
         0.08175   -0.00581   -0.00649   -0.01434 
AFIX  23 
H25A  2    0.449701    0.188440    0.550595    11.00000   -1.20000 
H25B  2    0.434729    0.123447    0.628870    11.00000   -1.20000 
AFIX   0 
C26   1    0.280436    0.245957    0.615709    11.00000    0.02899    0.03979 = 
         0.05114    0.00593   -0.00621   -0.01315 
MOLE 2 
C27   1    0.253494    0.348403    0.652480    11.00000    0.04421    0.04303 = 
         0.06290   -0.00362   -0.00317   -0.02052 
AFIX  23 
H27A  2    0.277349    0.391120    0.612871    11.00000   -1.20000 
H27B  2    0.281388    0.348075    0.708009    11.00000   -1.20000 
AFIX   0 
C28   1    0.117062    0.367109    0.657720    11.00000    0.03681    0.03911 = 
         0.05436   -0.00875    0.00518   -0.01507 
AFIX  23 
H28A  2    0.074768    0.377336    0.715826    11.00000   -1.20000 
H28B  2    0.071468    0.418259    0.619862    11.00000   -1.20000 
AFIX   0 
MOLE 1 
C29   1    0.164825    0.259209    0.621220    11.00000    0.03353    0.02594 = 
         0.04157    0.00396   -0.00066   -0.00911 
C30   1    0.106808    0.192185    0.604994    11.00000    0.03458    0.03146 = 
         0.03244    0.00281    0.00694   -0.01164 
C31   1   -0.026058    0.230671    0.621467    11.00000    0.03672    0.03046 = 
         0.03442    0.00052    0.00159   -0.01289 
C32   1   -0.079972    0.167568    0.653755    11.00000    0.03785    0.03162 = 
         0.06761    0.00829   -0.00120   -0.01275 
AFIX  43 
H32   2   -0.031385    0.101195    0.665151    11.00000   -1.20000 
AFIX   0 
C33   1   -0.203792    0.200796    0.669372    11.00000    0.04288    0.04177 = 
         0.07071    0.00208    0.00298   -0.02389 
AFIX  43 
H33   2   -0.238716    0.158438    0.693487    11.00000   -1.20000 
AFIX   0 
C34   1   -0.274777    0.296986    0.648933    11.00000    0.01958    0.04770 = 
         0.05825   -0.00371    0.00505   -0.01364 
C35   1   -0.225386    0.361153    0.615428    11.00000    0.03445    0.03461 = 
         0.05007    0.00244    0.00019   -0.00937 
AFIX  43 
H35   2   -0.274818    0.426316    0.601541    11.00000   -1.20000 
AFIX   0 
C36   1   -0.101498    0.328046    0.602510    11.00000    0.03826    0.03362 = 
         0.04481    0.00216   -0.00014   -0.01910 
AFIX  43 
H36   2   -0.067499    0.371913    0.580569    11.00000   -1.20000 
AFIX   0 
MOLE 2 
C37   1    0.374785    0.189661    0.340534    11.00000    0.03631    0.05321 = 
         0.05710    0.00248    0.00600   -0.01325 
AFIX  23 
H37A  2    0.450583    0.139976    0.356199    11.00000   -1.20000 
H37B  2    0.392187    0.218296    0.286771    11.00000   -1.20000 
AFIX   0 
C38   1    0.292662    0.140388    0.329063    11.00000    0.03743    0.04032 = 
         0.04066    0.00477   -0.00663   -0.01037 
C39   1    0.315613    0.036828    0.295316    11.00000    0.04714    0.04888 = 
         0.05882   -0.00255   -0.00549   -0.00684 
AFIX  23 
H39A  2    0.364191   -0.017984    0.329047    11.00000   -1.20000 
H39B  2    0.344883    0.024551    0.234273    11.00000   -1.20000 
AFIX   0 
C40   1    0.177713    0.069582    0.317296    11.00000    0.04705    0.04093 = 
         0.07735   -0.01124   -0.01264   -0.01312 
AFIX  23 
H40A  2    0.135640    0.073523    0.267671    11.00000   -1.20000 
H40B  2    0.154808    0.032054    0.362737    11.00000   -1.20000 
AFIX   0 
C41   1    0.174043    0.170032    0.347419    11.00000    0.03461    0.02870 = 
         0.05385    0.00388   -0.01096   -0.00949 
C42   1    0.076074    0.265570    0.378432    11.00000    0.03169    0.02982 = 
         0.05037    0.00727   -0.01134   -0.01278 
C43   1   -0.050610    0.275531    0.386681    11.00000    0.03645    0.03111 = 
         0.05186   -0.00008   -0.01063   -0.01545 
C44   1   -0.085044    0.199572    0.416217    11.00000    0.05360    0.04031 = 
         0.04826    0.00505   -0.00812   -0.02350 
AFIX  43 
H44   2   -0.026729    0.137989    0.430116    11.00000   -1.20000 
AFIX   0 
C45   1   -0.204608    0.214286    0.425204    11.00000    0.06125    0.05755 = 
         0.05064    0.00296   -0.00297   -0.04065 
AFIX  43 
H45   2   -0.226406    0.162088    0.443936    11.00000   -1.20000 
AFIX   0 
C46   1   -0.290981    0.304078    0.407041    11.00000    0.04025    0.06670 = 
         0.04325    0.00502   -0.00493   -0.03300 
C47   1   -0.261265    0.382005    0.379615    11.00000    0.03351    0.04811 = 
         0.08711    0.01423   -0.01736   -0.01646 
AFIX  43 
H47   2   -0.321299    0.444040    0.368540    11.00000   -1.20000 
AFIX   0 
C48   1   -0.140525    0.367541    0.368476    11.00000    0.04347    0.03745 = 
         0.08763    0.01023   -0.01573   -0.02129 
AFIX  43 
H48   2   -0.119505    0.419795    0.348669    11.00000   -1.20000 
AFIX   0 
HKLF 4 
  
REM  cd16591 in P-1 
REM R1 =  0.0495 for    5604 Fo > 4sig(Fo)  and  0.0965 for all    9299 data 
REM    649 parameters refined using      0 restraints 
  
END 
  
WGHT      0.0492      0.1481 
  
REM Instructions for potential hydrogen bonds 
EQIV $1 x+1, y, z 
HTAB C1 Br1_$1 
EQIV $2 -x+1, -y+1, -z+1 
HTAB C1 O5_$2 
EQIV $3 -x, -y+1, -z+1 
HTAB C9 O5_$3 
HTAB C11 O8_$3 
HTAB C21 O12_$3 
EQIV $4 -x, -y+2, -z+1 
HTAB C23 O3_$4 
HTAB C33 O2_$3 
HTAB C35 O11_$3 
EQIV $5 -x+1, -y, -z+1 
HTAB C37 O8_$5 
EQIV $6 -x, -y, -z+1 
HTAB C45 O9_$6 
  
REM Highest difference peak  0.477,  deepest hole -0.324,  1-sigma level  0.077 
Q1    1  -0.4158  0.2851  0.6847  11.00000  0.05    0.48 
Q2    1  -0.4643  0.3876  0.4469  11.00000  0.05    0.46 
Q3    1  -0.4434  0.8910  0.1779  11.00000  0.05    0.46 
Q4    1  -0.4414  0.8022  0.9314  11.00000  0.05    0.41 
Q5    1  -0.4068  0.7449  0.1404  11.00000  0.05    0.39 
Q6    1  -0.4366  0.3601  0.6167  11.00000  0.05    0.39 
Q7    1   0.3243 -0.0382  0.5465  11.00000  0.05    0.38 
Q8    1  -0.4441  0.8939  0.9307  11.00000  0.05    0.38 
Q9    1   0.3400 -0.0012  0.6841  11.00000  0.05    0.35 
Q10   1  -0.2753  0.3281  0.3677  11.00000  0.05    0.33 
Q11   1   0.2616  0.3589  0.6067  11.00000  0.05    0.33 
Q12   1  -0.4267  0.3700  0.6885  11.00000  0.05    0.31 
Q13   1  -0.2190  0.2114  0.4572  11.00000  0.05    0.30 
Q14   1  -0.2646  0.8336  0.1927  11.00000  0.05    0.30 
Q15   1   0.3382  0.2800  0.4428  11.00000  0.05    0.30 
Q16   1   0.4830  0.1823  0.3194  11.00000  0.05    0.29 
Q17   1   0.3311  0.4139  0.8437  11.00000  0.05    0.29 
Q18   1   0.3635 -0.0087  0.6046  11.00000  0.05    0.28 
Q19   1  -0.4633  0.4159  0.6919  11.00000  0.05    0.28 
Q20   1   0.3562  0.0897  0.5512  11.00000  0.05    0.28 
;
_shelx_res_checksum              99768
_shelx_hkl_file
; 
   1   0   0   77.94    3.38 
   2   0   0   88.05    4.30 
   2   0   0   92.22    3.91 
   3   0   0   36.67    1.69 
   3   0   0   38.92    1.84 
   4   0   0   26.07    1.20 
   4   0   0   25.90    1.29 
   5   0   0   39.78    1.95 
   5   0   0   39.32    1.80 
   6   0   0   25.46    1.21 
   6   0   0   25.31    1.30 
   7   0   0    7.48    0.50 
   7   0   0    8.94    0.52 
   8   0   0   28.34    1.34 
   8   0   0   26.56    1.43 
   9   0   0   26.97    1.36 
   9   0   0   27.36    1.45 
  10   0   0    7.22    0.53 
  10   0   0    6.69    0.53 
  11   0   0   10.24    0.71 
  11   0   0   10.13    0.69 
  12   0   0    5.94    0.54 
  13   0   0    1.75    0.39 
  14   0   0    0.41    0.36 
  14  -1   0    1.76    0.44 
  13  -1   0    1.56    0.39 
  12  -1   0    0.06    0.28 
  11  -1   0    0.28    0.27 
  10  -1   0    0.36    0.26 
  10  -1   0    0.09    0.24 
   9  -1   0    1.86    0.32 
   9  -1   0    1.37    0.25 
   8  -1   0    5.63    0.44 
   8  -1   0    5.11    0.40 
   7  -1   0   -0.12    0.16 
   7  -1   0    0.18    0.15 
   6  -1   0    4.24    0.34 
   6  -1   0    3.93    0.30 
   5  -1   0    7.06    0.42 
   5  -1   0    6.76    0.43 
   4  -1   0    0.75    0.14 
   4  -1   0    0.45    0.10 
   3  -1   0    0.21    0.06 
   3  -1   0    0.14    0.10 
   2  -1   0    3.98    0.25 
   1  -1   0    2.07    0.16 
   0  -1   0   -0.33    0.02 
   0   1   0   -0.38    0.01 
   0   1   0   -0.17    0.03 
   1   1   0    0.79    0.05 
   1   1   0    0.86    0.07 
   2   1   0    0.08    0.04 
   2   1   0    0.03    0.05 
   3   1   0    1.41    0.15 
   3   1   0    1.45    0.14 
   4   1   0    0.68    0.10 
   4   1   0    0.50    0.10 
   5   1   0    0.86    0.13 
   5   1   0    0.55    0.12 
   6   1   0    0.60    0.14 
   6   1   0    0.29    0.13 
   7   1   0    2.88    0.26 
   7   1   0    2.10    0.24 
   8   1   0   -0.06    0.14 
   8   1   0    0.16    0.15 
   9   1   0    0.66    0.20 
   9   1   0    0.72    0.22 
  10   1   0    0.88    0.26 
  10   1   0    0.38    0.24 
  11   1   0    6.43    0.53 
  11   1   0    6.39    0.52 
  12   1   0    4.55    0.48 
  12   1   0    4.49    0.47 
  13   1   0    0.21    0.29 
  14   1   0    0.13    0.33 
  15   1   0    0.78    0.41 
  13  -2   0    1.16    0.39 
  12  -2   0    2.12    0.42 
  11  -2   0    3.47    0.44 
  10  -2   0    0.03    0.25 
  10  -2   0    0.18    0.25 
   9  -2   0    0.26    0.18 
   9  -2   0   -0.11    0.22 
   8  -2   0    1.52    0.23 
   8  -2   0    1.48    0.29 
   7  -2   0   24.91    1.32 
   7  -2   0   26.16    1.28 
   6  -2   0   22.30    1.19 
   6  -2   0   24.08    1.16 
   5  -2   0    5.99    0.40 
   5  -2   0    8.96    0.47 
   4  -2   0   88.39    3.91 
   3  -2   0  367.38   15.87 
   2  -2   0  541.99   23.34 
   1  -2   0   26.93    1.21 
  -1   2   0   27.23    1.23 
   0  -2   0  259.79   11.33 
   0   2   0  269.05   12.50 
   0   2   0  259.70   11.52 
   1   2   0   81.58    3.91 
   2   2   0   22.90    0.99 
   2   2   0   21.64    1.11 
   3   2   0   58.72    2.53 
   3   2   0   57.70    2.81 
   4   2   0   90.53    3.94 
   4   2   0   90.55    4.35 
   5   2   0   32.04    1.42 
   5   2   0   30.69    1.57 
   6   2   0  362.28   15.58 
   6   2   0  359.30   17.17 
   7   2   0   79.73    3.85 
   7   2   0   77.98    3.49 
   8   2   0    5.86    0.39 
   8   2   0    5.54    0.42 
   9   2   0   31.88    1.65 
   9   2   0   31.26    1.51 
  10   2   0   23.72    1.12 
  10   2   0   19.77    1.20 
  11   2   0    3.41    0.41 
  11   2   0    3.68    0.39 
  12   2   0    0.39    0.31 
  12   2   0    0.85    0.29 
  13   2   0    2.18    0.39 
  13   2   0    1.55    0.36 
  14   2   0    1.15    0.39 
  13  -3   0    1.05    0.40 
  12  -3   0    1.40    0.38 
  11  -3   0    1.85    0.39 
  10  -3   0    0.77    0.32 
   9  -3   0    3.18    0.42 
   8  -3   0   11.28    0.74 
   7  -3   0    0.42    0.23 
   7  -3   0    0.18    0.10 
   6  -3   0    0.94    0.22 
   6  -3   0    0.33    0.10 
   5  -3   0    0.26    0.18 
   4  -3   0   10.07    0.57 
   3  -3   0    1.65    0.21 
   2  -3   0    5.67    0.34 
   1  -3   0    0.45    0.10 
  -1   3   0    0.36    0.09 
   0  -3   0   -0.01    0.06 
   0   3   0    0.01    0.06 
   0   3   0   -0.04    0.06 
  -1  -3   0    0.22    0.04 
   1   3   0    0.15    0.04 
   1   3   0    0.40    0.08 
   2   3   0    0.29    0.05 
   2   3   0    0.08    0.06 
   3   3   0    0.12    0.05 
   3   3   0    0.05    0.06 
   4   3   0    0.22    0.06 
   4   3   0    0.08    0.08 
   5   3   0    1.59    0.14 
   5   3   0    1.25    0.17 
   6   3   0    1.46    0.19 
   6   3   0    1.29    0.15 
   7   3   0    3.70    0.31 
   7   3   0    3.57    0.27 
   8   3   0    3.88    0.35 
   8   3   0    4.76    0.33 
   9   3   0    5.63    0.45 
   9   3   0    5.52    0.39 
  10   3   0    0.33    0.23 
  10   3   0   -0.03    0.15 
  11   3   0    0.67    0.28 
  11   3   0    0.76    0.25 
  12   3   0    0.49    0.30 
  12   3   0    0.69    0.27 
  13   3   0    0.63    0.34 
  13   3   0    0.55    0.31 
  14   3   0   -0.21    0.31 
  13  -4   0   -0.26    0.37 
  12  -4   0    0.36    0.36 
  11  -4   0    0.40    0.34 
  10  -4   0    0.65    0.34 
   9  -4   0   11.25    0.78 
   8  -4   0   -0.19    0.24 
   8  -4   0    0.19    0.10 
   7  -4   0    4.06    0.44 
   6  -4   0   50.64    2.38 
   5  -4   0   62.67    2.87 
   4  -4   0   24.21    1.20 
   3  -4   0   12.67    0.68 
   2  -4   0   20.35    0.96 
  -2   4   0   19.51    0.96 
   1  -4   0   16.95    0.80 
  -1   4   0   16.90    0.85 
  -1   4   0   15.70    0.80 
   0  -4   0  140.91    6.00 
   0   4   0  137.25    6.61 
   0   4   0  136.45    6.09 
  -1  -4   0   33.07    1.46 
   1   4   0   33.55    1.49 
   1   4   0   32.49    1.64 
   2   4   0  193.19    9.22 
   3   4   0  564.97   26.96 
   3   4   0  571.14   24.44 
   4   4   0  207.76    9.76 
   4   4   0  200.92    8.81 
   5   4   0   43.16    1.87 
   5   4   0   41.11    2.09 
   6   4   0    4.43    0.27 
   6   4   0    4.33    0.34 
   7   4   0   31.96    1.46 
   7   4   0   31.88    1.64 
   8   4   0   18.88    0.92 
   8   4   0   19.02    1.05 
   9   4   0    9.88    0.67 
   9   4   0   11.07    0.60 
  10   4   0    7.58    0.50 
  10   4   0    8.33    0.60 
  11   4   0    5.52    0.51 
  11   4   0    5.52    0.44 
  12   4   0   15.40    0.88 
  12   4   0   14.98    0.97 
  13   4   0   14.47    0.97 
  13   4   0   14.19    0.88 
  14   4   0    5.05    0.57 
  12  -5   0    0.57    0.40 
  11  -5   0    2.01    0.46 
  10  -5   0    0.92    0.40 
   9  -5   0   -0.14    0.30 
   8  -5   0   -0.04    0.26 
   7  -5   0    0.73    0.18 
   7  -5   0    1.02    0.31 
   6  -5   0    0.35    0.26 
   5  -5   0    2.97    0.35 
   4  -5   0    4.11    0.38 
   3  -5   0    0.54    0.18 
   2  -5   0    1.96    0.23 
  -2   5   0    2.56    0.24 
   1  -5   0    2.94    0.24 
  -1   5   0    2.66    0.23 
  -1   5   0    3.11    0.24 
   0  -5   0    0.66    0.12 
   0   5   0    0.58    0.12 
   0   5   0    0.67    0.12 
  -1  -5   0    0.11    0.07 
   1   5   0    0.09    0.08 
   1   5   0   -0.04    0.07 
  -2  -5   0   -0.02    0.03 
   2   5   0    0.16    0.10 
   2   5   0   -0.03    0.03 
  -3  -5   0    0.86    0.08 
   3   5   0    0.90    0.14 
   4   5   0    8.02    0.39 
   4   5   0    8.03    0.49 
   5   5   0    1.69    0.21 
   5   5   0    2.05    0.15 
   6   5   0    2.69    0.19 
   6   5   0    2.60    0.26 
   7   5   0    1.37    0.22 
   7   5   0    1.55    0.16 
   8   5   0    0.85    0.15 
   8   5   0    0.94    0.21 
   9   5   0    7.98    0.47 
   9   5   0    8.04    0.58 
  10   5   0    0.42    0.17 
  10   5   0    0.16    0.22 
  11   5   0    0.12    0.25 
  11   5   0    0.25    0.18 
  12   5   0    0.36    0.23 
  12   5   0   -0.06    0.27 
  13   5   0   -0.22    0.29 
  14   5   0    1.78    0.42 
  15   5   0    1.88    0.47 
  11  -6   0    1.74    0.47 
  10  -6   0   -0.03    0.33 
   9  -6   0    1.05    0.39 
   8  -6   0    0.47    0.34 
   7  -6   0    0.58    0.19 
   7  -6   0    0.32    0.32 
   6  -6   0    6.81    0.60 
   5  -6   0    0.12    0.24 
   4  -6   0   11.48    0.71 
   3  -6   0   32.67    1.57 
   2  -6   0   14.59    0.73 
  -2   6   0   12.32    0.71 
   1  -6   0   48.75    2.19 
  -1   6   0   48.14    2.22 
  -1   6   0   47.93    2.39 
   0  -6   0  124.30    5.28 
   0   6   0  120.28    5.36 
   0   6   0  117.69    5.82 
  -1  -6   0  141.53    6.08 
   1   6   0  141.18    6.18 
   1   6   0  136.64    6.72 
  -2  -6   0   50.21    2.13 
   2   6   0   43.49    2.16 
   2   6   0   51.84    2.40 
  -3  -6   0    2.01    0.15 
   3   6   0    3.50    0.26 
   4   6   0    0.85    0.10 
   4   6   0    0.82    0.16 
   5   6   0   33.89    1.77 
   5   6   0   35.70    1.56 
   6   6   0   26.50    1.19 
   6   6   0   25.88    1.37 
   7   6   0   56.49    2.80 
   7   6   0   55.80    2.48 
   8   6   0   40.00    2.01 
   8   6   0   38.04    1.76 
   9   6   0   62.77    2.80 
   9   6   0   63.07    3.15 
  10   6   0   10.43    0.60 
  10   6   0   11.31    0.74 
  11   6   0   14.89    0.91 
  11   6   0   13.91    0.77 
  12   6   0   16.01    1.00 
  13   6   0    7.50    0.66 
  14   6   0    1.08    0.40 
  15   6   0    0.22    0.37 
  11  -7   0    0.28    0.42 
  10  -7   0    0.78    0.43 
   9  -7   0    2.56    0.49 
   8  -7   0    1.65    0.42 
   7  -7   0    0.41    0.32 
   6  -7   0    0.50    0.30 
   5  -7   0    8.48    0.65 
   4  -7   0    5.77    0.51 
   3  -7   0   -0.05    0.20 
   2  -7   0    0.27    0.19 
  -2   7   0    0.42    0.17 
   1  -7   0    0.35    0.16 
  -1   7   0    0.40    0.17 
  -1   7   0    0.63    0.16 
   0  -7   0    0.30    0.13 
   0   7   0    0.24    0.13 
   0   7   0    0.22    0.13 
  -1  -7   0    0.20    0.11 
   1   7   0    0.11    0.11 
   1   7   0    0.03    0.12 
  -2  -7   0    0.41    0.11 
   2   7   0    0.26    0.14 
   2   7   0    0.35    0.11 
  -3  -7   0    0.05    0.03 
   3   7   0    0.04    0.03 
   3   7   0    0.33    0.14 
  -4  -7   0    0.25    0.08 
   4   7   0    0.36    0.15 
   4   7   0    0.37    0.10 
   5   7   0   -0.01    0.07 
   5   7   0   -0.11    0.13 
   6   7   0    0.87    0.12 
   6   7   0    0.63    0.18 
   7   7   0    0.03    0.15 
   7   7   0    0.10    0.10 
   8   7   0    0.10    0.17 
   8   7   0    0.27    0.12 
   9   7   0    0.32    0.23 
   9   7   0    0.00    0.12 
  10   7   0    5.05    0.49 
  10   7   0    5.62    0.37 
  11   7   0   -0.09    0.24 
  11   7   0    0.08    0.15 
  12   7   0    1.43    0.37 
  13   7   0    0.01    0.33 
  14   7   0    0.70    0.37 
  15   7   0   -0.05    0.37 
  16   7   0    1.31    0.46 
  10  -8   0    0.02    0.40 
   9  -8   0    0.71    0.43 
   8  -8   0    1.56    0.46 
   7  -8   0    1.52    0.41 
   6  -8   0    4.04    0.51 
   5  -8   0    1.40    0.36 
   4  -8   0    0.60    0.29 
   3  -8   0    6.76    0.53 
   2  -8   0   28.57    1.44 
  -2   8   0   30.09    1.46 
   1  -8   0   18.61    0.94 
  -1   8   0   18.92    0.94 
  -1   8   0   16.38    0.98 
   0  -8   0    2.40    0.25 
   0   8   0    2.04    0.25 
   0   8   0    2.03    0.24 
  -1  -8   0    0.33    0.14 
   1   8   0    0.32    0.15 
   1   8   0    0.63    0.18 
  -2  -8   0    0.06    0.11 
   2   8   0    0.27    0.12 
   2   8   0    0.30    0.15 
  -3  -8   0    1.75    0.15 
   3   8   0    0.94    0.12 
   3   8   0    3.52    0.29 
  -4  -8   0   56.69    2.49 
   4   8   0   56.57    2.83 
  -5  -8   0   44.29    1.95 
   5   8   0   42.36    2.24 
   5   8   0   45.32    2.00 
   6   8   0   56.65    2.49 
   6   8   0   55.73    2.82 
   7   8   0   69.03    3.53 
   7   8   0   72.61    3.13 
   8   8   0   39.59    2.07 
   8   8   0   39.65    1.79 
   9   8   0    0.71    0.26 
   9   8   0    0.96    0.15 
  10   8   0    0.40    0.14 
  10   8   0    0.39    0.25 
  11   8   0   12.72    0.87 
  12   8   0    0.04    0.27 
  13   8   0    2.45    0.45 
  14   8   0    2.62    0.48 
  15   8   0    3.95    0.58 
  16   8   0    4.09    0.60 
   9  -9   0    0.36    0.45 
   8  -9   0   -0.34    0.33 
   7  -9   0    0.89    0.41 
   6  -9   0    0.05    0.33 
   5  -9   0    0.17    0.30 
   4  -9   0    1.38    0.37 
   3  -9   0   -0.09    0.27 
   2  -9   0    2.39    0.34 
  -2   9   0    2.61    0.34 
   1  -9   0    1.20    0.25 
  -1   9   0    1.40    0.25 
  -1   9   0    1.23    0.22 
   0  -9   0   -0.02    0.16 
   0   9   0   -0.11    0.16 
   0   9   0   -0.01    0.15 
  -1  -9   0    0.32    0.15 
   1   9   0    0.14    0.16 
   1   9   0    0.11    0.16 
  -2  -9   0    0.75    0.17 
   2   9   0    1.02    0.22 
   2   9   0    1.24    0.19 
  -3  -9   0    0.64    0.14 
   3   9   0    0.40    0.14 
   3   9   0    0.50    0.19 
  -4  -9   0    0.08    0.08 
   4   9   0    0.16    0.17 
   4   9   0    0.03    0.07 
  -5  -9   0    0.07    0.09 
   5   9   0   -0.06    0.11 
   5   9   0   -0.06    0.15 
  -6  -9   0    0.84    0.12 
   6   9   0    1.26    0.16 
   6   9   0    1.29    0.25 
   7   9   0    4.92    0.46 
   7   9   0    6.11    0.35 
   8   9   0    4.23    0.29 
   8   9   0    3.81    0.41 
   9   9   0    0.37    0.27 
   9   9   0    0.50    0.14 
  10   9   0    0.82    0.29 
  11   9   0    0.86    0.33 
  12   9   0    0.85    0.36 
  13   9   0    0.15    0.34 
  14   9   0    0.01    0.35 
  15   9   0    0.49    0.41 
  16   9   0    0.50    0.44 
   9 -10   0    0.55    0.46 
   8 -10   0    1.49    0.47 
   7 -10   0    0.64    0.40 
   6 -10   0   -0.06    0.34 
   5 -10   0    0.37    0.35 
   4 -10   0    2.45    0.44 
   3 -10   0    1.05    0.34 
   2 -10   0    0.41    0.28 
   1 -10   0    0.12    0.22 
  -1  10   0   -0.18    0.17 
  -1  10   0   -0.01    0.20 
   0 -10   0   19.64    1.01 
   0  10   0   19.27    1.02 
   0  10   0   19.35    1.10 
  -1 -10   0    8.75    0.53 
   1  10   0    8.54    0.54 
   1  10   0    8.22    0.60 
  -2 -10   0    0.83    0.18 
   2  10   0    0.86    0.20 
   2  10   0    0.22    0.18 
  -3 -10   0   28.05    1.33 
   3  10   0   28.61    1.54 
   3  10   0   28.18    1.35 
   4  10   0   55.88    2.84 
  -5 -10   0    6.17    0.37 
   5  10   0    6.64    0.53 
   5  10   0    6.83    0.39 
  -6 -10   0    0.15    0.10 
   6  10   0    0.19    0.13 
   6  10   0    0.07    0.20 
  -7 -10   0    1.77    0.17 
   7  10   0    1.47    0.19 
   7  10   0    1.72    0.31 
   8  10   0    1.61    0.33 
   8  10   0    1.74    0.19 
   9  10   0    5.82    0.53 
  10  10   0    3.51    0.46 
  11  10   0    1.47    0.38 
  12  10   0    7.47    0.68 
  13  10   0    6.94    0.68 
  14  10   0    8.29    0.78 
  15  10   0    1.88    0.49 
   8 -11   0    2.04    0.54 
   7 -11   0   -0.12    0.38 
   6 -11   0   -0.22    0.34 
   5 -11   0    1.86    0.45 
   4 -11   0    0.55    0.36 
   3 -11   0    0.04    0.31 
   2 -11   0    2.56    0.40 
   1 -11   0    1.53    0.31 
  -1  11   0    1.21    0.30 
   0 -11   0   -0.05    0.22 
   0  11   0    0.00    0.23 
   0  11   0    0.04    0.19 
  -1 -11   0    0.46    0.20 
   1  11   0    0.52    0.23 
   1  11   0    0.08    0.19 
  -2 -11   0   -0.07    0.16 
   2  11   0   -0.02    0.18 
   2  11   0   -0.03    0.19 
  -3 -11   0    0.20    0.16 
   3  11   0    0.27    0.20 
   3  11   0   -0.04    0.16 
  -4 -11   0    0.02    0.10 
   4  11   0    0.18    0.22 
   4  11   0    0.11    0.07 
  -5 -11   0    2.19    0.21 
   5  11   0    1.70    0.32 
   5  11   0    1.76    0.22 
  -6 -11   0    1.83    0.19 
   6  11   0    1.54    0.33 
   6  11   0    1.57    0.20 
  -7 -11   0    0.33    0.12 
   7  11   0    0.24    0.14 
   7  11   0   -0.11    0.24 
   8  11   0   -0.24    0.22 
   8  11   0   -0.01    0.14 
   9  11   0    0.98    0.33 
  10  11   0    0.70    0.32 
  11  11   0    0.34    0.32 
  12  11   0    0.77    0.37 
  13  11   0    1.39    0.42 
  14  11   0    0.24    0.39 
  15  11   0    0.20    0.41 
   7 -12   0   -0.29    0.38 
   6 -12   0    0.01    0.38 
   5 -12   0    0.41    0.41 
   4 -12   0    0.43    0.36 
   3 -12   0    1.73    0.42 
   2 -12   0    5.26    0.54 
   1 -12   0    3.71    0.44 
  -1  12   0    3.25    0.42 
   0 -12   0    0.11    0.23 
   0  12   0   -0.33    0.23 
   0  12   0   -0.02    0.24 
  -1 -12   0   18.42    1.00 
   1  12   0   19.22    1.02 
   1  12   0   18.55    1.12 
  -2 -12   0   12.12    0.71 
   2  12   0   12.89    0.73 
   2  12   0   12.66    0.84 
  -3 -12   0    0.11    0.17 
   3  12   0   -0.07    0.17 
   3  12   0   -0.36    0.22 
  -4 -12   0    7.66    0.47 
   4  12   0    7.16    0.62 
  -5 -12   0    1.78    0.21 
   5  12   0    1.27    0.32 
   5  12   0    1.72    0.23 
  -6 -12   0    0.28    0.15 
   6  12   0    0.21    0.15 
   6  12   0    0.31    0.26 
   7  12   0    3.13    0.45 
   7  12   0    3.83    0.30 
   8  12   0    1.14    0.35 
   9  12   0    5.55    0.57 
  10  12   0   10.78    0.84 
  11  12   0    8.01    0.72 
  12  12   0    0.53    0.37 
  13  12   0    0.50    0.38 
  14  12   0    3.97    0.61 
  15  12   0    0.25    0.41 
   6 -13   0    0.23    0.43 
   5 -13   0   -0.18    0.38 
   4 -13   0    0.10    0.36 
   3 -13   0    0.11    0.36 
   2 -13   0    0.27    0.32 
   1 -13   0    0.65    0.31 
   0 -13   0   -0.04    0.26 
   0  13   0    0.11    0.27 
   0  13   0   -0.10    0.27 
  -1 -13   0    0.17    0.23 
   1  13   0    0.29    0.27 
   1  13   0    0.18    0.29 
  -2 -13   0    0.10    0.22 
   2  13   0   -0.14    0.23 
   2  13   0   -0.21    0.26 
  -3 -13   0    0.39    0.22 
   3  13   0   -0.03    0.21 
   3  13   0    0.26    0.27 
  -4 -13   0    0.24    0.18 
   4  13   0    0.23    0.28 
   4  13   0    0.25    0.20 
  -5 -13   0   -0.04    0.10 
   5  13   0    0.25    0.30 
   5  13   0   -0.11    0.15 
   6  13   0    0.13    0.30 
   7  13   0   -0.30    0.28 
   8  13   0    0.16    0.30 
   9  13   0    0.04    0.32 
  10  13   0    1.98    0.44 
  11  13   0    1.29    0.40 
  12  13   0   -0.23    0.33 
  13  13   0    0.43    0.40 
  14  13   0    2.06    0.54 
  15  13   0    1.31    0.48 
   5 -14   0    0.63    0.43 
   4 -14   0   -0.07    0.37 
   3 -14   0    0.41    0.38 
   2 -14   0    0.38    0.36 
   1 -14   0    0.89    0.35 
   0 -14   0    0.59    0.32 
   0  14   0    0.58    0.32 
   0  14   0    0.39    0.32 
  -1 -14   0   -0.12    0.26 
   1  14   0   -0.06    0.28 
   1  14   0   -0.15    0.30 
  -2 -14   0   -0.05    0.23 
   2  14   0    0.29    0.28 
   2  14   0    0.38    0.31 
  -3 -14   0    4.39    0.42 
   3  14   0    5.26    0.46 
   3  14   0    5.44    0.56 
  -4 -14   0    7.77    0.53 
   4  14   0    7.25    0.54 
   4  14   0    7.87    0.69 
   5  14   0    3.61    0.49 
   6  14   0    0.44    0.34 
   7  14   0   14.87    1.02 
   8  14   0    3.15    0.50 
   9  14   0    1.22    0.40 
  10  14   0   -0.33    0.34 
  11  14   0    2.80    0.52 
  12  14   0    0.83    0.42 
  13  14   0    2.25    0.53 
  14  14   0   -0.17    0.38 
   4 -15   0    0.07    0.41 
   3 -15   0   -0.01    0.38 
   2 -15   0   -0.35    0.33 
   1 -15   0    0.44    0.37 
   0 -15   0   -0.11    0.31 
  -1 -15   0    0.16    0.28 
   1  15   0    0.14    0.31 
   1  15   0    0.06    0.33 
  -2 -15   0   -0.16    0.26 
   2  15   0   -0.02    0.32 
   2  15   0    0.09    0.29 
  -3 -15   0   -0.06    0.25 
   3  15   0    0.49    0.36 
   4  15   0   -0.02    0.31 
   5  15   0   -0.24    0.30 
   6  15   0   -0.27    0.32 
   7  15   0   -0.13    0.33 
   8  15   0    0.93    0.40 
   9  15   0    0.45    0.35 
  10  15   0    0.01    0.35 
  11  15   0    0.20    0.40 
  12  15   0    0.78    0.44 
  13  15   0    0.94    0.46 
  14  15   0   -0.03    0.43 
   2 -16   0    0.07    0.34 
   1 -16   0   -0.08    0.37 
   0 -16   0    0.03    0.34 
  -1 -16   0    0.51    0.34 
   1  16   0    0.80    0.41 
  -2 -16   0    0.12    0.28 
   2  16   0    0.05    0.39 
   3  16   0    1.97    0.47 
   4  16   0    2.91    0.52 
   5  16   0    1.84    0.46 
   6  16   0    0.39    0.39 
   7  16   0    1.25    0.44 
   8  16   0    0.26    0.37 
   9  16   0    0.13    0.42 
  10  16   0    1.63    0.49 
  11  16   0    0.06    0.43 
  12  16   0    0.18    0.45 
  13  16   0    1.85    0.57 
   1 -17   0   -0.16    0.36 
   0 -17   0   -0.38    0.34 
  -1 -17   0    0.06    0.34 
   2  17   0   -0.09    0.40 
   3  17   0    0.29    0.41 
   4  17   0   -0.03    0.40 
   5  17   0    0.18    0.40 
   6  17   0    0.01    0.39 
   7  17   0    0.37    0.43 
   8  17   0    0.18    0.42 
   9  17   0   -0.13    0.44 
  10  17   0    0.22    0.45 
  11  17   0    0.06    0.42 
  12  17   0   -0.18    0.45 
   3  18   0    0.24    0.47 
   4  18   0    0.11    0.44 
   5  18   0   -0.13    0.44 
   6  18   0    0.08    0.44 
   7  18   0    0.79    0.50 
   8  18   0    0.27    0.48 
   9  18   0   -0.22    0.43 
  10  18   0    1.26    0.56 
  11  18   0    1.17    0.57 
   4  19   0    0.37    0.52 
   5  19   0   -0.12    0.48 
   6  19   0    0.32    0.48 
   7  19   0   -0.11    0.46 
   8  19   0    0.46    0.50 
   9  19   0    0.26    0.48 
   8  19  -1   -0.39    0.46 
   7  19  -1    1.12    0.55 
   6  19  -1   -0.45    0.44 
   5  19  -1    1.55    0.56 
  11  18  -1    0.44    0.50 
  10  18  -1   -0.02    0.49 
   9  18  -1    0.45    0.48 
   8  18  -1    0.43    0.44 
   7  18  -1    0.56    0.46 
   6  18  -1    0.13    0.43 
   5  18  -1    0.41    0.48 
   4  18  -1   -0.51    0.41 
  12  17  -1   -0.13    0.46 
  11  17  -1    2.22    0.58 
  10  17  -1    0.35    0.46 
   9  17  -1   -0.24    0.42 
   8  17  -1    3.61    0.59 
   7  17  -1    0.71    0.44 
   6  17  -1    0.72    0.44 
   5  17  -1    0.41    0.39 
   4  17  -1   -0.12    0.37 
   3  17  -1   -0.11    0.38 
   0 -17   1    0.63    0.41 
   1 -17   1   -0.60    0.34 
  13  16  -1    0.51    0.44 
  12  16  -1    0.32    0.45 
  11  16  -1   -0.08    0.40 
  10  16  -1    0.28    0.38 
   9  16  -1   -0.22    0.38 
   8  16  -1   -0.54    0.37 
   7  16  -1    0.13    0.36 
   6  16  -1    1.56    0.46 
   5  16  -1    0.83    0.40 
   4  16  -1   -0.01    0.36 
   3  16  -1    0.15    0.35 
   2  16  -1    0.76    0.34 
   2  16  -1    0.55    0.40 
   1  16  -1   -0.41    0.30 
  -1 -16   1    0.12    0.34 
   0  16  -1    0.47    0.37 
   0 -16   1    0.37    0.36 
   1 -16   1    1.03    0.41 
   2 -16   1    0.89    0.42 
  14  15  -1    4.85    0.71 
  13  15  -1    0.35    0.40 
  12  15  -1    0.68    0.46 
  11  15  -1    3.94    0.61 
  10  15  -1    2.64    0.51 
   9  15  -1    1.13    0.43 
   8  15  -1    0.16    0.36 
   7  15  -1   -0.26    0.36 
   6  15  -1   -0.20    0.32 
   5  15  -1    0.97    0.38 
   4  15  -1    0.79    0.38 
   4  15  -1    1.13    0.32 
   3  15  -1    1.21    0.39 
   3  15  -1    0.14    0.28 
   2  15  -1    5.72    0.51 
   2  15  -1    5.44    0.58 
  -2 -15   1    5.33    0.51 
   1  15  -1    0.19    0.29 
   1  15  -1    0.08    0.32 
  -1 -15   1    0.27    0.30 
   0  15  -1    1.61    0.38 
   0 -15   1    0.81    0.36 
   1 -15   1    0.45    0.36 
   2 -15   1    0.50    0.36 
   3 -15   1   -0.08    0.39 
   4 -15   1   -0.36    0.36 
  14  14  -1   -0.24    0.40 
  13  14  -1    0.10    0.37 
  12  14  -1    0.14    0.38 
  11  14  -1    0.24    0.40 
  10  14  -1    0.45    0.38 
   9  14  -1    1.06    0.39 
   8  14  -1    0.17    0.29 
   7  14  -1    1.08    0.38 
   6  14  -1    1.58    0.41 
   5  14  -1    4.67    0.55 
   5  14  -1    5.66    0.46 
   4  14  -1    1.23    0.37 
   4  14  -1    1.27    0.28 
   3  14  -1    4.76    0.54 
   3  14  -1    5.01    0.47 
  -3 -14   1    4.98    0.44 
   2  14  -1    1.98    0.34 
   2  14  -1    2.22    0.40 
  -2 -14   1    1.89    0.34 
   1  14  -1    0.79    0.35 
   1  14  -1    1.76    0.37 
  -1 -14   1    1.59    0.35 
   0  14  -1   -0.27    0.29 
   0  14  -1   -0.27    0.29 
   0 -14   1    0.14    0.29 
  -1  14  -1    4.42    0.51 
   1 -14   1    4.00    0.52 
   2 -14   1    0.34    0.36 
   3 -14   1   -0.31    0.33 
   4 -14   1    0.95    0.46 
   5 -14   1    0.15    0.41 
  15  13  -1    2.38    0.58 
  14  13  -1    3.88    0.63 
  13  13  -1    6.43    0.72 
  12  13  -1    0.95    0.44 
  11  13  -1    0.15    0.35 
  10  13  -1    1.93    0.45 
   9  13  -1    1.62    0.41 
   8  13  -1    3.58    0.47 
   7  13  -1    0.44    0.17 
   7  13  -1    0.00    0.29 
   6  13  -1    0.12    0.08 
   6  13  -1    0.29    0.27 
   5  13  -1   16.40    1.05 
   5  13  -1   16.56    0.88 
   4  13  -1    2.62    0.31 
   4  13  -1    2.36    0.42 
   3  13  -1    0.14    0.24 
   3  13  -1    0.03    0.28 
  -3 -13   1    0.13    0.18 
   2  13  -1    1.94    0.32 
   2  13  -1    1.28    0.34 
  -2 -13   1    1.42    0.29 
   1  13  -1    1.90    0.36 
   1  13  -1    1.96    0.34 
  -1 -13   1    1.71    0.33 
   0  13  -1    2.31    0.39 
   0  13  -1    2.33    0.39 
   0 -13   1    3.36    0.42 
  -1  13  -1    0.68    0.32 
   1 -13   1    0.35    0.32 
   2 -13   1    0.41    0.35 
   3 -13   1    0.51    0.35 
   4 -13   1    0.37    0.39 
   5 -13   1    0.15    0.39 
   6 -13   1    0.05    0.40 
  15  12  -1    0.18    0.41 
  14  12  -1   -0.20    0.36 
  13  12  -1   -0.04    0.36 
  12  12  -1    0.26    0.33 
  11  12  -1    0.15    0.33 
  10  12  -1    0.07    0.29 
   9  12  -1    1.02    0.33 
   8  12  -1   -0.10    0.25 
   8  12  -1   -0.08    0.15 
   7  12  -1    2.92    0.43 
   6  12  -1   -0.01    0.06 
   6  12  -1    0.18    0.27 
   5  12  -1    0.19    0.17 
   5  12  -1    0.15    0.26 
  -5 -12   1    0.07    0.15 
   4  12  -1    0.06    0.18 
   4  12  -1    0.06    0.26 
  -4 -12   1    0.01    0.15 
   3  12  -1   15.14    0.97 
   3  12  -1   15.29    0.84 
  -3 -12   1   16.67    0.83 
   2  12  -1    0.84    0.25 
   2  12  -1    1.13    0.31 
  -2 -12   1    1.47    0.25 
   1  12  -1    5.75    0.48 
   1  12  -1    5.41    0.52 
  -1 -12   1    6.43    0.49 
   0  12  -1    3.02    0.38 
   0  12  -1    2.88    0.39 
   0 -12   1    2.91    0.37 
  -1  12  -1    2.18    0.36 
   1 -12   1    2.06    0.37 
  -2  12  -1    4.00    0.46 
   2 -12   1    2.88    0.46 
   3 -12   1   -0.17    0.29 
   4 -12   1    2.16    0.48 
   5 -12   1    0.48    0.42 
   6 -12   1    0.66    0.42 
   7 -12   1    1.48    0.49 
  15  11  -1    2.24    0.52 
  14  11  -1    2.59    0.53 
  13  11  -1    4.10    0.58 
  12  11  -1    1.92    0.46 
  11  11  -1    6.80    0.66 
  10  11  -1    0.37    0.31 
   9  11  -1    3.80    0.46 
   8  11  -1   17.17    1.07 
   7  11  -1   36.44    1.96 
   6  11  -1   10.18    0.74 
  -6 -11   1   10.85    0.55 
   5  11  -1    0.62    0.26 
   5  11  -1    0.43    0.16 
  -5 -11   1    0.56    0.15 
   4  11  -1    2.29    0.25 
   4  11  -1    2.16    0.34 
  -4 -11   1    2.70    0.25 
   3  11  -1    4.99    0.37 
   3  11  -1    4.74    0.45 
  -3 -11   1    3.86    0.32 
   2  11  -1    0.32    0.20 
   2  11  -1   -0.16    0.19 
  -2 -11   1    0.01    0.16 
   1  11  -1    8.88    0.64 
   1  11  -1    8.62    0.56 
  -1 -11   1    9.73    0.58 
   0  11  -1    0.57    0.22 
   0  11  -1    0.74    0.26 
   0 -11   1    0.50    0.25 
  -1  11  -1    0.48    0.26 
  -1  11  -1    0.77    0.24 
   1 -11   1    0.78    0.29 
  -2  11  -1    1.27    0.32 
   2 -11   1    1.14    0.33 
   3 -11   1    0.02    0.30 
   4 -11   1    0.01    0.30 
   5 -11   1   -0.26    0.35 
   6 -11   1   -0.11    0.36 
   7 -11   1    0.89    0.44 
   8 -11   1   -0.15    0.38 
  15  10  -1    0.15    0.39 
  14  10  -1   -0.12    0.36 
  13  10  -1    0.19    0.35 
  12  10  -1   -0.58    0.29 
  11  10  -1    0.01    0.30 
  10  10  -1   -0.13    0.27 
   9  10  -1    0.80    0.31 
   8  10  -1    1.66    0.33 
   7  10  -1    1.74    0.32 
  -7 -10   1    1.90    0.16 
   6  10  -1    2.75    0.35 
  -6 -10   1    2.78    0.21 
   5  10  -1    8.07    0.58 
   5  10  -1    7.42    0.46 
  -5 -10   1    8.46    0.43 
   4  10  -1    0.06    0.13 
   4  10  -1    0.15    0.18 
  -4 -10   1    0.00    0.13 
   3  10  -1   12.50    0.78 
   3  10  -1   12.70    0.68 
   2  10  -1    4.84    0.41 
   2  10  -1    4.25    0.35 
  -2 -10   1    4.45    0.34 
   1  10  -1   12.77    0.69 
   1  10  -1   12.01    0.75 
  -1 -10   1   11.17    0.67 
   0  10  -1    0.87    0.23 
   0  10  -1    1.40    0.25 
   0 -10   1    1.43    0.26 
  -1  10  -1    0.01    0.23 
  -1  10  -1   -0.21    0.16 
   1 -10   1    0.17    0.24 
  -2  10  -1    5.36    0.48 
   2 -10   1    5.18    0.51 
   3 -10   1    2.97    0.44 
   4 -10   1    3.66    0.49 
   5 -10   1    0.76    0.36 
   6 -10   1    0.54    0.38 
   7 -10   1    1.02    0.42 
   8 -10   1    3.38    0.57 
   9 -10   1    1.11    0.47 
  15   9  -1    0.33    0.40 
  14   9  -1    4.01    0.57 
  13   9  -1   11.74    0.89 
  12   9  -1   15.60    1.03 
  11   9  -1   10.79    0.78 
  10   9  -1   18.13    1.10 
   9   9  -1   59.54    3.03 
   8   9  -1    7.27    0.58 
   7   9  -1    1.92    0.31 
  -7  -9   1    2.12    0.16 
   6   9  -1    4.97    0.42 
  -6  -9   1    4.87    0.28 
   5   9  -1    5.15    0.34 
   5   9  -1    5.87    0.45 
  -5  -9   1    5.89    0.31 
   4   9  -1    1.00    0.21 
   4   9  -1    0.68    0.15 
  -4  -9   1    1.06    0.14 
   3   9  -1    1.89    0.26 
   3   9  -1    1.93    0.21 
  -3  -9   1    1.07    0.15 
   2   9  -1   12.46    0.79 
   2   9  -1   13.26    0.70 
  -2  -9   1   13.85    0.69 
   1   9  -1   23.15    1.12 
   1   9  -1   22.01    1.23 
  -1  -9   1   22.70    1.11 
   0   9  -1    1.36    0.23 
   0   9  -1    1.10    0.22 
   0  -9   1    1.32    0.23 
  -1   9  -1    1.26    0.24 
  -1   9  -1    1.29    0.22 
   1  -9   1    1.42    0.27 
  -2   9  -1    0.40    0.23 
   2  -9   1    0.29    0.26 
  -3   9  -1    1.40    0.30 
   3  -9   1    1.22    0.33 
   4  -9   1    0.07    0.28 
   5  -9   1    1.98    0.44 
   6  -9   1    1.28    0.40 
   7  -9   1    0.05    0.33 
   8  -9   1    0.32    0.37 
   9  -9   1    0.55    0.42 
  10  -9   1    0.28    0.41 
  16   8  -1   -0.03    0.41 
  15   8  -1   -0.08    0.36 
  14   8  -1    0.17    0.37 
  13   8  -1    0.31    0.34 
  12   8  -1   -0.09    0.29 
  11   8  -1    0.12    0.28 
  10   8  -1    0.05    0.25 
   9   8  -1    0.84    0.27 
   8   8  -1    3.51    0.24 
   8   8  -1    3.13    0.36 
   7   8  -1    2.26    0.30 
   7   8  -1    2.04    0.17 
   6   8  -1    0.23    0.17 
   5   8  -1   10.68    0.67 
  -5  -8   1   10.77    0.51 
   4   8  -1    0.62    0.13 
   4   8  -1    0.74    0.18 
  -4  -8   1    0.53    0.10 
   3   8  -1   -0.07    0.11 
   3   8  -1    0.31    0.15 
  -3  -8   1    0.20    0.11 
   2   8  -1    0.43    0.14 
   2   8  -1    0.41    0.17 
  -2  -8   1    0.49    0.13 
   1   8  -1    3.92    0.34 
   1   8  -1    4.11    0.32 
  -1  -8   1    4.34    0.31 
   0   8  -1   12.30    0.76 
   0   8  -1   13.55    0.72 
   0  -8   1   14.07    0.71 
  -1   8  -1    2.76    0.30 
  -1   8  -1    2.51    0.26 
   1  -8   1    2.93    0.30 
  -2   8  -1   16.61    0.88 
   2  -8   1   15.61    0.88 
  -3   8  -1    3.10    0.36 
   3  -8   1    3.30    0.39 
   4  -8   1    1.94    0.37 
   5  -8   1   11.94    0.81 
   6  -8   1    2.31    0.44 
   7  -8   1    2.93    0.49 
   8  -8   1    0.96    0.39 
   9  -8   1    2.11    0.48 
  10  -8   1    2.60    0.55 
  15   7  -1    2.66    0.52 
  14   7  -1   13.92    1.01 
  13   7  -1   20.22    1.26 
  12   7  -1   13.47    0.92 
  11   7  -1   13.77    0.90 
  10   7  -1    6.50    0.39 
  10   7  -1    5.39    0.52 
   9   7  -1    2.56    0.22 
   9   7  -1    2.44    0.33 
   8   7  -1   53.40    2.28 
   8   7  -1   48.61    2.59 
   7   7  -1   39.22    1.76 
   7   7  -1   39.79    2.03 
   6   7  -1    8.05    0.54 
   6   7  -1    8.07    0.41 
   5   7  -1    8.14    0.54 
   4   7  -1   42.74    2.14 
   4   7  -1   42.83    1.93 
  -4  -7   1   42.19    1.87 
   3   7  -1  107.80    5.38 
   3   7  -1  113.92    4.93 
  -3  -7   1  111.99    4.84 
   2   7  -1    9.88    0.52 
   2   7  -1    9.88    0.59 
   1   7  -1    4.52    0.32 
   1   7  -1    5.30    0.37 
  -1  -7   1    5.21    0.32 
   0   7  -1    5.07    0.37 
   0   7  -1    4.88    0.37 
   0  -7   1    5.91    0.37 
  -1   7  -1   10.12    0.60 
  -1   7  -1   10.56    0.59 
   1  -7   1    9.99    0.59 
  -2   7  -1    1.54    0.24 
   2  -7   1    2.08    0.28 
  -3   7  -1    0.53    0.20 
   3  -7   1    0.27    0.21 
   4  -7   1    1.90    0.34 
   5  -7   1   -0.18    0.26 
   6  -7   1    0.03    0.28 
   7  -7   1   -0.45    0.28 
   8  -7   1   -0.01    0.33 
   9  -7   1    0.37    0.37 
  10  -7   1    0.75    0.41 
  11  -7   1    0.22    0.38 
  15   6  -1   -0.14    0.37 
  14   6  -1   -0.02    0.34 
  13   6  -1    0.33    0.36 
  12   6  -1    0.17    0.29 
  11   6  -1   -0.11    0.25 
  11   6  -1    0.33    0.17 
  10   6  -1   -0.09    0.13 
  10   6  -1   -0.08    0.22 
   9   6  -1    2.62    0.22 
   9   6  -1    2.02    0.32 
   8   6  -1    0.70    0.13 
   8   6  -1    0.47    0.21 
   7   6  -1   -0.15    0.15 
   7   6  -1   -0.04    0.08 
   6   6  -1    0.31    0.14 
   6   6  -1    0.19    0.08 
   5   6  -1    5.98    0.42 
   5   6  -1    6.51    0.33 
   4   6  -1    7.14    0.48 
  -4  -6   1    8.02    0.37 
   3   6  -1    0.90    0.15 
   3   6  -1    0.90    0.12 
  -3  -6   1    0.74    0.09 
   2   6  -1    8.22    0.41 
   2   6  -1    8.36    0.47 
  -2  -6   1    6.44    0.38 
   1   6  -1   15.22    0.73 
   1   6  -1   15.01    0.81 
  -1  -6   1   14.14    0.71 
   0   6  -1    7.86    0.46 
   0   6  -1    6.93    0.42 
   0  -6   1    7.35    0.43 
  -1   6  -1    4.45    0.32 
  -1   6  -1    3.92    0.31 
   1  -6   1    5.02    0.34 
  -2   6  -1   37.01    1.78 
   2  -6   1   38.75    1.78 
  -3   6  -1    1.90    0.25 
   3  -6   1    2.35    0.31 
   4  -6   1    0.10    0.19 
   5  -6   1    5.13    0.49 
   6  -6   1    3.12    0.41 
   7  -6   1    3.52    0.47 
   8  -6   1    7.82    0.68 
   9  -6   1    2.63    0.45 
  10  -6   1    1.07    0.40 
  11  -6   1    3.17    0.54 
  12  -6   1    1.79    0.48 
  15   5  -1    3.07    0.53 
  14   5  -1    3.00    0.49 
  13   5  -1    1.40    0.39 
  12   5  -1    0.03    0.28 
  11   5  -1    9.82    0.71 
  11   5  -1    9.24    0.57 
  10   5  -1   60.75    2.71 
  10   5  -1   59.35    3.04 
   9   5  -1   18.89    0.92 
   9   5  -1   18.26    1.07 
   8   5  -1   44.72    2.00 
   8   5  -1   44.13    2.26 
   7   5  -1  157.93    6.98 
   7   5  -1  164.32    7.76 
   6   5  -1   85.39    4.10 
   6   5  -1   82.82    3.66 
   5   5  -1   17.70    0.96 
   5   5  -1   18.24    0.82 
   4   5  -1   41.63    1.83 
   4   5  -1   42.12    2.08 
   3   5  -1    2.67    0.22 
  -3  -5   1    2.77    0.15 
   2   5  -1   27.09    1.25 
   2   5  -1   26.77    1.38 
  -2  -5   1   27.99    1.22 
   1   5  -1    4.85    0.29 
   1   5  -1    4.41    0.25 
  -1  -5   1    3.34    0.24 
   0   5  -1    0.20    0.09 
   0   5  -1    0.33    0.11 
   0  -5   1    0.10    0.09 
  -1   5  -1   54.33    2.66 
  -1   5  -1   53.71    2.48 
   1  -5   1   55.86    2.45 
  -2   5  -1   30.93    1.48 
   2  -5   1   31.39    1.47 
  -3   5  -1    1.34    0.21 
   3  -5   1    1.68    0.24 
   4  -5   1    0.26    0.19 
   5  -5   1    0.69    0.24 
   6  -5   1    0.90    0.29 
   6  -5   1    1.10    0.18 
   7  -5   1    0.28    0.16 
   7  -5   1    1.03    0.31 
   8  -5   1    0.57    0.30 
   9  -5   1    1.55    0.38 
  10  -5   1    1.08    0.38 
  11  -5   1    0.51    0.35 
  12  -5   1   -0.06    0.37 
  14   4  -1    0.21    0.36 
  13   4  -1   -0.16    0.31 
  12   4  -1    0.68    0.27 
  12   4  -1    0.68    0.31 
  11   4  -1    0.60    0.27 
  11   4  -1    0.42    0.22 
  10   4  -1    0.83    0.21 
  10   4  -1    0.75    0.27 
   9   4  -1    0.16    0.14 
   9   4  -1    0.05    0.17 
   8   4  -1    0.64    0.14 
   8   4  -1    0.00    0.16 
   7   4  -1    3.67    0.25 
   7   4  -1    3.12    0.30 
   6   4  -1    0.02    0.08 
   6   4  -1    0.08    0.13 
   5   4  -1    4.80    0.26 
   5   4  -1    5.24    0.35 
   4   4  -1    0.82    0.14 
   4   4  -1    1.09    0.09 
   3   4  -1    5.13    0.32 
   3   4  -1    5.27    0.26 
   2   4  -1   13.59    0.73 
  -2  -4   1   14.33    0.63 
   1   4  -1    8.57    0.43 
   1   4  -1    8.61    0.47 
   0   4  -1   -0.03    0.06 
   0   4  -1    0.09    0.08 
   0  -4   1    0.03    0.07 
  -1   4  -1   42.74    1.98 
  -1   4  -1   42.58    2.12 
   1  -4   1   45.70    1.96 
  -2   4  -1    1.47    0.18 
   2  -4   1    1.01    0.17 
  -3   4  -1    4.14    0.31 
   3  -4   1    4.07    0.33 
   4  -4   1   16.47    0.87 
   5  -4   1   31.55    1.54 
   6  -4   1   16.47    0.90 
   6  -4   1   15.43    0.84 
   7  -4   1    3.62    0.41 
   7  -4   1    3.53    0.30 
   8  -4   1    5.32    0.50 
   9  -4   1    1.76    0.38 
  10  -4   1    0.96    0.35 
  11  -4   1   -0.06    0.31 
  12  -4   1    0.20    0.36 
  13  -4   1    0.97    0.42 
  14   3  -1    5.49    0.60 
  13   3  -1   20.11    1.25 
  13   3  -1   21.42    1.15 
  12   3  -1   23.14    1.22 
  12   3  -1   22.97    1.34 
  11   3  -1    7.80    0.55 
  11   3  -1    7.55    0.60 
  10   3  -1   51.22    2.55 
  10   3  -1   48.21    2.28 
   9   3  -1   75.30    3.69 
   9   3  -1   73.77    3.33 
   8   3  -1   22.78    1.21 
   8   3  -1   21.69    1.06 
   7   3  -1   24.03    1.14 
   7   3  -1   25.02    1.29 
   6   3  -1   19.72    0.92 
   6   3  -1   19.67    1.05 
   5   3  -1  177.42    8.69 
   5   3  -1  186.07    7.86 
   4   3  -1  157.01    7.52 
   4   3  -1  157.45    6.79 
   3   3  -1    3.16    0.23 
   3   3  -1    3.46    0.17 
   2   3  -1    0.92    0.10 
  -2  -3   1    0.73    0.05 
   1   3  -1  321.85   15.05 
   1   3  -1  318.60   13.87 
  -1  -3   1  310.21   13.64 
   0   3  -1  251.80   11.98 
   0   3  -1  249.60   11.05 
   0  -3   1  254.85   10.87 
  -1   3  -1    2.80    0.18 
  -1   3  -1    2.52    0.19 
   1  -3   1    3.07    0.20 
  -2   3  -1    2.09    0.19 
   2  -3   1    2.03    0.20 
  -3   3  -1    2.36    0.22 
   3  -3   1    2.68    0.24 
   4  -3   1    0.41    0.16 
   5  -3   1    0.67    0.12 
   5  -3   1    0.68    0.19 
   6  -3   1    0.37    0.20 
   6  -3   1    0.49    0.13 
   7  -3   1    3.97    0.40 
   7  -3   1    4.67    0.34 
   8  -3   1    0.74    0.19 
   8  -3   1    1.08    0.29 
   9  -3   1    0.51    0.27 
  10  -3   1    0.21    0.26 
  11  -3   1   -0.14    0.28 
  12  -3   1    0.95    0.39 
  13  -3   1    0.14    0.36 
  13   2  -1    0.01    0.27 
  13   2  -1   -0.10    0.29 
  12   2  -1   -0.04    0.28 
  12   2  -1    0.19    0.25 
  11   2  -1    0.13    0.22 
  11   2  -1   -0.04    0.24 
  10   2  -1    0.51    0.22 
  10   2  -1    0.74    0.26 
   9   2  -1    0.42    0.21 
   9   2  -1   -0.04    0.15 
   8   2  -1    0.55    0.16 
   8   2  -1    0.47    0.19 
   7   2  -1    0.23    0.15 
   7   2  -1    0.05    0.11 
   6   2  -1    0.68    0.15 
   6   2  -1    0.60    0.13 
   5   2  -1   -0.04    0.10 
   5   2  -1    0.13    0.08 
   4   2  -1    2.97    0.19 
   4   2  -1    2.92    0.23 
   3   2  -1    1.50    0.14 
   3   2  -1    1.49    0.10 
   2   2  -1   11.17    0.56 
   2   2  -1   10.82    0.49 
   1   2  -1   10.68    0.54 
  -1  -2   1   10.61    0.47 
   0   2  -1    4.01    0.20 
   0   2  -1    4.19    0.21 
   0  -2   1    2.90    0.19 
  -1   2  -1    1.71    0.11 
  -1   2  -1    1.43    0.12 
   1  -2   1    1.69    0.13 
  -2   2  -1    2.17    0.17 
   2  -2   1    1.97    0.18 
   3  -2   1    8.84    0.48 
   4  -2   1   45.04    2.02 
   4  -2   1   43.80    2.15 
   5  -2   1   10.26    0.56 
   5  -2   1   10.01    0.58 
   6  -2   1    2.21    0.27 
   6  -2   1    2.29    0.22 
   7  -2   1    3.16    0.27 
   7  -2   1    3.46    0.34 
   8  -2   1    4.07    0.33 
   8  -2   1    3.45    0.38 
   9  -2   1    1.56    0.31 
   9  -2   1    1.34    0.23 
  10  -2   1    0.88    0.30 
  11  -2   1    8.01    0.64 
  12  -2   1    1.05    0.34 
  13  -2   1    0.14    0.33 
  14  -2   1    2.31    0.48 
  14   1  -1    3.14    0.48 
  13   1  -1    9.38    0.70 
  12   1  -1    7.13    0.60 
  12   1  -1    7.28    0.58 
  11   1  -1    1.68    0.32 
  11   1  -1    1.61    0.33 
  10   1  -1    5.57    0.49 
  10   1  -1    6.35    0.49 
   9   1  -1    0.21    0.19 
   9   1  -1    0.84    0.23 
   8   1  -1   32.23    1.67 
   8   1  -1   32.14    1.53 
   7   1  -1  108.80    4.84 
   7   1  -1  110.82    5.32 
   6   1  -1   11.71    0.61 
   6   1  -1   11.60    0.66 
   5   1  -1  165.44    7.19 
   5   1  -1  165.60    7.92 
   4   1  -1  250.41   12.25 
   4   1  -1  264.54   11.12 
   3   1  -1  372.93   15.85 
   3   1  -1  362.84   17.47 
   2   1  -1   36.15    1.78 
   2   1  -1   37.29    1.61 
   1   1  -1   23.86    1.15 
   0   1  -1    1.43    0.08 
   0   1  -1    1.27    0.08 
  -1   1  -1    5.01    0.26 
   1  -1   1    5.48    0.27 
  -2   1  -1   -0.03    0.05 
   2  -1   1    0.11    0.07 
   2  -1   1    0.02    0.03 
   3  -1   1    1.08    0.10 
   3  -1   1    1.18    0.14 
   4  -1   1    5.25    0.32 
   4  -1   1    4.38    0.28 
   5  -1   1   72.46    3.23 
   6  -1   1   22.28    1.10 
   7  -1   1    0.36    0.16 
   7  -1   1    0.03    0.05 
   8  -1   1   -0.03    0.06 
   8  -1   1   -0.19    0.18 
   9  -1   1    1.12    0.28 
  10  -1   1    0.04    0.08 
  10  -1   1    0.45    0.26 
  11  -1   1    0.84    0.30 
  12  -1   1    0.51    0.32 
  13  -1   1    0.32    0.31 
  14  -1   1    0.21    0.36 
  14   0  -1    0.02    0.33 
  13   0  -1    0.41    0.31 
  12   0  -1    0.41    0.29 
  12   0  -1   -0.23    0.29 
  11   0  -1    0.01    0.25 
  11   0  -1    0.15    0.28 
  10   0  -1    0.44    0.25 
  10   0  -1    1.01    0.28 
   9   0  -1    1.45    0.26 
   9   0  -1    0.88    0.25 
   8   0  -1    0.14    0.18 
   8   0  -1   -0.04    0.15 
   7   0  -1    1.72    0.23 
   7   0  -1    2.00    0.25 
   6   0  -1    1.27    0.18 
   6   0  -1    1.65    0.21 
   5   0  -1    0.89    0.14 
   5   0  -1    0.91    0.15 
   4   0  -1    0.02    0.08 
   4   0  -1   -0.10    0.08 
   3   0  -1    5.07    0.29 
   3   0  -1    5.01    0.30 
   2   0  -1    2.27    0.15 
   2   0  -1    2.21    0.15 
   1   0  -1    0.12    0.03 
   0   0   1   -0.05    0.00 
  -1   0  -1    0.02    0.02 
   1   0   1    0.01    0.02 
   1   0   1    0.03    0.02 
   2   0   1    6.29    0.34 
   2   0   1    7.61    0.34 
   3   0   1    2.48    0.18 
   4   0   1   26.22    1.20 
   5   0   1    6.79    0.40 
   6   0   1   15.88    0.74 
   6   0   1   12.63    0.74 
   7   0   1    5.11    0.36 
   7   0   1    4.02    0.34 
   8   0   1   42.89    2.06 
   8   0   1   45.28    2.22 
   9   0   1    0.13    0.17 
   9   0   1    0.40    0.21 
  10   0   1   -0.01    0.21 
  10   0   1    0.31    0.20 
  11   0   1    4.10    0.41 
  11   0   1    3.03    0.40 
  12   0   1    3.24    0.43 
  13   0   1    2.46    0.41 
  14   0   1    0.18    0.35 
  14  -1  -1    0.33    0.37 
  13  -1  -1    0.94    0.37 
  12  -1  -1    0.45    0.32 
  11  -1  -1    4.93    0.49 
  11  -1  -1    4.60    0.49 
  10  -1  -1   22.28    1.22 
  10  -1  -1   20.61    1.15 
   9  -1  -1   56.43    2.83 
   9  -1  -1   56.62    2.63 
   8  -1  -1    6.10    0.45 
   8  -1  -1    5.24    0.45 
   7  -1  -1   48.45    2.40 
   7  -1  -1   47.50    2.23 
   6  -1  -1  164.13    7.76 
   6  -1  -1  159.18    7.08 
   5  -1  -1  131.39    6.42 
   5  -1  -1  136.36    5.87 
   4  -1  -1   15.96    0.79 
   4  -1  -1   16.22    0.84 
   3  -1  -1   42.98    1.92 
   2  -1  -1   22.26    1.01 
   1  -1  -1   48.04    2.10 
   0  -1  -1   15.26    0.68 
   0   1   1   15.47    0.75 
   1   1   1    0.98    0.07 
   1   1   1    1.03    0.08 
   2   1   1  107.51    4.62 
   2   1   1  106.15    5.09 
   3   1   1  258.03   11.97 
   3   1   1  245.75   10.86 
   4   1   1   70.25    3.09 
   4   1   1   70.63    3.39 
   5   1   1   23.27    1.17 
   5   1   1   22.80    1.08 
   6   1   1    0.02    0.10 
   6   1   1    0.06    0.10 
   7   1   1    3.42    0.29 
   7   1   1    3.43    0.29 
   8   1   1    2.04    0.25 
   8   1   1    2.45    0.26 
   9   1   1    1.35    0.24 
   9   1   1    1.87    0.27 
  10   1   1    0.07    0.19 
  10   1   1   -0.01    0.20 
  11   1   1    0.28    0.24 
  11   1   1   -0.03    0.23 
  12   1   1    0.57    0.29 
  13   1   1   -0.05    0.27 
  14   1   1    0.65    0.36 
  15   1   1    0.37    0.39 
  13  -2  -1   -0.30    0.32 
  12  -2  -1   -0.10    0.30 
  11  -2  -1    0.49    0.28 
  10  -2  -1    0.34    0.27 
  10  -2  -1    0.04    0.24 
   9  -2  -1   -0.19    0.24 
   9  -2  -1   -0.01    0.19 
   8  -2  -1    0.24    0.24 
   8  -2  -1    0.08    0.18 
   7  -2  -1    3.07    0.31 
   7  -2  -1    4.02    0.37 
   6  -2  -1    7.57    0.51 
   6  -2  -1    7.69    0.49 
   5  -2  -1    1.12    0.16 
   5  -2  -1    0.81    0.19 
   4  -2  -1    4.83    0.35 
   3  -2  -1    2.46    0.21 
   2  -2  -1    0.03    0.07 
   1  -2  -1    0.09    0.06 
   0  -2  -1    4.32    0.22 
   0   2   1    4.35    0.25 
   1   2   1   11.35    0.50 
   1   2   1   11.45    0.51 
   1   2   1   10.59    0.57 
   2   2   1   15.50    0.67 
   2   2   1   14.23    0.75 
   3   2   1    2.90    0.20 
   3   2   1    3.21    0.18 
   4   2   1   35.71    1.75 
   4   2   1   35.33    1.58 
   5   2   1    1.72    0.17 
   5   2   1    1.28    0.14 
   6   2   1   31.50    1.42 
   6   2   1   30.34    1.56 
   7   2   1    0.39    0.15 
   7   2   1    0.59    0.15 
   8   2   1    1.37    0.21 
   8   2   1    1.10    0.21 
   9   2   1    0.29    0.18 
   9   2   1    0.48    0.19 
  10   2   1   -0.03    0.19 
  10   2   1   -0.01    0.18 
  11   2   1    0.44    0.26 
  11   2   1    0.58    0.25 
  12   2   1    0.65    0.31 
  12   2   1    0.38    0.28 
  13   2   1    0.83    0.32 
  14   2   1    6.52    0.62 
  15   2   1   -0.11    0.36 
  13  -3  -1    0.19    0.37 
  12  -3  -1    5.45    0.58 
  11  -3  -1    7.99    0.67 
  10  -3  -1    6.61    0.59 
   9  -3  -1   11.71    0.78 
   9  -3  -1   11.35    0.75 
   8  -3  -1    0.91    0.31 
   8  -3  -1    0.81    0.21 
   7  -3  -1    7.01    0.56 
   7  -3  -1    8.59    0.53 
   6  -3  -1    8.15    0.51 
   6  -3  -1    8.21    0.54 
   5  -3  -1   40.05    1.88 
   4  -3  -1   64.69    2.91 
   3  -3  -1   48.46    2.19 
   2  -3  -1   16.49    0.80 
   1  -3  -1   38.15    1.70 
   0  -3  -1  348.22   15.44 
   0   3   1  355.16   15.70 
   0   3   1  372.69   17.04 
  -1  -3  -1  174.88    7.73 
   1   3   1  179.38    7.86 
   1   3   1  183.53    8.55 
   2   3   1   21.94    0.94 
   2   3   1   19.92    1.05 
   3   3   1    0.53    0.07 
   3   3   1    0.45    0.09 
   4   3   1   46.05    2.03 
   4   3   1   46.31    2.26 
   5   3   1    8.03    0.49 
   5   3   1    8.50    0.43 
   6   3   1   51.55    2.29 
   6   3   1   51.27    2.53 
   7   3   1   11.38    0.58 
   7   3   1   10.38    0.64 
   8   3   1    4.56    0.33 
   8   3   1    3.99    0.35 
   9   3   1    5.68    0.39 
   9   3   1    4.55    0.41 
  10   3   1    0.21    0.21 
  10   3   1    0.25    0.19 
  11   3   1   -0.16    0.21 
  11   3   1    0.04    0.23 
  12   3   1    0.13    0.27 
  12   3   1   -0.27    0.23 
  13   3   1    0.14    0.28 
  13   3   1   -0.17    0.28 
  14   3   1    0.09    0.33 
  12  -4  -1   -0.02    0.33 
  11  -4  -1   -0.07    0.33 
  10  -4  -1   -0.36    0.30 
   9  -4  -1    0.02    0.28 
   9  -4  -1   -0.01    0.22 
   8  -4  -1   -0.12    0.18 
   8  -4  -1   -0.33    0.25 
   7  -4  -1    2.51    0.28 
   7  -4  -1    2.88    0.38 
   6  -4  -1    0.40    0.24 
   5  -4  -1    0.36    0.20 
   4  -4  -1   -0.10    0.15 
   3  -4  -1    7.08    0.44 
   2  -4  -1    1.81    0.20 
   1  -4  -1    2.65    0.21 
   0  -4  -1   13.78    0.65 
   0   4   1   13.05    0.65 
   0   4   1   13.63    0.72 
  -1  -4  -1   24.24    1.10 
   1   4   1   24.96    1.24 
   2   4   1   25.11    1.10 
   2   4   1   24.53    1.24 
   2   4   1   23.73    1.10 
   3   4   1   14.22    0.77 
   3   4   1   14.90    0.68 
   4   4   1    1.60    0.17 
   4   4   1    1.61    0.13 
   5   4   1   30.63    1.54 
   5   4   1   30.40    1.37 
   6   4   1    0.20    0.13 
   6   4   1    0.43    0.11 
   7   4   1    6.32    0.44 
   7   4   1    6.13    0.37 
   8   4   1    1.90    0.26 
   8   4   1    2.18    0.22 
   9   4   1   15.25    0.91 
   9   4   1   15.88    0.81 
  10   4   1    0.96    0.21 
  10   4   1    0.38    0.23 
  11   4   1    5.29    0.49 
  11   4   1    5.05    0.43 
  12   4   1    2.98    0.41 
  12   4   1    2.84    0.37 
  13   4   1    0.55    0.31 
  13   4   1   -0.01    0.28 
  14   4   1    0.71    0.35 
  12  -5  -1    1.01    0.41 
  11  -5  -1    1.30    0.45 
  10  -5  -1    0.22    0.33 
   9  -5  -1    2.46    0.44 
   8  -5  -1    1.62    0.27 
   8  -5  -1    1.88    0.39 
   7  -5  -1    5.41    0.54 
   7  -5  -1    5.81    0.43 
   6  -5  -1   80.01    3.66 
   5  -5  -1    7.28    0.54 
   4  -5  -1    3.67    0.36 
   3  -5  -1   22.24    1.10 
   2  -5  -1   72.60    3.23 
   1  -5  -1   21.43    1.00 
  -1   5   1   20.51    1.01 
   0  -5  -1   26.65    1.20 
   0   5   1   25.63    1.21 
   0   5   1   25.38    1.32 
  -1  -5  -1    0.38    0.09 
   1   5   1    0.12    0.05 
   1   5   1    0.72    0.13 
  -2  -5  -1    0.27    0.07 
   2   5   1    0.29    0.07 
   2   5   1    0.47    0.12 
   3   5   1   50.28    2.52 
   3   5   1   52.53    2.26 
   3   5   1   50.13    2.25 
   4   5   1   53.33    2.66 
   4   5   1   54.51    2.37 
   5   5   1    8.74    0.43 
   5   5   1    7.72    0.51 
   6   5   1   22.34    1.20 
   6   5   1   23.18    1.05 
   7   5   1   28.99    1.51 
   7   5   1   29.15    1.34 
   8   5   1    3.25    0.33 
   8   5   1    4.00    0.28 
   9   5   1    1.33    0.20 
   9   5   1    1.53    0.26 
  10   5   1    1.46    0.28 
  10   5   1    1.12    0.22 
  11   5   1    0.46    0.22 
  11   5   1    0.35    0.25 
  12   5   1   -0.07    0.26 
  12   5   1    0.20    0.24 
  13   5   1   -0.04    0.29 
  13   5   1   -0.07    0.24 
  14   5   1    0.38    0.35 
  11  -6  -1   -0.11    0.39 
  10  -6  -1    0.40    0.38 
   9  -6  -1   -0.26    0.32 
   8  -6  -1    0.20    0.32 
   7  -6  -1   -0.14    0.28 
   7  -6  -1    0.06    0.16 
   6  -6  -1   -0.29    0.25 
   5  -6  -1    2.50    0.36 
   4  -6  -1    2.66    0.34 
   3  -6  -1    1.32    0.24 
   2  -6  -1   14.93    0.79 
   1  -6  -1    4.28    0.31 
  -1   6   1    3.91    0.30 
  -1   6   1    3.99    0.31 
   0  -6  -1    5.36    0.32 
   0   6   1    4.87    0.35 
   0   6   1    4.35    0.31 
  -1  -6  -1    4.80    0.29 
   1   6   1    5.55    0.31 
   1   6   1    4.61    0.36 
  -2  -6  -1    0.73    0.11 
   2   6   1    0.89    0.12 
   2   6   1    1.14    0.17 
  -3  -6  -1    0.65    0.09 
   3   6   1    0.75    0.15 
   3   6   1    0.91    0.10 
   4   6   1    8.40    0.53 
   4   6   1    8.15    0.42 
   5   6   1    0.35    0.09 
   5   6   1    0.27    0.14 
   6   6   1    9.72    0.51 
   6   6   1   10.40    0.62 
   7   6   1   23.32    1.10 
   7   6   1   24.12    1.27 
   8   6   1    6.31    0.37 
   8   6   1    5.85    0.46 
   9   6   1    0.74    0.24 
   9   6   1    0.54    0.16 
  10   6   1    0.29    0.23 
  10   6   1    0.38    0.16 
  11   6   1    3.21    0.41 
  11   6   1    2.87    0.31 
  12   6   1    1.02    0.27 
  12   6   1    1.01    0.33 
  13   6   1    0.60    0.34 
  14   6   1    0.32    0.34 
  15   6   1    1.70    0.48 
  11  -7  -1    0.80    0.45 
  10  -7  -1    2.25    0.52 
   9  -7  -1    7.47    0.73 
   8  -7  -1    1.28    0.43 
   7  -7  -1   -0.21    0.30 
   6  -7  -1   13.95    0.90 
   5  -7  -1    0.93    0.32 
   4  -7  -1    0.65    0.27 
   3  -7  -1    8.68    0.57 
   2  -7  -1    2.45    0.28 
   1  -7  -1    0.33    0.16 
  -1   7   1    1.06    0.18 
  -1   7   1    0.24    0.15 
   0  -7  -1   71.62    3.19 
   0   7   1   71.97    3.24 
   0   7   1   71.78    3.53 
  -1  -7  -1   31.18    1.47 
   1   7   1   32.61    1.65 
   1   7   1   32.48    1.49 
  -2  -7  -1   19.67    0.94 
   2   7   1   20.57    1.09 
  -3  -7  -1   74.99    3.34 
   3   7   1   76.87    3.76 
   3   7   1   77.41    3.40 
   4   7   1    6.98    0.36 
   4   7   1    6.95    0.49 
   5   7   1    0.15    0.09 
   5   7   1    0.20    0.14 
   6   7   1    1.67    0.16 
   6   7   1    1.13    0.22 
   7   7   1    7.74    0.54 
   7   7   1    7.89    0.43 
   8   7   1    2.03    0.30 
   8   7   1    1.77    0.19 
   9   7   1    5.94    0.38 
   9   7   1    6.29    0.51 
  10   7   1    1.59    0.32 
  10   7   1    1.80    0.22 
  11   7   1    0.80    0.30 
  11   7   1    0.30    0.17 
  12   7   1    0.24    0.30 
  12   7   1    0.28    0.22 
  13   7   1    0.45    0.33 
  14   7   1    0.06    0.34 
  15   7   1    0.12    0.36 
  10  -8  -1    0.26    0.45 
   9  -8  -1    0.08    0.41 
   8  -8  -1    0.22    0.39 
   7  -8  -1    0.04    0.35 
   6  -8  -1   -0.12    0.28 
   5  -8  -1    0.80    0.33 
   4  -8  -1    1.98    0.37 
   3  -8  -1    1.26    0.28 
   2  -8  -1    1.24    0.25 
   1  -8  -1    1.26    0.22 
  -1   8   1    0.58    0.19 
   0  -8  -1    0.34    0.16 
   0   8   1    0.61    0.18 
   0   8   1    0.39    0.17 
  -1  -8  -1   -0.05    0.12 
   1   8   1   -0.02    0.14 
   1   8   1   -0.06    0.13 
  -2  -8  -1    7.57    0.43 
   2   8   1    7.73    0.53 
  -3  -8  -1    9.51    0.53 
   3   8   1   11.53    0.55 
   3   8   1   10.34    0.66 
  -4  -8  -1    4.13    0.26 
   4   8   1    4.58    0.27 
   4   8   1    3.93    0.36 
   5   8   1   42.20    2.21 
   5   8   1   44.10    1.95 
   6   8   1    0.26    0.11 
   6   8   1    0.03    0.16 
   7   8   1    2.36    0.21 
   7   8   1    2.24    0.31 
   8   8   1    8.97    0.48 
   8   8   1    8.08    0.63 
   9   8   1    0.56    0.25 
   9   8   1    0.71    0.16 
  10   8   1    1.25    0.33 
  10   8   1    1.50    0.20 
  11   8   1    2.41    0.27 
  11   8   1    2.61    0.40 
  12   8   1    0.39    0.30 
  13   8   1    2.38    0.45 
  14   8   1   -0.26    0.32 
  15   8   1   -0.43    0.35 
  16   8   1    0.46    0.42 
   9  -9  -1    0.39    0.45 
   8  -9  -1   -0.08    0.40 
   7  -9  -1   -0.39    0.35 
   6  -9  -1    0.40    0.33 
   5  -9  -1   -0.33    0.30 
   4  -9  -1   10.94    0.77 
   3  -9  -1   27.22    1.40 
   2  -9  -1    5.99    0.49 
   1  -9  -1    2.53    0.30 
  -1   9   1    2.19    0.29 
   0  -9  -1    5.30    0.40 
   0   9   1    5.37    0.44 
   0   9   1    5.64    0.41 
  -1  -9  -1   29.91    1.41 
   1   9   1   29.73    1.58 
   1   9   1   29.67    1.43 
  -2  -9  -1    2.96    0.26 
   2   9   1    3.29    0.34 
   2   9   1    2.99    0.26 
  -3  -9  -1    1.62    0.19 
   3   9   1    1.83    0.19 
   3   9   1    1.45    0.26 
  -4  -9  -1    7.22    0.40 
   4   9   1    7.81    0.55 
   4   9   1    6.91    0.40 
   5   9   1    0.57    0.12 
   5   9   1    0.43    0.20 
  -6  -9  -1    1.25    0.15 
   6   9   1    1.46    0.26 
   6   9   1    1.16    0.15 
   7   9   1    3.70    0.40 
   7   9   1    4.88    0.31 
   8   9   1    2.21    0.22 
   8   9   1    1.80    0.33 
   9   9   1   11.01    0.58 
   9   9   1   10.13    0.73 
  10   9   1    2.36    0.24 
  10   9   1    2.19    0.38 
  11   9   1    2.13    0.39 
  12   9   1    0.11    0.31 
  13   9   1   -0.20    0.33 
  14   9   1    0.04    0.36 
  15   9   1   -0.43    0.34 
  16   9   1    0.20    0.41 
   9 -10  -1    0.39    0.46 
   8 -10  -1    0.11    0.44 
   7 -10  -1    1.09    0.44 
   6 -10  -1    1.00    0.41 
   5 -10  -1    0.49    0.36 
   4 -10  -1   -0.04    0.29 
   3 -10  -1    0.27    0.30 
   2 -10  -1    0.89    0.28 
   1 -10  -1    2.24    0.33 
   0 -10  -1    0.35    0.20 
   0  10   1    0.41    0.20 
   0  10   1    0.06    0.19 
  -1 -10  -1   12.61    0.71 
   1  10   1   13.38    0.72 
   1  10   1   12.37    0.80 
  -2 -10  -1    8.43    0.50 
   2  10   1    8.01    0.50 
   2  10   1    8.31    0.60 
  -3 -10  -1   11.56    0.61 
   3  10   1   11.51    0.76 
  -4 -10  -1    0.62    0.15 
   4  10   1    0.69    0.22 
   4  10   1    0.79    0.17 
   5  10   1    2.40    0.22 
   5  10   1    2.33    0.33 
  -6 -10  -1    0.08    0.11 
   6  10   1    0.05    0.20 
   6  10   1    0.02    0.12 
  -7 -10  -1    0.96    0.15 
   7  10   1    1.00    0.16 
   7  10   1    1.34    0.30 
   8  10   1    0.99    0.29 
   8  10   1    1.22    0.19 
   9  10   1   16.31    1.02 
   9  10   1   15.72    0.81 
  10  10   1    4.38    0.49 
  11  10   1    7.35    0.66 
  12  10   1    0.71    0.36 
  13  10   1    1.03    0.40 
  14  10   1    2.47    0.50 
  15  10   1    0.21    0.41 
  16  10   1    0.43    0.43 
   8 -11  -1    0.49    0.47 
   7 -11  -1    0.03    0.39 
   6 -11  -1    5.18    0.64 
   5 -11  -1    2.61    0.49 
   4 -11  -1    0.02    0.33 
   3 -11  -1    0.42    0.32 
   2 -11  -1    0.89    0.32 
   1 -11  -1   -0.15    0.22 
   0 -11  -1    8.73    0.56 
   0  11   1    7.86    0.54 
   0  11   1    6.64    0.58 
  -1 -11  -1    2.86    0.32 
   1  11   1    2.88    0.32 
   1  11   1    2.18    0.34 
  -2 -11  -1    5.17    0.38 
   2  11   1    4.14    0.36 
   2  11   1    4.64    0.46 
  -3 -11  -1   23.59    1.12 
   3  11   1   21.72    1.30 
  -4 -11  -1    0.43    0.15 
   4  11   1    0.05    0.15 
   4  11   1    0.40    0.25 
  -5 -11  -1    0.37    0.13 
   5  11   1    0.02    0.24 
   5  11   1    0.37    0.15 
  -6 -11  -1    6.12    0.38 
   6  11   1    7.46    0.58 
   6  11   1    7.21    0.40 
  -7 -11  -1   12.18    0.63 
   7  11   1   12.08    0.63 
   7  11   1   13.10    0.86 
  -8 -11  -1    1.38    0.18 
   8  11   1    1.09    0.33 
   9  11   1    0.50    0.28 
  10  11   1    0.24    0.27 
  11  11   1    0.20    0.31 
  12  11   1    0.12    0.33 
  13  11   1    1.04    0.39 
  14  11   1   -0.52    0.35 
  15  11   1    0.51    0.44 
   7 -12  -1   -0.09    0.39 
   6 -12  -1   -0.31    0.38 
   5 -12  -1   -0.05    0.37 
   4 -12  -1   -0.05    0.36 
   3 -12  -1   -0.11    0.30 
   2 -12  -1    0.87    0.33 
   1 -12  -1    1.99    0.36 
   0 -12  -1    2.12    0.34 
   0  12   1    1.77    0.35 
   0  12   1    2.35    0.35 
  -1 -12  -1    1.09    0.27 
   1  12   1    1.80    0.30 
   1  12   1    1.51    0.34 
  -2 -12  -1    5.44    0.44 
   2  12   1    4.82    0.52 
   2  12   1    6.73    0.46 
  -3 -12  -1    3.12    0.30 
   3  12   1    2.44    0.39 
  -4 -12  -1    1.31    0.22 
   4  12   1    0.97    0.21 
   4  12   1    0.80    0.30 
  -5 -12  -1    0.26    0.16 
   5  12   1    0.26    0.27 
   5  12   1    0.56    0.18 
  -6 -12  -1    0.10    0.10 
   6  12   1   -0.20    0.26 
  -7 -12  -1   15.62    0.78 
   7  12   1   15.89    1.01 
   8  12   1    4.80    0.52 
   9  12   1    6.32    0.60 
  10  12   1    1.91    0.40 
  11  12   1    3.46    0.52 
  12  12   1    2.69    0.50 
  13  12   1    0.14    0.37 
  14  12   1    0.75    0.44 
  15  12   1    0.16    0.42 
   6 -13  -1    0.99    0.46 
   5 -13  -1    1.27    0.46 
   4 -13  -1    0.35    0.40 
   3 -13  -1    0.21    0.35 
   2 -13  -1    0.91    0.37 
   1 -13  -1    0.76    0.31 
   0 -13  -1   10.08    0.67 
   0  13   1    9.87    0.75 
  -1 -13  -1    0.43    0.26 
   1  13   1    0.26    0.27 
   1  13   1    0.66    0.31 
  -2 -13  -1    0.24    0.23 
   2  13   1    0.49    0.25 
   2  13   1    0.71    0.32 
  -3 -13  -1    0.51    0.22 
   3  13   1    0.47    0.30 
   3  13   1    0.52    0.20 
  -4 -13  -1    0.98    0.23 
   4  13   1    0.99    0.23 
   4  13   1    1.01    0.33 
  -5 -13  -1    8.35    0.50 
   5  13   1    8.03    0.69 
  -6 -13  -1    0.14    0.09 
   6  13   1    0.46    0.33 
   7  13   1   -0.16    0.26 
   8  13   1   -0.03    0.27 
   9  13   1    3.68    0.51 
  10  13   1    1.05    0.40 
  11  13   1   -0.13    0.32 
  12  13   1   -0.01    0.35 
  13  13   1    1.34    0.47 
  14  13   1    0.44    0.44 
  15  13   1    0.16    0.41 
   5 -14  -1    0.41    0.43 
   4 -14  -1    0.60    0.40 
   3 -14  -1   -0.21    0.37 
   2 -14  -1   -0.25    0.32 
   1 -14  -1   -0.48    0.29 
   0 -14  -1   -0.26    0.28 
  -1 -14  -1    0.17    0.27 
   1  14   1    0.20    0.28 
   1  14   1    0.05    0.33 
  -2 -14  -1    2.03    0.34 
   2  14   1    2.97    0.46 
   2  14   1    2.19    0.36 
  -3 -14  -1    0.69    0.26 
   3  14   1    0.86    0.36 
   3  14   1    1.24    0.31 
  -4 -14  -1    1.64    0.28 
   4  14   1    1.46    0.39 
  -5 -14  -1    8.15    0.52 
   5  14   1    6.26    0.65 
   6  14   1    3.89    0.52 
   7  14   1    2.35    0.46 
   8  14   1    0.35    0.34 
   9  14   1    0.35    0.35 
  10  14   1    0.17    0.34 
  11  14   1    0.20    0.37 
  12  14   1    0.41    0.41 
  13  14   1    6.33    0.72 
  14  14   1    3.98    0.63 
   4 -15  -1    0.48    0.42 
   3 -15  -1    0.88    0.44 
   2 -15  -1    2.54    0.48 
   1 -15  -1    1.50    0.41 
   0 -15  -1    2.31    0.41 
  -1 -15  -1    0.21    0.29 
   1  15   1   -0.35    0.32 
  -2 -15  -1    4.28    0.44 
   2  15   1    3.66    0.54 
  -3 -15  -1    0.55    0.27 
   3  15   1    1.11    0.38 
  -4 -15  -1    3.74    0.39 
   4  15   1    3.96    0.54 
   5  15   1    0.67    0.37 
   6  15   1    0.55    0.36 
   7  15   1    1.16    0.42 
   8  15   1    0.41    0.40 
   9  15   1    0.71    0.42 
  10  15   1    0.60    0.42 
  11  15   1    0.52    0.43 
  12  15   1    0.68    0.45 
  13  15   1    0.03    0.41 
  14  15   1    0.08    0.43 
   2 -16  -1    0.18    0.39 
   1 -16  -1    0.10    0.36 
   0 -16  -1    0.26    0.33 
  -1 -16  -1   -0.32    0.28 
   1  16   1    0.05    0.40 
  -2 -16  -1   -0.02    0.28 
   2  16   1    0.24    0.38 
  -3 -16  -1    0.48    0.29 
   3  16   1    0.06    0.37 
   4  16   1    0.61    0.39 
   5  16   1    0.05    0.34 
   6  16   1    0.10    0.39 
   7  16   1    0.81    0.43 
   8  16   1    0.36    0.39 
   9  16   1   -0.01    0.40 
  10  16   1    5.30    0.69 
  11  16   1    5.54    0.73 
  12  16   1    1.38    0.51 
  13  16   1   -0.17    0.40 
   1 -17  -1   -0.18    0.37 
   0 -17  -1    0.89    0.40 
  -1 -17  -1   -0.18    0.32 
  -2 -17  -1    0.47    0.33 
   2  17   1    0.55    0.44 
   3  17   1    0.02    0.39 
   4  17   1   -0.53    0.37 
   5  17   1    0.48    0.40 
   6  17   1    0.01    0.40 
   7  17   1   -0.11    0.43 
   8  17   1    2.01    0.54 
   9  17   1    0.53    0.46 
  10  17   1    0.26    0.44 
  11  17   1    0.62    0.49 
  12  17   1    0.40    0.49 
   3  18   1    0.52    0.47 
   4  18   1    0.23    0.45 
   5  18   1    0.27    0.46 
   6  18   1    0.23    0.44 
   7  18   1    0.46    0.43 
   8  18   1    1.58    0.54 
   9  18   1    1.13    0.55 
  10  18   1    0.62    0.52 
  11  18   1   -0.10    0.49 
   4  19   1    0.05    0.50 
   5  19   1    0.75    0.51 
   6  19   1    0.51    0.52 
   7  19   1    1.44    0.56 
   8  19   1    0.38    0.48 
   9  19   1    0.86    0.54 
   8  19  -2    1.34    0.55 
   7  19  -2    0.74    0.52 
   6  19  -2    1.50    0.54 
  11  18  -2    0.09    0.47 
  10  18  -2   -0.31    0.45 
   9  18  -2   -0.43    0.45 
   8  18  -2    0.34    0.47 
   7  18  -2   -0.09    0.43 
   6  18  -2    0.24    0.45 
   5  18  -2    0.21    0.43 
  12  17  -2   -0.42    0.45 
  11  17  -2   -0.41    0.45 
  10  17  -2    0.25    0.47 
   9  17  -2    1.07    0.49 
   8  17  -2    0.27    0.44 
   7  17  -2    0.45    0.44 
   6  17  -2    0.62    0.42 
   5  17  -2    1.99    0.51 
   4  17  -2    0.86    0.43 
   1  17  -2    0.56    0.38 
   0  17  -2    2.22    0.47 
  13  16  -2    0.67    0.48 
  12  16  -2    0.42    0.44 
  11  16  -2    0.38    0.43 
  10  16  -2    0.72    0.44 
   9  16  -2    1.62    0.46 
   8  16  -2    0.20    0.38 
   7  16  -2    1.02    0.41 
   6  16  -2    0.07    0.36 
   5  16  -2    0.63    0.39 
   4  16  -2    0.11    0.34 
   3  16  -2    0.26    0.30 
   3  16  -2    0.03    0.35 
   2  16  -2    1.41    0.37 
   1  16  -2    0.02    0.33 
   0  16  -2   -0.05    0.34 
   0 -16   2   -0.10    0.35 
  -1  16  -2    0.15    0.37 
   1 -16   2    0.47    0.39 
   2 -16   2    0.14    0.37 
  14  15  -2    0.50    0.43 
  13  15  -2    0.50    0.44 
  12  15  -2    0.88    0.48 
  11  15  -2    0.66    0.42 
  10  15  -2    1.40    0.44 
   9  15  -2    1.30    0.46 
   8  15  -2    1.48    0.43 
   7  15  -2    0.84    0.39 
   6  15  -2    3.65    0.54 
   5  15  -2    2.33    0.36 
   5  15  -2    2.32    0.46 
   4  15  -2   -0.13    0.26 
   4  15  -2    0.30    0.34 
   3  15  -2    0.87    0.32 
   3  15  -2    1.14    0.38 
   2  15  -2    5.19    0.51 
   2  15  -2    4.61    0.56 
   1  15  -2    4.15    0.47 
  -1 -15   2    3.31    0.47 
   0  15  -2   -0.13    0.31 
   0 -15   2   -0.19    0.30 
  -1  15  -2    0.35    0.35 
   1 -15   2    0.22    0.34 
   2 -15   2   -0.08    0.37 
   3 -15   2    0.14    0.39 
   4 -15   2    1.08    0.47 
  14  14  -2   -0.27    0.40 
  13  14  -2    0.39    0.42 
  12  14  -2    2.24    0.54 
  11  14  -2    4.34    0.60 
  10  14  -2   -0.07    0.36 
   9  14  -2    0.65    0.35 
   8  14  -2    0.27    0.34 
   7  14  -2    2.68    0.45 
   6  14  -2    2.98    0.35 
   6  14  -2    2.62    0.44 
   5  14  -2    2.34    0.34 
   5  14  -2    2.73    0.43 
   4  14  -2    0.09    0.30 
   4  14  -2    0.25    0.25 
   3  14  -2    0.14    0.30 
   3  14  -2    0.18    0.27 
   2  14  -2   -0.09    0.30 
   2  14  -2    0.07    0.28 
  -2 -14   2   -0.23    0.26 
   1  14  -2    0.13    0.30 
   1  14  -2    0.08    0.29 
  -1 -14   2    0.11    0.28 
   0  14  -2    0.26    0.32 
   0 -14   2    0.64    0.32 
  -1  14  -2    0.34    0.32 
   1 -14   2    0.20    0.31 
  -2  14  -2    0.15    0.35 
   2 -14   2   -0.01    0.35 
   3 -14   2    0.21    0.38 
   4 -14   2    0.49    0.40 
   5 -14   2    0.79    0.44 
  15  13  -2   -0.19    0.42 
  14  13  -2    1.61    0.51 
  13  13  -2    0.22    0.37 
  12  13  -2   -0.21    0.35 
  11  13  -2    0.56    0.38 
  10  13  -2    0.73    0.37 
   9  13  -2    0.18    0.30 
   8  13  -2    5.41    0.52 
   8  13  -2    3.40    0.34 
   7  13  -2    0.17    0.19 
   7  13  -2    0.28    0.31 
   6  13  -2    2.95    0.31 
   6  13  -2    2.77    0.43 
   5  13  -2    2.40    0.40 
   5  13  -2    1.90    0.29 
   4  13  -2    5.00    0.51 
   4  13  -2    5.15    0.43 
   3  13  -2    4.51    0.49 
   3  13  -2    4.50    0.42 
   2  13  -2   11.76    0.83 
   2  13  -2   13.14    0.77 
  -2 -13   2   11.39    0.73 
   1  13  -2    0.58    0.29 
   1  13  -2    0.42    0.28 
  -1 -13   2    0.68    0.29 
   0  13  -2    3.77    0.44 
   0  13  -2    3.82    0.44 
   0 -13   2    3.33    0.45 
  -1  13  -2    2.63    0.41 
   1 -13   2    1.54    0.39 
  -2  13  -2    0.57    0.32 
   2 -13   2    0.15    0.36 
   3 -13   2    1.89    0.46 
   4 -13   2    1.33    0.44 
   5 -13   2    0.61    0.43 
   6 -13   2   -0.27    0.39 
  15  12  -2    0.03    0.43 
  14  12  -2    9.30    0.87 
  13  12  -2    0.76    0.42 
  12  12  -2   -0.08    0.33 
  11  12  -2    0.77    0.35 
  10  12  -2    2.63    0.45 
   9  12  -2    0.73    0.33 
   8  12  -2    3.24    0.31 
   8  12  -2    3.73    0.46 
   7  12  -2    0.74    0.20 
   7  12  -2    0.79    0.31 
   6  12  -2   -0.21    0.24 
   6  12  -2    0.09    0.17 
   5  12  -2   -0.18    0.23 
   5  12  -2   -0.10    0.16 
   4  12  -2    0.17    0.18 
   4  12  -2   -0.32    0.21 
  -4 -12   2    0.03    0.16 
   3  12  -2   -0.02    0.18 
   3  12  -2    0.15    0.25 
  -3 -12   2    0.05    0.11 
   2  12  -2    0.44    0.24 
   2  12  -2    0.11    0.24 
  -2 -12   2    0.14    0.19 
   1  12  -2    0.22    0.22 
   1  12  -2    0.00    0.25 
  -1 -12   2    0.14    0.24 
   0  12  -2    0.95    0.27 
   0  12  -2    0.72    0.29 
   0 -12   2    0.87    0.31 
  -1  12  -2    1.11    0.33 
  -1  12  -2    1.51    0.27 
   1 -12   2    1.36    0.34 
  -2  12  -2    1.71    0.37 
   2 -12   2    1.83    0.39 
  -3  12  -2    0.65    0.33 
   3 -12   2    0.56    0.37 
   4 -12   2    0.21    0.35 
   5 -12   2   -0.27    0.36 
   6 -12   2    0.55    0.44 
  15  11  -2   -0.05    0.42 
  14  11  -2    0.07    0.38 
  13  11  -2   -0.25    0.36 
  12  11  -2    0.09    0.31 
  11  11  -2    0.61    0.34 
  10  11  -2    8.14    0.70 
   9  11  -2   -0.05    0.29 
   8  11  -2    8.28    0.66 
   7  11  -2    3.21    0.29 
   7  11  -2    2.16    0.37 
   6  11  -2    5.30    0.36 
   6  11  -2    4.66    0.46 
   5  11  -2   17.60    0.94 
   5  11  -2   19.41    1.11 
  -5 -11   2   19.46    0.91 
   4  11  -2    1.83    0.24 
   4  11  -2    1.82    0.31 
  -4 -11   2    2.00    0.22 
   3  11  -2    1.86    0.26 
   3  11  -2    2.15    0.33 
  -3 -11   2    2.77    0.27 
   2  11  -2    0.08    0.19 
   2  11  -2   -0.08    0.17 
  -2 -11   2   -0.25    0.15 
   1  11  -2    0.19    0.21 
   1  11  -2    0.17    0.23 
  -1 -11   2    0.15    0.20 
   0  11  -2    0.76    0.26 
   0  11  -2    0.78    0.23 
   0 -11   2    1.54    0.30 
  -1  11  -2   13.24    0.78 
  -1  11  -2   12.39    0.78 
   1 -11   2   11.96    0.80 
  -2  11  -2    6.86    0.57 
   2 -11   2    7.82    0.63 
  -3  11  -2    0.48    0.30 
   3 -11   2    0.19    0.32 
   4 -11   2    2.82    0.47 
   5 -11   2    1.72    0.44 
   6 -11   2    0.00    0.35 
   7 -11   2    0.92    0.45 
   8 -11   2    0.34    0.40 
  15  10  -2    2.57    0.54 
  14  10  -2    5.17    0.62 
  13  10  -2    2.02    0.46 
  12  10  -2    0.78    0.35 
  11  10  -2    0.39    0.31 
  10  10  -2   -0.19    0.25 
   9  10  -2   -0.08    0.24 
   8  10  -2    4.20    0.46 
   7  10  -2    1.43    0.30 
   6  10  -2    0.26    0.15 
   6  10  -2    0.25    0.21 
   5  10  -2   -0.16    0.14 
   5  10  -2    0.03    0.18 
  -5 -10   2    0.21    0.12 
   4  10  -2    0.54    0.17 
   4  10  -2    0.68    0.22 
  -4 -10   2    0.79    0.15 
   3  10  -2    0.19    0.16 
   3  10  -2   -0.18    0.15 
  -3 -10   2    0.09    0.14 
   2  10  -2    1.61    0.26 
   2  10  -2    1.11    0.21 
  -2 -10   2    1.22    0.20 
   1  10  -2    3.37    0.34 
   1  10  -2    2.98    0.31 
  -1 -10   2    2.82    0.31 
   0  10  -2    0.92    0.23 
   0  10  -2    1.31    0.26 
   0 -10   2    1.41    0.27 
  -1  10  -2    0.70    0.24 
  -1  10  -2    0.02    0.17 
   1 -10   2   -0.34    0.23 
  -2  10  -2    2.75    0.38 
   2 -10   2    3.13    0.40 
  -3  10  -2    0.18    0.27 
   3 -10   2    0.20    0.29 
   4 -10   2    0.78    0.35 
   5 -10   2    0.33    0.34 
   6 -10   2    0.62    0.38 
   7 -10   2    0.52    0.41 
   8 -10   2    0.59    0.39 
   9 -10   2    0.70    0.45 
  15   9  -2    0.60    0.41 
  14   9  -2    1.04    0.43 
  13   9  -2    1.24    0.39 
  12   9  -2    0.27    0.34 
  11   9  -2    2.74    0.42 
  10   9  -2    4.21    0.47 
   9   9  -2    3.74    0.42 
   8   9  -2    8.49    0.62 
   7   9  -2   10.26    0.70 
   6   9  -2    1.27    0.24 
  -6  -9   2    1.60    0.13 
   5   9  -2    5.04    0.44 
   5   9  -2    6.09    0.38 
  -5  -9   2    6.53    0.33 
   4   9  -2    4.46    0.32 
   4   9  -2    4.05    0.37 
  -4  -9   2    5.02    0.30 
   3   9  -2    9.52    0.61 
   3   9  -2    9.71    0.53 
  -3  -9   2    8.88    0.50 
   2   9  -2   10.52    0.57 
   2   9  -2    9.53    0.64 
   1   9  -2   11.85    0.71 
   1   9  -2   11.05    0.64 
  -1  -9   2   11.08    0.63 
   0   9  -2    8.65    0.55 
   0   9  -2    8.21    0.55 
   0  -9   2    9.16    0.56 
  -1   9  -2   16.84    0.91 
  -1   9  -2   16.83    0.94 
   1  -9   2   17.05    0.93 
  -2   9  -2    2.94    0.36 
   2  -9   2    3.26    0.40 
  -3   9  -2    0.23    0.24 
   3  -9   2    0.25    0.26 
   4  -9   2    3.90    0.48 
   5  -9   2    0.41    0.32 
   6  -9   2    2.44    0.47 
   7  -9   2    2.14    0.48 
   8  -9   2    0.20    0.38 
   9  -9   2   -0.01    0.36 
  10  -9   2    0.00    0.38 
  15   8  -2    2.02    0.50 
  14   8  -2   -0.22    0.35 
  13   8  -2   -0.37    0.29 
  12   8  -2    2.93    0.45 
  11   8  -2   16.37    1.04 
  10   8  -2    1.46    0.32 
   9   8  -2    0.07    0.22 
   8   8  -2    3.12    0.36 
   7   8  -2    8.21    0.57 
   7   8  -2    8.39    0.42 
   6   8  -2    7.35    0.52 
   5   8  -2    0.03    0.14 
  -5  -8   2    0.00    0.07 
   4   8  -2    1.61    0.23 
   4   8  -2    1.12    0.17 
  -4  -8   2    1.13    0.13 
   3   8  -2    2.59    0.23 
   3   8  -2    2.88    0.28 
  -3  -8   2    2.87    0.22 
   2   8  -2    0.32    0.15 
   2   8  -2    0.38    0.14 
  -2  -8   2    0.33    0.12 
   1   8  -2    0.88    0.17 
   1   8  -2    1.08    0.20 
  -1  -8   2    0.80    0.17 
   0   8  -2    1.27    0.21 
   0   8  -2    1.34    0.20 
   0  -8   2    1.79    0.24 
  -1   8  -2    4.55    0.35 
  -1   8  -2    5.03    0.38 
   1  -8   2    4.00    0.38 
  -2   8  -2    8.22    0.55 
   2  -8   2    8.20    0.57 
  -3   8  -2    2.46    0.32 
   3  -8   2    2.08    0.35 
  -4   8  -2    0.53    0.28 
   4  -8   2    0.27    0.28 
   5  -8   2    0.96    0.33 
   6  -8   2    3.63    0.50 
   7  -8   2    1.96    0.44 
   8  -8   2    0.09    0.36 
   9  -8   2    1.06    0.42 
  10  -8   2    0.97    0.44 
  15   7  -2    0.25    0.37 
  14   7  -2    0.21    0.37 
  13   7  -2    0.08    0.34 
  12   7  -2    0.05    0.27 
  11   7  -2    0.24    0.26 
  10   7  -2    2.72    0.39 
   9   7  -2    6.85    0.56 
   8   7  -2    0.65    0.24 
   8   7  -2    0.51    0.11 
   7   7  -2    2.67    0.18 
   7   7  -2    2.18    0.29 
   6   7  -2    4.18    0.24 
   6   7  -2    4.48    0.37 
   5   7  -2    5.19    0.40 
  -5  -7   2    5.86    0.28 
   4   7  -2   12.02    0.69 
  -4  -7   2   11.61    0.55 
   3   7  -2   17.96    0.90 
   3   7  -2   19.66    1.01 
  -3  -7   2   18.53    0.86 
   2   7  -2   20.92    1.12 
   2   7  -2   22.09    1.02 
  -2  -7   2   20.99    0.99 
   1   7  -2    6.76    0.43 
   1   7  -2    6.93    0.40 
  -1  -7   2    6.03    0.38 
   0   7  -2    0.00    0.13 
   0   7  -2   -0.06    0.10 
   0  -7   2    0.23    0.15 
  -1   7  -2    1.97    0.20 
  -1   7  -2    2.10    0.25 
   1  -7   2    1.79    0.25 
  -2   7  -2   -0.02    0.16 
   2  -7   2    0.21    0.18 
  -3   7  -2    0.43    0.21 
   3  -7   2    0.36    0.22 
  -4   7  -2   25.64    1.29 
   4  -7   2   24.06    1.30 
   5  -7   2   20.45    1.14 
   6  -7   2    0.44    0.32 
   7  -7   2    1.15    0.35 
   8  -7   2    1.04    0.39 
   9  -7   2    0.43    0.38 
  10  -7   2    0.78    0.40 
  11  -7   2   -0.25    0.38 
  15   6  -2    0.74    0.40 
  14   6  -2   11.64    0.90 
  13   6  -2   17.24    1.10 
  12   6  -2   11.53    0.84 
  11   6  -2    3.25    0.43 
  10   6  -2    0.72    0.29 
   9   6  -2   11.76    0.79 
   9   6  -2   13.13    0.64 
   8   6  -2    4.71    0.43 
   8   6  -2    5.90    0.32 
   7   6  -2    3.77    0.23 
   7   6  -2    3.95    0.35 
   6   6  -2    0.57    0.18 
   6   6  -2    0.44    0.08 
   5   6  -2   20.75    1.11 
   5   6  -2   20.83    0.93 
   4   6  -2    3.74    0.29 
  -4  -6   2    3.62    0.19 
   3   6  -2    0.65    0.12 
   3   6  -2    0.56    0.13 
  -3  -6   2    0.79    0.09 
   2   6  -2    0.08    0.10 
   2   6  -2    0.00    0.10 
  -2  -6   2    0.14    0.08 
   1   6  -2   25.30    1.21 
   1   6  -2   26.17    1.31 
   0   6  -2    9.18    0.52 
   0   6  -2    9.47    0.50 
   0  -6   2    7.79    0.48 
  -1   6  -2    0.03    0.10 
  -1   6  -2    0.07    0.13 
   1  -6   2    0.04    0.14 
  -2   6  -2    0.11    0.14 
   2  -6   2    0.00    0.14 
  -3   6  -2    2.27    0.29 
   3  -6   2    2.76    0.32 
  -4   6  -2    3.15    0.33 
   4  -6   2    2.22    0.32 
   5  -6   2    0.73    0.28 
   6  -6   2   -0.14    0.24 
   7  -6   2   -0.17    0.26 
   8  -6   2    1.26    0.37 
   9  -6   2    1.73    0.40 
  10  -6   2    0.54    0.34 
  11  -6   2    2.85    0.51 
  12  -6   2    0.35    0.42 
  15   5  -2   -0.79    0.34 
  14   5  -2   -0.25    0.34 
  13   5  -2    0.20    0.35 
  12   5  -2    0.32    0.28 
  11   5  -2    0.02    0.24 
  10   5  -2   -0.04    0.22 
  10   5  -2   -0.01    0.14 
   9   5  -2    7.74    0.59 
   9   5  -2    7.87    0.46 
   8   5  -2    0.46    0.21 
   8   5  -2    0.32    0.12 
   7   5  -2    2.27    0.18 
   7   5  -2    2.49    0.29 
   6   5  -2    1.51    0.23 
   6   5  -2    1.92    0.14 
   5   5  -2   12.55    0.71 
   5   5  -2   12.63    0.58 
   4   5  -2   85.52    3.79 
   4   5  -2   90.07    4.24 
   3   5  -2    6.89    0.44 
  -3  -5   2    7.62    0.35 
   2   5  -2   33.19    1.63 
   2   5  -2   32.59    1.49 
  -2  -5   2   32.19    1.44 
   1   5  -2    4.17    0.27 
   1   5  -2    4.03    0.25 
  -1  -5   2    3.42    0.23 
   0   5  -2    1.10    0.14 
   0   5  -2    1.14    0.15 
   0  -5   2    1.26    0.15 
  -1   5  -2   21.70    1.06 
  -1   5  -2   22.59    1.11 
   1  -5   2   21.58    1.06 
  -2   5  -2   45.20    2.12 
   2  -5   2   46.80    2.11 
  -3   5  -2    5.47    0.39 
   3  -5   2    5.84    0.43 
  -4   5  -2   13.43    0.73 
   4  -5   2   12.89    0.75 
   5  -5   2    3.36    0.38 
   6  -5   2    0.31    0.13 
   6  -5   2    0.00    0.24 
   7  -5   2    4.64    0.48 
   8  -5   2   -0.11    0.24 
   9  -5   2    0.11    0.28 
  10  -5   2    1.70    0.41 
  11  -5   2    0.31    0.35 
  12  -5   2    0.06    0.36 
  15   4  -2    7.59    0.74 
  14   4  -2    3.33    0.51 
  13   4  -2    7.78    0.68 
  12   4  -2    2.06    0.40 
  11   4  -2   -0.19    0.16 
  11   4  -2   -0.25    0.22 
  10   4  -2    0.98    0.21 
  10   4  -2    0.88    0.29 
   9   4  -2    0.33    0.15 
   9   4  -2   -0.01    0.21 
   8   4  -2   35.77    1.62 
   8   4  -2   35.23    1.84 
   7   4  -2   24.08    1.12 
   7   4  -2   24.83    1.30 
   6   4  -2    1.03    0.11 
   6   4  -2    0.86    0.18 
   5   4  -2    0.51    0.15 
   5   4  -2    0.51    0.08 
   4   4  -2    7.39    0.34 
   4   4  -2    7.19    0.45 
   3   4  -2    6.74    0.40 
   2   4  -2    0.50    0.10 
  -2  -4   2    0.30    0.06 
   1   4  -2    0.82    0.10 
   1   4  -2    0.72    0.10 
  -1  -4   2    0.85    0.10 
   0   4  -2    6.38    0.36 
   0   4  -2    6.20    0.35 
   0  -4   2    6.56    0.35 
  -1   4  -2    0.69    0.09 
  -1   4  -2    0.69    0.13 
   1  -4   2    0.74    0.14 
  -2   4  -2   10.72    0.57 
   2  -4   2   10.70    0.58 
  -3   4  -2    0.89    0.17 
   3  -4   2    1.44    0.21 
  -4   4  -2    0.53    0.17 
   4  -4   2    0.43    0.17 
   5  -4   2    6.20    0.38 
   5  -4   2    6.67    0.49 
   6  -4   2   19.22    1.05 
   6  -4   2   19.59    1.01 
   7  -4   2    3.68    0.30 
   7  -4   2    4.03    0.41 
   8  -4   2    0.95    0.29 
   9  -4   2   11.64    0.80 
  10  -4   2    2.71    0.44 
  11  -4   2   -0.37    0.28 
  12  -4   2    0.06    0.34 
  13  -4   2    0.58    0.38 
  14   3  -2   -0.53    0.32 
  13   3  -2    0.41    0.33 
  12   3  -2    0.65    0.27 
  12   3  -2    0.24    0.32 
  11   3  -2    0.83    0.28 
  11   3  -2    0.52    0.23 
  10   3  -2    1.05    0.22 
  10   3  -2    1.86    0.33 
   9   3  -2    0.03    0.21 
   9   3  -2    0.16    0.15 
   8   3  -2    0.99    0.22 
   8   3  -2    1.45    0.19 
   7   3  -2    0.73    0.19 
   7   3  -2    1.02    0.15 
   6   3  -2    2.38    0.19 
   6   3  -2    2.27    0.25 
   5   3  -2    5.59    0.29 
   5   3  -2    5.35    0.37 
   4   3  -2    0.58    0.07 
   4   3  -2    0.32    0.11 
   3   3  -2    1.50    0.15 
   3   3  -2    1.20    0.08 
   2   3  -2   15.95    0.81 
   1   3  -2    7.45    0.41 
   1   3  -2    7.29    0.38 
  -1  -3   2    7.56    0.36 
   0   3  -2    6.69    0.35 
   0   3  -2    6.74    0.36 
  -1   3  -2   29.99    1.47 
  -1   3  -2   30.16    1.39 
   1  -3   2   31.05    1.38 
  -2   3  -2   52.58    2.44 
   2  -3   2   55.33    2.41 
  -3   3  -2   43.98    1.99 
   3  -3   2   42.24    1.97 
  -4   3  -2   15.20    0.80 
   4  -3   2   15.79    0.79 
   4  -3   2   15.59    0.81 
   5  -3   2    4.16    0.36 
   5  -3   2    4.19    0.27 
   6  -3   2    2.22    0.20 
   6  -3   2    2.43    0.30 
   7  -3   2    0.97    0.26 
   7  -3   2    1.28    0.19 
   8  -3   2   27.16    1.37 
   8  -3   2   25.03    1.35 
   9  -3   2    0.37    0.28 
  10  -3   2    0.87    0.31 
  11  -3   2    1.63    0.39 
  12  -3   2    0.46    0.33 
  13  -3   2    1.11    0.40 
  14   2  -2    1.33    0.41 
  13   2  -2   -0.12    0.32 
  13   2  -2   -0.27    0.26 
  12   2  -2    1.19    0.31 
  12   2  -2    0.70    0.32 
  11   2  -2   13.71    0.89 
  11   2  -2   13.26    0.79 
  10   2  -2   34.33    1.76 
  10   2  -2   31.41    1.58 
   9   2  -2   26.19    1.27 
   9   2  -2   25.55    1.41 
   8   2  -2   -0.08    0.18 
   8   2  -2    0.44    0.16 
   7   2  -2    1.34    0.22 
   7   2  -2    1.42    0.19 
   6   2  -2   45.79    2.29 
   6   2  -2   46.08    2.06 
   5   2  -2    0.10    0.09 
   5   2  -2    0.10    0.12 
   4   2  -2    1.78    0.18 
   4   2  -2    1.88    0.14 
   3   2  -2    2.70    0.16 
   3   2  -2    2.27    0.20 
   2   2  -2    4.69    0.30 
   2   2  -2    5.20    0.24 
   1   2  -2    0.10    0.05 
  -1  -2   2    0.04    0.02 
   0   2  -2    1.05    0.09 
   0   2  -2    1.06    0.08 
  -1   2  -2    4.55    0.25 
  -1   2  -2    3.94    0.23 
   1  -2   2    4.22    0.25 
  -2   2  -2    3.01    0.21 
   2  -2   2    2.69    0.21 
  -3   2  -2   21.33    1.02 
   3  -2   2   21.75    1.04 
   3  -2   2   20.36    1.01 
   4  -2   2   20.56    1.02 
   4  -2   2   21.32    1.04 
   5  -2   2    0.02    0.13 
   5  -2   2    0.05    0.08 
   6  -2   2    2.90    0.29 
   6  -2   2    2.01    0.20 
   7  -2   2    9.19    0.59 
   7  -2   2    9.28    0.55 
   8  -2   2    0.97    0.19 
   8  -2   2    0.72    0.25 
   9  -2   2    0.85    0.28 
  10  -2   2    1.18    0.32 
  11  -2   2    3.18    0.45 
  12  -2   2    4.62    0.53 
  13  -2   2    2.28    0.44 
  14  -2   2    1.44    0.45 
  13   1  -2    0.49    0.34 
  13   1  -2    0.49    0.31 
  12   1  -2    0.66    0.29 
  12   1  -2    0.38    0.32 
  11   1  -2   -0.06    0.23 
  11   1  -2    0.24    0.27 
  10   1  -2   -0.15    0.23 
  10   1  -2    0.30    0.22 
   9   1  -2    0.39    0.23 
   9   1  -2    0.23    0.19 
   8   1  -2    3.29    0.31 
   8   1  -2    3.23    0.34 
   7   1  -2    0.51    0.17 
   7   1  -2    0.58    0.18 
   6   1  -2    1.14    0.20 
   6   1  -2    1.39    0.19 
   5   1  -2    5.64    0.34 
   5   1  -2    5.35    0.37 
   4   1  -2    2.58    0.19 
   4   1  -2    2.21    0.21 
   3   1  -2    6.74    0.34 
   3   1  -2    6.38    0.38 
   2   1  -2    3.44    0.22 
   2   1  -2    3.42    0.18 
   1   1  -2   32.12    1.56 
   0   1  -2   -0.79    0.04 
  -1   1  -2   67.02    3.02 
   1  -1   2   69.25    2.97 
  -2   1  -2   13.43    0.67 
   2  -1   2   13.95    0.66 
   2  -1   2   14.59    0.68 
  -3   1  -2    5.73    0.33 
   3  -1   2    6.02    0.31 
   3  -1   2    6.10    0.34 
   4  -1   2    1.47    0.17 
   4  -1   2    1.15    0.12 
   5  -1   2   27.40    1.25 
   5  -1   2   25.68    1.31 
   6  -1   2    4.47    0.31 
   6  -1   2    4.09    0.33 
   7  -1   2    0.35    0.14 
   7  -1   2    0.14    0.16 
   8  -1   2   23.61    1.21 
   8  -1   2   23.96    1.25 
   9  -1   2    1.68    0.24 
   9  -1   2    0.87    0.26 
  10  -1   2    0.18    0.23 
  11  -1   2    0.73    0.30 
  12  -1   2    0.13    0.30 
  13  -1   2    0.78    0.37 
  14  -1   2    0.54    0.39 
  14   0  -2    2.62    0.48 
  13   0  -2    9.95    0.75 
  12   0  -2   10.26    0.72 
  12   0  -2   10.39    0.76 
  11   0  -2    3.27    0.42 
  11   0  -2    2.47    0.38 
  10   0  -2    0.17    0.24 
  10   0  -2    1.20    0.28 
   9   0  -2    5.93    0.48 
   9   0  -2    6.02    0.49 
   8   0  -2    0.93    0.24 
   8   0  -2    0.61    0.20 
   7   0  -2    2.45    0.28 
   7   0  -2    2.93    0.29 
   6   0  -2    0.10    0.13 
   6   0  -2    0.07    0.13 
   5   0  -2   19.53    1.02 
   5   0  -2   19.36    0.94 
   4   0  -2    5.16    0.31 
   4   0  -2    5.08    0.33 
   3   0  -2    0.43    0.09 
   3   0  -2    0.25    0.08 
   2   0  -2    1.73    0.13 
   1   0  -2    6.12    0.29 
   0   0   2   34.83    1.58 
  -1   0  -2    1.83    0.11 
   1   0   2    1.65    0.10 
   1   0   2    1.61    0.11 
  -2   0  -2    0.30    0.06 
   2   0   2    0.29    0.06 
   2   0   2    0.37    0.05 
  -3   0  -2    2.25    0.18 
   3   0   2    2.51    0.18 
   3   0   2    2.54    0.17 
   4   0   2    0.36    0.10 
   4   0   2    0.25    0.08 
   5   0   2    0.08    0.08 
   5   0   2    0.10    0.09 
   6   0   2   26.27    1.25 
   6   0   2   26.16    1.32 
   7   0   2   14.27    0.72 
   7   0   2   12.58    0.73 
   8   0   2    5.70    0.41 
   8   0   2    7.04    0.45 
   9   0   2    8.56    0.55 
  10   0   2    6.87    0.51 
  10   0   2    9.31    0.59 
  11   0   2    8.48    0.63 
  12   0   2    5.75    0.55 
  13   0   2    1.51    0.38 
  14   0   2   -0.09    0.34 
  14  -1  -2    0.30    0.37 
  13  -1  -2   -0.02    0.33 
  12  -1  -2    0.20    0.29 
  11  -1  -2    1.06    0.32 
  11  -1  -2    1.27    0.34 
  10  -1  -2    3.20    0.39 
  10  -1  -2    2.38    0.37 
   9  -1  -2    4.28    0.44 
   9  -1  -2    5.38    0.46 
   8  -1  -2    9.53    0.67 
   8  -1  -2   12.17    0.71 
   7  -1  -2    0.80    0.22 
   7  -1  -2    0.16    0.16 
   6  -1  -2    3.39    0.30 
   6  -1  -2    2.94    0.30 
   5  -1  -2    9.90    0.57 
   5  -1  -2   10.54    0.60 
   4  -1  -2    4.72    0.32 
   4  -1  -2    4.58    0.30 
   3  -1  -2    0.76    0.12 
   2  -1  -2   16.55    0.77 
   1  -1  -2    2.15    0.14 
   0   1   2   38.25    1.68 
  -1  -1  -2   52.20    2.28 
   1   1   2   51.63    2.49 
   1   1   2   50.91    2.26 
  -2  -1  -2    1.31    0.10 
   2   1   2    1.41    0.12 
   3   1   2   11.64    0.56 
   4   1   2    0.16    0.07 
   4   1   2    0.04    0.02 
   5   1   2    2.44    0.20 
   6   1   2    0.08    0.06 
   6   1   2   -0.10    0.10 
   7   1   2    2.07    0.22 
   7   1   2    1.32    0.17 
   8   1   2    2.99    0.29 
   8   1   2    4.58    0.34 
   9   1   2    1.59    0.24 
   9   1   2    1.85    0.28 
  10   1   2    3.01    0.36 
  10   1   2    3.36    0.34 
  11   1   2    5.18    0.45 
  11   1   2    5.20    0.48 
  12   1   2    1.31    0.34 
  13   1   2    0.36    0.32 
  14   1   2   -0.13    0.31 
  15   1   2    1.20    0.44 
  13  -2  -2    0.01    0.36 
  12  -2  -2    0.10    0.29 
  11  -2  -2    0.46    0.31 
  11  -2  -2    0.71    0.33 
  10  -2  -2    3.30    0.41 
  10  -2  -2    3.61    0.45 
   9  -2  -2    2.46    0.34 
   9  -2  -2    3.79    0.43 
   8  -2  -2    0.35    0.20 
   8  -2  -2    0.38    0.26 
   7  -2  -2   27.64    1.37 
   7  -2  -2   27.39    1.45 
   6  -2  -2   20.03    1.06 
   6  -2  -2   19.31    1.01 
   5  -2  -2    0.84    0.19 
   5  -2  -2    0.84    0.16 
   4  -2  -2    0.18    0.12 
   3  -2  -2   32.68    1.49 
   2  -2  -2   25.02    1.15 
   1  -2  -2    5.47    0.29 
   0  -2  -2    0.45    0.07 
   1   2   2    0.05    0.05 
   1   2   2    0.03    0.05 
   2   2   2    1.77    0.12 
   2   2   2    1.67    0.14 
   3   2   2    0.50    0.08 
   3   2   2    0.72    0.10 
   4   2   2   10.80    0.52 
   4   2   2   10.14    0.56 
   5   2   2   16.27    0.82 
   5   2   2   14.98    0.75 
   6   2   2   51.03    2.31 
   6   2   2   51.99    2.53 
   7   2   2   21.87    1.09 
   7   2   2   23.20    1.18 
   8   2   2    0.15    0.15 
   8   2   2    0.03    0.15 
   9   2   2    1.06    0.22 
   9   2   2    0.72    0.21 
  10   2   2    3.89    0.39 
  10   2   2    4.19    0.39 
  11   2   2    0.34    0.25 
  11   2   2    0.12    0.24 
  12   2   2    1.35    0.32 
  13   2   2    8.28    0.67 
  14   2   2    3.73    0.50 
  15   2   2    6.26    0.65 
  13  -3  -2    0.34    0.37 
  12  -3  -2    1.48    0.41 
  11  -3  -2    1.48    0.40 
  10  -3  -2    0.74    0.29 
  10  -3  -2    0.87    0.34 
   9  -3  -2    1.24    0.29 
   9  -3  -2    0.89    0.32 
   8  -3  -2    3.19    0.34 
   8  -3  -2    2.97    0.39 
   7  -3  -2    2.58    0.36 
   7  -3  -2    3.05    0.31 
   6  -3  -2    3.37    0.31 
   6  -3  -2    3.97    0.37 
   5  -3  -2    2.07    0.27 
   4  -3  -2    1.07    0.19 
   3  -3  -2    4.29    0.30 
   2  -3  -2  137.31    5.98 
   1  -3  -2   31.46    1.42 
   0  -3  -2    2.38    0.16 
   0   3   2    2.56    0.20 
  -1  -3  -2    3.98    0.22 
   1   3   2    4.00    0.27 
   2   3   2    0.97    0.13 
   2   3   2    0.95    0.10 
   3   3   2    1.59    0.16 
   3   3   2    1.94    0.14 
   4   3   2    3.09    0.20 
   4   3   2    3.05    0.24 
   5   3   2    3.35    0.26 
   5   3   2    3.58    0.23 
   6   3   2   13.82    0.70 
   6   3   2   14.68    0.78 
   7   3   2    3.08    0.27 
   7   3   2    2.55    0.24 
   8   3   2   22.17    1.10 
   8   3   2   23.23    1.22 
   9   3   2    0.92    0.21 
   9   3   2    1.05    0.22 
  10   3   2    2.69    0.32 
  10   3   2    2.28    0.30 
  11   3   2    0.20    0.23 
  11   3   2    0.41    0.23 
  12   3   2    2.14    0.36 
  12   3   2    2.16    0.37 
  13   3   2    0.83    0.32 
  14   3   2    0.09    0.31 
  15   3   2    0.17    0.38 
  12  -4  -2    0.64    0.40 
  11  -4  -2    2.49    0.45 
  10  -4  -2    4.57    0.54 
   9  -4  -2    8.87    0.62 
   9  -4  -2    6.42    0.63 
   8  -4  -2    0.75    0.26 
   8  -4  -2    0.71    0.31 
   7  -4  -2   -0.04    0.24 
   7  -4  -2    0.34    0.17 
   6  -4  -2    8.24    0.58 
   5  -4  -2    5.08    0.41 
   4  -4  -2    0.38    0.18 
   3  -4  -2   24.28    1.16 
   2  -4  -2    1.15    0.16 
   1  -4  -2    0.43    0.11 
   0  -4  -2    2.13    0.16 
   0   4   2    1.83    0.18 
  -1  -4  -2    4.80    0.26 
   1   4   2    4.58    0.25 
   1   4   2    5.09    0.32 
   2   4   2    1.84    0.15 
   2   4   2    1.75    0.19 
   2   4   2    1.92    0.12 
   3   4   2    6.02    0.40 
   3   4   2    6.83    0.35 
   4   4   2    2.40    0.17 
   4   4   2    2.12    0.21 
   5   4   2    3.35    0.22 
   5   4   2    3.08    0.27 
   6   4   2    2.38    0.20 
   6   4   2    2.11    0.23 
   7   4   2    1.47    0.18 
   7   4   2    1.18    0.20 
   8   4   2    0.34    0.14 
   8   4   2    0.68    0.19 
   9   4   2    7.26    0.46 
   9   4   2    6.61    0.52 
  10   4   2    9.26    0.62 
  10   4   2    8.07    0.54 
  11   4   2   10.66    0.73 
  11   4   2   10.69    0.67 
  12   4   2   13.10    0.78 
  12   4   2   11.52    0.83 
  13   4   2   14.46    0.97 
  13   4   2   13.59    0.86 
  14   4   2    6.85    0.62 
  12  -5  -2    0.29    0.42 
  11  -5  -2   -0.41    0.36 
  10  -5  -2    0.37    0.37 
   9  -5  -2    0.70    0.36 
   9  -5  -2    1.20    0.31 
   8  -5  -2    1.63    0.37 
   8  -5  -2    2.03    0.32 
   7  -5  -2    8.72    0.64 
   7  -5  -2    7.89    0.56 
   6  -5  -2    0.88    0.30 
   5  -5  -2   14.74    0.84 
   4  -5  -2   14.57    0.80 
   3  -5  -2    8.30    0.51 
   2  -5  -2   35.70    1.65 
   1  -5  -2    0.37    0.13 
   0  -5  -2   14.75    0.70 
   0   5   2   13.92    0.78 
  -1  -5  -2    0.96    0.12 
   1   5   2    1.01    0.15 
   1   5   2    1.08    0.11 
  -2  -5  -2    0.18    0.07 
   2   5   2    0.29    0.07 
   2   5   2    0.37    0.12 
   3   5   2   21.97    1.03 
   3   5   2   21.30    1.17 
   3   5   2   23.59    1.01 
   4   5   2  137.40    5.85 
   4   5   2  131.85    6.49 
   5   5   2    0.37    0.14 
   5   5   2    0.60    0.11 
   6   5   2   16.01    0.88 
   6   5   2   15.40    0.76 
   7   5   2    0.20    0.15 
   7   5   2    0.40    0.12 
   8   5   2    4.77    0.41 
   8   5   2    5.27    0.34 
   9   5   2   13.60    0.84 
   9   5   2   14.39    0.75 
  10   5   2    3.68    0.33 
  10   5   2    3.03    0.37 
  11   5   2    0.74    0.28 
  11   5   2    1.74    0.28 
  12   5   2    1.07    0.32 
  12   5   2    0.98    0.28 
  13   5   2    1.00    0.37 
  13   5   2    0.85    0.31 
  14   5   2    0.78    0.34 
  14   5   2    1.55    0.41 
  11  -6  -2    1.71    0.51 
  10  -6  -2    1.68    0.47 
   9  -6  -2    0.44    0.37 
   8  -6  -2    0.89    0.27 
   8  -6  -2    0.80    0.38 
   7  -6  -2    0.96    0.34 
   6  -6  -2   -0.03    0.27 
   5  -6  -2    3.86    0.42 
   4  -6  -2   11.58    0.70 
   3  -6  -2   19.62    1.01 
   2  -6  -2    1.72    0.22 
   1  -6  -2    1.06    0.18 
   0  -6  -2    0.92    0.15 
   0   6   2    1.04    0.17 
  -1  -6  -2    7.03    0.39 
   1   6   2    7.59    0.48 
  -2  -6  -2    2.47    0.19 
   2   6   2    2.84    0.19 
   2   6   2    2.68    0.26 
  -3  -6  -2    6.24    0.33 
   3   6   2    6.27    0.44 
   3   6   2    6.40    0.32 
   4   6   2    5.13    0.26 
   4   6   2    4.98    0.31 
   4   6   2    4.94    0.39 
   5   6   2   -0.03    0.12 
   5   6   2    0.05    0.08 
   6   6   2    0.10    0.09 
   6   6   2   -0.07    0.11 
   7   6   2    2.41    0.30 
   7   6   2    2.98    0.23 
   8   6   2   17.19    0.84 
   8   6   2   16.94    0.99 
   9   6   2   26.84    1.40 
   9   6   2   24.13    1.21 
  10   6   2    2.34    0.35 
  10   6   2    2.66    0.27 
  11   6   2    4.23    0.39 
  11   6   2    5.32    0.49 
  12   6   2    4.99    0.51 
  12   6   2    4.32    0.42 
  13   6   2    0.58    0.29 
  13   6   2    0.87    0.35 
  14   6   2    0.02    0.33 
  11  -7  -2    0.68    0.46 
  10  -7  -2    1.29    0.48 
   9  -7  -2    0.03    0.37 
   8  -7  -2    2.66    0.49 
   7  -7  -2    3.67    0.50 
   6  -7  -2    0.74    0.34 
   5  -7  -2   10.15    0.72 
   4  -7  -2    1.80    0.33 
   3  -7  -2   11.78    0.70 
   2  -7  -2    7.67    0.49 
   1  -7  -2    3.15    0.29 
   0  -7  -2   16.24    0.83 
   0   7   2   16.54    0.92 
  -1  -7  -2   35.92    1.65 
   1   7   2   36.53    1.86 
  -2  -7  -2   32.31    1.45 
   2   7   2   31.86    1.46 
   2   7   2   31.45    1.65 
  -3  -7  -2    8.46    0.45 
   3   7   2    8.86    0.57 
   3   7   2    8.72    0.44 
   4   7   2    2.05    0.25 
   4   7   2    2.53    0.20 
   4   7   2    1.88    0.15 
   5   7   2    1.32    0.16 
   5   7   2    1.32    0.12 
   5   7   2    1.33    0.22 
   6   7   2    0.21    0.11 
   6   7   2    0.35    0.18 
   7   7   2    0.77    0.22 
   7   7   2    0.76    0.14 
   8   7   2    0.77    0.23 
   8   7   2    0.74    0.16 
   9   7   2   -0.08    0.20 
   9   7   2    0.00    0.13 
  10   7   2   18.08    0.94 
  10   7   2   19.81    1.13 
  11   7   2    0.21    0.27 
  11   7   2   -0.08    0.16 
  12   7   2    0.56    0.32 
  12   7   2    0.24    0.22 
  13   7   2    1.64    0.40 
  14   7   2    0.52    0.37 
  15   7   2    0.50    0.42 
  10  -8  -2    3.73    0.64 
   9  -8  -2    0.41    0.43 
   8  -8  -2    0.02    0.37 
   7  -8  -2    2.73    0.50 
   6  -8  -2    3.62    0.51 
   5  -8  -2    2.61    0.41 
   4  -8  -2    0.81    0.31 
   3  -8  -2    0.07    0.23 
   2  -8  -2    0.19    0.21 
   1  -8  -2    0.04    0.16 
   0  -8  -2    0.57    0.17 
   0   8   2    0.76    0.20 
  -1  -8  -2    0.55    0.15 
   1   8   2    0.47    0.15 
   1   8   2    0.57    0.18 
  -2  -8  -2    0.95    0.15 
   2   8   2    0.67    0.14 
   2   8   2    0.63    0.19 
  -3  -8  -2    0.10    0.09 
   3   8   2    0.28    0.15 
   3   8   2    0.08    0.10 
  -4  -8  -2   -0.05    0.09 
   4   8   2    0.10    0.15 
   4   8   2    0.12    0.09 
   5   8   2    0.78    0.20 
   5   8   2    0.42    0.10 
   5   8   2    0.58    0.13 
   6   8   2    0.60    0.10 
   6   8   2    0.21    0.17 
   6   8   2    0.38    0.13 
   7   8   2    3.16    0.36 
   7   8   2    4.13    0.28 
   8   8   2    3.20    0.37 
   8   8   2    2.77    0.25 
   9   8   2    0.27    0.14 
   9   8   2    0.17    0.23 
  10   8   2    0.38    0.16 
  10   8   2    0.27    0.26 
  11   8   2    0.23    0.29 
  11   8   2    0.63    0.20 
  12   8   2    2.68    0.32 
  12   8   2    2.83    0.45 
  13   8   2    9.14    0.78 
  14   8   2    7.30    0.72 
  15   8   2    6.47    0.71 
   9  -9  -2   -0.55    0.40 
   8  -9  -2   -0.24    0.37 
   7  -9  -2   -0.26    0.37 
   6  -9  -2    0.19    0.36 
   5  -9  -2    0.98    0.35 
   4  -9  -2    7.81    0.63 
   3  -9  -2    2.27    0.36 
   2  -9  -2    9.48    0.63 
   1  -9  -2   20.69    1.07 
   0  -9  -2    4.08    0.34 
   0   9   2    3.18    0.36 
  -1  -9  -2    2.71    0.27 
   1   9   2    2.42    0.25 
   1   9   2    2.00    0.30 
  -2  -9  -2    0.53    0.16 
   2   9   2    0.42    0.13 
   2   9   2    0.57    0.20 
  -3  -9  -2   -0.04    0.11 
   3   9   2    0.00    0.12 
   3   9   2   -0.03    0.15 
  -4  -9  -2    2.28    0.20 
   4   9   2    2.28    0.20 
   4   9   2    1.69    0.29 
  -5  -9  -2    1.63    0.18 
   5   9   2    1.59    0.28 
   5   9   2    1.88    0.17 
   6   9   2    8.29    0.62 
   6   9   2    9.73    0.47 
   6   9   2    8.58    0.50 
   7   9   2   34.77    1.57 
   7   9   2   34.75    1.85 
   7   9   2   34.24    1.60 
   8   9   2    6.31    0.55 
   8   9   2    7.30    0.43 
   9   9   2    3.59    0.42 
   9   9   2    3.44    0.29 
  10   9   2    9.32    0.54 
  10   9   2    9.15    0.70 
  11   9   2    1.10    0.21 
  11   9   2    0.69    0.32 
  12   9   2    0.24    0.31 
  13   9   2    1.25    0.41 
  14   9   2    0.04    0.36 
  15   9   2   -0.05    0.38 
  16   9   2    1.67    0.50 
   8 -10  -2    0.68    0.47 
   7 -10  -2    0.43    0.42 
   6 -10  -2    1.22    0.43 
   5 -10  -2    1.13    0.40 
   4 -10  -2    0.37    0.32 
   3 -10  -2   -0.14    0.26 
   2 -10  -2   -0.42    0.22 
   1 -10  -2    2.28    0.33 
   0 -10  -2    6.39    0.48 
   0  10   2    6.55    0.53 
  -1 -10  -2    1.12    0.23 
   1  10   2    0.94    0.25 
   1  10   2    1.31    0.22 
  -2 -10  -2    0.17    0.15 
   2  10   2    0.04    0.06 
   2  10   2   -0.31    0.16 
  -3 -10  -2    0.22    0.14 
   3  10   2    0.45    0.22 
   3  10   2    0.35    0.16 
  -4 -10  -2    0.30    0.13 
   4  10   2    0.74    0.24 
   4  10   2    0.51    0.15 
  -5 -10  -2    0.08    0.12 
   5  10   2    0.22    0.21 
   5  10   2    0.12    0.12 
  -6 -10  -2    0.55    0.14 
   6  10   2    0.82    0.14 
   6  10   2    0.76    0.27 
   7  10   2    0.04    0.23 
   7  10   2    0.32    0.15 
   7  10   2    0.30    0.12 
   8  10   2    0.84    0.18 
   8  10   2    0.90    0.30 
   9  10   2    0.33    0.26 
   9  10   2   -0.23    0.14 
  10  10   2    3.63    0.31 
  10  10   2    3.29    0.45 
  11  10   2    6.11    0.59 
  12  10   2    7.20    0.69 
  13  10   2    3.43    0.52 
  14  10   2    3.69    0.57 
  15  10   2    0.24    0.40 
  16  10   2    0.72    0.47 
   8 -11  -2    1.26    0.52 
   7 -11  -2    0.15    0.41 
   6 -11  -2    0.33    0.40 
   5 -11  -2    2.41    0.49 
   4 -11  -2    4.19    0.52 
   3 -11  -2    0.21    0.30 
   2 -11  -2    1.60    0.33 
   1 -11  -2    0.03    0.24 
   0 -11  -2    1.59    0.29 
   0  11   2    1.70    0.33 
  -1 -11  -2    2.66    0.32 
   1  11   2    3.41    0.34 
   1  11   2    3.25    0.41 
  -2 -11  -2    3.85    0.35 
   2  11   2    4.46    0.46 
  -3 -11  -2    2.22    0.25 
   3  11   2    2.74    0.26 
   3  11   2    1.42    0.33 
  -4 -11  -2   18.38    0.90 
   4  11   2   16.98    1.08 
   4  11   2   18.39    0.91 
  -5 -11  -2   28.24    1.35 
   5  11   2   28.77    1.62 
   5  11   2   29.96    1.37 
  -6 -11  -2    3.11    0.26 
   6  11   2    3.25    0.43 
  -7 -11  -2    0.36    0.09 
   7  11   2    1.00    0.29 
   8  11   2    2.03    0.39 
   9  11   2    4.01    0.50 
   9  11   2    5.34    0.38 
  10  11   2    1.68    0.39 
  11  11   2   -0.10    0.30 
  12  11   2   -0.02    0.34 
  13  11   2    3.32    0.55 
  14  11   2    0.99    0.45 
  15  11   2   -0.30    0.37 
   7 -12  -2    0.03    0.41 
   6 -12  -2    0.41    0.40 
   5 -12  -2    0.19    0.38 
   4 -12  -2   -0.03    0.33 
   3 -12  -2    3.24    0.49 
   2 -12  -2    2.85    0.43 
   1 -12  -2    4.90    0.48 
   0 -12  -2   -0.16    0.23 
   0  12   2    0.52    0.29 
  -1 -12  -2    3.03    0.34 
   1  12   2    3.15    0.43 
  -2 -12  -2    0.08    0.21 
   2  12   2   -0.24    0.18 
   2  12   2    0.10    0.27 
  -3 -12  -2    1.82    0.27 
   3  12   2    1.70    0.26 
   3  12   2    1.62    0.36 
  -4 -12  -2    1.44    0.23 
   4  12   2    1.94    0.24 
   4  12   2    1.19    0.32 
  -5 -12  -2    0.65    0.18 
   5  12   2    0.45    0.29 
  -6 -12  -2    1.24    0.20 
   6  12   2    1.48    0.36 
  -7 -12  -2    0.19    0.08 
   7  12   2    0.66    0.31 
  -8 -12  -2    1.75    0.21 
   8  12   2    2.99    0.44 
   9  12   2    0.26    0.31 
  10  12   2    0.20    0.29 
  11  12   2    2.41    0.48 
  12  12   2   -0.03    0.32 
  13  12   2    0.29    0.40 
  14  12   2    0.33    0.43 
  15  12   2    1.47    0.52 
   6 -13  -2    0.07    0.44 
   5 -13  -2    0.18    0.38 
   4 -13  -2    0.01    0.37 
   3 -13  -2   -0.12    0.33 
   2 -13  -2    1.00    0.37 
   1 -13  -2    3.02    0.43 
   0 -13  -2    0.24    0.27 
  -1 -13  -2    5.23    0.45 
   1  13   2    3.92    0.52 
  -2 -13  -2   13.34    0.79 
   2  13   2   14.18    0.80 
   2  13   2   13.30    0.92 
  -3 -13  -2    3.55    0.38 
   3  13   2    4.43    0.38 
   3  13   2    5.13    0.53 
  -4 -13  -2    1.52    0.26 
   4  13   2    1.53    0.37 
  -5 -13  -2    0.42    0.20 
   5  13   2    0.01    0.30 
  -6 -13  -2    0.92    0.20 
   6  13   2    1.00    0.37 
  -7 -13  -2    1.09    0.16 
   7  13   2    2.29    0.42 
   8  13   2    1.08    0.36 
   9  13   2    3.66    0.50 
  10  13   2    7.94    0.73 
  11  13   2    1.65    0.46 
  12  13   2    0.00    0.37 
  13  13   2    0.50    0.41 
  14  13   2    3.15    0.60 
  15  13   2    0.18    0.44 
   5 -14  -2    1.17    0.47 
   4 -14  -2   -0.05    0.40 
   3 -14  -2    1.32    0.44 
   2 -14  -2    0.24    0.35 
   1 -14  -2   -0.40    0.29 
   0 -14  -2   -0.40    0.26 
  -1 -14  -2    0.62    0.28 
   1  14   2    0.52    0.34 
  -2 -14  -2    0.63    0.27 
   2  14   2    0.49    0.35 
  -3 -14  -2    1.89    0.32 
   3  14   2    1.73    0.40 
  -4 -14  -2    2.26    0.31 
   4  14   2    1.84    0.43 
  -5 -14  -2    1.67    0.27 
   5  14   2    1.47    0.41 
  -6 -14  -2    0.46    0.22 
   6  14   2    0.76    0.35 
   7  14   2   -0.14    0.30 
   8  14   2   -0.10    0.34 
   9  14   2    0.36    0.36 
  10  14   2    0.36    0.35 
  11  14   2    0.12    0.37 
  12  14   2    0.24    0.39 
  13  14   2    0.80    0.46 
  14  14   2    1.11    0.50 
  15  14   2    1.67    0.52 
   3 -15  -2   -0.23    0.37 
   2 -15  -2    0.12    0.34 
   1 -15  -2    0.18    0.32 
   0 -15  -2    0.07    0.30 
  -1 -15  -2    2.49    0.39 
   1  15   2    2.40    0.47 
  -2 -15  -2    0.26    0.27 
   2  15   2   -0.33    0.33 
  -3 -15  -2    1.72    0.32 
   3  15   2    2.16    0.47 
  -4 -15  -2    2.31    0.34 
   4  15   2    2.70    0.50 
  -5 -15  -2    3.26    0.36 
   5  15   2    3.20    0.52 
   6  15   2    1.51    0.43 
   7  15   2    6.83    0.70 
   8  15   2    4.93    0.64 
   9  15   2    0.39    0.44 
  10  15   2    0.68    0.44 
  11  15   2    0.36    0.38 
  12  15   2    0.42    0.41 
  13  15   2    0.38    0.42 
  14  15   2    0.39    0.47 
   2 -16  -2   -0.01    0.36 
   1 -16  -2   -0.13    0.32 
   0 -16  -2    0.57    0.34 
  -1 -16  -2    0.06    0.30 
  -2 -16  -2    0.49    0.31 
   2  16   2    0.33    0.41 
  -3 -16  -2    0.24    0.27 
   3  16   2   -0.27    0.36 
  -4 -16  -2    0.42    0.27 
   4  16   2    0.15    0.39 
   5  16   2    0.02    0.35 
   6  16   2    0.82    0.41 
   7  16   2    0.04    0.40 
   8  16   2    0.18    0.41 
   9  16   2   -0.11    0.40 
  10  16   2   -0.07    0.40 
  11  16   2    0.05    0.43 
  12  16   2    0.44    0.45 
  13  16   2   -0.25    0.39 
   0 -17  -2    0.30    0.35 
  -1 -17  -2    1.41    0.40 
  -2 -17  -2   -0.06    0.30 
   2  17   2    0.45    0.43 
  -3 -17  -2    0.22    0.31 
   3  17   2    1.03    0.48 
   4  17   2    0.12    0.42 
   5  17   2    2.11    0.54 
   6  17   2    0.70    0.46 
   7  17   2    0.37    0.44 
   8  17   2   -0.02    0.42 
   9  17   2   -0.56    0.40 
  10  17   2   -0.19    0.42 
  11  17   2    0.21    0.50 
  12  17   2    0.00    0.45 
  -2 -18  -2    0.63    0.37 
   3  18   2   -0.02    0.48 
   4  18   2    1.46    0.57 
   5  18   2   -0.04    0.44 
   6  18   2    0.39    0.49 
   7  18   2    0.91    0.50 
   8  18   2   -0.26    0.45 
   9  18   2   -0.62    0.45 
  10  18   2    0.35    0.48 
  11  18   2   -0.33    0.49 
   5  19   2    0.62    0.53 
   6  19   2   -0.21    0.49 
   7  19   2    0.99    0.55 
   8  19   2    1.00    0.52 
   7  19  -3   -0.63    0.46 
   6  19  -3    0.21    0.49 
  10  18  -3    0.82    0.50 
   9  18  -3    2.68    0.61 
   8  18  -3    0.92    0.48 
   7  18  -3    0.16    0.45 
   6  18  -3    0.68    0.47 
   5  18  -3    0.84    0.48 
  12  17  -3   -0.33    0.43 
  11  17  -3    0.19    0.45 
  10  17  -3    1.65    0.53 
   9  17  -3   -0.02    0.42 
   8  17  -3    0.67    0.45 
   7  17  -3    0.19    0.41 
   6  17  -3    0.30    0.41 
   5  17  -3   -0.19    0.39 
   4  17  -3    0.90    0.42 
   3  17  -3    0.11    0.34 
   2  17  -3    0.22    0.36 
   1  17  -3    0.64    0.40 
   0  17  -3    0.42    0.39 
  -1  17  -3   -0.29    0.37 
  13  16  -3   -0.37    0.44 
  12  16  -3    1.41    0.50 
  11  16  -3    1.60    0.53 
  10  16  -3   -0.15    0.37 
   9  16  -3    1.16    0.45 
   8  16  -3    0.07    0.38 
   7  16  -3    0.16    0.38 
   6  16  -3    2.35    0.50 
   5  16  -3    1.04    0.41 
   4  16  -3    0.28    0.38 
   4  16  -3    0.14    0.30 
   3  16  -3    0.38    0.33 
   3  16  -3    0.43    0.36 
   2  16  -3   -0.26    0.30 
   1  16  -3    0.78    0.37 
   0  16  -3    0.18    0.36 
  -1  16  -3    1.51    0.42 
   1 -16   3    1.18    0.43 
   2 -16   3    0.27    0.38 
  13  15  -3    1.35    0.50 
  12  15  -3    1.43    0.49 
  11  15  -3    0.32    0.42 
  10  15  -3   -0.35    0.36 
   9  15  -3    0.26    0.38 
   8  15  -3    0.39    0.38 
   7  15  -3    0.23    0.34 
   6  15  -3   -0.40    0.31 
   6  15  -3   -0.16    0.25 
   5  15  -3   -0.01    0.26 
   5  15  -3    0.31    0.34 
   4  15  -3   -0.04    0.27 
   4  15  -3    0.02    0.31 
   3  15  -3   -0.06    0.31 
   3  15  -3    0.00    0.30 
   2  15  -3    0.53    0.33 
   2  15  -3    0.41    0.35 
   1  15  -3    0.44    0.33 
   0  15  -3    0.20    0.34 
   0 -15   3    0.42    0.35 
  -1  15  -3    0.33    0.34 
   1 -15   3    0.20    0.35 
  -2  15  -3    1.03    0.42 
   2 -15   3    1.05    0.41 
   3 -15   3   -0.74    0.34 
   4 -15   3    1.57    0.46 
  14  14  -3    2.57    0.58 
  13  14  -3    0.00    0.37 
  12  14  -3    2.36    0.53 
  11  14  -3    0.36    0.38 
  10  14  -3    1.03    0.38 
   9  14  -3    5.37    0.61 
   8  14  -3    0.56    0.27 
   8  14  -3    0.92    0.36 
   7  14  -3    1.49    0.29 
   7  14  -3    1.21    0.39 
   6  14  -3    3.65    0.49 
   6  14  -3    3.23    0.36 
   5  14  -3    3.48    0.49 
   5  14  -3    4.24    0.40 
   4  14  -3    1.51    0.31 
   4  14  -3    0.78    0.34 
   3  14  -3    5.75    0.58 
   3  14  -3    5.61    0.49 
   2  14  -3    2.22    0.41 
   2  14  -3    2.82    0.40 
   1  14  -3    2.96    0.43 
  -1 -14   3    2.74    0.43 
   0  14  -3    0.03    0.32 
   0 -14   3    0.09    0.31 
  -1  14  -3    5.71    0.57 
   1 -14   3    5.10    0.57 
  -2  14  -3    0.29    0.36 
   2 -14   3   -0.14    0.33 
   3 -14   3   -0.10    0.35 
   4 -14   3   -0.40    0.34 
   5 -14   3    0.57    0.43 
  14  13  -3    0.49    0.43 
  13  13  -3   -0.23    0.35 
  12  13  -3    0.48    0.40 
  11  13  -3    0.73    0.41 
  10  13  -3    0.02    0.32 
   9  13  -3    0.28    0.34 
   9  13  -3   -0.07    0.22 
   8  13  -3    1.61    0.27 
   8  13  -3    1.48    0.39 
   7  13  -3    0.83    0.34 
   7  13  -3    0.90    0.25 
   6  13  -3    0.57    0.32 
   6  13  -3    1.03    0.24 
   5  13  -3    0.62    0.30 
   5  13  -3    0.37    0.22 
   4  13  -3    0.16    0.23 
   4  13  -3   -0.11    0.26 
   3  13  -3    8.06    0.66 
   3  13  -3    8.67    0.59 
   2  13  -3    2.41    0.36 
   2  13  -3    2.90    0.40 
  -2 -13   3    2.77    0.35 
   1  13  -3   -0.03    0.27 
   1  13  -3   -0.36    0.25 
  -1 -13   3    0.02    0.27 
   0  13  -3    0.89    0.32 
   0 -13   3    0.40    0.31 
  -1  13  -3    0.65    0.32 
   1 -13   3   -0.36    0.29 
  -2  13  -3   -0.04    0.32 
   2 -13   3    0.27    0.35 
  -3  13  -3    0.25    0.36 
   3 -13   3   -0.07    0.33 
   4 -13   3    0.05    0.36 
   5 -13   3    0.05    0.39 
   6 -13   3    0.07    0.38 
  15  12  -3    0.72    0.45 
  14  12  -3    0.56    0.42 
  13  12  -3    0.95    0.43 
  12  12  -3    7.37    0.72 
  11  12  -3    3.46    0.52 
  10  12  -3    0.92    0.35 
   9  12  -3    2.41    0.41 
   8  12  -3    2.98    0.43 
   8  12  -3    2.37    0.31 
   7  12  -3    3.06    0.31 
   7  12  -3    3.10    0.42 
   6  12  -3   10.94    0.66 
   6  12  -3   12.70    0.81 
   5  12  -3    0.27    0.20 
   5  12  -3    0.49    0.28 
   4  12  -3    2.93    0.33 
   4  12  -3    2.95    0.39 
   3  12  -3    4.39    0.40 
   3  12  -3    4.01    0.45 
  -3 -12   3    4.45    0.38 
   2  12  -3    1.20    0.28 
   2  12  -3    1.50    0.29 
  -2 -12   3    0.32    0.16 
   1  12  -3   11.98    0.75 
   1  12  -3   10.74    0.74 
  -1 -12   3   11.02    0.71 
   0  12  -3   -0.35    0.25 
   0  12  -3    0.12    0.20 
   0 -12   3    0.02    0.27 
  -1  12  -3    0.15    0.26 
   1 -12   3    0.43    0.31 
  -2  12  -3    0.02    0.30 
   2 -12   3    0.15    0.32 
  -3  12  -3    0.35    0.32 
   3 -12   3   -0.06    0.32 
   4 -12   3    1.22    0.41 
   5 -12   3    0.02    0.37 
   6 -12   3    0.43    0.42 
   7 -12   3    1.32    0.47 
  15  11  -3    0.08    0.42 
  14  11  -3    1.49    0.47 
  13  11  -3    1.73    0.44 
  12  11  -3    0.14    0.34 
  11  11  -3    0.11    0.32 
  10  11  -3    0.42    0.31 
   9  11  -3    2.78    0.43 
   8  11  -3    9.72    0.74 
   7  11  -3    0.61    0.28 
   7  11  -3    0.54    0.19 
   6  11  -3    1.73    0.32 
   6  11  -3    2.38    0.26 
   5  11  -3    4.17    0.33 
   5  11  -3    2.78    0.37 
   4  11  -3   -0.01    0.16 
   4  11  -3    0.37    0.22 
  -4 -11   3   -0.11    0.14 
   3  11  -3    6.44    0.44 
   3  11  -3    7.02    0.52 
  -3 -11   3    5.47    0.42 
   2  11  -3    1.58    0.27 
   2  11  -3    1.87    0.29 
   1  11  -3    4.36    0.42 
   1  11  -3    6.07    0.46 
  -1 -11   3    5.11    0.45 
   0  11  -3    2.00    0.28 
   0  11  -3    1.56    0.30 
   0 -11   3    1.85    0.33 
  -1  11  -3    2.96    0.39 
  -1  11  -3    4.42    0.38 
   1 -11   3    3.28    0.43 
  -2  11  -3    3.03    0.41 
   2 -11   3    3.03    0.43 
  -3  11  -3    0.75    0.32 
   3 -11   3    0.44    0.33 
  -4  11  -3    1.57    0.39 
   4 -11   3    0.82    0.38 
   5 -11   3    2.28    0.49 
   6 -11   3    1.55    0.47 
   7 -11   3    1.03    0.41 
   8 -11   3    0.08    0.39 
  15  10  -3    0.33    0.42 
  14  10  -3    1.56    0.47 
  13  10  -3   -0.19    0.35 
  12  10  -3    0.27    0.35 
  11  10  -3    5.40    0.55 
  10  10  -3   -0.19    0.25 
   9  10  -3    0.52    0.29 
   8  10  -3   17.64    1.06 
   7  10  -3    0.56    0.26 
   6  10  -3    0.96    0.20 
   6  10  -3    1.23    0.27 
   5  10  -3    3.75    0.37 
   5  10  -3    3.85    0.31 
   4  10  -3    4.48    0.41 
   4  10  -3    5.32    0.36 
  -4 -10   3    4.46    0.32 
   3  10  -3   20.59    1.13 
   3  10  -3   20.01    1.01 
  -3 -10   3   19.64    0.98 
   2  10  -3    0.29    0.18 
   2  10  -3    0.18    0.18 
  -2 -10   3    0.18    0.16 
   1  10  -3   11.41    0.71 
   1  10  -3   11.17    0.66 
  -1 -10   3   10.98    0.66 
   0  10  -3    6.51    0.48 
   0  10  -3    6.26    0.47 
   0 -10   3    5.94    0.49 
  -1  10  -3    0.12    0.18 
  -1  10  -3    0.07    0.24 
   1 -10   3    0.55    0.24 
  -2  10  -3    4.86    0.47 
   2 -10   3    5.62    0.52 
  -3  10  -3    0.68    0.30 
   3 -10   3    0.67    0.31 
  -4  10  -3    2.49    0.41 
   4 -10   3    2.08    0.41 
   5 -10   3    1.74    0.41 
   6 -10   3    1.68    0.47 
   7 -10   3    0.53    0.39 
   8 -10   3    0.20    0.39 
   9 -10   3   -0.33    0.37 
  15   9  -3    0.19    0.38 
  14   9  -3    0.90    0.41 
  13   9  -3   -0.07    0.36 
  12   9  -3    0.61    0.35 
  11   9  -3    0.23    0.31 
  10   9  -3    2.60    0.41 
   9   9  -3    2.20    0.37 
   8   9  -3    1.68    0.31 
   7   9  -3    0.28    0.21 
   6   9  -3    6.04    0.47 
   5   9  -3    5.88    0.45 
   5   9  -3    6.45    0.39 
  -5  -9   3    5.61    0.32 
   4   9  -3    0.37    0.15 
   4   9  -3    0.37    0.18 
  -4  -9   3    0.78    0.13 
   3   9  -3    0.09    0.16 
   3   9  -3    0.26    0.15 
  -3  -9   3    0.40    0.14 
   2   9  -3   43.09    1.97 
   2   9  -3   42.16    2.14 
  -2  -9   3   41.42    1.94 
   1   9  -3   46.71    2.34 
   1   9  -3   46.63    2.16 
  -1  -9   3   45.63    2.14 
   0   9  -3    0.32    0.19 
   0   9  -3    0.01    0.14 
   0  -9   3    0.25    0.19 
  -1   9  -3    0.14    0.21 
  -1   9  -3   -0.01    0.14 
   1  -9   3    0.27    0.22 
  -2   9  -3    7.79    0.52 
   2  -9   3    5.82    0.54 
  -3   9  -3    7.15    0.55 
   3  -9   3    7.02    0.59 
  -4   9  -3    1.07    0.31 
   4  -9   3    0.79    0.32 
   5  -9   3    0.95    0.36 
   6  -9   3    2.29    0.47 
   7  -9   3    0.99    0.40 
   8  -9   3   -0.15    0.34 
   9  -9   3   -0.10    0.34 
  10  -9   3    0.30    0.41 
  15   8  -3    0.45    0.40 
  14   8  -3   -0.25    0.36 
  13   8  -3    0.82    0.37 
  12   8  -3    0.71    0.36 
  11   8  -3    0.51    0.30 
  10   8  -3    4.48    0.47 
   9   8  -3    0.86    0.29 
   8   8  -3   13.63    0.85 
   7   8  -3    0.86    0.23 
   6   8  -3    0.42    0.18 
   5   8  -3   32.20    1.64 
  -5  -8   3   30.99    1.39 
   4   8  -3    1.28    0.18 
   4   8  -3    1.58    0.23 
  -4  -8   3    1.09    0.13 
   3   8  -3    0.09    0.14 
   3   8  -3    0.24    0.14 
  -3  -8   3    0.04    0.10 
   2   8  -3    6.85    0.43 
   2   8  -3    7.36    0.48 
  -2  -8   3    6.94    0.42 
   1   8  -3    2.53    0.26 
   1   8  -3    2.73    0.26 
   0   8  -3    3.15    0.31 
   0   8  -3    3.15    0.28 
   0  -8   3    3.35    0.32 
  -1   8  -3   12.37    0.72 
  -1   8  -3   13.03    0.73 
   1  -8   3   13.35    0.75 
  -2   8  -3    5.70    0.44 
   2  -8   3    5.87    0.49 
  -3   8  -3    0.28    0.25 
   3  -8   3    0.02    0.25 
  -4   8  -3    1.18    0.31 
   4  -8   3    0.75    0.31 
   5  -8   3    1.07    0.33 
   6  -8   3    1.37    0.38 
   7  -8   3    0.41    0.34 
   8  -8   3    0.31    0.37 
   9  -8   3   -0.31    0.33 
  10  -8   3    0.44    0.39 
  15   7  -3   -0.11    0.39 
  14   7  -3   -0.10    0.34 
  13   7  -3   -0.24    0.31 
  12   7  -3    0.57    0.35 
  11   7  -3    0.03    0.28 
  10   7  -3    0.75    0.30 
   9   7  -3    0.13    0.22 
   8   7  -3    3.85    0.40 
   7   7  -3    3.55    0.20 
   7   7  -3    3.34    0.35 
   6   7  -3   25.54    1.36 
   5   7  -3   25.25    1.33 
   4   7  -3   41.73    2.01 
  -4  -7   3   38.74    1.75 
   3   7  -3   31.58    1.59 
   3   7  -3   31.92    1.45 
  -3  -7   3   30.10    1.39 
   2   7  -3    3.35    0.28 
   2   7  -3    3.19    0.26 
  -2  -7   3    3.17    0.24 
   1   7  -3    0.81    0.16 
   1   7  -3    0.93    0.15 
  -1  -7   3    0.44    0.10 
   0   7  -3    8.56    0.53 
   0   7  -3    8.67    0.51 
   0  -7   3    9.33    0.53 
  -1   7  -3    8.70    0.51 
  -1   7  -3    8.20    0.49 
   1  -7   3    7.63    0.52 
  -2   7  -3    0.59    0.21 
  -2   7  -3    0.28    0.12 
   2  -7   3    0.57    0.21 
  -3   7  -3    0.27    0.20 
   3  -7   3    0.28    0.22 
  -4   7  -3   18.07    0.97 
   4  -7   3   16.83    0.99 
  -5   7  -3   20.68    1.14 
   5  -7   3   21.15    1.18 
   6  -7   3   13.87    0.89 
   7  -7   3    0.22    0.29 
   8  -7   3    2.93    0.48 
   9  -7   3    3.88    0.53 
  10  -7   3    0.97    0.41 
  11  -7   3    0.34    0.43 
  15   6  -3    1.09    0.44 
  14   6  -3    0.48    0.40 
  13   6  -3    0.04    0.35 
  12   6  -3    0.48    0.33 
  11   6  -3    0.26    0.26 
  10   6  -3    0.52    0.28 
   9   6  -3   -0.20    0.22 
   8   6  -3    8.49    0.60 
   8   6  -3    8.57    0.44 
   7   6  -3   11.77    0.69 
   7   6  -3   10.30    0.51 
   6   6  -3    4.35    0.23 
   6   6  -3    4.40    0.36 
   5   6  -3   21.61    1.15 
   4   6  -3   21.48    1.13 
   3   6  -3   10.87    0.61 
  -3  -6   3   10.27    0.49 
   2   6  -3    2.44    0.21 
   2   6  -3    2.16    0.21 
  -2  -6   3    2.67    0.19 
   1   6  -3   41.65    1.89 
   1   6  -3   41.55    2.04 
  -1  -6   3   40.36    1.85 
   0   6  -3    5.10    0.33 
   0   6  -3    4.98    0.33 
   0  -6   3    4.65    0.33 
  -1   6  -3    2.94    0.23 
  -1   6  -3    2.83    0.26 
   1  -6   3    3.14    0.29 
  -2   6  -3    7.57    0.43 
  -2   6  -3    7.17    0.48 
   2  -6   3    7.12    0.48 
  -3   6  -3    2.61    0.29 
   3  -6   3    3.00    0.33 
  -4   6  -3    2.46    0.31 
   4  -6   3    3.13    0.36 
  -5   6  -3    3.93    0.39 
   5  -6   3    3.43    0.41 
   6  -6   3    0.03    0.25 
   7  -6   3    1.86    0.37 
   8  -6   3   -0.10    0.25 
   9  -6   3   -0.58    0.27 
  10  -6   3    0.25    0.35 
  11  -6   3    0.31    0.38 
  12  -6   3    0.24    0.40 
  15   5  -3    0.79    0.43 
  14   5  -3    0.04    0.35 
  13   5  -3    0.13    0.34 
  12   5  -3    0.83    0.36 
  11   5  -3    0.19    0.28 
  10   5  -3   -0.02    0.23 
   9   5  -3    4.32    0.30 
   9   5  -3    3.85    0.41 
   8   5  -3   24.15    1.40 
   8   5  -3   27.61    1.20 
   7   5  -3   16.56    0.76 
   7   5  -3   15.61    0.93 
   6   5  -3    7.60    0.50 
   6   5  -3    7.51    0.37 
   5   5  -3    0.20    0.05 
   5   5  -3    0.13    0.13 
   4   5  -3    3.86    0.30 
   3   5  -3    1.49    0.17 
   2   5  -3   27.99    1.40 
   2   5  -3   27.36    1.29 
  -2  -5   3   28.39    1.24 
   1   5  -3   14.69    0.68 
   1   5  -3   12.79    0.71 
  -1  -5   3   13.13    0.65 
   0   5  -3    3.44    0.26 
   0   5  -3    3.91    0.26 
   0  -5   3    3.68    0.26 
  -1   5  -3   89.43    4.25 
  -1   5  -3   86.52    3.96 
   1  -5   3   89.34    3.91 
  -2   5  -3   80.10    3.57 
   2  -5   3   78.23    3.53 
  -3   5  -3   37.62    1.76 
   3  -5   3   36.97    1.76 
  -4   5  -3   10.02    0.61 
   4  -5   3    9.77    0.62 
  -5   5  -3    8.51    0.59 
   5  -5   3    8.33    0.60 
   5  -5   3    9.37    0.49 
   6  -5   3   26.46    1.37 
   7  -5   3    5.33    0.51 
   8  -5   3    3.23    0.43 
   9  -5   3    0.35    0.30 
  10  -5   3    1.54    0.41 
  11  -5   3    3.11    0.50 
  12  -5   3    1.10    0.44 
  15   4  -3    0.88    0.44 
  14   4  -3   -0.08    0.35 
  13   4  -3    0.38    0.35 
  12   4  -3    0.83    0.35 
  11   4  -3    0.22    0.28 
  10   4  -3    1.31    0.31 
  10   4  -3    1.49    0.23 
   9   4  -3    7.15    0.42 
   9   4  -3    6.21    0.53 
   8   4  -3    4.99    0.44 
   8   4  -3    5.25    0.33 
   7   4  -3    3.01    0.22 
   7   4  -3    3.07    0.32 
   6   4  -3    0.18    0.15 
   6   4  -3    0.33    0.08 
   5   4  -3   23.27    1.28 
   5   4  -3   25.61    1.09 
   4   4  -3   -0.04    0.10 
   3   4  -3   13.17    0.71 
   2   4  -3   19.39    1.04 
  -2  -4   3   21.57    0.91 
   1   4  -3   29.30    1.46 
   1   4  -3   28.34    1.36 
  -1  -4   3   31.21    1.32 
   0   4  -3    6.91    0.39 
   0   4  -3    7.15    0.39 
  -1   4  -3    5.21    0.29 
  -1   4  -3    4.67    0.31 
   1  -4   3    5.24    0.32 
  -2   4  -3   26.65    1.28 
   2  -4   3   27.18    1.27 
  -3   4  -3   -0.04    0.12 
   3  -4   3    0.12    0.13 
  -4   4  -3    6.54    0.45 
   4  -4   3    6.46    0.45 
  -5   4  -3   10.86    0.63 
   5  -4   3   10.03    0.55 
   5  -4   3   11.28    0.65 
   6  -4   3    1.38    0.16 
   6  -4   3    1.61    0.29 
   7  -4   3   -0.25    0.20 
   8  -4   3    0.63    0.27 
   9  -4   3    0.34    0.27 
  10  -4   3    0.19    0.28 
  11  -4   3    1.13    0.39 
  12  -4   3    0.17    0.35 
  13  -4   3    0.32    0.41 
  15   3  -3    0.34    0.41 
  14   3  -3    0.52    0.39 
  13   3  -3    3.96    0.52 
  12   3  -3    0.67    0.34 
  11   3  -3    5.58    0.45 
  11   3  -3    5.27    0.53 
  10   3  -3    7.48    0.50 
  10   3  -3    7.42    0.60 
   9   3  -3    0.47    0.18 
   9   3  -3    0.49    0.24 
   8   3  -3    2.76    0.34 
   8   3  -3    3.21    0.27 
   7   3  -3    2.97    0.23 
   7   3  -3    2.71    0.30 
   6   3  -3    7.52    0.39 
   6   3  -3    6.22    0.46 
   5   3  -3   18.66    1.03 
   5   3  -3   20.07    0.89 
   4   3  -3   14.27    0.77 
   4   3  -3   14.01    0.64 
   3   3  -3   45.78    2.24 
   2   3  -3   65.41    3.15 
   1   3  -3  167.57    8.12 
  -1  -3   3  173.84    7.36 
   0   3  -3  126.87    5.96 
   0   3  -3  123.19    5.52 
  -1   3  -3    1.38    0.14 
  -1   3  -3    1.27    0.10 
   1  -3   3    1.19    0.13 
  -2   3  -3    0.03    0.10 
   2  -3   3    0.14    0.09 
  -3   3  -3   16.09    0.77 
   3  -3   3   13.97    0.75 
  -4   3  -3    3.03    0.28 
   4  -3   3    3.51    0.20 
   4  -3   3    3.09    0.29 
  -5   3  -3   17.76    0.91 
   5  -3   3   17.50    0.89 
   5  -3   3   18.06    0.92 
   6  -3   3   41.48    1.97 
   6  -3   3   41.97    2.04 
   7  -3   3   55.85    2.60 
   7  -3   3   56.12    2.73 
   8  -3   3    6.43    0.53 
   9  -3   3   15.25    0.91 
  10  -3   3    6.37    0.58 
  11  -3   3    5.58    0.57 
  12  -3   3    1.07    0.38 
  13  -3   3    0.88    0.40 
  14   2  -3    0.72    0.40 
  13   2  -3    0.87    0.39 
  12   2  -3    1.83    0.40 
  12   2  -3    1.84    0.34 
  11   2  -3    1.40    0.31 
  11   2  -3    2.17    0.38 
  10   2  -3    1.21    0.26 
  10   2  -3    1.05    0.31 
   9   2  -3    1.44    0.30 
   9   2  -3    1.62    0.25 
   8   2  -3    0.30    0.16 
   8   2  -3    0.07    0.19 
   7   2  -3    1.41    0.19 
   7   2  -3    1.69    0.25 
   6   2  -3   10.83    0.57 
   6   2  -3   11.22    0.66 
   5   2  -3    6.82    0.45 
   5   2  -3    6.62    0.37 
   4   2  -3   10.71    0.64 
   4   2  -3   11.95    0.55 
   3   2  -3    0.74    0.12 
   3   2  -3    0.80    0.08 
   2   2  -3   46.80    2.05 
   2   2  -3   47.79    2.29 
   1   2  -3    4.46    0.26 
  -1  -2   3    4.52    0.22 
   0   2  -3   74.87    3.42 
   0   2  -3   79.76    3.69 
  -1   2  -3   -0.06    0.06 
  -1   2  -3    0.01    0.03 
   1  -2   3    0.02    0.05 
  -2   2  -3    9.31    0.49 
   2  -2   3    9.40    0.48 
  -3   2  -3   17.40    0.85 
   3  -2   3   17.51    0.84 
   3  -2   3   16.92    0.84 
  -4   2  -3   42.26    1.97 
   4  -2   3   43.80    2.06 
   4  -2   3   42.29    1.95 
   5  -2   3    2.53    0.19 
   5  -2   3    2.23    0.25 
   6  -2   3    3.71    0.27 
   6  -2   3    3.94    0.34 
   7  -2   3    0.12    0.12 
   7  -2   3    0.12    0.17 
   8  -2   3    2.47    0.33 
   8  -2   3    2.26    0.24 
   9  -2   3    0.79    0.28 
  10  -2   3    0.07    0.25 
  11  -2   3    0.11    0.27 
  12  -2   3    0.21    0.31 
  13  -2   3    0.45    0.37 
  14  -2   3   -0.27    0.35 
  13   1  -3    0.24    0.30 
  13   1  -3    0.57    0.36 
  12   1  -3    1.20    0.36 
  12   1  -3    0.43    0.29 
  11   1  -3    0.69    0.33 
  11   1  -3    1.32    0.30 
  10   1  -3    0.39    0.27 
  10   1  -3   -0.01    0.21 
   9   1  -3    7.46    0.57 
   9   1  -3    6.69    0.48 
   8   1  -3    9.24    0.60 
   8   1  -3   11.78    0.70 
   7   1  -3    0.51    0.17 
   7   1  -3    0.33    0.18 
   6   1  -3    3.71    0.29 
   6   1  -3    3.31    0.31 
   5   1  -3   76.08    3.38 
   5   1  -3   77.19    3.74 
   4   1  -3   27.59    1.24 
   4   1  -3   27.07    1.39 
   3   1  -3   17.60    0.78 
   3   1  -3   16.41    0.88 
   2   1  -3    9.42    0.50 
   2   1  -3    9.32    0.43 
   1   1  -3    3.69    0.23 
  -1  -1   3    4.09    0.20 
   0   1  -3    6.10    0.32 
  -1   1  -3   10.93    0.54 
   1  -1   3   11.62    0.53 
  -2   1  -3   57.53    2.61 
   2  -1   3   59.48    2.57 
  -3   1  -3   73.96    3.42 
   3  -1   3   78.65    3.67 
   3  -1   3   77.56    3.37 
  -4   1  -3   60.25    2.82 
   4  -1   3   65.84    3.01 
   4  -1   3   61.65    2.79 
   5  -1   3  165.96    7.52 
   5  -1   3  178.48    8.22 
   6  -1   3  105.04    5.03 
   6  -1   3  104.61    4.64 
   7  -1   3   23.57    1.19 
   7  -1   3   22.53    1.16 
   8  -1   3    0.35    0.20 
   8  -1   3    0.53    0.16 
   9  -1   3   17.76    0.95 
   9  -1   3   15.60    0.92 
  10  -1   3   -0.14    0.22 
  11  -1   3    5.02    0.50 
  12  -1   3    4.86    0.54 
  13  -1   3    3.25    0.49 
  14  -1   3    0.13    0.38 
  13   0  -3    5.32    0.58 
  13   0  -3    4.96    0.55 
  12   0  -3    3.26    0.47 
  12   0  -3    2.82    0.42 
  11   0  -3    2.50    0.41 
  11   0  -3    2.04    0.36 
  10   0  -3   -0.15    0.23 
  10   0  -3   -0.18    0.24 
   9   0  -3    1.81    0.31 
   9   0  -3    1.86    0.32 
   8   0  -3   11.56    0.68 
   8   0  -3   11.60    0.74 
   7   0  -3    7.43    0.49 
   7   0  -3    7.67    0.52 
   6   0  -3    9.61    0.54 
   6   0  -3    9.05    0.58 
   5   0  -3    4.82    0.32 
   5   0  -3    4.14    0.33 
   4   0  -3    1.31    0.17 
   4   0  -3    1.43    0.15 
   3   0  -3   17.41    0.80 
   3   0  -3   17.29    0.90 
   2   0  -3   11.84    0.55 
   1   0  -3    0.31    0.05 
   0   0   3    0.22    0.05 
  -1   0  -3    4.18    0.22 
   1   0   3    4.10    0.22 
  -2   0  -3   19.21    0.88 
   2   0   3   19.20    0.87 
   2   0   3   18.94    0.93 
  -3   0  -3    0.29    0.08 
   3   0   3    0.43    0.07 
   3   0   3    0.29    0.08 
  -4   0  -3    2.73    0.21 
   4   0   3    3.42    0.23 
   4   0   3    2.98    0.20 
   5   0   3    0.02    0.08 
   5   0   3   -0.01    0.09 
   6   0   3    7.20    0.43 
   6   0   3    6.82    0.42 
   7   0   3   -0.06    0.11 
   7   0   3   -0.05    0.12 
   8   0   3    9.84    0.64 
   8   0   3   12.07    0.66 
   9   0   3    0.21    0.18 
   9   0   3    0.13    0.21 
  10   0   3    1.11    0.28 
  11   0   3    0.78    0.28 
  12   0   3    0.98    0.32 
  13   0   3    0.61    0.35 
  14   0   3    0.26    0.36 
  13  -1  -3   -0.18    0.32 
  12  -1  -3    0.58    0.34 
  12  -1  -3    0.45    0.31 
  11  -1  -3    0.18    0.30 
  11  -1  -3   -0.25    0.26 
  10  -1  -3    0.60    0.29 
  10  -1  -3    0.44    0.29 
   9  -1  -3   -0.14    0.22 
   9  -1  -3    0.31    0.26 
   8  -1  -3    3.42    0.38 
   8  -1  -3    4.99    0.43 
   7  -1  -3   12.38    0.72 
   7  -1  -3   13.48    0.78 
   6  -1  -3    0.60    0.17 
   6  -1  -3    0.72    0.19 
   5  -1  -3    2.99    0.27 
   5  -1  -3    2.99    0.27 
   4  -1  -3    1.88    0.19 
   3  -1  -3    1.04    0.13 
   2  -1  -3   29.47    1.32 
   1  -1  -3   75.81    3.30 
   0   1   3   64.85    2.83 
   1   1   3   80.83    3.43 
   1   1   3   76.84    3.77 
  -2  -1  -3  187.73    8.34 
   2   1   3  192.94    8.22 
  -3  -1  -3  142.36    6.23 
   3   1   3  141.54    6.15 
   3   1   3  141.38    6.76 
   4   1   3   55.65    2.69 
   4   1   3   55.58    2.47 
   5   1   3   32.57    1.50 
   5   1   3   32.92    1.62 
   6   1   3   14.83    0.75 
   6   1   3   14.84    0.79 
   7   1   3    0.83    0.16 
   7   1   3    0.66    0.16 
   8   1   3    9.28    0.55 
   8   1   3    8.84    0.56 
   9   1   3   54.68    2.71 
   9   1   3   53.97    2.51 
  10   1   3   44.66    2.32 
  10   1   3   47.09    2.18 
  11   1   3   11.74    0.75 
  12   1   3   12.85    0.83 
  13   1   3    8.17    0.67 
  14   1   3    1.65    0.42 
  15   1   3    1.92    0.48 
  13  -2  -3    0.61    0.38 
  12  -2  -3    0.43    0.35 
  11  -2  -3    1.15    0.35 
  11  -2  -3    0.30    0.29 
  10  -2  -3    3.40    0.45 
  10  -2  -3    2.92    0.40 
   9  -2  -3    5.66    0.52 
   9  -2  -3    5.41    0.49 
   8  -2  -3    0.02    0.23 
   8  -2  -3    0.55    0.25 
   7  -2  -3    7.72    0.52 
   7  -2  -3    6.75    0.52 
   6  -2  -3   16.56    0.90 
   6  -2  -3   17.40    0.95 
   5  -2  -3   13.02    0.70 
   4  -2  -3   29.99    1.40 
   3  -2  -3    0.30    0.11 
   2  -2  -3    1.02    0.13 
   1  -2  -3   19.62    0.90 
   0  -2  -3   20.63    0.93 
   1   2   3   70.02    3.32 
   1   2   3   67.69    3.01 
  -2  -2  -3    6.92    0.32 
   2   2   3    7.12    0.40 
   2   2   3    7.00    0.35 
   3   2   3   30.47    1.55 
   3   2   3   32.33    1.41 
   4   2   3   11.40    0.64 
   4   2   3   12.60    0.59 
   5   2   3    0.99    0.14 
   5   2   3    0.85    0.13 
   6   2   3    6.31    0.37 
   6   2   3    5.53    0.37 
   7   2   3    0.52    0.14 
   7   2   3    0.62    0.15 
   8   2   3    0.60    0.16 
   8   2   3    0.84    0.18 
   9   2   3    3.03    0.30 
   9   2   3    2.82    0.31 
  10   2   3    0.29    0.21 
  10   2   3    0.36    0.18 
  11   2   3    1.04    0.29 
  11   2   3    0.77    0.20 
  12   2   3    2.31    0.37 
  13   2   3    0.20    0.28 
  14   2   3   -0.09    0.31 
  15   2   3    0.12    0.37 
  13  -3  -3    0.08    0.36 
  12  -3  -3    1.28    0.42 
  11  -3  -3   -0.01    0.32 
  11  -3  -3    0.14    0.33 
  10  -3  -3    1.26    0.34 
  10  -3  -3    1.30    0.38 
   9  -3  -3   -0.59    0.26 
   9  -3  -3    0.39    0.25 
   8  -3  -3    0.23    0.27 
   8  -3  -3    0.83    0.26 
   7  -3  -3    1.08    0.29 
   7  -3  -3    1.24    0.25 
   6  -3  -3    0.88    0.23 
   5  -3  -3    5.59    0.42 
   4  -3  -3   23.74    1.15 
   3  -3  -3   11.46    0.60 
   2  -3  -3    5.16    0.32 
   1  -3  -3   36.61    1.64 
   0  -3  -3   94.39    4.11 
   1   3   3   30.22    1.33 
   1   3   3   28.60    1.47 
   2   3   3    6.66    0.35 
   2   3   3    6.48    0.40 
   3   3   3    9.16    0.46 
   3   3   3    9.08    0.52 
   4   3   3    9.25    0.53 
   4   3   3    8.92    0.46 
   5   3   3   13.84    0.68 
   5   3   3   13.87    0.76 
   6   3   3  142.13    6.79 
   6   3   3  140.35    6.16 
   7   3   3   80.04    3.90 
   7   3   3   79.77    3.55 
   8   3   3   73.66    3.63 
   8   3   3   74.18    3.31 
   9   3   3   82.07    3.69 
   9   3   3   82.52    4.05 
  10   3   3   25.32    1.20 
  10   3   3   21.51    1.27 
  11   3   3    0.58    0.25 
  11   3   3    0.51    0.25 
  12   3   3    6.17    0.55 
  12   3   3    5.15    0.50 
  13   3   3    0.66    0.31 
  14   3   3    3.99    0.52 
  15   3   3    4.20    0.56 
  12  -4  -3    1.03    0.44 
  11  -4  -3    3.41    0.53 
  10  -4  -3    4.15    0.54 
  10  -4  -3    4.94    0.52 
   9  -4  -3    5.68    0.58 
   9  -4  -3    6.14    0.54 
   8  -4  -3    3.18    0.38 
   8  -4  -3    2.65    0.42 
   7  -4  -3    1.44    0.27 
   7  -4  -3    0.99    0.30 
   6  -4  -3   15.16    0.86 
   5  -4  -3    4.83    0.41 
   4  -4  -3    8.43    0.51 
   3  -4  -3   37.91    1.75 
   2  -4  -3    9.76    0.53 
   1  -4  -3   21.63    1.02 
   0  -4  -3    7.50    0.40 
   0   4   3    7.55    0.45 
  -1  -4  -3   49.85    2.17 
   1   4   3   48.43    2.42 
   2   4   3    1.35    0.17 
   2   4   3    1.45    0.14 
   3   4   3    6.50    0.36 
   3   4   3    6.77    0.43 
   4   4   3   21.77    1.01 
   4   4   3   21.74    1.14 
   5   4   3   14.00    0.70 
   5   4   3   14.73    0.80 
   6   4   3   16.85    0.81 
   6   4   3   16.19    0.91 
   7   4   3    6.69    0.45 
   7   4   3    5.85    0.38 
   8   4   3   -0.05    0.13 
   8   4   3   -0.01    0.15 
   9   4   3    6.58    0.45 
   9   4   3    6.60    0.49 
  10   4   3    0.14    0.19 
  10   4   3    0.14    0.19 
  11   4   3    5.09    0.45 
  11   4   3    4.89    0.48 
  12   4   3    0.23    0.29 
  12   4   3    0.28    0.27 
  13   4   3    1.02    0.33 
  14   4   3   -0.33    0.28 
  15   4   3    0.42    0.37 
  12  -5  -3    0.34    0.42 
  11  -5  -3    0.71    0.43 
  10  -5  -3    0.39    0.39 
   9  -5  -3    0.07    0.26 
   9  -5  -3   -0.36    0.33 
   8  -5  -3    0.34    0.25 
   8  -5  -3    0.18    0.30 
   7  -5  -3   -0.02    0.27 
   6  -5  -3    0.22    0.27 
   5  -5  -3    1.11    0.27 
   4  -5  -3   14.62    0.80 
   3  -5  -3    3.62    0.31 
   2  -5  -3    0.32    0.15 
   1  -5  -3    1.11    0.16 
   0  -5  -3   25.01    1.17 
   0   5   3   25.66    1.31 
  -1  -5  -3    2.95    0.20 
   1   5   3    2.91    0.26 
  -2  -5  -3   12.05    0.60 
   2   5   3   13.39    0.72 
   3   5   3   58.28    2.56 
   3   5   3   56.95    2.85 
   4   5   3   48.66    2.13 
   4   5   3   46.83    2.38 
   5   5   3   81.56    3.58 
   5   5   3   81.30    3.98 
   6   5   3  119.87    5.63 
   6   5   3  112.39    5.07 
   7   5   3   42.07    1.95 
   7   5   3   44.08    2.19 
   8   5   3    1.30    0.19 
   8   5   3    1.06    0.23 
   9   5   3    0.97    0.25 
   9   5   3    1.46    0.22 
  10   5   3    0.61    0.20 
  10   5   3    0.84    0.25 
  11   5   3   16.63    1.03 
  11   5   3   17.14    0.93 
  12   5   3   18.61    1.03 
  12   5   3   18.52    1.15 
  13   5   3   17.42    1.15 
  13   5   3   18.42    1.03 
  14   5   3   10.55    0.77 
  15   5   3    5.17    0.58 
  11  -6  -3    0.97    0.47 
  10  -6  -3    0.00    0.39 
   9  -6  -3    1.16    0.42 
   8  -6  -3    0.50    0.36 
   8  -6  -3    0.51    0.26 
   7  -6  -3    1.69    0.38 
   6  -6  -3    7.42    0.60 
   5  -6  -3   25.80    1.34 
   4  -6  -3    1.77    0.30 
   3  -6  -3    0.75    0.21 
   2  -6  -3   37.32    1.74 
   1  -6  -3    0.13    0.14 
   0  -6  -3   12.47    0.63 
   0   6   3   11.73    0.70 
  -1  -6  -3   20.83    0.98 
   1   6   3   21.08    1.13 
  -2  -6  -3    6.93    0.39 
   2   6   3    7.37    0.48 
   3   6   3    7.14    0.39 
   3   6   3    6.94    0.34 
   3   6   3    6.76    0.48 
   4   6   3    8.56    0.57 
   4   6   3    8.30    0.47 
   4   6   3    8.93    0.41 
   5   6   3    3.63    0.25 
   5   6   3    3.42    0.32 
   6   6   3   12.01    0.62 
   6   6   3   12.34    0.74 
   7   6   3   13.78    0.83 
   7   6   3   14.17    0.71 
   8   6   3    1.79    0.21 
   8   6   3    1.47    0.26 
   9   6   3    4.99    0.43 
   9   6   3    3.23    0.30 
  10   6   3    1.03    0.21 
  10   6   3    0.81    0.28 
  11   6   3    0.04    0.25 
  11   6   3   -0.19    0.18 
  12   6   3    1.26    0.35 
  12   6   3    0.43    0.25 
  13   6   3    0.23    0.27 
  13   6   3    0.58    0.32 
  14   6   3    0.18    0.29 
  14   6   3    0.24    0.37 
  10  -7  -3    0.20    0.44 
   9  -7  -3    1.63    0.46 
   8  -7  -3   -0.08    0.36 
   8  -7  -3   -0.03    0.28 
   7  -7  -3    0.75    0.37 
   6  -7  -3    2.43    0.41 
   5  -7  -3    3.00    0.41 
   4  -7  -3    0.94    0.28 
   3  -7  -3    4.86    0.42 
   2  -7  -3    1.25    0.22 
   1  -7  -3    1.62    0.23 
   0  -7  -3   11.14    0.64 
   0   7   3   13.41    0.74 
  -1  -7  -3    1.10    0.16 
   1   7   3    0.94    0.20 
  -2  -7  -3    3.92    0.26 
   2   7   3    3.95    0.35 
  -3  -7  -3   87.54    3.93 
   3   7   3   93.40    4.42 
   3   7   3   89.06    3.97 
   4   7   3   18.17    0.88 
   4   7   3   17.68    1.02 
   4   7   3   18.12    0.83 
   5   7   3    0.50    0.13 
   5   7   3    0.39    0.17 
   5   7   3    0.51    0.07 
   6   7   3    2.07    0.28 
   6   7   3    2.08    0.21 
   7   7   3    3.32    0.26 
   7   7   3    2.79    0.33 
   8   7   3    7.04    0.53 
   8   7   3    6.76    0.42 
   9   7   3   65.65    2.97 
   9   7   3   67.02    3.35 
  10   7   3   25.14    1.40 
  10   7   3   24.03    1.20 
  11   7   3   26.18    1.34 
  11   7   3   28.66    1.56 
  12   7   3   18.08    1.00 
  12   7   3   19.92    1.19 
  13   7   3   11.46    0.75 
  13   7   3   12.72    0.90 
  14   7   3    4.00    0.57 
  10  -8  -3   -0.53    0.43 
   9  -8  -3    0.54    0.45 
   8  -8  -3    8.41    0.77 
   7  -8  -3    3.31    0.51 
   6  -8  -3    1.02    0.38 
   5  -8  -3    5.33    0.53 
   4  -8  -3    0.14    0.27 
   3  -8  -3    2.29    0.33 
   2  -8  -3    5.28    0.42 
   1  -8  -3    0.50    0.19 
   0  -8  -3    6.19    0.42 
   0   8   3    6.69    0.48 
  -1  -8  -3   14.92    0.77 
   1   8   3   15.10    0.89 
  -2  -8  -3   -0.06    0.10 
   2   8   3   -0.02    0.15 
  -3  -8  -3    8.98    0.46 
   3   8   3    8.47    0.59 
   3   8   3    7.57    0.43 
  -4  -8  -3   10.77    0.55 
   4   8   3   10.25    0.68 
   4   8   3   10.59    0.52 
   5   8   3    9.69    0.55 
   5   8   3    9.03    0.67 
   5   8   3   10.76    0.49 
   6   8   3    3.83    0.29 
   6   8   3    3.80    0.21 
   6   8   3    2.59    0.34 
   7   8   3    3.25    0.27 
   7   8   3    3.62    0.38 
   8   8   3    2.52    0.24 
   8   8   3    1.89    0.32 
   9   8   3    3.91    0.44 
   9   8   3    3.49    0.30 
  10   8   3    0.49    0.17 
  10   8   3    0.36    0.26 
  11   8   3    0.85    0.31 
  11   8   3    0.46    0.21 
  12   8   3   -0.02    0.30 
  12   8   3    0.19    0.22 
  13   8   3    0.59    0.35 
  14   8   3    0.07    0.34 
  15   8   3   -0.07    0.37 
   9  -9  -3    0.70    0.47 
   8  -9  -3    0.95    0.48 
   7  -9  -3   -0.03    0.39 
   6  -9  -3    0.24    0.36 
   5  -9  -3    0.22    0.34 
   4  -9  -3    0.09    0.28 
   3  -9  -3    1.75    0.34 
   2  -9  -3    0.37    0.23 
   1  -9  -3    0.95    0.24 
   0  -9  -3    0.49    0.20 
   0   9   3    0.53    0.21 
  -1  -9  -3   27.24    1.31 
   1   9   3   27.47    1.49 
  -2  -9  -3    0.25    0.14 
   2   9   3    0.22    0.17 
  -3  -9  -3   20.98    1.02 
   3   9   3   21.96    1.03 
   3   9   3   21.22    1.21 
  -4  -9  -3    2.96    0.24 
   4   9   3    3.02    0.36 
   4   9   3    2.92    0.22 
  -5  -9  -3    0.14    0.12 
   5   9   3    0.16    0.10 
   5   9   3    0.35    0.20 
   6   9   3    5.10    0.36 
   6   9   3    5.09    0.48 
   6   9   3    5.58    0.29 
   7   9   3   42.56    2.19 
   7   9   3   40.45    1.90 
   8   9   3   29.97    1.64 
   8   9   3   29.43    1.40 
   9   9   3   39.66    1.87 
   9   9   3   41.84    2.17 
  10   9   3    2.09    0.38 
  10   9   3    2.08    0.25 
  11   9   3    0.26    0.30 
  11   9   3    0.17    0.20 
  12   9   3    1.41    0.28 
  12   9   3    1.93    0.42 
  13   9   3   -0.11    0.33 
  14   9   3    2.24    0.50 
  15   9   3   10.92    0.93 
  16   9   3    3.15    0.61 
   8 -10  -3    0.99    0.49 
   7 -10  -3   -0.46    0.39 
   6 -10  -3   -0.37    0.36 
   5 -10  -3   -0.08    0.32 
   4 -10  -3   -0.50    0.29 
   3 -10  -3    2.73    0.40 
   2 -10  -3   19.09    1.05 
   1 -10  -3    0.07    0.21 
   0 -10  -3    0.32    0.22 
   0  10   3    0.53    0.27 
  -1 -10  -3   25.18    1.24 
   1  10   3   25.38    1.41 
  -2 -10  -3    0.30    0.17 
   2  10   3    0.03    0.21 
  -3 -10  -3   13.23    0.66 
   3  10   3   11.82    0.81 
   3  10   3   11.96    0.65 
  -4 -10  -3    0.20    0.13 
   4  10   3    0.09    0.21 
   4  10   3    0.40    0.14 
  -5 -10  -3    0.04    0.12 
   5  10   3   -0.03    0.22 
   5  10   3    0.23    0.12 
  -6 -10  -3    2.65    0.24 
   6  10   3    2.36    0.37 
   7  10   3    0.72    0.18 
   7  10   3    0.33    0.24 
   8  10   3    4.40    0.33 
   8  10   3    2.96    0.43 
   9  10   3    1.65    0.37 
   9  10   3    1.88    0.24 
  10  10   3    3.50    0.32 
  10  10   3    3.37    0.46 
  11  10   3    0.83    0.23 
  11  10   3    0.87    0.34 
  12  10   3    0.67    0.34 
  13  10   3    0.15    0.36 
  14  10   3    0.07    0.37 
  15  10   3    0.52    0.44 
  16  10   3   -0.13    0.41 
   7 -11  -3   -0.25    0.41 
   6 -11  -3   -0.31    0.36 
   5 -11  -3    0.43    0.39 
   4 -11  -3    0.31    0.35 
   3 -11  -3    0.81    0.32 
   2 -11  -3    0.80    0.29 
   1 -11  -3    0.24    0.25 
   0 -11  -3    0.22    0.22 
  -1 -11  -3    1.28    0.25 
   1  11   3    1.18    0.31 
  -2 -11  -3    3.20    0.32 
   2  11   3    3.04    0.40 
  -3 -11  -3    4.21    0.35 
   3  11   3    4.30    0.46 
   3  11   3    4.50    0.34 
  -4 -11  -3    0.45    0.16 
   4  11   3    0.37    0.16 
   4  11   3    0.44    0.24 
  -5 -11  -3    6.27    0.40 
   5  11   3    6.46    0.58 
  -6 -11  -3    8.77    0.48 
   6  11   3    7.33    0.65 
  -7 -11  -3   10.39    0.57 
   7  11   3   10.35    0.79 
   8  11   3    1.92    0.25 
   8  11   3    1.50    0.35 
   9  11   3    4.22    0.34 
   9  11   3    2.75    0.44 
  10  11   3    4.70    0.39 
  10  11   3    5.00    0.55 
  11  11   3    0.19    0.32 
  12  11   3    3.41    0.54 
  13  11   3   13.32    1.02 
  14  11   3    6.13    0.72 
  15  11   3    3.53    0.62 
   6 -12  -3    0.69    0.44 
   5 -12  -3    2.97    0.54 
   4 -12  -3    4.60    0.58 
   3 -12  -3    0.51    0.34 
   2 -12  -3    1.91    0.37 
   1 -12  -3    1.37    0.32 
   0 -12  -3    0.38    0.26 
  -1 -12  -3    2.58    0.35 
   1  12   3    3.51    0.46 
  -2 -12  -3    4.83    0.41 
   2  12   3    3.81    0.47 
  -3 -12  -3   -0.26    0.18 
   3  12   3   -0.20    0.25 
   3  12   3   -0.03    0.18 
  -4 -12  -3   14.12    0.76 
   4  12   3   13.40    0.93 
  -5 -12  -3    1.00    0.21 
   5  12   3    1.09    0.33 
  -6 -12  -3    0.90    0.20 
   6  12   3    0.69    0.29 
  -7 -12  -3   12.58    0.68 
   7  12   3   12.76    0.92 
  -8 -12  -3    0.80    0.18 
   8  12   3    0.32    0.31 
   9  12   3    0.22    0.29 
   9  12   3    0.64    0.21 
  10  12   3   -0.13    0.28 
  11  12   3    0.01    0.34 
  12  12   3   -0.27    0.34 
  13  12   3    1.58    0.48 
  14  12   3    0.11    0.42 
  15  12   3    0.36    0.45 
   6 -13  -3    0.43    0.43 
   5 -13  -3    0.60    0.43 
   4 -13  -3    0.59    0.40 
   3 -13  -3    0.52    0.37 
   2 -13  -3   -0.18    0.32 
   1 -13  -3    0.69    0.31 
   0 -13  -3    0.93    0.31 
  -1 -13  -3   -0.46    0.21 
   1  13   3    0.13    0.31 
  -2 -13  -3    5.78    0.48 
   2  13   3    5.34    0.58 
  -3 -13  -3    1.61    0.29 
   3  13   3    1.62    0.38 
  -4 -13  -3    0.90    0.24 
   4  13   3    0.72    0.35 
  -5 -13  -3    1.49    0.25 
   5  13   3    0.61    0.35 
  -6 -13  -3    0.10    0.18 
   6  13   3   -0.10    0.27 
  -7 -13  -3    0.63    0.20 
   7  13   3    0.42    0.33 
  -8 -13  -3    0.17    0.20 
   8  13   3   -0.26    0.28 
   9  13   3    3.78    0.53 
  10  13   3    4.09    0.55 
  11  13   3    2.77    0.51 
  12  13   3    2.61    0.51 
  13  13   3    3.42    0.60 
  14  13   3    0.73    0.46 
  15  13   3    0.05    0.40 
   4 -14  -3    0.27    0.40 
   3 -14  -3    0.47    0.38 
   2 -14  -3    0.59    0.36 
   1 -14  -3   -0.07    0.31 
   0 -14  -3    5.42    0.53 
  -1 -14  -3    3.51    0.42 
   1  14   3    6.08    0.60 
  -2 -14  -3    0.60    0.26 
   2  14   3    0.42    0.35 
  -3 -14  -3    6.02    0.49 
   3  14   3    5.57    0.62 
  -4 -14  -3    4.18    0.41 
   4  14   3    4.28    0.55 
  -5 -14  -3    8.36    0.55 
   5  14   3    7.33    0.70 
  -6 -14  -3    0.50    0.23 
   6  14   3    0.26    0.35 
  -7 -14  -3   -0.08    0.20 
   7  14   3    0.27    0.33 
   8  14   3   -0.26    0.30 
   9  14   3   -0.06    0.36 
  10  14   3    2.61    0.54 
  11  14   3   -0.22    0.37 
  12  14   3    0.64    0.43 
  13  14   3    2.14    0.55 
  14  14   3    0.10    0.41 
   3 -15  -3   -0.35    0.36 
   2 -15  -3    0.11    0.36 
   1 -15  -3    0.51    0.34 
   0 -15  -3    0.13    0.31 
  -1 -15  -3   -0.12    0.28 
  -2 -15  -3   -0.05    0.27 
   2  15   3    0.27    0.38 
  -3 -15  -3    0.47    0.27 
   3  15   3    0.72    0.40 
  -4 -15  -3   -0.07    0.24 
   4  15   3   -0.01    0.35 
  -5 -15  -3    0.78    0.27 
   5  15   3    0.72    0.37 
  -6 -15  -3    0.09    0.24 
   6  15   3    0.20    0.34 
   7  15   3    0.20    0.39 
   8  15   3    1.19    0.46 
   9  15   3    1.34    0.48 
  10  15   3    0.36    0.38 
  11  15   3    0.82    0.44 
  12  15   3    0.31    0.43 
  13  15   3    0.36    0.44 
  14  15   3    0.34    0.47 
   2 -16  -3    2.92    0.52 
   1 -16  -3    0.14    0.36 
   0 -16  -3   -0.14    0.31 
  -1 -16  -3    0.75    0.34 
  -2 -16  -3    0.57    0.32 
   2  16   3   -0.28    0.36 
  -3 -16  -3    0.13    0.27 
   3  16   3    1.43    0.47 
  -4 -16  -3    0.28    0.28 
   4  16   3   -0.04    0.39 
  -5 -16  -3    0.21    0.26 
   5  16   3    0.12    0.41 
   6  16   3    0.41    0.40 
   7  16   3    3.46    0.59 
   8  16   3   -0.05    0.38 
   9  16   3    0.08    0.41 
  10  16   3    0.75    0.48 
  11  16   3    0.52    0.46 
  12  16   3    0.17    0.43 
  13  16   3    0.07    0.49 
   0 -17  -3    0.04    0.35 
  -1 -17  -3    0.48    0.36 
  -2 -17  -3    0.18    0.32 
  -3 -17  -3    0.18    0.31 
   3  17   3   -0.63    0.40 
  -4 -17  -3   -0.08    0.29 
   4  17   3    0.40    0.43 
   5  17   3    0.18    0.44 
   6  17   3   -0.39    0.41 
   7  17   3    0.20    0.42 
   8  17   3    0.11    0.43 
   9  17   3   -0.14    0.45 
  10  17   3    0.32    0.47 
  11  17   3    0.66    0.51 
  12  17   3    0.30    0.48 
  -2 -18  -3    0.11    0.33 
  -3 -18  -3   -0.12    0.32 
   3  18   3    0.34    0.48 
   4  18   3    1.93    0.56 
   5  18   3    0.10    0.47 
   6  18   3    1.20    0.52 
   7  18   3    0.80    0.50 
   8  18   3    2.22    0.60 
   9  18   3   -1.11    0.38 
  10  18   3    1.38    0.58 
  11  18   3    0.16    0.50 
   5  19   3    0.12    0.53 
   6  19   3   -0.35    0.50 
   7  19   3   -0.03    0.48 
   8  19   3   -0.11    0.50 
  10  18  -4   -0.10    0.45 
   9  18  -4    0.51    0.48 
   8  18  -4   -0.27    0.45 
   7  18  -4    0.02    0.44 
   6  18  -4    0.38    0.44 
   2  18  -4    0.88    0.42 
  11  17  -4   -0.30    0.43 
  10  17  -4   -0.12    0.44 
   9  17  -4    0.18    0.43 
   8  17  -4    0.05    0.42 
   7  17  -4    0.16    0.41 
   6  17  -4   -0.11    0.40 
   5  17  -4    0.04    0.38 
   4  17  -4    0.46    0.38 
   3  17  -4    0.36    0.36 
   2  17  -4    1.26    0.40 
   1  17  -4    0.08    0.38 
   0  17  -4    0.44    0.39 
  12  16  -4    0.02    0.47 
  11  16  -4    0.03    0.43 
  10  16  -4    0.82    0.43 
   9  16  -4    0.20    0.41 
   8  16  -4    0.69    0.41 
   7  16  -4    0.01    0.35 
   6  16  -4    0.11    0.38 
   6  16  -4   -0.18    0.29 
   5  16  -4    1.05    0.42 
   5  16  -4    1.17    0.34 
   4  16  -4    0.78    0.40 
   4  16  -4    0.59    0.32 
   3  16  -4    0.28    0.35 
   2  16  -4   -0.17    0.33 
   1  16  -4    0.24    0.35 
   0  16  -4   -0.04    0.36 
  -1  16  -4    0.18    0.39 
  -2  16  -4    0.22    0.41 
   2 -16   4   -0.07    0.38 
  13  15  -4    0.77    0.51 
  12  15  -4    0.72    0.46 
  11  15  -4   -0.59    0.36 
  10  15  -4    1.00    0.44 
   9  15  -4    0.51    0.40 
   8  15  -4    3.22    0.52 
   7  15  -4    0.38    0.28 
   7  15  -4    0.72    0.38 
   6  15  -4    4.07    0.52 
   6  15  -4    2.77    0.38 
   5  15  -4    3.03    0.39 
   5  15  -4    2.89    0.48 
   4  15  -4    4.16    0.53 
   4  15  -4    3.52    0.43 
   3  15  -4    0.92    0.37 
   3  15  -4    0.94    0.32 
   2  15  -4    2.10    0.40 
   1  15  -4   -0.12    0.32 
   0  15  -4    0.64    0.36 
  -1  15  -4    1.05    0.40 
   1 -15   4    1.16    0.43 
  -2  15  -4    0.42    0.37 
   2 -15   4    0.74    0.40 
  -3  15  -4    0.03    0.40 
   3 -15   4    0.09    0.37 
   4 -15   4    0.75    0.40 
  14  14  -4    0.97    0.48 
  13  14  -4   -0.34    0.43 
  12  14  -4    0.19    0.43 
  11  14  -4    3.39    0.54 
  10  14  -4    0.34    0.39 
   9  14  -4    0.99    0.27 
   9  14  -4    1.21    0.38 
   8  14  -4    2.91    0.48 
   8  14  -4    4.07    0.39 
   7  14  -4    3.34    0.37 
   7  14  -4    2.80    0.47 
   6  14  -4    0.43    0.26 
   6  14  -4   -0.10    0.30 
   5  14  -4   -0.02    0.28 
   5  14  -4   -0.26    0.23 
   4  14  -4    2.08    0.34 
   4  14  -4    2.28    0.42 
   3  14  -4    0.78    0.31 
   3  14  -4    0.54    0.32 
   2  14  -4    0.72    0.31 
   2  14  -4    0.72    0.33 
   1  14  -4    1.62    0.38 
   0  14  -4    0.27    0.34 
   0 -14   4    0.16    0.33 
  -1  14  -4    0.07    0.33 
   1 -14   4    0.54    0.36 
  -2  14  -4   -0.12    0.35 
   2 -14   4    0.25    0.37 
  -3  14  -4    0.24    0.39 
   3 -14   4    0.98    0.40 
   4 -14   4   -0.21    0.35 
   5 -14   4   -0.17    0.37 
  14  13  -4    0.50    0.45 
  13  13  -4    0.19    0.38 
  12  13  -4    0.41    0.42 
  11  13  -4    3.38    0.54 
  10  13  -4    0.39    0.37 
   9  13  -4    2.40    0.44 
   9  13  -4    1.60    0.29 
   8  13  -4   -0.03    0.22 
   8  13  -4   -0.04    0.30 
   7  13  -4    2.34    0.32 
   7  13  -4    2.17    0.39 
   6  13  -4    0.20    0.29 
   6  13  -4    0.05    0.22 
   5  13  -4    1.80    0.36 
   5  13  -4    1.75    0.29 
   4  13  -4    0.50    0.30 
   4  13  -4    0.48    0.25 
   3  13  -4   -0.01    0.28 
   3  13  -4    0.26    0.26 
   2  13  -4   -0.19    0.26 
   2  13  -4   -0.23    0.25 
   1  13  -4    0.27    0.28 
   1  13  -4    0.72    0.32 
  -1 -13   4    0.29    0.29 
   0  13  -4    0.30    0.31 
   0 -13   4    0.59    0.33 
  -1  13  -4    2.00    0.40 
   1 -13   4    1.41    0.39 
  -2  13  -4    1.62    0.42 
   2 -13   4    3.25    0.50 
  -3  13  -4    0.40    0.37 
   3 -13   4   -0.18    0.33 
  -4  13  -4    0.60    0.39 
   4 -13   4   -0.17    0.34 
   5 -13   4    0.53    0.40 
   6 -13   4   -0.01    0.37 
  14  12  -4    3.30    0.59 
  13  12  -4    1.79    0.48 
  12  12  -4    2.11    0.46 
  11  12  -4    5.91    0.64 
  10  12  -4    0.51    0.35 
   9  12  -4    0.32    0.30 
   8  12  -4    2.09    0.29 
   8  12  -4    1.88    0.38 
   7  12  -4    0.10    0.27 
   7  12  -4    0.33    0.21 
   6  12  -4    7.70    0.62 
   6  12  -4    7.48    0.52 
   5  12  -4    2.42    0.37 
   5  12  -4    1.82    0.28 
   4  12  -4    0.04    0.21 
   4  12  -4   -0.10    0.23 
   3  12  -4    4.44    0.42 
   3  12  -4    4.88    0.47 
   2  12  -4    9.31    0.63 
   2  12  -4    9.75    0.69 
  -2 -12   4    9.78    0.63 
   1  12  -4    4.64    0.44 
   1  12  -4    4.10    0.44 
  -1 -12   4    4.70    0.45 
   0  12  -4    1.24    0.31 
   0 -12   4    0.86    0.32 
  -1  12  -4    0.88    0.32 
   1 -12   4    0.45    0.31 
  -2  12  -4    4.60    0.49 
   2 -12   4    4.59    0.54 
  -3  12  -4    0.14    0.31 
   3 -12   4   -0.19    0.34 
  -4  12  -4    2.64    0.47 
   4 -12   4    1.82    0.46 
   5 -12   4   -0.20    0.35 
   6 -12   4   -0.20    0.36 
   7 -12   4   -0.42    0.33 
  15  11  -4    0.70    0.44 
  14  11  -4    1.01    0.46 
  13  11  -4    0.20    0.34 
  12  11  -4    1.64    0.43 
  11  11  -4    0.04    0.32 
  10  11  -4    1.00    0.34 
   9  11  -4    0.18    0.27 
   8  11  -4    7.90    0.65 
   7  11  -4    0.14    0.26 
   7  11  -4    0.22    0.19 
   6  11  -4    1.39    0.25 
   6  11  -4    1.41    0.30 
   5  11  -4    5.62    0.50 
   5  11  -4    6.10    0.43 
   4  11  -4    0.63    0.21 
   4  11  -4    0.63    0.24 
   3  11  -4    7.85    0.54 
   3  11  -4    6.55    0.48 
  -3 -11   4    6.17    0.45 
   2  11  -4    2.67    0.33 
   2  11  -4    2.78    0.34 
  -2 -11   4    2.73    0.32 
   1  11  -4   17.16    0.98 
   1  11  -4   16.91    0.93 
  -1 -11   4   15.42    0.92 
   0  11  -4    0.43    0.20 
   0  11  -4    0.37    0.27 
   0 -11   4    0.32    0.26 
  -1  11  -4    2.46    0.35 
   1 -11   4    2.33    0.39 
  -2  11  -4    0.46    0.29 
   2 -11   4   -0.16    0.26 
  -3  11  -4    1.29    0.38 
   3 -11   4    0.98    0.37 
  -4  11  -4    2.36    0.43 
   4 -11   4    2.27    0.47 
   5 -11   4    0.27    0.36 
   6 -11   4    0.10    0.36 
   7 -11   4    0.28    0.37 
   8 -11   4    0.67    0.44 
  15  10  -4    1.60    0.52 
  14  10  -4    3.33    0.57 
  13  10  -4    0.91    0.42 
  12  10  -4    0.10    0.33 
  11  10  -4    0.21    0.33 
  10  10  -4    1.63    0.39 
   9  10  -4    6.62    0.58 
   8  10  -4   19.57    1.16 
   7  10  -4    6.73    0.54 
   6  10  -4    2.89    0.35 
   6  10  -4    3.06    0.29 
   5  10  -4   18.01    0.86 
   5  10  -4   14.66    0.95 
   4  10  -4   34.68    1.64 
   4  10  -4   34.66    1.81 
   3  10  -4    4.03    0.34 
   3  10  -4    3.92    0.37 
  -3 -10   4    3.89    0.31 
   2  10  -4    0.28    0.18 
   2  10  -4    0.62    0.21 
  -2 -10   4    0.32    0.18 
   1  10  -4    0.57    0.20 
   1  10  -4    0.43    0.23 
  -1 -10   4    0.30    0.16 
   0  10  -4   -0.02    0.20 
   0  10  -4    0.16    0.16 
   0 -10   4    0.52    0.23 
  -1  10  -4    5.55    0.46 
  -1  10  -4    5.45    0.42 
   1 -10   4    4.54    0.47 
  -2  10  -4    1.54    0.34 
   2 -10   4    1.73    0.36 
  -3  10  -4    4.17    0.44 
   3 -10   4    2.95    0.45 
  -4  10  -4    1.63    0.36 
   4 -10   4    1.68    0.41 
  -5  10  -4    0.28    0.32 
   5 -10   4    0.30    0.34 
   6 -10   4    0.49    0.38 
   7 -10   4    0.50    0.39 
   8 -10   4    1.16    0.43 
   9 -10   4    0.61    0.43 
  15   9  -4    1.24    0.50 
  14   9  -4    0.15    0.36 
  13   9  -4   -0.19    0.34 
  12   9  -4    2.40    0.45 
  11   9  -4    0.12    0.30 
  10   9  -4   -0.20    0.26 
   9   9  -4    0.17    0.25 
   8   9  -4   17.87    1.07 
   7   9  -4    5.35    0.46 
   6   9  -4    5.61    0.46 
   5   9  -4    4.06    0.31 
   5   9  -4    4.23    0.38 
   4   9  -4    1.93    0.26 
   4   9  -4    2.06    0.24 
  -4  -9   4    2.04    0.18 
   3   9  -4    6.30    0.44 
   3   9  -4    5.65    0.40 
  -3  -9   4    5.16    0.35 
   2   9  -4    0.33    0.16 
   2   9  -4    0.07    0.16 
  -2  -9   4    0.28    0.16 
   1   9  -4    1.32    0.23 
   1   9  -4    1.71    0.23 
   0   9  -4    0.53    0.17 
   0   9  -4    0.79    0.23 
   0  -9   4    0.40    0.20 
  -1   9  -4    0.04    0.14 
  -1   9  -4    0.01    0.23 
   1  -9   4    0.38    0.22 
  -2   9  -4    0.43    0.25 
   2  -9   4    0.23    0.26 
  -3   9  -4    1.38    0.31 
   3  -9   4    1.19    0.33 
  -4   9  -4    2.04    0.37 
   4  -9   4    1.38    0.36 
  -5   9  -4    1.05    0.34 
   5  -9   4    0.65    0.33 
   6  -9   4    0.13    0.32 
   7  -9   4    0.55    0.35 
   8  -9   4    0.07    0.36 
   9  -9   4    1.57    0.48 
  15   8  -4    0.04    0.41 
  14   8  -4    0.40    0.41 
  13   8  -4    4.44    0.56 
  12   8  -4   10.80    0.82 
  11   8  -4   17.26    1.09 
  10   8  -4    6.30    0.56 
   9   8  -4   18.59    1.11 
   8   8  -4   33.16    1.77 
   7   8  -4   21.57    1.20 
   6   8  -4    3.82    0.35 
   5   8  -4   -0.10    0.15 
   4   8  -4    1.27    0.20 
   4   8  -4    1.59    0.22 
  -4  -8   4    1.44    0.12 
   3   8  -4    9.00    0.57 
   3   8  -4    9.14    0.52 
  -3  -8   4    9.16    0.47 
   2   8  -4   22.98    1.12 
   2   8  -4   23.11    1.20 
  -2  -8   4   22.36    1.08 
   1   8  -4   10.74    0.65 
   1   8  -4   12.17    0.64 
  -1  -8   4   10.74    0.61 
   0   8  -4   12.44    0.68 
   0   8  -4   12.41    0.70 
   0  -8   4   11.62    0.69 
  -1   8  -4   54.41    2.61 
  -1   8  -4   50.60    2.46 
   1  -8   4   53.44    2.46 
  -2   8  -4   16.77    0.91 
  -2   8  -4   17.79    0.94 
   2  -8   4   17.24    0.96 
  -3   8  -4    0.27    0.25 
   3  -8   4    0.67    0.28 
  -4   8  -4    0.13    0.26 
   4  -8   4    0.56    0.29 
  -5   8  -4    2.12    0.38 
   5  -8   4    2.17    0.39 
   6  -8   4    0.11    0.30 
   7  -8   4    1.71    0.41 
   8  -8   4    3.00    0.51 
   9  -8   4   -0.27    0.31 
  10  -8   4    0.09    0.38 
  15   7  -4    0.33    0.43 
  14   7  -4    0.10    0.37 
  13   7  -4   -0.12    0.32 
  12   7  -4    1.18    0.39 
  11   7  -4    1.18    0.36 
  10   7  -4   12.16    0.84 
   9   7  -4    8.75    0.64 
   8   7  -4    1.22    0.28 
   7   7  -4    3.35    0.37 
   6   7  -4    0.10    0.16 
   5   7  -4    1.90    0.24 
   4   7  -4    0.57    0.16 
   3   7  -4    2.64    0.24 
   3   7  -4    2.86    0.25 
  -3  -7   4    2.71    0.18 
   2   7  -4    0.42    0.14 
   2   7  -4    0.23    0.13 
  -2  -7   4    0.29    0.11 
   1   7  -4    1.68    0.20 
   1   7  -4    1.57    0.19 
  -1  -7   4    1.57    0.18 
   0   7  -4    3.79    0.28 
   0   7  -4    2.80    0.28 
   0  -7   4    2.73    0.27 
  -1   7  -4    3.53    0.33 
  -1   7  -4    4.14    0.30 
   1  -7   4    4.50    0.36 
  -2   7  -4    8.86    0.51 
  -2   7  -4    8.46    0.55 
   2  -7   4    9.33    0.58 
  -3   7  -4    1.57    0.28 
   3  -7   4    1.51    0.29 
  -4   7  -4    0.18    0.23 
   4  -7   4    0.30    0.25 
  -5   7  -4   -0.12    0.23 
   5  -7   4   -0.26    0.22 
   6  -7   4   -0.09    0.27 
   7  -7   4    6.83    0.61 
   8  -7   4    0.30    0.32 
   9  -7   4   -0.02    0.32 
  10  -7   4   -0.05    0.34 
  11  -7   4    1.06    0.47 
  15   6  -4    4.56    0.63 
  14   6  -4    2.88    0.54 
  13   6  -4    5.68    0.61 
  12   6  -4   14.49    1.00 
  11   6  -4    7.44    0.64 
  10   6  -4    2.54    0.38 
   9   6  -4   11.37    0.76 
   8   6  -4    1.41    0.29 
   7   6  -4   15.49    0.90 
   7   6  -4   15.09    0.69 
   6   6  -4   19.09    1.05 
   5   6  -4   49.69    2.48 
   4   6  -4   19.71    1.05 
   3   6  -4   89.16    4.37 
  -3  -6   4   91.46    3.91 
   2   6  -4  112.15    5.47 
   2   6  -4  112.33    5.05 
  -2  -6   4  116.66    4.94 
   1   6  -4  123.55    5.98 
   1   6  -4  126.52    5.54 
  -1  -6   4  123.77    5.43 
   0   6  -4   31.97    1.45 
   0   6  -4   30.59    1.52 
   0  -6   4   29.12    1.42 
  -1   6  -4    0.76    0.18 
  -1   6  -4    0.65    0.12 
   1  -6   4    0.29    0.15 
  -2   6  -4    3.17    0.30 
  -2   6  -4    3.56    0.24 
   2  -6   4    3.63    0.33 
  -3   6  -4    4.18    0.37 
   3  -6   4    4.13    0.38 
  -4   6  -4    5.13    0.43 
   4  -6   4    5.11    0.44 
  -5   6  -4   17.48    0.95 
   5  -6   4   16.46    0.96 
   6  -6   4   12.21    0.78 
   7  -6   4    1.24    0.35 
   8  -6   4    0.70    0.32 
   9  -6   4    0.82    0.35 
  10  -6   4   -0.02    0.33 
  11  -6   4    2.67    0.53 
  12  -6   4    0.15    0.40 
  15   5  -4    0.60    0.42 
  14   5  -4   -0.18    0.37 
  13   5  -4    2.10    0.46 
  12   5  -4    0.19    0.33 
  11   5  -4    0.33    0.29 
  10   5  -4    0.04    0.25 
   9   5  -4    3.39    0.41 
   8   5  -4    1.38    0.28 
   8   5  -4    1.61    0.16 
   7   5  -4    0.02    0.07 
   7   5  -4   -0.04    0.17 
   6   5  -4    1.56    0.24 
   6   5  -4    1.40    0.11 
   5   5  -4    6.20    0.43 
   4   5  -4   27.20    1.39 
   3   5  -4    1.41    0.18 
   2   5  -4    0.06    0.09 
  -2  -5   4    0.04    0.05 
   1   5  -4    0.21    0.09 
   1   5  -4    0.18    0.11 
  -1  -5   4    0.32    0.08 
   0   5  -4    3.05    0.21 
   0   5  -4    2.47    0.23 
  -1   5  -4    0.41    0.09 
  -1   5  -4    0.29    0.13 
   1  -5   4    0.27    0.12 
  -2   5  -4    0.28    0.07 
  -2   5  -4    0.23    0.14 
   2  -5   4    0.36    0.14 
  -3   5  -4    0.10    0.17 
   3  -5   4   -0.01    0.13 
  -4   5  -4    0.27    0.18 
   4  -5   4    0.34    0.17 
  -5   5  -4   -0.02    0.20 
   5  -5   4    0.32    0.20 
   6  -5   4    3.88    0.43 
   7  -5   4    0.47    0.27 
   8  -5   4    3.03    0.42 
   9  -5   4    3.03    0.46 
  10  -5   4    1.36    0.39 
  11  -5   4    1.90    0.46 
  12  -5   4    0.11    0.37 
  15   4  -4    3.24    0.56 
  14   4  -4    4.44    0.58 
  13   4  -4    0.96    0.40 
  12   4  -4   -0.10    0.32 
  11   4  -4    3.74    0.45 
  10   4  -4   12.65    0.84 
   9   4  -4   13.25    0.67 
   9   4  -4   12.01    0.83 
   8   4  -4   33.35    1.74 
   8   4  -4   32.52    1.50 
   7   4  -4   49.88    2.15 
   7   4  -4   46.55    2.44 
   6   4  -4   78.09    3.40 
   6   4  -4   77.94    3.83 
   5   4  -4   97.65    4.72 
   5   4  -4   96.93    4.21 
   4   4  -4   82.31    3.99 
   3   4  -4  123.08    5.91 
   2   4  -4    0.11    0.09 
  -2  -4   4    0.08    0.04 
   1   4  -4    9.28    0.50 
   1   4  -4    8.87    0.48 
  -1  -4   4    9.64    0.44 
   0   4  -4   10.15    0.53 
   0   4  -4   10.16    0.53 
  -1   4  -4   46.61    2.09 
  -1   4  -4   45.67    2.21 
   1  -4   4   45.20    2.05 
  -2   4  -4  159.27    7.04 
  -2   4  -4  155.31    7.56 
   2  -4   4  162.54    6.93 
  -3   4  -4   27.50    1.31 
   3  -4   4   26.60    1.29 
  -4   4  -4   55.15    2.58 
   4  -4   4   56.81    2.56 
   4  -4   4   55.92    2.67 
  -5   4  -4   27.56    1.35 
   5  -4   4   25.93    1.34 
   5  -4   4   27.94    1.33 
   6  -4   4    5.60    0.47 
   7  -4   4    0.28    0.23 
   8  -4   4   -0.02    0.23 
   9  -4   4    5.66    0.54 
  10  -4   4    1.40    0.36 
  11  -4   4    3.12    0.49 
  12  -4   4    0.96    0.41 
  13  -4   4   -0.22    0.38 
  14   3  -4    0.14    0.38 
  13   3  -4    1.62    0.42 
  12   3  -4    0.72    0.37 
  11   3  -4    0.10    0.30 
  10   3  -4   -0.15    0.27 
  10   3  -4   -0.02    0.17 
   9   3  -4    4.32    0.44 
   9   3  -4    4.40    0.35 
   8   3  -4    0.91    0.18 
   8   3  -4    0.80    0.24 
   7   3  -4   25.57    1.17 
   7   3  -4   23.97    1.33 
   6   3  -4    0.32    0.17 
   6   3  -4    0.41    0.12 
   5   3  -4    2.57    0.26 
   5   3  -4    3.13    0.20 
   4   3  -4    3.53    0.29 
   4   3  -4    4.08    0.22 
   3   3  -4    0.91    0.07 
   3   3  -4    0.84    0.14 
   2   3  -4   29.55    1.45 
  -2  -3   4   28.84    1.27 
   1   3  -4  138.25    6.70 
  -1  -3   4  142.80    6.07 
   0   3  -4   26.60    1.28 
   0   3  -4   25.70    1.21 
  -1   3  -4   24.43    1.19 
  -1   3  -4   26.13    1.24 
   1  -3   4   25.70    1.16 
  -2   3  -4    4.62    0.32 
   2  -3   4    5.64    0.32 
  -3   3  -4    0.40    0.13 
   3  -3   4    0.28    0.11 
  -4   3  -4    8.37    0.50 
   4  -3   4    8.71    0.51 
  -5   3  -4   14.99    0.79 
   5  -3   4   14.32    0.79 
   5  -3   4   15.01    0.74 
   6  -3   4    9.52    0.49 
   6  -3   4    7.67    0.55 
   7  -3   4    1.47    0.29 
   8  -3   4    0.40    0.25 
   9  -3   4    0.92    0.29 
  10  -3   4   -0.08    0.26 
  11  -3   4    0.46    0.31 
  12  -3   4    0.03    0.32 
  13  -3   4    0.61    0.41 
  14   2  -4    0.38    0.39 
  13   2  -4    2.71    0.49 
  12   2  -4   12.31    0.90 
  11   2  -4   13.03    0.91 
  11   2  -4   13.69    0.81 
  10   2  -4    6.96    0.49 
  10   2  -4    6.28    0.57 
   9   2  -4    9.88    0.71 
   9   2  -4   10.26    0.60 
   8   2  -4   26.83    1.32 
   8   2  -4   28.67    1.50 
   7   2  -4   55.82    2.76 
   7   2  -4   54.44    2.48 
   6   2  -4   32.68    1.68 
   6   2  -4   32.21    1.49 
   5   2  -4   10.77    0.54 
   5   2  -4   10.49    0.64 
   4   2  -4   15.38    0.86 
   4   2  -4   16.29    0.74 
   3   2  -4   69.60    3.34 
   3   2  -4   67.91    2.98 
   2   2  -4   55.00    2.73 
   2   2  -4   57.24    2.44 
   1   2  -4   83.10    4.06 
  -1  -2   4   86.38    3.67 
   0   2  -4  766.51   36.35 
   0   2  -4  767.23   33.54 
  -1   2  -4  112.29    5.01 
  -1   2  -4  114.65    5.40 
   1  -2   4  113.15    4.93 
  -2   2  -4  126.89    5.67 
   2  -2   4  129.67    5.58 
  -3   2  -4   20.93    1.01 
   3  -2   4   21.29    1.00 
  -4   2  -4    1.93    0.21 
   4  -2   4    1.75    0.20 
  -5   2  -4    0.18    0.15 
   5  -2   4    0.20    0.07 
   5  -2   4    0.23    0.13 
   6  -2   4    0.87    0.19 
   6  -2   4    0.82    0.12 
   7  -2   4    3.34    0.36 
   7  -2   4    3.68    0.28 
   8  -2   4   33.92    1.67 
   9  -2   4    2.39    0.36 
  10  -2   4    2.72    0.39 
  11  -2   4    4.11    0.49 
  12  -2   4    0.13    0.33 
  13  -2   4    0.17    0.34 
  14  -2   4    0.79    0.42 
  14   1  -4    0.52    0.40 
  13   1  -4    0.27    0.36 
  12   1  -4    1.27    0.40 
  12   1  -4    0.80    0.32 
  11   1  -4    0.26    0.30 
  11   1  -4   -0.01    0.26 
  10   1  -4    1.43    0.34 
  10   1  -4    1.98    0.32 
   9   1  -4    6.29    0.48 
   9   1  -4    6.54    0.53 
   8   1  -4    0.25    0.24 
   8   1  -4    0.43    0.20 
   7   1  -4    1.29    0.21 
   7   1  -4    1.08    0.24 
   6   1  -4    1.60    0.20 
   6   1  -4    1.79    0.25 
   5   1  -4    0.26    0.14 
   5   1  -4    0.21    0.12 
   4   1  -4    0.55    0.10 
   4   1  -4    0.34    0.12 
   3   1  -4    0.04    0.09 
   3   1  -4    0.13    0.07 
   2   1  -4    0.46    0.07 
   2   1  -4    0.36    0.10 
   1   1  -4  135.59    6.49 
  -1  -1   4  136.07    5.88 
   0  -1   4    0.68    0.08 
  -1   1  -4  145.04    6.48 
   1  -1   4  149.79    6.38 
  -2   1  -4   55.25    2.45 
   2  -1   4   54.29    2.42 
  -3   1  -4   10.78    0.56 
   3  -1   4   10.88    0.55 
  -4   1  -4    3.40    0.24 
   4  -1   4    2.70    0.23 
   4  -1   4    2.74    0.18 
  -5   1  -4    0.16    0.13 
   5  -1   4    0.14    0.07 
   5  -1   4    0.14    0.12 
   6  -1   4    2.12    0.24 
   6  -1   4    1.82    0.17 
   7  -1   4    0.17    0.12 
   7  -1   4    0.25    0.16 
   8  -1   4    3.18    0.29 
   8  -1   4    4.21    0.37 
   9  -1   4    0.59    0.24 
  10  -1   4    0.44    0.26 
  11  -1   4    1.68    0.35 
  12  -1   4    1.73    0.40 
  13  -1   4    1.88    0.43 
  14  -1   4    0.92    0.41 
  13   0  -4    0.73    0.39 
  12   0  -4    1.93    0.38 
  12   0  -4    2.48    0.46 
  11   0  -4    5.69    0.53 
  11   0  -4    3.60    0.45 
  10   0  -4    0.89    0.32 
  10   0  -4    1.59    0.32 
   9   0  -4   -0.19    0.23 
   9   0  -4    0.39    0.26 
   8   0  -4    0.07    0.20 
   8   0  -4    0.24    0.23 
   7   0  -4    2.29    0.28 
   7   0  -4    2.76    0.32 
   6   0  -4   15.79    0.92 
   6   0  -4   16.71    0.83 
   5   0  -4  156.33    7.60 
   5   0  -4  159.64    6.88 
   4   0  -4  101.53    4.47 
   4   0  -4  103.08    4.95 
   3   0  -4  144.21    6.26 
   2   0  -4   69.39    3.03 
   1   0  -4  154.42    6.67 
   0   0   4 1000.00   42.99 
  -1   0  -4  263.13   11.63 
   1   0   4  268.04   11.46 
  -2   0  -4   45.31    2.04 
   2   0   4   45.78    2.02 
  -3   0  -4    3.88    0.25 
   3   0   4    4.00    0.25 
   3   0   4    3.81    0.23 
  -4   0  -4   43.97    1.97 
   4   0   4   44.84    1.96 
   4   0   4   41.72    2.10 
  -5   0  -4   38.19    1.78 
   5   0   4   38.91    1.90 
   5   0   4   39.72    1.79 
   6   0   4  137.66    6.68 
   6   0   4  141.65    6.12 
   7   0   4   32.64    1.60 
   7   0   4   30.53    1.51 
   8   0   4   24.82    1.25 
   8   0   4   22.73    1.19 
   9   0   4    6.77    0.49 
   9   0   4    7.66    0.52 
  10   0   4    2.15    0.34 
  11   0   4    3.06    0.41 
  12   0   4    0.92    0.32 
  13   0   4    0.61    0.35 
  14   0   4    2.89    0.50 
  13  -1  -4    0.48    0.35 
  12  -1  -4    1.29    0.41 
  12  -1  -4    0.64    0.35 
  11  -1  -4    3.26    0.44 
  11  -1  -4    2.89    0.44 
  10  -1  -4    1.41    0.36 
  10  -1  -4    1.49    0.34 
   9  -1  -4    2.77    0.39 
   9  -1  -4    3.82    0.41 
   8  -1  -4    0.69    0.27 
   8  -1  -4    0.26    0.25 
   7  -1  -4    3.76    0.36 
   7  -1  -4    4.25    0.38 
   6  -1  -4    8.70    0.57 
   6  -1  -4    9.25    0.54 
   5  -1  -4    0.30    0.15 
   5  -1  -4    0.16    0.15 
   4  -1  -4   10.74    0.56 
   3  -1  -4    0.28    0.11 
   2  -1  -4    2.14    0.17 
   1  -1  -4   82.84    3.61 
   0   1   4   88.65    3.86 
   1   1   4   27.75    1.25 
  -2  -1  -4   64.83    2.80 
   2   1   4   61.93    2.78 
  -3  -1  -4    2.61    0.18 
   3   1   4    2.50    0.19 
   3   1   4    2.76    0.20 
  -4  -1  -4    1.06    0.12 
   4   1   4    1.26    0.15 
   4   1   4    0.97    0.12 
   5   1   4    3.11    0.24 
   5   1   4    3.04    0.24 
   6   1   4    3.59    0.29 
   6   1   4    3.60    0.28 
   7   1   4    0.04    0.12 
   7   1   4    0.04    0.11 
   8   1   4    3.97    0.32 
   8   1   4    3.32    0.33 
   9   1   4    6.76    0.48 
   9   1   4    6.57    0.50 
  10   1   4    0.53    0.25 
  11   1   4    0.19    0.26 
  12   1   4    0.30    0.29 
  13   1   4   -0.15    0.29 
  14   1   4   -0.05    0.33 
  15   1   4   -0.01    0.39 
  13  -2  -4    0.33    0.37 
  12  -2  -4    0.19    0.35 
  12  -2  -4    0.51    0.37 
  11  -2  -4    0.80    0.36 
  11  -2  -4   -0.25    0.31 
  10  -2  -4    3.38    0.44 
  10  -2  -4    3.33    0.45 
   9  -2  -4    6.84    0.57 
   9  -2  -4    6.82    0.57 
   8  -2  -4    6.14    0.52 
   8  -2  -4    6.53    0.52 
   7  -2  -4   26.32    1.43 
   7  -2  -4   26.71    1.33 
   6  -2  -4   18.28    0.94 
   6  -2  -4   17.72    1.00 
   5  -2  -4   29.39    1.39 
   4  -2  -4   49.64    2.24 
   3  -2  -4   14.08    0.70 
   2  -2  -4    3.75    0.25 
   1  -2  -4   10.16    0.50 
   0  -2  -4    1.61    0.13 
   1   2   4  696.57   32.94 
   1   2   4  692.57   29.89 
  -2  -2  -4  143.03    6.30 
   2   2   4  147.51    6.88 
   2   2   4  140.78    6.24 
  -3  -2  -4   92.03    4.03 
   3   2   4   93.43    4.00 
   3   2   4   89.12    4.41 
  -4  -2  -4  139.52    6.16 
   4   2   4  140.94    6.10 
   5   2   4   76.33    3.37 
   6   2   4  116.18    5.10 
   7   2   4    0.22    0.12 
   7   2   4    0.32    0.14 
   8   2   4    0.15    0.15 
   8   2   4    0.16    0.13 
   9   2   4    4.97    0.41 
   9   2   4    4.67    0.39 
  10   2   4    0.80    0.23 
  10   2   4    0.84    0.27 
  11   2   4    9.61    0.65 
  12   2   4   13.34    0.85 
  13   2   4    3.94    0.49 
  14   2   4    0.85    0.37 
  15   2   4    2.28    0.50 
  12  -3  -4    1.32    0.44 
  11  -3  -4   -0.18    0.34 
  11  -3  -4    0.24    0.33 
  10  -3  -4    0.14    0.31 
  10  -3  -4   -0.17    0.31 
   9  -3  -4    0.43    0.31 
   9  -3  -4    0.83    0.30 
   8  -3  -4    5.52    0.49 
   8  -3  -4    5.24    0.50 
   7  -3  -4   13.79    0.82 
   7  -3  -4   13.74    0.84 
   6  -3  -4    7.42    0.51 
   5  -3  -4    0.09    0.17 
   4  -3  -4    5.04    0.36 
   3  -3  -4    0.97    0.17 
   2  -3  -4    9.58    0.51 
   1  -3  -4    4.74    0.28 
   0  -3  -4   63.92    2.81 
   1   3   4    0.19    0.09 
   1   3   4    0.25    0.09 
   2   3   4  183.99    7.97 
   2   3   4  183.75    8.79 
  -3  -3  -4    5.86    0.27 
   3   3   4    5.10    0.37 
   3   3   4    6.16    0.33 
   4   3   4    1.08    0.16 
   4   3   4    1.20    0.14 
   5   3   4    4.22    0.28 
   5   3   4    3.83    0.31 
   6   3   4    0.16    0.11 
   6   3   4    0.18    0.12 
   7   3   4    1.79    0.22 
   7   3   4    1.85    0.23 
   8   3   4    5.87    0.41 
   8   3   4    5.82    0.45 
   9   3   4    0.07    0.17 
   9   3   4   -0.09    0.17 
  10   3   4    1.11    0.25 
  10   3   4    1.55    0.29 
  11   3   4    1.44    0.30 
  11   3   4    1.34    0.27 
  12   3   4    0.84    0.31 
  13   3   4    0.48    0.33 
  14   3   4    0.06    0.33 
  15   3   4    0.37    0.37 
  12  -4  -4    0.77    0.44 
  11  -4  -4    2.81    0.53 
  10  -4  -4    1.29    0.41 
  10  -4  -4    1.24    0.35 
   9  -4  -4    3.23    0.41 
   9  -4  -4    2.36    0.42 
   8  -4  -4    0.20    0.25 
   8  -4  -4   -0.08    0.26 
   7  -4  -4    5.00    0.43 
   7  -4  -4    3.66    0.44 
   6  -4  -4    3.30    0.39 
   5  -4  -4    2.33    0.29 
   4  -4  -4    6.14    0.43 
   3  -4  -4   19.85    0.98 
   2  -4  -4   21.05    1.02 
   1  -4  -4  221.90    9.61 
   0  -4  -4  137.64    5.98 
  -1  -4  -4   76.00    3.43 
   1   4   4   81.11    3.82 
   2   4   4   92.14    4.51 
   2   4   4   94.08    4.08 
   3   4   4   87.72    4.34 
   3   4   4   91.03    3.92 
   4   4   4    1.00    0.17 
   4   4   4    1.24    0.15 
   5   4   4    2.24    0.24 
   5   4   4    2.85    0.22 
   6   4   4    3.74    0.32 
   6   4   4    3.65    0.28 
   7   4   4   15.30    0.87 
   7   4   4   14.94    0.77 
   8   4   4   30.31    1.42 
   8   4   4   29.35    1.57 
   9   4   4   58.74    2.86 
   9   4   4   54.57    2.58 
  10   4   4   16.71    0.89 
  10   4   4   15.92    0.98 
  11   4   4    8.37    0.63 
  11   4   4    8.33    0.60 
  12   4   4   13.32    0.81 
  12   4   4   12.56    0.89 
  13   4   4    4.60    0.50 
  14   4   4    0.22    0.33 
  15   4   4    0.29    0.37 
  11  -5  -4   -0.07    0.41 
  10  -5  -4    0.21    0.39 
  10  -5  -4    0.41    0.34 
   9  -5  -4    5.67    0.53 
   9  -5  -4    5.46    0.59 
   8  -5  -4    1.72    0.33 
   8  -5  -4    0.88    0.36 
   7  -5  -4    1.51    0.36 
   6  -5  -4    0.33    0.29 
   5  -5  -4    0.25    0.22 
   4  -5  -4    2.21    0.29 
   3  -5  -4    2.23    0.26 
   2  -5  -4    2.87    0.27 
   1  -5  -4    1.10    0.17 
   0  -5  -4    8.77    0.47 
  -1  -5  -4    0.29    0.10 
   1   5   4    0.45    0.14 
   2   5   4    0.31    0.13 
   2   5   4    0.23    0.10 
   3   5   4    0.67    0.12 
   3   5   4    0.44    0.15 
   4   5   4    2.03    0.19 
   4   5   4    2.24    0.25 
   5   5   4   16.09    0.78 
   5   5   4   15.87    0.90 
   6   5   4    2.28    0.22 
   6   5   4    2.72    0.28 
   7   5   4    2.78    0.25 
   7   5   4    2.50    0.29 
   8   5   4    0.01    0.14 
   8   5   4    0.13    0.16 
   9   5   4    0.33    0.18 
   9   5   4    0.71    0.23 
  10   5   4    0.07    0.20 
  10   5   4    0.03    0.19 
  11   5   4    0.66    0.24 
  11   5   4    0.84    0.29 
  12   5   4    0.39    0.31 
  12   5   4   -0.04    0.24 
  13   5   4    0.33    0.34 
  13   5   4    0.24    0.29 
  14   5   4    0.18    0.31 
  15   5   4   -0.34    0.32 
  11  -6  -4   -0.05    0.42 
  10  -6  -4    0.09    0.40 
   9  -6  -4    0.17    0.37 
   9  -6  -4   -0.05    0.29 
   8  -6  -4    0.07    0.26 
   8  -6  -4    0.08    0.32 
   7  -6  -4    1.46    0.37 
   6  -6  -4    1.95    0.38 
   5  -6  -4    7.67    0.58 
   4  -6  -4   15.63    0.87 
   3  -6  -4   17.44    0.91 
   2  -6  -4    3.01    0.30 
   1  -6  -4   26.43    1.26 
   0  -6  -4   44.79    2.03 
  -1  -6  -4    4.65    0.29 
   1   6   4    4.23    0.36 
  -2  -6  -4   20.45    0.94 
   2   6   4   19.36    1.09 
   3   6   4   47.71    2.42 
   3   6   4   48.28    2.16 
   4   6   4   74.94    3.95 
   4   6   4   85.27    3.55 
   5   6   4   18.54    0.94 
   5   6   4   21.23    1.11 
   6   6   4   68.44    3.09 
   6   6   4   70.57    3.45 
   7   6   4   41.99    2.16 
   7   6   4   41.99    1.92 
   8   6   4   44.17    2.05 
   8   6   4   45.74    2.32 
   9   6   4   30.89    1.50 
   9   6   4   32.69    1.71 
  10   6   4    0.20    0.19 
  10   6   4    0.07    0.23 
  11   6   4    1.26    0.27 
  11   6   4    1.29    0.33 
  12   6   4    3.57    0.41 
  12   6   4    3.75    0.47 
  13   6   4    0.25    0.27 
  13   6   4    0.18    0.31 
  14   6   4    3.50    0.46 
  15   6   4    8.15    0.70 
  10  -7  -4    0.80    0.49 
   9  -7  -4    0.76    0.42 
   8  -7  -4    0.50    0.38 
   8  -7  -4    0.33    0.28 
   7  -7  -4    0.58    0.36 
   6  -7  -4    2.09    0.41 
   5  -7  -4   12.78    0.82 
   4  -7  -4    2.44    0.35 
   3  -7  -4   20.75    1.08 
   2  -7  -4    2.84    0.30 
   1  -7  -4    5.29    0.39 
   0  -7  -4    0.39    0.15 
  -1  -7  -4    0.21    0.12 
   1   7   4    0.30    0.17 
  -2  -7  -4    1.29    0.17 
   2   7   4    1.79    0.26 
  -3  -7  -4    0.33    0.11 
   3   7   4    0.28    0.16 
   4   7   4   -0.14    0.13 
   4   7   4    0.04    0.11 
   5   7   4    0.19    0.16 
   5   7   4    0.46    0.14 
   6   7   4    0.20    0.17 
   6   7   4    0.13    0.12 
   7   7   4    0.10    0.17 
   7   7   4    0.19    0.13 
   8   7   4    5.47    0.37 
   8   7   4    5.26    0.47 
   9   7   4    0.55    0.25 
   9   7   4    0.42    0.17 
  10   7   4   -0.18    0.17 
  10   7   4    0.02    0.21 
  11   7   4    0.54    0.22 
  11   7   4    0.71    0.30 
  12   7   4    0.14    0.23 
  12   7   4    0.18    0.30 
  13   7   4    0.06    0.24 
  13   7   4    0.16    0.33 
  14   7   4    0.58    0.31 
  14   7   4    0.87    0.41 
  10  -8  -4    0.57    0.48 
   9  -8  -4    0.66    0.48 
   8  -8  -4    0.00    0.38 
   7  -8  -4    2.28    0.48 
   6  -8  -4    0.45    0.35 
   5  -8  -4   -0.20    0.27 
   4  -8  -4    1.27    0.32 
   3  -8  -4    1.37    0.29 
   2  -8  -4    3.11    0.34 
   1  -8  -4    0.11    0.18 
   0  -8  -4   32.73    1.55 
  -1  -8  -4   19.38    0.98 
   1   8   4   20.73    1.13 
  -2  -8  -4   20.59    0.99 
   2   8   4   20.76    1.17 
  -3  -8  -4   39.69    1.84 
   3   8   4   41.71    2.11 
  -4  -8  -4   37.32    1.67 
   4   8   4   35.97    1.93 
   5   8   4    8.69    0.59 
   5   8   4    7.65    0.47 
   6   8   4   28.98    1.61 
   6   8   4   30.14    1.40 
   7   8   4    6.37    0.52 
   7   8   4    6.51    0.41 
   8   8   4    2.00    0.23 
   8   8   4    1.98    0.33 
   9   8   4    6.52    0.43 
   9   8   4    6.53    0.56 
  10   8   4    0.31    0.28 
  10   8   4    0.62    0.21 
  11   8   4    0.37    0.21 
  11   8   4    0.42    0.30 
  12   8   4   18.37    1.17 
  12   8   4   17.68    0.98 
  13   8   4    9.81    0.82 
  13   8   4    9.92    0.68 
  14   8   4    3.40    0.55 
   9  -9  -4    0.12    0.48 
   8  -9  -4    0.66    0.44 
   7  -9  -4    0.67    0.45 
   6  -9  -4    2.27    0.47 
   5  -9  -4    3.01    0.46 
   4  -9  -4    2.08    0.37 
   3  -9  -4    0.75    0.29 
   2  -9  -4    0.17    0.22 
   1  -9  -4    0.11    0.21 
   0  -9  -4    0.00    0.18 
  -1  -9  -4    2.77    0.28 
   1   9   4    2.71    0.35 
  -2  -9  -4   -0.03    0.13 
   2   9   4   -0.02    0.18 
  -3  -9  -4    1.48    0.20 
   3   9   4    0.96    0.25 
  -4  -9  -4    3.03    0.26 
   4   9   4    2.95    0.36 
  -5  -9  -4    6.15    0.37 
   5   9   4    5.59    0.30 
   5   9   4    6.18    0.51 
   6   9   4    0.11    0.20 
   6   9   4   -0.11    0.12 
   7   9   4   -0.18    0.19 
   7   9   4    0.19    0.15 
   8   9   4    1.67    0.22 
   8   9   4    1.29    0.31 
   9   9   4   -0.02    0.15 
   9   9   4    0.12    0.25 
  10   9   4    2.01    0.27 
  10   9   4    1.70    0.38 
  11   9   4    0.16    0.29 
  11   9   4   -0.01    0.20 
  12   9   4    0.05    0.32 
  12   9   4    0.47    0.24 
  13   9   4   -0.02    0.34 
  14   9   4    0.03    0.39 
  15   9   4   -0.20    0.39 
   8 -10  -4   -0.12    0.46 
   7 -10  -4    0.14    0.44 
   6 -10  -4    0.39    0.42 
   5 -10  -4    0.20    0.35 
   4 -10  -4    2.06    0.41 
   3 -10  -4    2.94    0.40 
   2 -10  -4    5.59    0.49 
   1 -10  -4    1.08    0.27 
   0 -10  -4    5.29    0.44 
  -1 -10  -4    2.66    0.30 
   1  10   4    3.39    0.39 
  -2 -10  -4    1.69    0.25 
   2  10   4    1.96    0.34 
  -3 -10  -4    8.93    0.52 
   3  10   4    8.82    0.66 
  -4 -10  -4    6.80    0.44 
   4  10   4    8.25    0.61 
  -5 -10  -4   10.20    0.56 
   5  10   4    9.60    0.71 
  -6 -10  -4   18.09    0.90 
   6  10   4   18.48    1.12 
   7  10   4    0.78    0.30 
   7  10   4    1.31    0.22 
   8  10   4    1.76    0.24 
   8  10   4    2.02    0.37 
   9  10   4   21.47    1.31 
   9  10   4   21.82    1.09 
  10  10   4    7.86    0.52 
  10  10   4    9.06    0.72 
  11  10   4    3.64    0.36 
  11  10   4    3.32    0.50 
  12  10   4    8.84    0.59 
  12  10   4    9.63    0.79 
  13  10   4    4.08    0.58 
  14  10   4    1.56    0.48 
  15  10   4   -0.07    0.41 
  16  10   4    0.23    0.44 
   7 -11  -4   -0.12    0.42 
   6 -11  -4    0.33    0.42 
   5 -11  -4    0.55    0.39 
   4 -11  -4   -0.17    0.33 
   3 -11  -4   -0.07    0.30 
   2 -11  -4    2.83    0.40 
   1 -11  -4   -0.12    0.23 
   0 -11  -4   10.40    0.67 
  -1 -11  -4    2.34    0.32 
   1  11   4    2.63    0.39 
  -2 -11  -4   10.08    0.60 
   2  11   4    9.89    0.74 
  -3 -11  -4    6.58    0.46 
   3  11   4    6.81    0.58 
  -4 -11  -4    2.82    0.28 
   4  11   4    2.64    0.40 
  -5 -11  -4    0.81    0.19 
   5  11   4    0.33    0.26 
  -6 -11  -4    1.36    0.21 
   6  11   4    0.94    0.30 
  -7 -11  -4    0.02    0.14 
   7  11   4    0.05    0.25 
   8  11   4    1.83    0.26 
   8  11   4    1.32    0.38 
   9  11   4    1.06    0.24 
   9  11   4    1.34    0.37 
  10  11   4    2.38    0.30 
  10  11   4    1.92    0.43 
  11  11   4    8.40    0.74 
  11  11   4    6.66    0.51 
  12  11   4    3.54    0.54 
  13  11   4    0.53    0.41 
  14  11   4    0.30    0.41 
  15  11   4   -0.17    0.40 
   6 -12  -4   -0.04    0.42 
   5 -12  -4   -0.03    0.39 
   4 -12  -4    0.59    0.40 
   3 -12  -4    0.27    0.33 
   2 -12  -4    1.05    0.33 
   1 -12  -4    0.11    0.27 
   0 -12  -4   -0.07    0.23 
  -1 -12  -4    1.87    0.32 
   1  12   4    1.12    0.36 
  -2 -12  -4    0.25    0.22 
   2  12   4    0.39    0.29 
  -3 -12  -4    5.24    0.41 
   3  12   4    4.33    0.52 
  -4 -12  -4   11.99    0.69 
   4  12   4   12.23    0.88 
  -5 -12  -4    0.99    0.23 
   5  12   4    1.00    0.32 
  -6 -12  -4    0.52    0.19 
   6  12   4    0.79    0.33 
  -7 -12  -4    7.66    0.47 
   7  12   4    6.27    0.65 
  -8 -12  -4    3.22    0.30 
   8  12   4    2.73    0.46 
   9  12   4    3.76    0.38 
   9  12   4    4.75    0.57 
  10  12   4    2.59    0.49 
  10  12   4    2.90    0.34 
  11  12   4    0.10    0.35 
  12  12   4    0.89    0.42 
  13  12   4    0.16    0.38 
  14  12   4    0.22    0.42 
  15  12   4    7.14    0.81 
   5 -13  -4   -0.30    0.37 
   4 -13  -4    0.45    0.41 
   3 -13  -4    0.80    0.39 
   2 -13  -4    2.59    0.43 
   1 -13  -4   -0.16    0.28 
   0 -13  -4    2.26    0.37 
  -1 -13  -4    0.18    0.25 
   1  13   4    0.11    0.29 
  -2 -13  -4    0.18    0.23 
   2  13   4    0.12    0.31 
  -3 -13  -4   -0.30    0.20 
   3  13   4    0.15    0.30 
  -4 -13  -4    1.69    0.28 
   4  13   4    2.48    0.44 
  -5 -13  -4   -0.09    0.19 
   5  13   4    0.29    0.32 
  -6 -13  -4    1.58    0.26 
   6  13   4    1.91    0.41 
  -7 -13  -4    0.07    0.19 
   7  13   4    0.34    0.35 
  -8 -13  -4    4.85    0.38 
   8  13   4    3.36    0.52 
  -9 -13  -4    3.61    0.35 
   9  13   4    2.66    0.49 
  10  13   4   -0.12    0.34 
  11  13   4    0.60    0.40 
  12  13   4    1.40    0.47 
  13  13   4    0.30    0.41 
  14  13   4    0.43    0.45 
  15  13   4    0.33    0.46 
   4 -14  -4    0.41    0.44 
   3 -14  -4    0.15    0.37 
   2 -14  -4    0.25    0.34 
   1 -14  -4    0.14    0.32 
   0 -14  -4    0.34    0.30 
  -1 -14  -4    0.38    0.27 
  -2 -14  -4    1.97    0.34 
   2  14   4    1.95    0.45 
  -3 -14  -4    0.44    0.26 
   3  14   4    0.83    0.39 
  -4 -14  -4    0.64    0.26 
   4  14   4    0.69    0.38 
  -5 -14  -4    1.01    0.27 
   5  14   4    0.66    0.37 
  -6 -14  -4    0.60    0.24 
   6  14   4    0.50    0.35 
  -7 -14  -4    4.84    0.41 
   7  14   4    4.68    0.61 
  -8 -14  -4    0.65    0.24 
   8  14   4    0.49    0.38 
   9  14   4    2.40    0.51 
  10  14   4    0.14    0.36 
  11  14   4    0.07    0.37 
  12  14   4    2.51    0.56 
  13  14   4    4.52    0.68 
  14  14   4   -0.21    0.40 
   3 -15  -4   -0.17    0.38 
   2 -15  -4    0.36    0.37 
   1 -15  -4   -0.40    0.33 
   0 -15  -4    0.07    0.31 
  -1 -15  -4    0.55    0.32 
  -2 -15  -4    0.03    0.28 
   2  15   4    0.24    0.38 
  -3 -15  -4    1.98    0.36 
   3  15   4    2.68    0.51 
  -4 -15  -4    3.55    0.41 
   4  15   4    4.09    0.58 
  -5 -15  -4    0.65    0.27 
   5  15   4    0.46    0.37 
  -6 -15  -4    7.25    0.54 
   6  15   4    6.04    0.68 
  -7 -15  -4    0.13    0.23 
   7  15   4    0.26    0.37 
   8  15   4    0.87    0.45 
   9  15   4    0.92    0.46 
  10  15   4    0.36    0.43 
  11  15   4    1.14    0.47 
  12  15   4   -0.60    0.39 
  13  15   4    0.86    0.47 
  14  15   4    1.28    0.55 
   2 -16  -4   -0.28    0.37 
   1 -16  -4    0.01    0.35 
   0 -16  -4   -0.56    0.30 
  -1 -16  -4    0.26    0.33 
  -2 -16  -4    0.08    0.29 
  -3 -16  -4    0.63    0.32 
   3  16   4    1.28    0.48 
  -4 -16  -4    0.63    0.31 
   4  16   4    0.47    0.40 
  -5 -16  -4   -0.26    0.25 
   5  16   4    0.11    0.41 
  -6 -16  -4    0.23    0.26 
   6  16   4    0.39    0.39 
   7  16   4    0.11    0.39 
   8  16   4   -0.48    0.36 
   9  16   4    0.05    0.43 
  10  16   4    1.16    0.48 
  11  16   4    1.08    0.47 
  12  16   4    0.69    0.49 
  13  16   4    0.49    0.50 
   0 -17  -4    0.65    0.39 
  -1 -17  -4    2.11    0.44 
  -2 -17  -4   -0.15    0.31 
  -3 -17  -4    1.13    0.36 
   3  17   4    1.36    0.52 
  -4 -17  -4   -0.13    0.29 
   4  17   4    0.44    0.47 
  -5 -17  -4   -0.08    0.29 
   5  17   4    0.54    0.45 
   6  17   4   -0.10    0.42 
   7  17   4   -0.31    0.37 
   8  17   4    0.38    0.43 
   9  17   4    0.34    0.46 
  10  17   4    0.34    0.49 
  11  17   4    0.09    0.42 
  12  17   4    0.86    0.53 
  -2 -18  -4    0.60    0.36 
  -3 -18  -4    0.57    0.34 
   3  18   4   -0.22    0.46 
  -4 -18  -4    0.25    0.34 
   4  18   4    0.16    0.49 
   5  18   4    1.31    0.52 
   6  18   4    0.74    0.50 
   7  18   4    0.71    0.49 
   8  18   4   -0.03    0.45 
   9  18   4    0.77    0.50 
  10  18   4    0.74    0.54 
  11  18   4    0.00    0.49 
   7  19   4   -0.51    0.47 
   9  18  -5    0.88    0.49 
   8  18  -5   -0.24    0.45 
   7  18  -5    1.23    0.51 
   6  18  -5    0.39    0.48 
   3  18  -5   -0.18    0.38 
   2  18  -5    0.03    0.37 
  11  17  -5    1.21    0.52 
  10  17  -5    0.03    0.44 
   9  17  -5    0.83    0.44 
   8  17  -5    0.91    0.45 
   7  17  -5    0.65    0.44 
   6  17  -5    0.77    0.46 
   5  17  -5    0.24    0.36 
   4  17  -5    0.44    0.34 
   3  17  -5   -0.58    0.34 
   2  17  -5   -0.13    0.35 
   1  17  -5    0.18    0.37 
   0  17  -5    0.05    0.39 
  12  16  -5    0.99    0.50 
  11  16  -5    1.36    0.51 
  10  16  -5    0.08    0.41 
   9  16  -5   -0.29    0.37 
   8  16  -5    0.28    0.39 
   7  16  -5    0.02    0.28 
   7  16  -5    0.57    0.39 
   6  16  -5    0.36    0.37 
   6  16  -5    0.34    0.30 
   5  16  -5    0.74    0.33 
   5  16  -5    0.16    0.38 
   4  16  -5    0.17    0.33 
   3  16  -5    0.41    0.33 
   2  16  -5    1.11    0.40 
   1  16  -5    0.48    0.38 
   0  16  -5    0.73    0.39 
  -1  16  -5    1.22    0.44 
  -2  16  -5    0.19    0.39 
  13  15  -5    0.11    0.43 
  12  15  -5    0.37    0.43 
  11  15  -5    2.36    0.54 
  10  15  -5    0.22    0.41 
   9  15  -5    0.26    0.37 
   8  15  -5    0.61    0.30 
   8  15  -5    1.14    0.41 
   7  15  -5    0.71    0.37 
   7  15  -5    0.56    0.29 
   6  15  -5    0.94    0.38 
   6  15  -5    0.68    0.29 
   5  15  -5    1.51    0.33 
   5  15  -5    1.71    0.41 
   4  15  -5    1.64    0.36 
   4  15  -5    2.36    0.45 
   3  15  -5    1.24    0.34 
   2  15  -5    2.62    0.44 
   1  15  -5    2.63    0.45 
   0  15  -5    1.27    0.40 
  -1  15  -5   -0.21    0.32 
  -2  15  -5    1.67    0.44 
   2 -15   5    1.76    0.46 
  -3  15  -5    0.61    0.42 
   3 -15   5    0.89    0.42 
  13  14  -5   -0.10    0.46 
  12  14  -5    0.25    0.43 
  11  14  -5    1.05    0.43 
  10  14  -5    2.47    0.48 
  10  14  -5    1.35    0.33 
   9  14  -5   -0.15    0.32 
   9  14  -5   -0.18    0.23 
   8  14  -5   -0.18    0.31 
   8  14  -5    0.20    0.25 
   7  14  -5    0.70    0.29 
   7  14  -5    0.31    0.33 
   6  14  -5    0.86    0.34 
   6  14  -5    0.84    0.28 
   5  14  -5    0.04    0.25 
   5  14  -5   -0.51    0.27 
   4  14  -5    0.43    0.32 
   4  14  -5    0.05    0.27 
   3  14  -5    2.13    0.37 
   3  14  -5    2.25    0.40 
   2  14  -5    0.02    0.29 
   1  14  -5    3.20    0.47 
   0  14  -5    0.84    0.36 
  -1  14  -5    0.11    0.33 
   1 -14   5    0.48    0.33 
  -2  14  -5    0.13    0.37 
   2 -14   5    0.33    0.34 
  -3  14  -5    0.04    0.38 
   3 -14   5    0.67    0.38 
  -4  14  -5    0.57    0.42 
   4 -14   5    0.53    0.39 
   5 -14   5    0.43    0.39 
  14  13  -5    1.24    0.51 
  13  13  -5   -0.36    0.41 
  12  13  -5    0.49    0.44 
  11  13  -5   -0.17    0.38 
  10  13  -5    0.59    0.38 
   9  13  -5    5.55    0.59 
   9  13  -5    5.17    0.45 
   8  13  -5    7.30    0.65 
   8  13  -5    7.29    0.53 
   7  13  -5    0.18    0.27 
   7  13  -5    0.08    0.23 
   6  13  -5   -0.24    0.27 
   6  13  -5   -0.13    0.23 
   5  13  -5    7.34    0.61 
   5  13  -5    6.55    0.51 
   4  13  -5    0.38    0.29 
   4  13  -5    0.91    0.27 
   3  13  -5    0.75    0.32 
   3  13  -5    0.47    0.28 
   2  13  -5    0.63    0.30 
   2  13  -5    1.12    0.33 
   1  13  -5    1.27    0.32 
   0  13  -5    2.29    0.39 
   0 -13   5    2.03    0.41 
  -1  13  -5    2.44    0.43 
   1 -13   5    1.62    0.39 
  -2  13  -5    0.46    0.33 
   2 -13   5    0.68    0.35 
  -3  13  -5   -0.38    0.35 
   3 -13   5    0.17    0.34 
  -4  13  -5    0.24    0.38 
   4 -13   5    0.17    0.35 
   5 -13   5    0.79    0.40 
   6 -13   5    0.40    0.42 
  14  12  -5    0.77    0.45 
  13  12  -5    0.28    0.38 
  12  12  -5    1.22    0.45 
  11  12  -5    0.32    0.36 
  10  12  -5   -0.34    0.28 
   9  12  -5    0.32    0.32 
   8  12  -5    1.26    0.27 
   8  12  -5    1.61    0.36 
   7  12  -5    0.61    0.25 
   7  12  -5    0.16    0.26 
   6  12  -5   -0.12    0.22 
   6  12  -5    0.04    0.26 
   5  12  -5    5.26    0.51 
   5  12  -5    5.89    0.46 
   4  12  -5   10.36    0.66 
   4  12  -5   10.73    0.74 
   3  12  -5    5.09    0.48 
   3  12  -5    4.95    0.43 
   2  12  -5    4.54    0.44 
   2  12  -5    3.83    0.40 
   1  12  -5    1.69    0.29 
   1  12  -5    1.37    0.32 
  -1 -12   5    0.42    0.15 
   0  12  -5    2.04    0.36 
   0 -12   5    1.45    0.35 
  -1  12  -5    0.72    0.33 
   1 -12   5    0.34    0.30 
  -2  12  -5    0.85    0.36 
   2 -12   5    0.30    0.33 
  -3  12  -5    0.35    0.37 
   3 -12   5   -0.07    0.30 
  -4  12  -5    0.19    0.36 
   4 -12   5    0.53    0.36 
  -5  12  -5    0.32    0.39 
   5 -12   5   -0.27    0.33 
   6 -12   5    1.91    0.49 
   7 -12   5    1.89    0.51 
  14  11  -5    0.72    0.46 
  13  11  -5    2.41    0.53 
  12  11  -5   11.36    0.91 
  11  11  -5   10.80    0.84 
  10  11  -5    0.87    0.36 
   9  11  -5    4.04    0.48 
   8  11  -5    9.29    0.71 
   7  11  -5    6.55    0.47 
   7  11  -5    6.35    0.56 
   6  11  -5    1.98    0.33 
   6  11  -5    3.06    0.32 
   5  11  -5    4.70    0.38 
   5  11  -5    3.55    0.41 
   4  11  -5    0.36    0.23 
   4  11  -5    0.29    0.22 
   3  11  -5    1.31    0.27 
   3  11  -5    1.69    0.28 
   2  11  -5    3.57    0.37 
   2  11  -5    2.86    0.36 
  -2 -11   5    3.34    0.34 
   1  11  -5    0.84    0.27 
   1  11  -5    0.72    0.23 
  -1 -11   5    0.18    0.09 
   0  11  -5    0.21    0.26 
   0  11  -5    0.47    0.20 
   0 -11   5    0.03    0.21 
  -1  11  -5    2.70    0.38 
   1 -11   5    3.16    0.41 
  -2  11  -5    0.36    0.30 
   2 -11   5    0.56    0.31 
  -3  11  -5    2.44    0.42 
   3 -11   5    2.50    0.43 
  -4  11  -5    0.19    0.32 
   4 -11   5   -0.12    0.29 
  -5  11  -5    0.07    0.35 
   5 -11   5    0.19    0.34 
   6 -11   5    1.06    0.41 
   7 -11   5    1.53    0.48 
   8 -11   5    0.41    0.41 
  15  10  -5    0.45    0.46 
  14  10  -5    0.68    0.45 
  13  10  -5    1.09    0.41 
  12  10  -5   -0.03    0.35 
  11  10  -5    3.74    0.51 
  10  10  -5    1.65    0.37 
   9  10  -5    2.08    0.37 
   8  10  -5    0.98    0.31 
   7  10  -5   10.21    0.70 
   6  10  -5    5.27    0.47 
   5  10  -5    1.92    0.30 
   5  10  -5    2.13    0.26 
   4  10  -5    4.73    0.40 
   4  10  -5    4.09    0.35 
   3  10  -5    0.14    0.20 
   3  10  -5   -0.23    0.15 
  -3 -10   5    0.00    0.13 
   2  10  -5    0.08    0.19 
   2  10  -5   -0.10    0.17 
  -2 -10   5    0.09    0.16 
   1  10  -5    0.54    0.23 
   1  10  -5    0.54    0.20 
  -1 -10   5    0.59    0.20 
   0  10  -5    1.57    0.31 
   0  10  -5    2.22    0.27 
   0 -10   5    1.99    0.31 
  -1  10  -5    0.34    0.28 
   1 -10   5    0.75    0.26 
  -2  10  -5    2.72    0.38 
   2 -10   5    2.35    0.37 
  -3  10  -5    6.35    0.56 
   3 -10   5    6.78    0.60 
  -4  10  -5    2.48    0.41 
   4 -10   5    1.73    0.38 
  -5  10  -5    1.31    0.39 
   5 -10   5    1.16    0.37 
   6 -10   5    1.00    0.38 
   7 -10   5   -0.21    0.33 
   8 -10   5    0.69    0.40 
   9 -10   5    0.00    0.39 
  15   9  -5    4.38    0.65 
  14   9  -5   12.76    1.01 
  13   9  -5   10.44    0.88 
  12   9  -5    3.51    0.52 
  11   9  -5    2.08    0.42 
  10   9  -5    2.19    0.41 
   9   9  -5    4.43    0.47 
   8   9  -5    9.62    0.71 
   7   9  -5    7.96    0.59 
   6   9  -5   20.12    1.14 
   5   9  -5   21.38    1.06 
   5   9  -5   20.95    1.16 
   4   9  -5    0.38    0.17 
   4   9  -5    0.81    0.21 
   3   9  -5    3.27    0.34 
   3   9  -5    4.26    0.34 
  -3  -9   5    4.33    0.27 
   2   9  -5   11.40    0.69 
   2   9  -5   10.70    0.64 
  -2  -9   5   12.14    0.62 
   1   9  -5    4.72    0.35 
   1   9  -5    4.13    0.37 
  -1  -9   5    3.39    0.33 
   0   9  -5    3.93    0.32 
   0   9  -5    3.56    0.36 
   0  -9   5    3.01    0.34 
  -1   9  -5   10.07    0.60 
  -1   9  -5    9.55    0.64 
   1  -9   5   10.79    0.66 
  -2   9  -5    1.88    0.33 
   2  -9   5    2.23    0.34 
  -3   9  -5    1.56    0.32 
   3  -9   5    1.61    0.34 
  -4   9  -5    5.69    0.53 
   4  -9   5    5.87    0.56 
  -5   9  -5    1.01    0.34 
   5  -9   5    1.32    0.36 
   6  -9   5    0.02    0.31 
   7  -9   5   -0.18    0.33 
   8  -9   5    0.73    0.40 
   9  -9   5    0.50    0.39 
  15   8  -5    0.40    0.45 
  14   8  -5    0.27    0.38 
  13   8  -5    0.83    0.42 
  12   8  -5    0.65    0.37 
  11   8  -5    0.19    0.31 
  10   8  -5    0.46    0.31 
   9   8  -5    0.21    0.28 
   8   8  -5    0.10    0.24 
   7   8  -5    0.05    0.22 
   6   8  -5   -0.05    0.17 
   5   8  -5    5.15    0.41 
   4   8  -5   17.60    0.98 
   4   8  -5   17.70    0.89 
   3   8  -5    0.55    0.17 
   3   8  -5    0.34    0.16 
  -3  -8   5    0.61    0.10 
   2   8  -5    1.73    0.22 
   2   8  -5    1.95    0.25 
  -2  -8   5    1.84    0.18 
   1   8  -5   14.08    0.80 
   1   8  -5   14.68    0.77 
  -1  -8   5   14.37    0.74 
   0   8  -5    2.42    0.29 
   0   8  -5    2.87    0.27 
   0  -8   5    2.89    0.29 
  -1   8  -5    0.09    0.11 
  -1   8  -5    0.02    0.18 
   1  -8   5    0.07    0.17 
  -2   8  -5   13.94    0.76 
  -2   8  -5   14.32    0.84 
   2  -8   5   14.81    0.83 
  -3   8  -5    3.47    0.40 
   3  -8   5    3.51    0.39 
  -4   8  -5    0.12    0.26 
   4  -8   5    0.29    0.25 
  -5   8  -5   -0.30    0.26 
   5  -8   5   -0.19    0.25 
  -6   8  -5    2.60    0.42 
   6  -8   5    2.16    0.44 
   7  -8   5    0.12    0.32 
   8  -8   5    0.65    0.37 
   9  -8   5    3.29    0.55 
  10  -8   5    1.46    0.47 
  15   7  -5    1.88    0.52 
  14   7  -5    3.17    0.57 
  13   7  -5    2.08    0.48 
  12   7  -5    0.22    0.34 
  11   7  -5    4.86    0.55 
  10   7  -5   10.13    0.75 
   9   7  -5    9.64    0.72 
   8   7  -5   77.45    3.86 
   7   7  -5   41.48    2.14 
   6   7  -5    5.47    0.43 
   5   7  -5    6.11    0.46 
   4   7  -5   32.20    1.65 
   3   7  -5    3.03    0.27 
   3   7  -5    3.25    0.27 
  -3  -7   5    3.09    0.18 
   2   7  -5   24.54    1.19 
   2   7  -5   24.79    1.28 
  -2  -7   5   24.92    1.13 
   1   7  -5    3.80    0.28 
   1   7  -5    3.02    0.29 
  -1  -7   5    3.72    0.26 
   0   7  -5    0.32    0.17 
   0   7  -5    0.39    0.12 
   0  -7   5    0.42    0.13 
  -1   7  -5   11.01    0.61 
  -1   7  -5   11.66    0.65 
   1  -7   5   10.30    0.62 
  -2   7  -5    3.65    0.35 
  -2   7  -5    3.72    0.26 
   2  -7   5    3.38    0.34 
  -3   7  -5    1.96    0.30 
   3  -7   5    2.10    0.30 
  -4   7  -5    1.50    0.31 
   4  -7   5    1.23    0.28 
  -5   7  -5    1.35    0.32 
   5  -7   5    2.19    0.36 
  -6   7  -5    0.80    0.33 
   6  -7   5    0.52    0.30 
   7  -7   5    0.57    0.32 
   8  -7   5   -0.18    0.30 
   9  -7   5   -0.05    0.34 
  10  -7   5    2.06    0.48 
  11  -7   5    0.39    0.40 
  15   6  -5    0.47    0.44 
  14   6  -5    0.47    0.42 
  13   6  -5    0.55    0.40 
  12   6  -5   -0.03    0.31 
  11   6  -5    1.18    0.34 
  10   6  -5    0.41    0.30 
   9   6  -5    4.55    0.46 
   8   6  -5    5.04    0.47 
   7   6  -5   26.34    1.43 
   6   6  -5   -0.18    0.15 
   5   6  -5    0.13    0.15 
   4   6  -5    0.49    0.16 
   3   6  -5    1.67    0.20 
   2   6  -5    5.76    0.38 
   2   6  -5    5.57    0.37 
  -2  -6   5    5.86    0.30 
   1   6  -5    1.69    0.17 
   1   6  -5    1.51    0.20 
  -1  -6   5    1.17    0.14 
   0   6  -5    0.06    0.09 
   0   6  -5    0.01    0.13 
   0  -6   5    0.06    0.04 
  -1   6  -5    3.39    0.31 
  -1   6  -5    4.53    0.29 
   1  -6   5    4.52    0.33 
  -2   6  -5    0.98    0.21 
  -2   6  -5    1.19    0.13 
   2  -6   5    1.29    0.20 
  -3   6  -5    7.02    0.47 
   3  -6   5    5.97    0.46 
  -4   6  -5    4.97    0.43 
   4  -6   5    5.83    0.46 
  -5   6  -5    3.06    0.37 
   5  -6   5    2.56    0.37 
  -6   6  -5   12.67    0.79 
   6  -6   5   12.57    0.81 
   7  -6   5    4.83    0.50 
   8  -6   5    1.91    0.39 
   9  -6   5    0.22    0.32 
  10  -6   5    0.33    0.36 
  11  -6   5    1.19    0.44 
  15   5  -5    1.41    0.48 
  14   5  -5    1.05    0.44 
  13   5  -5    9.22    0.78 
  12   5  -5   19.98    1.24 
  11   5  -5   18.36    1.16 
  10   5  -5   39.30    2.10 
   9   5  -5   15.15    0.95 
   8   5  -5   15.42    0.93 
   7   5  -5   16.39    1.04 
   7   5  -5   19.86    0.85 
   6   5  -5    4.11    0.22 
   6   5  -5    4.53    0.37 
   5   5  -5   37.58    1.91 
   4   5  -5   29.26    1.50 
   3   5  -5    9.23    0.54 
   2   5  -5   17.30    0.92 
  -2  -5   5   18.12    0.80 
   1   5  -5   40.25    1.92 
   1   5  -5   42.58    2.05 
  -1  -5   5   42.69    1.85 
   0   5  -5   31.03    1.52 
   0   5  -5   30.59    1.45 
  -1   5  -5   15.22    0.76 
  -1   5  -5   14.43    0.76 
   1  -5   5   14.86    0.74 
  -2   5  -5    2.75    0.19 
  -2   5  -5    3.38    0.29 
   2  -5   5    2.55    0.25 
  -3   5  -5    4.10    0.36 
   3  -5   5    4.66    0.36 
  -4   5  -5    4.31    0.37 
   4  -5   5    4.80    0.39 
  -5   5  -5    4.87    0.42 
   5  -5   5    4.62    0.43 
  -6   5  -5    1.17    0.29 
   6  -5   5    1.14    0.29 
   7  -5   5    5.92    0.52 
   8  -5   5    0.92    0.31 
   9  -5   5    0.57    0.32 
  10  -5   5   -0.35    0.29 
  11  -5   5    0.85    0.41 
  12  -5   5    0.13    0.39 
  14   4  -5    0.89    0.43 
  13   4  -5   -0.19    0.35 
  12   4  -5    1.10    0.37 
  11   4  -5   -0.45    0.29 
  10   4  -5    7.61    0.63 
   9   4  -5    0.04    0.26 
   8   4  -5    2.73    0.23 
   8   4  -5    1.98    0.33 
   7   4  -5    3.91    0.27 
   7   4  -5    3.87    0.38 
   6   4  -5    6.28    0.34 
   6   4  -5    6.33    0.47 
   5   4  -5   10.16    0.64 
   5   4  -5   10.86    0.50 
   4   4  -5    0.15    0.13 
   3   4  -5    3.60    0.28 
   2   4  -5    1.24    0.15 
  -2  -4   5    0.86    0.08 
   1   4  -5   18.54    0.94 
   1   4  -5   18.19    0.89 
  -1  -4   5   18.67    0.84 
   0   4  -5    3.25    0.25 
   0   4  -5    3.30    0.22 
  -1   4  -5   42.11    2.00 
  -1   4  -5   40.80    1.90 
   1  -4   5   41.31    1.86 
  -2   4  -5    4.72    0.33 
   2  -4   5    4.26    0.31 
  -3   4  -5    0.09    0.14 
   3  -4   5    0.27    0.13 
  -4   4  -5    8.51    0.52 
   4  -4   5    7.44    0.50 
  -5   4  -5    7.69    0.50 
   5  -4   5    7.11    0.50 
  -6   4  -5    1.88    0.29 
   6  -4   5    2.13    0.30 
   7  -4   5    0.69    0.26 
   8  -4   5    0.02    0.24 
   9  -4   5   -0.33    0.26 
  10  -4   5    0.19    0.29 
  11  -4   5    1.62    0.41 
  12  -4   5    3.48    0.55 
  13  -4   5    0.72    0.40 
  14   3  -5    4.01    0.57 
  13   3  -5    9.03    0.79 
  12   3  -5    7.65    0.70 
  11   3  -5    2.41    0.42 
  10   3  -5    6.85    0.59 
   9   3  -5    0.31    0.25 
   9   3  -5   -0.08    0.16 
   8   3  -5   10.37    0.57 
   8   3  -5    9.86    0.71 
   7   3  -5   40.33    1.82 
   7   3  -5   39.71    2.07 
   6   3  -5   40.09    2.08 
   6   3  -5   41.32    1.83 
   5   3  -5  124.72    6.09 
   5   3  -5  127.22    5.47 
   4   3  -5   69.67    3.41 
   4   3  -5   69.88    3.03 
   3   3  -5   49.67    2.40 
   3   3  -5   47.93    2.12 
   2   3  -5   18.51    0.96 
  -2  -3   5   18.58    0.83 
   1   3  -5   30.00    1.48 
  -1  -3   5   29.83    1.33 
   0   3  -5    6.74    0.38 
   0   3  -5    7.10    0.38 
  -1   3  -5    6.27    0.32 
  -1   3  -5    5.91    0.35 
   1  -3   5    5.56    0.33 
  -2   3  -5    2.58    0.22 
   2  -3   5    2.30    0.20 
  -3   3  -5    0.26    0.14 
   3  -3   5    0.14    0.11 
  -4   3  -5    0.79    0.18 
   4  -3   5    1.01    0.17 
  -5   3  -5   14.69    0.77 
   5  -3   5   13.34    0.75 
  -6   3  -5   10.06    0.58 
   6  -3   5    8.13    0.56 
   7  -3   5    0.03    0.20 
   8  -3   5    0.63    0.26 
   9  -3   5    0.00    0.24 
  10  -3   5    1.87    0.37 
  11  -3   5    0.08    0.29 
  12  -3   5    0.12    0.35 
  13  -3   5    1.71    0.46 
  14   2  -5   -0.17    0.37 
  13   2  -5    0.45    0.40 
  12   2  -5   -0.16    0.34 
  11   2  -5   -0.18    0.28 
  10   2  -5    0.25    0.22 
  10   2  -5    1.03    0.32 
   9   2  -5    0.16    0.18 
   9   2  -5   -0.17    0.23 
   8   2  -5    2.53    0.36 
   8   2  -5    3.49    0.31 
   7   2  -5    0.21    0.20 
   7   2  -5    0.23    0.16 
   6   2  -5    0.20    0.13 
   6   2  -5   -0.22    0.16 
   5   2  -5    1.42    0.22 
   5   2  -5    1.20    0.15 
   4   2  -5    0.38    0.09 
   4   2  -5    0.62    0.15 
   3   2  -5    0.12    0.10 
   3   2  -5    0.09    0.06 
   2   2  -5    5.05    0.33 
   2   2  -5    5.12    0.25 
   1   2  -5    9.18    0.51 
  -1  -2   5    9.49    0.45 
  -1   2  -5    7.22    0.37 
  -1   2  -5    6.60    0.38 
   1  -2   5    7.09    0.37 
  -2   2  -5    4.13    0.27 
   2  -2   5    3.83    0.25 
  -3   2  -5    2.87    0.24 
   3  -2   5    2.49    0.22 
  -4   2  -5    4.22    0.32 
   4  -2   5    4.35    0.31 
  -5   2  -5    2.05    0.24 
   5  -2   5    1.33    0.21 
  -6   2  -5    3.74    0.32 
   6  -2   5    3.10    0.23 
   6  -2   5    3.73    0.33 
   7  -2   5    4.32    0.39 
   8  -2   5    9.85    0.64 
   9  -2   5    1.76    0.34 
  10  -2   5    5.28    0.51 
  11  -2   5    4.49    0.51 
  12  -2   5    0.12    0.33 
  13  -2   5   -0.21    0.35 
  14   1  -5    0.68    0.42 
  13   1  -5    0.58    0.40 
  12   1  -5    0.56    0.38 
  11   1  -5    5.49    0.57 
  11   1  -5    5.14    0.49 
  10   1  -5    8.25    0.64 
  10   1  -5    6.53    0.54 
   9   1  -5   33.55    1.71 
   9   1  -5   38.23    1.93 
   8   1  -5   47.36    2.25 
   8   1  -5   50.15    2.50 
   7   1  -5   65.53    3.31 
   7   1  -5   67.26    2.98 
   6   1  -5   28.70    1.53 
   6   1  -5   29.47    1.36 
   5   1  -5   53.84    2.40 
   5   1  -5   54.01    2.68 
   4   1  -5    0.42    0.14 
   4   1  -5    0.31    0.10 
   3   1  -5    0.68    0.10 
   3   1  -5    0.46    0.13 
   2   1  -5    1.05    0.14 
   2   1  -5    1.10    0.10 
  -1  -1   5    3.05    0.18 
   0  -1   5   25.92    1.17 
  -1   1  -5   30.82    1.43 
   1  -1   5   31.82    1.41 
  -2   1  -5   28.89    1.34 
   2  -1   5   29.60    1.33 
  -3   1  -5   27.47    1.27 
   3  -1   5   27.01    1.26 
  -4   1  -5   26.02    1.19 
   4  -1   5   24.11    1.18 
  -5   1  -5   21.36    1.01 
   5  -1   5   20.33    1.01 
   5  -1   5   20.37    1.02 
  -6   1  -5    0.54    0.18 
   6  -1   5    0.66    0.17 
   6  -1   5    0.78    0.12 
   7  -1   5    2.22    0.20 
   7  -1   5    1.94    0.27 
   8  -1   5    0.01    0.19 
   9  -1   5    1.25    0.29 
  10  -1   5    2.29    0.36 
  11  -1   5    1.46    0.37 
  12  -1   5    0.08    0.32 
  13  -1   5    1.71    0.42 
  14  -1   5    0.66    0.40 
  13   0  -5    0.37    0.41 
  12   0  -5    0.41    0.32 
  12   0  -5    0.80    0.39 
  11   0  -5    2.86    0.46 
  11   0  -5    2.72    0.40 
  10   0  -5    2.09    0.37 
  10   0  -5    1.99    0.39 
   9   0  -5    7.23    0.57 
   9   0  -5    6.53    0.53 
   8   0  -5    1.22    0.28 
   8   0  -5    0.89    0.24 
   7   0  -5    4.80    0.44 
   7   0  -5    5.28    0.40 
   6   0  -5    2.26    0.29 
   6   0  -5    2.24    0.25 
   5   0  -5    2.23    0.26 
   5   0  -5    2.37    0.23 
   4   0  -5    0.94    0.18 
   4   0  -5    0.86    0.14 
   3   0  -5    1.72    0.16 
   2   0  -5    0.62    0.09 
  -1   0   5    4.96    0.28 
   0   0   5    1.50    0.13 
   1   0   5    3.26    0.21 
  -2   0  -5    9.32    0.46 
   2   0   5    9.08    0.47 
  -3   0  -5    0.04    0.08 
   3   0   5    0.06    0.05 
   3   0   5    0.05    0.08 
  -4   0  -5    0.16    0.11 
   4   0   5    0.09    0.06 
   4   0   5    0.10    0.10 
  -5   0  -5    1.83    0.19 
   5   0   5    1.10    0.13 
   5   0   5    1.30    0.19 
   6   0   5    0.16    0.10 
   6   0   5    0.20    0.14 
   7   0   5   10.65    0.62 
   7   0   5   11.32    0.64 
   8   0   5    3.19    0.29 
   8   0   5    3.61    0.36 
   9   0   5    1.15    0.28 
  10   0   5    0.38    0.25 
  11   0   5    0.47    0.29 
  12   0   5   -0.15    0.27 
  13   0   5    0.09    0.32 
  14   0   5    1.43    0.44 
  13  -1  -5    0.34    0.40 
  12  -1  -5    5.78    0.59 
  12  -1  -5    6.20    0.63 
  11  -1  -5   10.53    0.76 
  11  -1  -5   11.07    0.82 
  10  -1  -5   11.32    0.83 
  10  -1  -5   12.04    0.78 
   9  -1  -5   14.78    0.95 
   9  -1  -5   15.96    0.90 
   8  -1  -5    1.61    0.31 
   8  -1  -5    1.86    0.32 
   7  -1  -5    4.04    0.39 
   7  -1  -5    3.74    0.36 
   6  -1  -5    1.92    0.25 
   6  -1  -5    1.73    0.27 
   5  -1  -5    3.97    0.34 
   5  -1  -5    3.78    0.30 
   4  -1  -5   56.98    2.54 
   3  -1  -5   49.63    2.21 
   2  -1  -5   59.94    2.64 
   1  -1  -5   62.20    2.73 
   0   1   5   63.81    2.81 
   1   1   5   57.88    2.55 
  -2  -1  -5   18.26    0.83 
   2   1   5   17.86    0.85 
  -3  -1  -5    3.11    0.21 
   3   1   5    4.07    0.25 
   3   1   5    3.40    0.23 
  -4  -1  -5    3.98    0.24 
   4   1   5    3.70    0.26 
   4   1   5    3.88    0.28 
  -5  -1  -5    2.06    0.18 
   5   1   5    1.67    0.19 
   5   1   5    1.88    0.18 
   6   1   5    2.38    0.22 
   6   1   5    2.64    0.25 
   7   1   5    1.20    0.20 
   7   1   5    1.10    0.17 
   8   1   5   24.56    1.32 
   8   1   5   25.90    1.26 
   9   1   5    0.60    0.19 
   9   1   5    0.61    0.24 
  10   1   5    2.26    0.35 
  11   1   5    0.09    0.25 
  12   1   5    0.17    0.28 
  13   1   5    0.59    0.34 
  14   1   5    0.21    0.35 
  15   1   5   -0.17    0.39 
  13  -2  -5    0.37    0.40 
  12  -2  -5   -0.11    0.34 
  12  -2  -5    0.27    0.36 
  11  -2  -5    0.59    0.36 
  11  -2  -5    0.78    0.37 
  10  -2  -5    0.03    0.29 
  10  -2  -5   -0.03    0.30 
   9  -2  -5    0.24    0.29 
   9  -2  -5   -0.15    0.28 
   8  -2  -5    0.00    0.25 
   8  -2  -5    0.50    0.25 
   7  -2  -5    6.81    0.50 
   7  -2  -5    6.16    0.51 
   6  -2  -5    7.52    0.53 
   6  -2  -5    7.69    0.50 
   5  -2  -5    3.10    0.30 
   4  -2  -5    0.53    0.16 
   3  -2  -5    3.85    0.28 
   2  -2  -5    3.97    0.26 
   1  -2  -5    6.28    0.34 
   0   2   5    7.28    0.40 
   1   2   5   15.14    0.73 
  -2  -2  -5   14.44    0.65 
   2   2   5   14.28    0.69 
   2   2   5   13.66    0.75 
  -3  -2  -5    3.65    0.21 
   3   2   5    3.57    0.26 
   3   2   5    3.52    0.24 
  -4  -2  -5    0.21    0.08 
   4   2   5   -0.02    0.08 
   4   2   5    0.01    0.04 
  -5  -2  -5    0.81    0.11 
   5   2   5    0.76    0.14 
   5   2   5    0.70    0.14 
   6   2   5   -0.03    0.10 
   6   2   5    0.26    0.13 
   7   2   5    1.61    0.21 
   7   2   5    1.27    0.20 
   8   2   5    0.99    0.20 
   8   2   5    0.94    0.21 
   9   2   5    0.07    0.19 
   9   2   5   -0.02    0.16 
  10   2   5    0.20    0.19 
  10   2   5    0.15    0.21 
  11   2   5    0.11    0.25 
  12   2   5    1.54    0.37 
  13   2   5    1.46    0.38 
  14   2   5    1.32    0.41 
  15   2   5    0.25    0.38 
  12  -3  -5    2.01    0.49 
  11  -3  -5    0.27    0.35 
  11  -3  -5    0.30    0.35 
  10  -3  -5    0.48    0.34 
  10  -3  -5    0.07    0.29 
   9  -3  -5    1.34    0.37 
   9  -3  -5    1.69    0.35 
   8  -3  -5    6.69    0.57 
   8  -3  -5    6.71    0.56 
   7  -3  -5    1.24    0.28 
   7  -3  -5    1.03    0.31 
   6  -3  -5   28.50    1.41 
   5  -3  -5   56.35    2.57 
   4  -3  -5   91.35    4.05 
   3  -3  -5   10.44    0.57 
   2  -3  -5    0.66    0.14 
   1  -3  -5   12.09    0.60 
   0  -3  -5   13.61    0.66 
   1   3   5    0.07    0.08 
   2   3   5    8.01    0.43 
   2   3   5    7.74    0.47 
  -3  -3  -5    3.28    0.17 
   3   3   5    2.72    0.22 
   3   3   5    3.36    0.26 
  -4  -3  -5   15.22    0.71 
   4   3   5   15.93    0.85 
   4   3   5   15.63    0.76 
   5   3   5   24.85    1.16 
   5   3   5   24.52    1.29 
   6   3   5   37.11    1.89 
   6   3   5   37.48    1.72 
   7   3   5    1.29    0.18 
   7   3   5    3.37    0.27 
   9   3   5   -0.05    0.17 
   9   3   5    0.10    0.08 
  10   3   5    1.20    0.23 
  10   3   5    1.85    0.31 
  11   3   5    0.59    0.27 
  12   3   5    1.63    0.35 
  13   3   5    0.20    0.30 
  14   3   5    1.95    0.44 
  15   3   5   -0.16    0.35 
  12  -4  -5   -0.06    0.43 
  11  -4  -5    0.85    0.44 
  11  -4  -5    0.29    0.35 
  10  -4  -5    0.55    0.33 
  10  -4  -5   -0.17    0.32 
   9  -4  -5    0.01    0.30 
   9  -4  -5   -0.23    0.28 
   8  -4  -5    0.84    0.33 
   8  -4  -5    0.57    0.29 
   7  -4  -5    4.95    0.46 
   7  -4  -5    4.36    0.45 
   6  -4  -5    3.57    0.40 
   5  -4  -5    6.84    0.50 
   4  -4  -5    0.21    0.18 
   3  -4  -5    0.03    0.14 
   2  -4  -5    0.37    0.15 
   1  -4  -5   17.99    0.87 
   0  -4  -5   36.97    1.67 
  -1  -4  -5    1.33    0.14 
   1   4   5    1.10    0.17 
   2   4   5   15.51    0.85 
   2   4   5   15.17    0.76 
   3   4   5    1.48    0.20 
   3   4   5    1.71    0.17 
   4   4   5    2.45    0.25 
   4   4   5    2.82    0.23 
   5   4   5    0.17    0.10 
   5   4   5    0.33    0.14 
   6   4   5    0.95    0.16 
   6   4   5    0.76    0.17 
   7   4   5    7.99    0.55 
   7   4   5    8.26    0.48 
   8   4   5    6.03    0.44 
   8   4   5    7.24    0.50 
   9   4   5    3.20    0.34 
   9   4   5    3.53    0.36 
  10   4   5    0.93    0.25 
  10   4   5    0.60    0.23 
  11   4   5    0.34    0.24 
  11   4   5   -0.05    0.21 
  12   4   5    0.20    0.27 
  13   4   5    0.17    0.30 
  14   4   5    0.12    0.33 
  15   4   5    0.01    0.37 
  11  -5  -5    0.22    0.44 
  10  -5  -5    2.95    0.53 
  10  -5  -5    2.68    0.45 
   9  -5  -5    2.63    0.48 
   9  -5  -5    3.14    0.44 
   8  -5  -5    2.50    0.44 
   8  -5  -5    2.49    0.39 
   7  -5  -5    5.30    0.52 
   6  -5  -5   37.11    1.81 
   5  -5  -5   -0.06    0.23 
   4  -5  -5    3.67    0.35 
   3  -5  -5    0.15    0.17 
   2  -5  -5   -0.19    0.13 
   1  -5  -5    6.78    0.42 
   0  -5  -5   24.64    1.15 
  -1  -5  -5   37.41    1.69 
   1   5   5   37.36    1.90 
   2   5   5   61.05    2.70 
   2   5   5   59.78    3.00 
   3   5   5   17.02    0.96 
   3   5   5   17.60    0.85 
   4   5   5    5.44    0.41 
   4   5   5    5.12    0.33 
   5   5   5   13.98    0.82 
   5   5   5   13.72    0.70 
   6   5   5   25.55    1.23 
   6   5   5   26.87    1.41 
   7   5   5    0.40    0.18 
   7   5   5    0.88    0.17 
   8   5   5    3.67    0.31 
   8   5   5    3.25    0.35 
   9   5   5    3.06    0.32 
   9   5   5    3.77    0.38 
  10   5   5    0.32    0.22 
  10   5   5    0.21    0.22 
  11   5   5    3.74    0.44 
  11   5   5    2.84    0.37 
  12   5   5    0.74    0.29 
  12   5   5    0.63    0.32 
  13   5   5    0.33    0.30 
  14   5   5    0.84    0.36 
  15   5   5   -0.09    0.35 
  11  -6  -5   -0.43    0.44 
  10  -6  -5    0.84    0.42 
   9  -6  -5   -0.09    0.32 
   9  -6  -5    0.33    0.41 
   8  -6  -5    1.53    0.35 
   8  -6  -5    1.05    0.40 
   7  -6  -5   -0.21    0.30 
   6  -6  -5    0.85    0.33 
   5  -6  -5    0.61    0.29 
   4  -6  -5    9.44    0.61 
   3  -6  -5    8.71    0.56 
   2  -6  -5    1.44    0.24 
   1  -6  -5    0.10    0.15 
   0  -6  -5    1.14    0.18 
  -1  -6  -5    0.90    0.15 
   1   6   5    0.84    0.19 
  -2  -6  -5    2.01    0.19 
   2   6   5    2.21    0.26 
   3   6   5   13.55    0.69 
   3   6   5   13.07    0.80 
   4   6   5    1.08    0.17 
   4   6   5    0.92    0.21 
   5   6   5    1.23    0.23 
   5   6   5    1.31    0.18 
   6   6   5    6.33    0.50 
   6   6   5    6.24    0.40 
   7   6   5    2.74    0.26 
   7   6   5    2.88    0.33 
   8   6   5    9.18    0.52 
   8   6   5    7.59    0.60 
   9   6   5    0.49    0.19 
   9   6   5    0.15    0.19 
  10   6   5    0.23    0.20 
  10   6   5   -0.08    0.24 
  11   6   5    0.27    0.23 
  11   6   5    0.06    0.27 
  12   6   5    0.49    0.33 
  12   6   5    0.26    0.24 
  13   6   5    0.81    0.37 
  13   6   5    1.10    0.32 
  14   6   5    0.07    0.31 
  15   6   5   -0.08    0.34 
  10  -7  -5    0.50    0.45 
   9  -7  -5    0.48    0.43 
   8  -7  -5    0.14    0.40 
   8  -7  -5    0.36    0.30 
   7  -7  -5    1.47    0.41 
   6  -7  -5    0.54    0.35 
   5  -7  -5    1.98    0.36 
   4  -7  -5    6.20    0.52 
   3  -7  -5   17.18    0.93 
   2  -7  -5   12.57    0.72 
   1  -7  -5   11.45    0.64 
   0  -7  -5   22.81    1.11 
  -1  -7  -5    0.15    0.13 
   1   7   5    0.25    0.17 
  -2  -7  -5    1.59    0.19 
   2   7   5    2.00    0.27 
  -3  -7  -5   24.91    1.16 
   3   7   5   24.29    1.35 
   4   7   5    0.75    0.21 
   4   7   5    0.80    0.16 
   5   7   5   16.03    0.98 
   5   7   5   17.40    0.85 
   6   7   5   -0.02    0.12 
   6   7   5    0.03    0.16 
   7   7   5    2.59    0.25 
   7   7   5    1.71    0.30 
   8   7   5    8.84    0.64 
   8   7   5    8.34    0.51 
   9   7   5   12.36    0.84 
   9   7   5   13.42    0.72 
  10   7   5    0.65    0.22 
  10   7   5    0.70    0.30 
  11   7   5    1.04    0.26 
  11   7   5    1.26    0.35 
  12   7   5    0.00    0.31 
  12   7   5   -0.09    0.22 
  13   7   5    0.50    0.27 
  13   7   5    0.28    0.34 
  14   7   5    0.95    0.35 
  15   7   5    0.30    0.35 
   9  -8  -5    0.17    0.44 
   8  -8  -5    1.48    0.48 
   7  -8  -5    1.04    0.40 
   6  -8  -5    0.76    0.38 
   5  -8  -5    2.06    0.40 
   4  -8  -5    2.39    0.38 
   3  -8  -5    2.32    0.35 
   2  -8  -5    6.95    0.52 
   1  -8  -5    8.34    0.54 
   0  -8  -5    1.21    0.21 
  -1  -8  -5    1.36    0.21 
   1   8   5    1.31    0.26 
  -2  -8  -5   22.57    1.08 
   2   8   5   22.29    1.26 
  -3  -8  -5    2.45    0.24 
   3   8   5    2.91    0.34 
  -4  -8  -5    1.49    0.19 
   4   8   5    1.41    0.27 
   5   8   5   22.80    1.11 
   5   8   5   22.79    1.29 
   6   8   5    0.40    0.21 
   6   8   5    0.34    0.15 
   7   8   5    0.14    0.21 
   7   8   5    0.05    0.14 
   8   8   5    0.11    0.15 
   8   8   5    0.00    0.23 
   9   8   5    2.66    0.30 
   9   8   5    3.36    0.41 
  10   8   5    0.86    0.31 
  10   8   5    0.67    0.22 
  11   8   5    2.12    0.31 
  11   8   5    3.00    0.45 
  12   8   5    2.67    0.36 
  12   8   5    3.69    0.51 
  13   8   5    1.67    0.33 
  13   8   5    1.73    0.44 
  14   8   5   -0.36    0.27 
  14   8   5    0.02    0.35 
   9  -9  -5    1.00    0.53 
   8  -9  -5   -0.19    0.45 
   7  -9  -5    0.15    0.41 
   6  -9  -5    0.63    0.39 
   5  -9  -5    2.21    0.44 
   4  -9  -5    5.28    0.53 
   3  -9  -5    4.14    0.43 
   2  -9  -5    0.91    0.27 
   1  -9  -5    6.10    0.47 
   0  -9  -5    3.15    0.33 
  -1  -9  -5    2.09    0.27 
   1   9   5    2.82    0.36 
  -2  -9  -5    8.79    0.49 
   2   9   5    6.50    0.58 
  -3  -9  -5   15.02    0.76 
   3   9   5   14.53    0.92 
  -4  -9  -5    5.30    0.36 
   4   9   5    6.14    0.51 
  -5  -9  -5    0.31    0.15 
   5   9   5    0.50    0.24 
   6   9   5    6.55    0.58 
   6   9   5    7.62    0.47 
   7   9   5    3.95    0.33 
   7   9   5    3.36    0.44 
   8   9   5    3.91    0.47 
   8   9   5    3.30    0.31 
   9   9   5   13.67    0.76 
   9   9   5   14.20    0.93 
  10   9   5    0.41    0.28 
  10   9   5    0.47    0.21 
  11   9   5    0.18    0.32 
  11   9   5    0.21    0.22 
  12   9   5    0.14    0.22 
  12   9   5    0.16    0.33 
  13   9   5    0.25    0.26 
  13   9   5    0.03    0.36 
  14   9   5    0.02    0.39 
  15   9   5    0.58    0.45 
   8 -10  -5    0.58    0.48 
   7 -10  -5    1.54    0.53 
   6 -10  -5   -0.27    0.37 
   5 -10  -5    3.56    0.51 
   4 -10  -5   -0.27    0.29 
   3 -10  -5   -0.28    0.26 
   2 -10  -5    0.77    0.27 
   1 -10  -5   10.05    0.65 
   0 -10  -5    0.61    0.25 
  -1 -10  -5    0.19    0.19 
   1  10   5   -0.12    0.23 
  -2 -10  -5    4.30    0.37 
   2  10   5    4.10    0.46 
  -3 -10  -5   -0.23    0.14 
   3  10   5   -0.05    0.23 
  -4 -10  -5    1.85    0.23 
   4  10   5    1.77    0.33 
  -5 -10  -5    2.34    0.25 
   5  10   5    1.58    0.35 
  -6 -10  -5    3.08    0.27 
   6  10   5    2.98    0.41 
   7  10   5    6.02    0.58 
   7  10   5    6.99    0.46 
   8  10   5    7.98    0.67 
   8  10   5    6.76    0.48 
   9  10   5   11.40    0.66 
   9  10   5   11.31    0.84 
  10  10   5    0.59    0.31 
  10  10   5    0.53    0.22 
  11  10   5    1.27    0.38 
  11  10   5    1.22    0.27 
  12  10   5   -0.15    0.33 
  12  10   5    0.12    0.23 
  13  10   5    0.14    0.37 
  14  10   5    0.00    0.39 
  15  10   5    0.68    0.47 
   7 -11  -5    0.26    0.46 
   6 -11  -5    0.86    0.45 
   5 -11  -5    0.01    0.39 
   4 -11  -5    0.02    0.34 
   3 -11  -5    1.54    0.38 
   2 -11  -5   -0.05    0.27 
   1 -11  -5    0.15    0.26 
   0 -11  -5    6.43    0.52 
  -1 -11  -5    0.78    0.25 
   1  11   5    0.78    0.31 
  -2 -11  -5    3.74    0.36 
   2  11   5    3.57    0.45 
  -3 -11  -5    2.32    0.29 
   3  11   5    2.34    0.40 
  -4 -11  -5   -0.03    0.17 
   4  11   5    0.29    0.28 
  -5 -11  -5    0.11    0.18 
   5  11   5    0.02    0.26 
  -6 -11  -5    6.90    0.46 
   6  11   5    7.56    0.66 
  -7 -11  -5    6.43    0.42 
   7  11   5    5.12    0.58 
   8  11   5    5.55    0.59 
   8  11   5    6.27    0.46 
   9  11   5    1.79    0.27 
   9  11   5    0.58    0.34 
  10  11   5    0.05    0.32 
  10  11   5   -0.09    0.20 
  11  11   5    0.60    0.36 
  11  11   5    0.08    0.21 
  12  11   5    2.54    0.34 
  12  11   5    3.80    0.56 
  13  11   5    2.24    0.50 
  14  11   5    1.99    0.52 
  15  11   5    0.72    0.46 
   6 -12  -5    0.21    0.43 
   5 -12  -5    0.11    0.39 
   4 -12  -5   -0.07    0.37 
   3 -12  -5    1.65    0.41 
   2 -12  -5    0.68    0.33 
   1 -12  -5   -0.30    0.24 
   0 -12  -5   -0.25    0.24 
  -1 -12  -5    2.22    0.33 
  -2 -12  -5    2.19    0.31 
   2  12   5    2.08    0.42 
  -3 -12  -5    2.68    0.33 
   3  12   5    2.46    0.43 
  -4 -12  -5    1.68    0.27 
   4  12   5    1.66    0.37 
  -5 -12  -5    8.90    0.54 
   5  12   5    8.24    0.73 
  -6 -12  -5    7.82    0.50 
   6  12   5    6.85    0.65 
  -7 -12  -5    4.84    0.39 
   7  12   5    4.77    0.56 
  -8 -12  -5    1.98    0.27 
   8  12   5    1.47    0.40 
   9  12   5    0.45    0.22 
   9  12   5   -0.09    0.31 
  10  12   5    1.25    0.43 
  10  12   5    1.01    0.26 
  11  12   5    0.30    0.37 
  11  12   5    0.16    0.23 
  12  12   5    0.06    0.38 
  13  12   5    2.15    0.52 
  14  12   5    2.02    0.53 
  15  12   5    0.84    0.49 
   5 -13  -5   -0.07    0.40 
   4 -13  -5    0.20    0.37 
   3 -13  -5    0.10    0.36 
   2 -13  -5    0.53    0.34 
   1 -13  -5    0.62    0.31 
   0 -13  -5    1.01    0.32 
  -1 -13  -5    2.64    0.39 
  -2 -13  -5    0.73    0.29 
   2  13   5    0.95    0.35 
  -3 -13  -5    0.03    0.23 
   3  13   5    0.40    0.34 
  -4 -13  -5    0.14    0.23 
   4  13   5    0.43    0.34 
  -5 -13  -5    0.40    0.23 
   5  13   5    0.35    0.35 
  -6 -13  -5    7.56    0.50 
   6  13   5    6.92    0.68 
  -7 -13  -5    0.16    0.20 
   7  13   5    0.38    0.32 
  -8 -13  -5   -0.07    0.22 
   8  13   5   -0.17    0.32 
  -9 -13  -5    2.55    0.32 
   9  13   5    3.51    0.55 
  10  13   5    2.08    0.49 
  10  13   5    2.26    0.34 
  11  13   5   -0.24    0.34 
  12  13   5   -0.22    0.41 
  13  13   5    1.51    0.51 
  14  13   5   -0.34    0.38 
  15  13   5    0.04    0.45 
   4 -14  -5    0.25    0.43 
   3 -14  -5   -0.36    0.35 
   2 -14  -5    0.69    0.39 
   1 -14  -5    0.29    0.32 
   0 -14  -5    0.50    0.33 
  -1 -14  -5   -0.24    0.28 
  -2 -14  -5    5.79    0.53 
   2  14   5    6.47    0.67 
  -3 -14  -5    0.38    0.26 
   3  14   5    0.92    0.41 
  -4 -14  -5    0.89    0.28 
   4  14   5    0.92    0.40 
  -5 -14  -5    0.50    0.26 
   5  14   5    0.53    0.39 
  -6 -14  -5    0.30    0.24 
   6  14   5    0.75    0.40 
  -7 -14  -5    0.26    0.23 
   7  14   5    0.03    0.36 
  -8 -14  -5    2.13    0.31 
   8  14   5    1.79    0.47 
  -9 -14  -5    0.17    0.24 
   9  14   5    0.01    0.35 
  10  14   5    0.46    0.40 
  11  14   5    5.52    0.72 
  12  14   5    2.88    0.60 
  13  14   5    1.73    0.55 
  14  14   5    0.56    0.48 
   3 -15  -5   -0.42    0.39 
   2 -15  -5    0.18    0.37 
   1 -15  -5    0.27    0.35 
   0 -15  -5   -0.25    0.30 
  -1 -15  -5    0.41    0.31 
  -2 -15  -5    1.79    0.36 
  -3 -15  -5    1.36    0.35 
   3  15   5    0.82    0.44 
  -4 -15  -5    3.16    0.41 
   4  15   5    3.25    0.55 
  -5 -15  -5    0.83    0.29 
   5  15   5    0.97    0.45 
  -6 -15  -5    0.76    0.28 
   6  15   5    1.38    0.44 
  -7 -15  -5    0.42    0.25 
   7  15   5    0.04    0.37 
  -8 -15  -5   -0.22    0.22 
   8  15   5    0.01    0.37 
   9  15   5    0.92    0.42 
  10  15   5   -0.19    0.42 
  11  15   5   -0.12    0.40 
  12  15   5    1.25    0.53 
  13  15   5   -0.11    0.42 
  14  15   5    0.92    0.53 
   1 -16  -5    0.25    0.38 
   0 -16  -5    1.71    0.42 
  -1 -16  -5    0.54    0.36 
  -2 -16  -5    0.46    0.32 
  -3 -16  -5    0.39    0.31 
   3  16   5    0.21    0.41 
  -4 -16  -5    0.58    0.30 
   4  16   5    0.56    0.43 
  -5 -16  -5    1.10    0.32 
   5  16   5    1.04    0.46 
  -6 -16  -5    1.10    0.33 
   6  16   5    1.18    0.50 
  -7 -16  -5   -0.17    0.26 
   7  16   5   -0.70    0.39 
   8  16   5    1.00    0.48 
   9  16   5    1.51    0.54 
  10  16   5    1.23    0.50 
  11  16   5    0.77    0.46 
  12  16   5   -0.89    0.39 
  13  16   5    0.46    0.49 
  -1 -17  -5    0.33    0.34 
  -2 -17  -5    0.01    0.33 
  -3 -17  -5   -0.23    0.30 
   3  17   5    0.12    0.46 
  -4 -17  -5   -0.07    0.31 
   4  17   5    0.10    0.46 
  -5 -17  -5    0.19    0.30 
   5  17   5    0.53    0.49 
  -6 -17  -5    0.30    0.31 
   6  17   5    0.15    0.45 
   7  17   5    0.19    0.47 
   8  17   5   -0.03    0.46 
   9  17   5    1.37    0.56 
  10  17   5    0.51    0.48 
  11  17   5    0.88    0.53 
  12  17   5    0.31    0.45 
  -3 -18  -5   -0.20    0.32 
  -4 -18  -5    0.34    0.34 
   4  18   5   -0.10    0.48 
   5  18   5    0.44    0.52 
   6  18   5    0.84    0.54 
   7  18   5   -0.35    0.44 
   8  18   5    0.46    0.49 
   9  18   5    0.68    0.51 
  10  18   5    0.58    0.52 
   8  18  -6   -0.55    0.44 
   7  18  -6   -0.20    0.45 
   4  18  -6    0.33    0.37 
   3  18  -6    0.65    0.42 
  10  17  -6    0.97    0.49 
   9  17  -6    1.58    0.51 
   8  17  -6   -0.06    0.41 
   7  17  -6    0.34    0.42 
   6  17  -6    0.48    0.43 
   6  17  -6    0.35    0.35 
   5  17  -6   -0.15    0.32 
   4  17  -6    0.15    0.36 
   3  17  -6    0.30    0.39 
   2  17  -6    0.41    0.40 
   1  17  -6    0.04    0.37 
   0  17  -6    1.60    0.46 
  11  16  -6    0.48    0.45 
  10  16  -6    0.30    0.44 
   9  16  -6   -0.56    0.37 
   8  16  -6   -0.11    0.28 
   8  16  -6    0.16    0.41 
   7  16  -6    1.20    0.43 
   7  16  -6    0.73    0.32 
   6  16  -6    0.28    0.37 
   6  16  -6    0.53    0.33 
   5  16  -6    0.08    0.31 
   5  16  -6    0.16    0.38 
   4  16  -6    0.98    0.37 
   3  16  -6    0.31    0.35 
   2  16  -6    0.78    0.40 
   1  16  -6    0.76    0.39 
   0  16  -6    0.08    0.36 
  -1  16  -6    1.43    0.45 
  -2  16  -6   -0.16    0.40 
  12  15  -6   -0.21    0.42 
  11  15  -6    0.45    0.44 
  10  15  -6    0.26    0.41 
   9  15  -6    0.40    0.39 
   9  15  -6   -0.27    0.26 
   8  15  -6    0.42    0.30 
   8  15  -6    0.16    0.37 
   7  15  -6   -0.26    0.32 
   7  15  -6   -0.19    0.28 
   6  15  -6    2.08    0.36 
   6  15  -6    1.74    0.43 
   5  15  -6    0.40    0.35 
   5  15  -6    0.03    0.29 
   4  15  -6    0.97    0.34 
   4  15  -6    1.08    0.39 
   3  15  -6    2.49    0.43 
   2  15  -6    0.98    0.38 
   1  15  -6    0.00    0.36 
   0  15  -6   -0.07    0.35 
  -1  15  -6    0.49    0.41 
  -2  15  -6    0.11    0.40 
  -3  15  -6   -0.26    0.39 
  13  14  -6    0.50    0.49 
  12  14  -6    3.04    0.59 
  11  14  -6    0.00    0.39 
  10  14  -6    0.31    0.36 
  10  14  -6    0.25    0.28 
   9  14  -6    0.46    0.35 
   9  14  -6    0.32    0.28 
   8  14  -6    0.38    0.35 
   8  14  -6    0.26    0.27 
   7  14  -6    0.00    0.32 
   7  14  -6    0.10    0.26 
   6  14  -6    4.78    0.54 
   6  14  -6    5.46    0.48 
   5  14  -6    0.32    0.28 
   5  14  -6    0.26    0.31 
   4  14  -6    0.37    0.30 
   4  14  -6    0.60    0.33 
   3  14  -6    0.07    0.30 
   3  14  -6   -0.04    0.29 
   2  14  -6    0.33    0.32 
   1  14  -6    0.04    0.29 
   0  14  -6    0.38    0.36 
  -1  14  -6   -0.36    0.35 
  -2  14  -6    3.10    0.49 
   2 -14   6    1.81    0.43 
  -3  14  -6    0.83    0.41 
   3 -14   6    0.72    0.37 
  -4  14  -6    0.63    0.41 
   4 -14   6   -0.25    0.36 
  13  13  -6    0.10    0.46 
  12  13  -6    0.74    0.46 
  11  13  -6    1.29    0.43 
  10  13  -6    1.72    0.45 
   9  13  -6    0.22    0.34 
   9  13  -6    0.06    0.25 
   8  13  -6    2.02    0.40 
   8  13  -6    1.59    0.32 
   7  13  -6    1.56    0.38 
   7  13  -6    1.91    0.32 
   6  13  -6    3.04    0.37 
   6  13  -6    3.24    0.44 
   5  13  -6    0.74    0.31 
   5  13  -6    0.49    0.27 
   4  13  -6    0.96    0.28 
   4  13  -6    1.35    0.35 
   3  13  -6    0.07    0.26 
   3  13  -6    0.40    0.29 
   2  13  -6    0.78    0.32 
   1  13  -6    0.66    0.31 
   0  13  -6    1.94    0.39 
  -1  13  -6    0.41    0.35 
   1 -13   6    0.16    0.29 
  -2  13  -6    1.12    0.39 
   2 -13   6    1.04    0.37 
  -3  13  -6    1.50    0.42 
   3 -13   6    1.45    0.40 
  -4  13  -6    0.98    0.44 
   4 -13   6    1.43    0.45 
  -5  13  -6   -0.15    0.40 
   5 -13   6   -0.61    0.34 
   6 -13   6    0.73    0.42 
  14  12  -6    6.03    0.73 
  13  12  -6   -0.27    0.39 
  12  12  -6    0.12    0.40 
  11  12  -6    0.00    0.36 
  10  12  -6   -0.09    0.32 
   9  12  -6   -0.07    0.31 
   8  12  -6    4.59    0.51 
   8  12  -6    3.69    0.39 
   7  12  -6   -0.11    0.23 
   7  12  -6   -0.02    0.27 
   6  12  -6    1.75    0.31 
   6  12  -6    1.53    0.35 
   5  12  -6   -0.19    0.23 
   5  12  -6   -0.17    0.24 
   4  12  -6    3.35    0.35 
   4  12  -6    3.13    0.39 
   3  12  -6   -0.05    0.24 
   3  12  -6    0.35    0.26 
   2  12  -6    1.03    0.27 
   2  12  -6    0.88    0.30 
   1  12  -6    0.11    0.25 
   0  12  -6    9.52    0.66 
   0 -12   6    7.68    0.62 
  -1  12  -6    2.12    0.41 
   1 -12   6    1.46    0.35 
  -2  12  -6    0.67    0.36 
   2 -12   6    0.45    0.31 
  -3  12  -6   -0.10    0.34 
   3 -12   6    0.50    0.33 
  -4  12  -6    0.24    0.39 
   4 -12   6    0.37    0.38 
  -5  12  -6    0.40    0.38 
   5 -12   6    0.22    0.34 
   6 -12   6    0.40    0.39 
   7 -12   6    0.29    0.40 
  14  11  -6    0.27    0.44 
  13  11  -6    0.30    0.41 
  12  11  -6    0.24    0.38 
  11  11  -6    1.84    0.47 
  10  11  -6    4.23    0.54 
   9  11  -6    0.58    0.31 
   8  11  -6    1.62    0.36 
   7  11  -6   -0.16    0.25 
   6  11  -6    0.06    0.24 
   6  11  -6   -0.07    0.22 
   5  11  -6    0.67    0.26 
   5  11  -6    0.33    0.24 
   4  11  -6    0.46    0.25 
   4  11  -6    0.14    0.23 
   3  11  -6    4.76    0.42 
   3  11  -6    5.35    0.45 
   2  11  -6    2.30    0.34 
   2  11  -6    2.30    0.30 
   1  11  -6    2.81    0.38 
   1  11  -6    3.72    0.37 
  -1 -11   6    3.26    0.35 
   0  11  -6    5.09    0.48 
   0 -11   6    5.92    0.48 
  -1  11  -6    5.38    0.51 
   1 -11   6    4.35    0.47 
  -2  11  -6    0.70    0.33 
   2 -11   6    0.47    0.28 
  -3  11  -6    0.34    0.34 
   3 -11   6    0.44    0.31 
  -4  11  -6    0.14    0.33 
   4 -11   6    0.12    0.35 
  -5  11  -6   -0.28    0.33 
   5 -11   6    0.30    0.34 
   6 -11   6    0.37    0.37 
   7 -11   6   -0.72    0.32 
   8 -11   6   -0.07    0.37 
  14  10  -6    0.57    0.44 
  13  10  -6   -0.06    0.36 
  12  10  -6    0.99    0.41 
  11  10  -6    1.60    0.44 
  10  10  -6   -0.29    0.30 
   9  10  -6    1.71    0.36 
   8  10  -6   12.43    0.84 
   7  10  -6    0.88    0.28 
   6  10  -6    4.90    0.46 
   5  10  -6    2.13    0.29 
   5  10  -6    1.88    0.30 
   4  10  -6    0.86    0.23 
   4  10  -6    0.79    0.24 
   3  10  -6    7.78    0.51 
   3  10  -6    6.59    0.51 
   2  10  -6    3.96    0.34 
   2  10  -6    2.73    0.34 
  -2 -10   6    3.31    0.30 
   1  10  -6    0.36    0.23 
   1  10  -6   -0.29    0.15 
  -1 -10   6    0.21    0.17 
   0  10  -6    0.06    0.22 
   0  10  -6    0.00    0.16 
   0 -10   6   -0.17    0.16 
  -1  10  -6    0.00    0.26 
   1 -10   6    0.12    0.21 
  -2  10  -6   -0.07    0.28 
   2 -10   6   -0.07    0.23 
  -3  10  -6    0.29    0.30 
   3 -10   6    0.19    0.26 
  -4  10  -6    3.04    0.45 
   4 -10   6    2.20    0.43 
  -5  10  -6    0.76    0.39 
   5 -10   6    1.62    0.41 
  -6  10  -6    0.54    0.39 
   6 -10   6    0.92    0.40 
   7 -10   6    0.32    0.37 
   8 -10   6    0.01    0.34 
  14   9  -6    0.90    0.46 
  13   9  -6   -0.03    0.38 
  12   9  -6    0.25    0.35 
  11   9  -6    0.51    0.34 
  10   9  -6    0.39    0.31 
   9   9  -6    7.25    0.62 
   8   9  -6   -0.14    0.25 
   7   9  -6    2.20    0.35 
   6   9  -6    3.90    0.40 
   5   9  -6    2.16    0.30 
   4   9  -6    4.01    0.35 
   4   9  -6    2.90    0.31 
   3   9  -6    6.46    0.46 
   3   9  -6    6.86    0.48 
   2   9  -6   17.02    0.93 
   2   9  -6   15.85    0.88 
  -2  -9   6   16.29    0.81 
   1   9  -6    5.97    0.44 
   1   9  -6    6.93    0.48 
  -1  -9   6    5.87    0.43 
   0   9  -6    0.16    0.16 
   0   9  -6    0.17    0.21 
   0  -9   6   -0.05    0.13 
  -1   9  -6    0.08    0.24 
   1  -9   6    0.00    0.16 
  -2   9  -6    4.77    0.45 
   2  -9   6    3.41    0.39 
  -3   9  -6    2.69    0.39 
   3  -9   6    2.16    0.38 
  -4   9  -6    1.20    0.35 
   4  -9   6    1.10    0.33 
  -5   9  -6    1.47    0.39 
   5  -9   6    1.12    0.36 
  -6   9  -6    1.42    0.40 
   6  -9   6    1.45    0.40 
   7  -9   6    3.34    0.52 
   8  -9   6   -0.19    0.36 
   9  -9   6   -0.60    0.34 
  14   8  -6    3.24    0.58 
  13   8  -6    1.87    0.51 
  12   8  -6    5.18    0.60 
  11   8  -6   11.84    0.88 
  10   8  -6    0.46    0.31 
   9   8  -6    1.76    0.37 
   8   8  -6    1.22    0.32 
   7   8  -6    7.90    0.61 
   6   8  -6    1.17    0.25 
   5   8  -6   18.68    1.04 
   4   8  -6    0.09    0.15 
   4   8  -6    0.09    0.14 
   3   8  -6    1.42    0.23 
   3   8  -6    1.51    0.22 
  -3  -8   6    1.52    0.13 
   2   8  -6    0.02    0.14 
   2   8  -6    0.05    0.17 
  -2  -8   6    0.12    0.09 
   1   8  -6    0.57    0.16 
   1   8  -6    0.43    0.18 
  -1  -8   6    0.62    0.15 
   0   8  -6    1.39    0.19 
   0   8  -6    1.74    0.26 
  -1   8  -6    0.86    0.16 
  -1   8  -6    0.69    0.24 
   1  -8   6    1.19    0.23 
  -2   8  -6    1.18    0.27 
   2  -8   6    1.27    0.25 
  -3   8  -6   10.30    0.68 
   3  -8   6   10.56    0.71 
  -4   8  -6    1.49    0.33 
   4  -8   6    1.60    0.34 
  -5   8  -6    2.39    0.39 
   5  -8   6    1.77    0.38 
  -6   8  -6    0.51    0.35 
   6  -8   6    0.46    0.31 
   7  -8   6    1.27    0.38 
   8  -8   6    0.85    0.39 
   9  -8   6    0.02    0.36 
  10  -8   6    0.08    0.37 
  14   7  -6    1.40    0.46 
  13   7  -6    0.03    0.40 
  12   7  -6   -0.09    0.35 
  11   7  -6    0.50    0.33 
  10   7  -6    1.36    0.37 
   9   7  -6    2.84    0.40 
   8   7  -6    0.70    0.28 
   7   7  -6    1.28    0.28 
   6   7  -6    1.81    0.29 
   5   7  -6    2.90    0.31 
   4   7  -6    5.52    0.42 
   3   7  -6   -0.17    0.13 
   3   7  -6    0.05    0.14 
  -3  -7   6   -0.06    0.05 
   2   7  -6    0.76    0.19 
   2   7  -6    0.52    0.15 
  -2  -7   6    0.74    0.10 
   1   7  -6    2.33    0.22 
   1   7  -6    2.64    0.27 
  -1  -7   6    1.91    0.18 
   0   7  -6   15.51    0.82 
   0   7  -6   15.51    0.83 
  -1   7  -6    8.26    0.53 
  -1   7  -6    8.37    0.49 
   1  -7   6    8.59    0.51 
  -2   7  -6    0.29    0.21 
  -2   7  -6    0.49    0.11 
   2  -7   6    0.32    0.17 
  -3   7  -6    1.10    0.27 
   3  -7   6    0.91    0.23 
  -4   7  -6   16.25    0.90 
   4  -7   6   14.93    0.90 
  -5   7  -6    7.55    0.58 
   5  -7   6    6.78    0.57 
  -6   7  -6    1.39    0.35 
   6  -7   6    1.79    0.36 
   7  -7   6   -0.40    0.24 
   8  -7   6    0.10    0.33 
   9  -7   6    0.21    0.35 
  10  -7   6   -0.22    0.34 
  11  -7   6   -0.26    0.38 
  14   6  -6    7.60    0.77 
  13   6  -6    4.38    0.60 
  12   6  -6    0.16    0.34 
  11   6  -6    0.60    0.33 
  10   6  -6   -0.07    0.28 
   9   6  -6    0.84    0.31 
   8   6  -6    6.17    0.52 
   7   6  -6    3.18    0.37 
   6   6  -6    0.78    0.23 
   5   6  -6    6.89    0.48 
   4   6  -6   -0.17    0.14 
   3   6  -6    1.40    0.20 
   2   6  -6    0.11    0.12 
   2   6  -6    0.06    0.15 
  -2  -6   6    0.07    0.06 
   1   6  -6    0.28    0.11 
   1   6  -6    0.27    0.15 
  -1  -6   6    0.39    0.10 
   0   6  -6    3.84    0.32 
   0   6  -6    4.00    0.28 
  -1   6  -6    6.33    0.39 
  -1   6  -6    6.43    0.44 
   1  -6   6    7.27    0.42 
  -2   6  -6    4.31    0.34 
  -2   6  -6    2.76    0.21 
   2  -6   6    3.08    0.29 
  -3   6  -6    9.34    0.58 
   3  -6   6    9.47    0.58 
  -4   6  -6    0.00    0.21 
   4  -6   6    0.10    0.19 
  -5   6  -6    0.63    0.27 
   5  -6   6    0.22    0.21 
  -6   6  -6    1.22    0.33 
   6  -6   6    0.95    0.30 
  -7   6  -6    6.19    0.53 
   7  -6   6    4.64    0.51 
   8  -6   6    4.04    0.50 
   9  -6   6    1.50    0.42 
  10  -6   6    1.17    0.42 
  11  -6   6   -0.23    0.35 
  14   5  -6   -0.03    0.37 
  13   5  -6    0.21    0.40 
  12   5  -6   -0.12    0.33 
  11   5  -6    0.53    0.33 
  10   5  -6    2.22    0.42 
   9   5  -6    0.06    0.28 
   8   5  -6    0.19    0.24 
   7   5  -6    1.00    0.27 
   6   5  -6    0.50    0.20 
   5   5  -6    0.66    0.20 
   4   5  -6    1.88    0.23 
   3   5  -6   19.88    1.05 
   2   5  -6   21.97    1.15 
  -2  -5   6   22.69    1.00 
   1   5  -6    1.00    0.14 
   1   5  -6    1.06    0.17 
  -1  -5   6    0.96    0.11 
   0   5  -6    1.07    0.13 
   0   5  -6    1.24    0.19 
   0  -5   6    0.77    0.12 
  -1   5  -6   28.14    1.40 
  -1   5  -6   30.28    1.45 
   1  -5   6   29.64    1.37 
  -2   5  -6   24.37    1.21 
  -2   5  -6   25.04    1.22 
   2  -5   6   25.15    1.19 
  -3   5  -6    0.76    0.20 
   3  -5   6    0.20    0.15 
  -4   5  -6    0.72    0.24 
   4  -5   6    0.54    0.18 
  -5   5  -6    0.64    0.26 
   5  -5   6    0.61    0.22 
  -6   5  -6    0.89    0.28 
   6  -5   6    0.10    0.20 
  -7   5  -6    0.98    0.32 
   7  -5   6    1.36    0.32 
   8  -5   6    1.74    0.38 
   9  -5   6    1.57    0.38 
  10  -5   6    5.52    0.59 
  11  -5   6    0.08    0.37 
  12  -5   6    0.07    0.38 
  14   4  -6    0.10    0.42 
  13   4  -6    0.52    0.41 
  12   4  -6    2.43    0.48 
  11   4  -6    7.71    0.69 
  10   4  -6    2.64    0.42 
   9   4  -6    3.10    0.41 
   8   4  -6   15.15    0.95 
   7   4  -6    5.88    0.35 
   7   4  -6    5.69    0.49 
   6   4  -6    1.03    0.23 
   6   4  -6    1.33    0.15 
   5   4  -6    2.17    0.15 
   5   4  -6    1.70    0.25 
   4   4  -6    3.00    0.31 
   4   4  -6    4.03    0.20 
   3   4  -6    2.54    0.14 
   3   4  -6    2.55    0.24 
   2   4  -6   12.63    0.68 
  -2  -4   6   12.41    0.58 
   1   4  -6    1.17    0.14 
   1   4  -6    1.09    0.17 
  -1  -4   6    1.27    0.12 
   0   4  -6   12.78    0.65 
   0   4  -6   11.97    0.64 
  -1   4  -6   11.61    0.59 
  -1   4  -6   11.11    0.60 
   1  -4   6   11.37    0.58 
  -2   4  -6    0.55    0.16 
   2  -4   6    0.49    0.13 
  -3   4  -6    1.26    0.21 
   3  -4   6    1.36    0.19 
  -4   4  -6    0.80    0.20 
   4  -4   6    0.47    0.16 
  -5   4  -6    4.09    0.37 
   5  -4   6    3.37    0.34 
  -6   4  -6   11.40    0.70 
   6  -4   6   11.31    0.70 
  -7   4  -6    4.17    0.43 
   7  -4   6    2.97    0.38 
   8  -4   6    0.23    0.25 
   9  -4   6   -0.19    0.26 
  10  -4   6    0.27    0.33 
  11  -4   6    0.91    0.38 
  12  -4   6    1.10    0.44 
  14   3  -6    0.39    0.43 
  13   3  -6    0.40    0.40 
  12   3  -6    1.20    0.42 
  11   3  -6    1.86    0.43 
  10   3  -6    0.54    0.31 
   9   3  -6    3.43    0.43 
   8   3  -6    0.85    0.19 
   8   3  -6    0.48    0.27 
   7   3  -6    1.37    0.19 
   7   3  -6    0.99    0.26 
   6   3  -6    0.13    0.13 
   6   3  -6    0.17    0.18 
   5   3  -6    0.48    0.18 
   5   3  -6    0.32    0.10 
   4   3  -6    1.46    0.21 
   4   3  -6    1.32    0.12 
   3   3  -6    0.13    0.12 
   3   3  -6    0.37    0.07 
   2   3  -6    0.06    0.10 
  -2  -3   6    0.20    0.06 
   1   3  -6    0.92    0.13 
  -1  -3   6    1.25    0.12 
   0   3  -6    0.79    0.11 
   0   3  -6    0.86    0.15 
  -1   3  -6    0.08    0.06 
  -1   3  -6    0.10    0.11 
   1  -3   6    0.02    0.08 
  -2   3  -6    0.14    0.05 
  -2   3  -6    0.19    0.13 
   2  -3   6    0.16    0.10 
  -3   3  -6    4.16    0.32 
   3  -3   6    4.33    0.30 
  -4   3  -6    2.01    0.24 
   4  -3   6    1.38    0.21 
  -5   3  -6    3.04    0.31 
   5  -3   6    3.11    0.30 
  -6   3  -6    3.09    0.31 
   6  -3   6    1.35    0.26 
  -7   3  -6    5.24    0.44 
   7  -3   6    4.67    0.43 
   8  -3   6   15.97    0.93 
   9  -3   6    2.25    0.37 
  10  -3   6   -0.04    0.29 
  11  -3   6    1.57    0.41 
  12  -3   6    0.66    0.37 
  13  -3   6   -0.46    0.37 
  14   2  -6    4.09    0.61 
  13   2  -6    1.97    0.48 
  12   2  -6    5.27    0.61 
  11   2  -6    6.83    0.65 
  10   2  -6    5.40    0.56 
   9   2  -6    3.52    0.34 
   9   2  -6    2.75    0.42 
   8   2  -6    1.77    0.36 
   8   2  -6    2.82    0.29 
   7   2  -6    3.37    0.29 
   7   2  -6    2.89    0.35 
   6   2  -6    8.64    0.62 
   6   2  -6    9.05    0.49 
   5   2  -6    3.51    0.23 
   5   2  -6    2.74    0.30 
   4   2  -6    1.44    0.14 
   4   2  -6    1.51    0.21 
   3   2  -6    0.23    0.13 
   3   2  -6    0.51    0.09 
   2   2  -6    1.06    0.10 
   2   2  -6    0.88    0.15 
   1   2  -6    0.69    0.12 
  -1  -2   6    0.57    0.09 
  -1   2  -6    4.05    0.24 
  -1   2  -6    4.27    0.27 
   1  -2   6    4.00    0.26 
  -2   2  -6    1.00    0.08 
  -2   2  -6    0.95    0.14 
   2  -2   6    0.84    0.13 
  -3   2  -6    4.64    0.31 
   3  -2   6    4.59    0.31 
  -4   2  -6    4.39    0.33 
   4  -2   6    4.53    0.33 
  -5   2  -6    2.75    0.27 
   5  -2   6    2.47    0.27 
  -6   2  -6    9.72    0.57 
   6  -2   6    8.76    0.56 
  -7   2  -6    2.01    0.27 
   7  -2   6    1.64    0.28 
   8  -2   6    1.55    0.30 
   9  -2   6    7.29    0.58 
  10  -2   6    6.17    0.58 
  11  -2   6    2.84    0.45 
  12  -2   6    2.76    0.47 
  13  -2   6    0.25    0.38 
  13   1  -6    0.27    0.40 
  12   1  -6    1.69    0.44 
  11   1  -6    1.49    0.41 
  10   1  -6    0.70    0.34 
  10   1  -6    1.02    0.30 
   9   1  -6    0.39    0.22 
   9   1  -6    0.48    0.30 
   8   1  -6    3.44    0.42 
   8   1  -6    3.78    0.35 
   7   1  -6    4.98    0.37 
   7   1  -6    4.52    0.44 
   6   1  -6    1.75    0.28 
   6   1  -6    2.22    0.23 
   5   1  -6    1.51    0.18 
   5   1  -6    1.56    0.24 
   4   1  -6   -0.06    0.14 
   4   1  -6    0.31    0.11 
   3   1  -6   -0.09    0.10 
   3   1  -6    0.00    0.08 
   2   1  -6    0.82    0.14 
   2   1  -6    0.88    0.10 
  -1  -1   6   -0.01    0.02 
   0  -1   6    2.13    0.17 
  -1   1  -6    3.95    0.25 
   1  -1   6    3.57    0.23 
  -2   1  -6    0.21    0.10 
   2  -1   6    0.08    0.08 
  -3   1  -6    8.75    0.48 
   3  -1   6    8.73    0.48 
  -4   1  -6    7.05    0.42 
   4  -1   6    6.54    0.41 
  -5   1  -6   10.25    0.57 
   5  -1   6   10.12    0.58 
  -6   1  -6    0.44    0.18 
   6  -1   6    0.25    0.15 
   6  -1   6    0.51    0.09 
   7  -1   6    5.28    0.43 
   8  -1   6    2.68    0.35 
   9  -1   6   -0.11    0.22 
  10  -1   6   -0.23    0.24 
  11  -1   6    0.05    0.30 
  12  -1   6    0.89    0.36 
  13  -1   6    1.22    0.42 
  14  -1   6    0.58    0.42 
  13   0  -6    2.72    0.52 
  12   0  -6    0.58    0.39 
  11   0  -6    1.13    0.39 
  11   0  -6    0.83    0.33 
  10   0  -6    3.12    0.46 
  10   0  -6    3.12    0.42 
   9   0  -6    1.99    0.36 
   9   0  -6    1.99    0.33 
   8   0  -6    1.65    0.29 
   8   0  -6    2.19    0.36 
   7   0  -6    2.97    0.31 
   7   0  -6    2.80    0.36 
   6   0  -6    0.77    0.22 
   6   0  -6    0.87    0.19 
   5   0  -6   19.40    1.07 
   5   0  -6   18.96    0.93 
   4   0  -6    3.20    0.25 
   4   0  -6    3.89    0.32 
   3   0  -6    6.74    0.37 
   2   0  -6    3.22    0.21 
  -1   0   6    4.32    0.26 
   0   0   6    3.88    0.25 
   1   0   6    1.86    0.17 
  -2   0  -6    7.65    0.39 
   2   0   6    7.03    0.40 
  -3   0  -6    0.12    0.09 
   3   0   6    0.25    0.10 
  -4   0  -6    5.89    0.36 
   4   0   6    6.49    0.36 
   4   0   6    6.70    0.39 
  -5   0  -6   15.34    0.78 
   5   0   6   15.96    0.80 
   5   0   6   15.34    0.79 
  -6   0  -6   13.71    0.71 
   6   0   6   13.12    0.72 
   6   0   6   13.86    0.73 
   7   0   6   11.17    0.64 
   7   0   6   12.08    0.67 
   8   0   6    0.75    0.24 
   9   0   6    1.96    0.33 
  10   0   6    2.64    0.37 
  11   0   6    0.11    0.27 
  12   0   6    0.61    0.34 
  13   0   6    1.34    0.40 
  14   0   6    0.77    0.41 
  13  -1  -6    0.96    0.44 
  12  -1  -6    1.59    0.44 
  11  -1  -6    0.36    0.36 
  11  -1  -6    0.25    0.34 
  10  -1  -6    1.94    0.40 
  10  -1  -6    2.03    0.38 
   9  -1  -6    1.00    0.33 
   9  -1  -6    0.80    0.32 
   8  -1  -6    4.45    0.46 
   8  -1  -6    3.51    0.39 
   7  -1  -6    2.21    0.30 
   7  -1  -6    1.95    0.33 
   6  -1  -6    0.69    0.21 
   6  -1  -6    0.89    0.25 
   5  -1  -6    1.12    0.19 
   5  -1  -6    0.72    0.21 
   4  -1  -6    5.18    0.34 
   3  -1  -6    8.56    0.46 
   2  -1  -6   12.70    0.62 
   1  -1  -6    5.28    0.30 
   0   1   6    2.60    0.20 
   1   1   6   -0.03    0.07 
  -2  -1  -6    2.41    0.17 
   2   1   6    2.08    0.19 
  -3  -1  -6    0.32    0.09 
   3   1   6    0.20    0.08 
   3   1   6    0.09    0.09 
  -4  -1  -6    0.70    0.11 
   4   1   6    0.50    0.10 
   4   1   6    0.35    0.12 
  -5  -1  -6    0.57    0.13 
   5   1   6    0.57    0.12 
   5   1   6    0.64    0.15 
  -6  -1  -6    0.12    0.12 
   6   1   6   -0.10    0.13 
   6   1   6    0.03    0.10 
   7   1   6    0.15    0.12 
   7   1   6    0.27    0.16 
   8   1   6    0.10    0.14 
   8   1   6    0.40    0.20 
   9   1   6    0.67    0.25 
  10   1   6    3.16    0.39 
  11   1   6    1.46    0.34 
  12   1   6    0.30    0.30 
  13   1   6    0.06    0.32 
  14   1   6    0.39    0.39 
  12  -2  -6    1.27    0.44 
  12  -2  -6    1.78    0.47 
  11  -2  -6    2.34    0.47 
  11  -2  -6    4.14    0.53 
  10  -2  -6    1.81    0.39 
  10  -2  -6    1.96    0.42 
   9  -2  -6    0.72    0.31 
   9  -2  -6    1.07    0.34 
   8  -2  -6    0.57    0.27 
   8  -2  -6    1.07    0.31 
   7  -2  -6   17.46    0.90 
   7  -2  -6   14.52    0.96 
   6  -2  -6    3.25    0.36 
   6  -2  -6    3.18    0.32 
   5  -2  -6    1.26    0.22 
   4  -2  -6    2.77    0.26 
   3  -2  -6    1.54    0.19 
   2  -2  -6    0.96    0.14 
   1  -2  -6    0.64    0.12 
   0   2   6    0.66    0.12 
   1   2   6   13.59    0.68 
   2   2   6    4.21    0.28 
  -3  -2  -6    1.30    0.12 
   3   2   6    1.14    0.15 
   3   2   6    1.23    0.15 
  -4  -2  -6    6.23    0.33 
   4   2   6    5.75    0.37 
  -5  -2  -6    3.40    0.24 
   5   2   6    3.85    0.29 
   5   2   6    3.54    0.28 
   6   2   6    1.24    0.20 
   6   2   6    0.86    0.17 
   7   2   6    1.92    0.24 
   7   2   6    1.74    0.22 
   8   2   6   16.69    0.86 
   8   2   6   14.90    0.89 
   9   2   6   10.57    0.64 
   9   2   6    9.46    0.64 
  10   2   6    0.39    0.24 
  11   2   6    2.88    0.40 
  12   2   6    6.59    0.60 
  13   2   6    9.53    0.75 
  14   2   6    5.09    0.60 
  15   2   6    2.14    0.49 
  12  -3  -6    0.59    0.43 
  12  -3  -6    0.39    0.41 
  11  -3  -6    0.86    0.42 
  11  -3  -6    0.13    0.35 
  10  -3  -6   -0.05    0.33 
  10  -3  -6    0.24    0.32 
   9  -3  -6    0.89    0.36 
   9  -3  -6    0.53    0.33 
   8  -3  -6    3.78    0.44 
   8  -3  -6    4.31    0.47 
   7  -3  -6    3.69    0.41 
   7  -3  -6    3.16    0.40 
   6  -3  -6    1.04    0.27 
   5  -3  -6   10.62    0.63 
   4  -3  -6   21.63    1.07 
   3  -3  -6    8.55    0.49 
   2  -3  -6    3.52    0.27 
   1  -3  -6    0.12    0.11 
   0  -3  -6    2.45    0.20 
   1   3   6    0.20    0.10 
   2   3   6    0.58    0.12 
   2   3   6    0.42    0.12 
  -3  -3  -6    0.48    0.08 
   3   3   6    0.25    0.11 
   3   3   6    0.31    0.12 
  -4  -3  -6    4.08    0.23 
   4   3   6    4.14    0.32 
   4   3   6    4.03    0.29 
  -5  -3  -6    5.06    0.27 
   5   3   6    5.00    0.37 
   5   3   6    4.44    0.32 
   6   3   6    1.87    0.22 
   7   3   6    0.29    0.15 
   7   3   6    0.00    0.08 
   8   3   6    7.43    0.51 
   8   3   6    8.22    0.55 
   9   3   6    0.12    0.20 
   9   3   6   -0.03    0.17 
  10   3   6    0.14    0.23 
  10   3   6    0.12    0.19 
  11   3   6    0.77    0.29 
  12   3   6    2.00    0.37 
  13   3   6    0.36    0.33 
  14   3   6    0.32    0.35 
  15   3   6    0.28    0.40 
  11  -4  -6    0.81    0.43 
  11  -4  -6    0.56    0.44 
  10  -4  -6    1.88    0.41 
  10  -4  -6    1.79    0.46 
   9  -4  -6    1.00    0.38 
   9  -4  -6    1.21    0.36 
   8  -4  -6    3.68    0.46 
   8  -4  -6    3.29    0.42 
   7  -4  -6    1.44    0.35 
   7  -4  -6    2.09    0.34 
   6  -4  -6   -0.40    0.22 
   5  -4  -6    0.30    0.21 
   4  -4  -6    1.72    0.26 
   3  -4  -6    5.73    0.40 
   2  -4  -6    6.97    0.44 
   1  -4  -6   16.76    0.82 
   0  -4  -6    4.08    0.28 
  -1  -4  -6    4.29    0.28 
   2   4   6    2.15    0.23 
   2   4   6    1.65    0.19 
  -3  -4  -6    5.66    0.28 
   3   4   6    5.45    0.35 
   3   4   6    6.01    0.41 
  -4  -4  -6    0.63    0.06 
   4   4   6    0.48    0.13 
   4   4   6    0.48    0.14 
   5   4   6    0.12    0.13 
   5   4   6    0.04    0.11 
   6   4   6   17.68    0.88 
   6   4   6   17.16    0.98 
   7   4   6   11.96    0.65 
   7   4   6   11.52    0.72 
   8   4   6    8.15    0.51 
   8   4   6    7.08    0.54 
   9   4   6    4.10    0.39 
   9   4   6    3.89    0.37 
  10   4   6    2.98    0.35 
  11   4   6    7.90    0.59 
  12   4   6    3.16    0.44 
  13   4   6    1.61    0.38 
  14   4   6    0.12    0.35 
  15   4   6    1.67    0.46 
  11  -5  -6    2.17    0.53 
  10  -5  -6    2.42    0.47 
  10  -5  -6    3.12    0.54 
   9  -5  -6   -0.12    0.30 
   9  -5  -6    0.24    0.35 
   8  -5  -6    2.83    0.42 
   8  -5  -6    2.67    0.46 
   7  -5  -6    5.25    0.54 
   6  -5  -6   -0.20    0.25 
   5  -5  -6    5.25    0.46 
   4  -5  -6    0.43    0.21 
   3  -5  -6    0.08    0.18 
   2  -5  -6    0.85    0.20 
   1  -5  -6   29.49    1.38 
   0  -5  -6   29.39    1.37 
  -1  -5  -6    0.19    0.12 
   2   5   6    0.19    0.15 
   2   5   6    0.43    0.13 
   3   5   6   25.78    1.22 
   3   5   6   25.57    1.36 
   4   5   6   15.48    0.79 
   4   5   6   16.04    0.91 
   5   5   6    0.02    0.14 
   5   5   6    0.25    0.13 
   6   5   6   -0.14    0.13 
   6   5   6   -0.03    0.11 
   7   5   6    1.35    0.21 
   7   5   6    0.74    0.22 
   8   5   6    6.33    0.52 
   8   5   6    7.51    0.47 
   9   5   6    0.16    0.19 
   9   5   6    0.17    0.18 
  10   5   6    0.61    0.24 
  10   5   6    0.89    0.26 
  11   5   6    0.60    0.29 
  11   5   6    0.23    0.24 
  12   5   6    0.68    0.30 
  13   5   6    0.02    0.30 
  14   5   6    1.09    0.38 
  15   5   6    0.26    0.38 
  10  -6  -6    3.33    0.53 
  10  -6  -6    4.12    0.62 
   9  -6  -6    1.39    0.39 
   9  -6  -6    1.05    0.43 
   8  -6  -6    0.29    0.37 
   8  -6  -6    0.45    0.33 
   7  -6  -6   -0.35    0.29 
   6  -6  -6    0.35    0.29 
   5  -6  -6    7.08    0.55 
   4  -6  -6   12.31    0.75 
   3  -6  -6    1.15    0.25 
   2  -6  -6   18.01    0.93 
   1  -6  -6   -0.03    0.15 
   0  -6  -6    7.16    0.44 
  -1  -6  -6    0.10    0.13 
  -2  -6  -6    0.11    0.12 
   2   6   6    0.06    0.14 
   3   6   6    1.01    0.21 
   3   6   6    0.93    0.17 
   4   6   6    2.98    0.26 
   4   6   6    2.68    0.31 
   5   6   6   -0.01    0.11 
   5   6   6   -0.08    0.14 
   6   6   6    0.20    0.17 
   6   6   6   -0.09    0.12 
   7   6   6    4.72    0.44 
   7   6   6    4.94    0.37 
   8   6   6    1.95    0.25 
   8   6   6    2.18    0.32 
   9   6   6    0.06    0.18 
   9   6   6    0.34    0.21 
  10   6   6   -0.02    0.20 
  10   6   6    0.17    0.24 
  11   6   6    0.08    0.22 
  11   6   6    0.04    0.27 
  12   6   6    2.46    0.37 
  12   6   6    2.95    0.47 
  13   6   6    7.74    0.62 
  14   6   6    4.72    0.53 
  15   6   6    3.32    0.52 
  10  -7  -6    0.44    0.46 
   9  -7  -6    0.19    0.40 
   9  -7  -6    0.24    0.35 
   8  -7  -6    0.40    0.39 
   8  -7  -6    0.97    0.35 
   7  -7  -6   -0.29    0.34 
   6  -7  -6    5.79    0.58 
   5  -7  -6    0.33    0.31 
   4  -7  -6    4.00    0.42 
   3  -7  -6    7.06    0.54 
   2  -7  -6    5.98    0.46 
   1  -7  -6   15.12    0.82 
   0  -7  -6    7.73    0.48 
  -1  -7  -6    8.22    0.48 
  -2  -7  -6    1.75    0.21 
   2   7   6    1.72    0.27 
  -3  -7  -6    0.12    0.12 
   3   7   6    0.03    0.15 
   4   7   6    3.06    0.35 
   4   7   6    2.89    0.27 
   5   7   6   15.54    0.94 
   5   7   6   15.11    0.79 
   6   7   6    5.40    0.49 
   6   7   6    6.09    0.39 
   7   7   6    1.08    0.19 
   7   7   6    1.10    0.27 
   8   7   6    0.68    0.24 
   8   7   6    0.24    0.16 
   9   7   6    2.89    0.32 
   9   7   6    2.87    0.40 
  10   7   6   11.53    0.71 
  10   7   6   13.30    0.87 
  11   7   6    5.44    0.57 
  11   7   6    6.02    0.48 
  12   7   6    0.54    0.29 
  12   7   6    0.96    0.37 
  13   7   6    0.64    0.38 
  13   7   6    0.70    0.30 
  14   7   6    0.14    0.30 
  15   7   6    0.90    0.39 
   9  -8  -6    0.05    0.47 
   8  -8  -6   -0.24    0.43 
   7  -8  -6    0.49    0.43 
   6  -8  -6    1.03    0.39 
   5  -8  -6   -0.15    0.30 
   4  -8  -6   12.37    0.79 
   3  -8  -6    0.24    0.26 
   2  -8  -6    2.17    0.32 
   1  -8  -6    0.75    0.24 
   0  -8  -6    2.14    0.29 
  -1  -8  -6    1.22    0.21 
  -2  -8  -6    1.57    0.22 
   2   8   6    1.57    0.29 
  -3  -8  -6    0.13    0.14 
   3   8   6    0.16    0.19 
  -4  -8  -6    1.71    0.21 
   4   8   6    1.85    0.24 
   4   8   6    2.34    0.32 
   5   8   6    0.27    0.15 
   5   8   6   -0.08    0.16 
   6   8   6    9.59    0.66 
   6   8   6    8.11    0.52 
   7   8   6    0.30    0.22 
   7   8   6    0.12    0.15 
   8   8   6    6.21    0.55 
   8   8   6    5.32    0.41 
   9   8   6    3.34    0.45 
   9   8   6    3.76    0.35 
  10   8   6   13.56    0.81 
  10   8   6   16.32    1.00 
  11   8   6    2.53    0.33 
  11   8   6    2.23    0.42 
  12   8   6    2.71    0.37 
  12   8   6    3.36    0.51 
  13   8   6    6.82    0.70 
  13   8   6    7.31    0.58 
  14   8   6    3.63    0.47 
  15   8   6   -0.07    0.32 
   8  -9  -6    2.87    0.61 
   7  -9  -6    1.38    0.46 
   6  -9  -6    1.35    0.45 
   5  -9  -6    0.04    0.33 
   4  -9  -6    3.39    0.45 
   3  -9  -6    1.02    0.30 
   2  -9  -6    2.04    0.35 
   1  -9  -6    2.60    0.35 
   0  -9  -6    0.09    0.21 
  -1  -9  -6    1.19    0.24 
  -2  -9  -6   16.30    0.84 
   2   9   6   15.80    1.00 
  -3  -9  -6   21.97    1.10 
   3   9   6   23.52    1.31 
  -4  -9  -6    5.81    0.38 
   4   9   6    5.16    0.52 
   5   9   6    0.54    0.19 
   5   9   6    0.34    0.25 
   6   9   6    4.22    0.36 
   6   9   6    3.79    0.45 
   7   9   6   10.36    0.65 
   7   9   6   12.44    0.82 
   8   9   6    0.01    0.16 
   8   9   6    0.10    0.24 
   9   9   6    5.07    0.41 
   9   9   6    5.25    0.56 
  10   9   6    4.29    0.39 
  10   9   6    3.51    0.50 
  11   9   6    0.82    0.25 
  11   9   6    0.63    0.35 
  12   9   6    1.83    0.44 
  12   9   6    1.37    0.30 
  13   9   6    2.10    0.36 
  13   9   6    1.69    0.47 
  14   9   6    0.45    0.42 
  14   9   6    0.22    0.30 
   7 -10  -6    1.75    0.54 
   6 -10  -6    0.49    0.44 
   5 -10  -6    0.20    0.39 
   4 -10  -6   -0.21    0.31 
   3 -10  -6   -0.30    0.25 
   2 -10  -6    1.38    0.31 
   1 -10  -6    0.98    0.29 
   0 -10  -6    0.37    0.22 
  -1 -10  -6    0.16    0.21 
  -2 -10  -6    0.26    0.19 
   2  10   6    0.42    0.27 
  -3 -10  -6    1.18    0.24 
   3  10   6    1.67    0.35 
  -4 -10  -6    1.24    0.23 
   4  10   6    0.92    0.31 
  -5 -10  -6    4.48    0.36 
   5  10   6    5.71    0.54 
   6  10   6    1.73    0.37 
   6  10   6    1.36    0.26 
   7  10   6    5.58    0.58 
   7  10   6    5.56    0.43 
   8  10   6    1.57    0.37 
   8  10   6    2.02    0.29 
   9  10   6    0.33    0.21 
   9  10   6    0.41    0.32 
  10  10   6    3.89    0.54 
  10  10   6    4.15    0.39 
  11  10   6    2.96    0.36 
  11  10   6    3.96    0.54 
  12  10   6   -0.27    0.22 
  12  10   6    0.24    0.38 
  13  10   6    0.42    0.39 
  13  10   6   -0.10    0.23 
  14  10   6   -0.41    0.36 
  15  10   6    1.03    0.52 
   7 -11  -6    1.20    0.54 
   6 -11  -6    0.05    0.44 
   5 -11  -6    0.32    0.39 
   4 -11  -6   -0.45    0.31 
   3 -11  -6    0.48    0.33 
   2 -11  -6    1.19    0.33 
   1 -11  -6    3.62    0.43 
   0 -11  -6    2.49    0.36 
  -1 -11  -6    5.75    0.47 
  -2 -11  -6    8.44    0.59 
   2  11   6    9.54    0.75 
  -3 -11  -6    2.58    0.30 
   3  11   6    2.31    0.42 
  -4 -11  -6    3.42    0.34 
   4  11   6    3.49    0.45 
  -5 -11  -6    0.80    0.21 
   5  11   6    0.65    0.32 
  -6 -11  -6    2.83    0.30 
   6  11   6    2.02    0.40 
   7  11   6    2.06    0.41 
   7  11   6    1.40    0.29 
   8  11   6   -0.06    0.19 
   8  11   6    0.19    0.30 
   9  11   6    4.78    0.58 
   9  11   6    4.15    0.40 
  10  11   6    1.08    0.39 
  10  11   6    0.54    0.24 
  11  11   6    1.94    0.32 
  11  11   6    2.69    0.50 
  12  11   6    1.84    0.48 
  12  11   6    1.39    0.30 
  13  11   6    4.12    0.63 
  14  11   6    0.76    0.46 
  15  11   6    1.25    0.51 
   6 -12  -6   -0.14    0.44 
   5 -12  -6    0.21    0.42 
   4 -12  -6   -0.13    0.35 
   3 -12  -6    1.14    0.42 
   2 -12  -6   -0.10    0.30 
   1 -12  -6    5.22    0.52 
   0 -12  -6    0.05    0.28 
  -1 -12  -6    2.66    0.36 
  -2 -12  -6    2.31    0.33 
   2  12   6    1.80    0.42 
  -3 -12  -6    5.65    0.45 
   3  12   6    5.31    0.58 
  -4 -12  -6    1.19    0.26 
   4  12   6    0.68    0.33 
  -5 -12  -6    2.35    0.30 
   5  12   6    2.05    0.42 
  -6 -12  -6    0.19    0.21 
   6  12   6    0.32    0.31 
  -7 -12  -6   -0.06    0.20 
   7  12   6   -0.10    0.29 
  -8 -12  -6    1.55    0.26 
   8  12   6    1.92    0.43 
   9  12   6    2.10    0.47 
   9  12   6    1.17    0.28 
  10  12   6    0.32    0.37 
  10  12   6    0.02    0.22 
  11  12   6    1.25    0.43 
  11  12   6    0.99    0.29 
  12  12   6    1.92    0.34 
  12  12   6    2.06    0.50 
  13  12   6    0.96    0.48 
  14  12   6    1.86    0.56 
  15  12   6    0.90    0.52 
   5 -13  -6   -0.11    0.41 
   4 -13  -6    1.22    0.43 
   3 -13  -6    1.18    0.43 
   2 -13  -6    0.17    0.35 
   1 -13  -6    2.31    0.42 
   0 -13  -6    0.49    0.31 
  -1 -13  -6   -0.04    0.28 
  -2 -13  -6    0.34    0.26 
   2  13   6   -0.16    0.34 
  -3 -13  -6    0.17    0.25 
   3  13   6    0.23    0.36 
  -4 -13  -6    1.74    0.30 
   4  13   6    1.08    0.38 
  -5 -13  -6    6.45    0.49 
   5  13   6    5.97    0.66 
  -6 -13  -6    2.40    0.32 
   6  13   6    2.93    0.50 
  -7 -13  -6    2.46    0.32 
   7  13   6    2.26    0.46 
  -8 -13  -6   -0.09    0.22 
   8  13   6    0.18    0.33 
  -9 -13  -6    3.48    0.37 
   9  13   6    3.08    0.55 
  10  13   6    2.53    0.36 
  10  13   6    2.74    0.54 
  11  13   6    0.78    0.29 
  11  13   6    2.05    0.52 
  12  13   6    0.87    0.45 
  13  13   6    0.17    0.47 
  14  13   6    0.89    0.51 
  15  13   6    0.15    0.50 
   3 -14  -6    0.79    0.43 
   2 -14  -6    0.16    0.36 
   1 -14  -6   -0.32    0.31 
   0 -14  -6   -0.31    0.27 
  -1 -14  -6    0.78    0.33 
  -2 -14  -6    0.56    0.31 
  -3 -14  -6    0.19    0.27 
   3  14   6    0.17    0.39 
  -4 -14  -6   -0.30    0.24 
   4  14   6    0.26    0.38 
  -5 -14  -6    1.96    0.33 
   5  14   6    2.05    0.47 
  -6 -14  -6    0.10    0.24 
   6  14   6    0.10    0.35 
  -7 -14  -6    1.91    0.32 
   7  14   6    0.90    0.43 
  -8 -14  -6    1.16    0.29 
   8  14   6    0.98    0.41 
  -9 -14  -6    0.06    0.24 
   9  14   6    0.08    0.37 
 -10 -14  -6    0.21    0.26 
  10  14   6    0.06    0.39 
  11  14   6    1.06    0.48 
  12  14   6    0.70    0.45 
  13  14   6    0.46    0.49 
  14  14   6    1.16    0.56 
   2 -15  -6    0.01    0.38 
   1 -15  -6    0.33    0.37 
   0 -15  -6   -0.08    0.32 
  -1 -15  -6    0.10    0.31 
  -2 -15  -6    1.18    0.36 
  -3 -15  -6    2.36    0.40 
   3  15   6    3.08    0.56 
  -4 -15  -6    1.36    0.34 
   4  15   6    1.67    0.49 
  -5 -15  -6    1.09    0.32 
   5  15   6    1.67    0.51 
  -6 -15  -6   -0.18    0.24 
   6  15   6    0.13    0.39 
  -7 -15  -6    2.38    0.35 
   7  15   6    2.93    0.58 
  -8 -15  -6    0.11    0.25 
   8  15   6    0.07    0.40 
  -9 -15  -6    0.19    0.26 
   9  15   6   -0.15    0.39 
  10  15   6    0.40    0.44 
  11  15   6   -0.34    0.40 
  12  15   6    0.33    0.43 
  13  15   6    0.34    0.47 
   1 -16  -6   -0.16    0.37 
   0 -16  -6    1.02    0.40 
  -1 -16  -6    0.50    0.36 
  -2 -16  -6    0.67    0.35 
  -3 -16  -6    0.01    0.30 
   3  16   6   -0.20    0.42 
  -4 -16  -6   -0.04    0.29 
   4  16   6    0.16    0.42 
  -5 -16  -6   -0.25    0.28 
   5  16   6    0.14    0.45 
  -6 -16  -6    1.68    0.36 
   6  16   6    1.96    0.53 
  -7 -16  -6    0.85    0.31 
   7  16   6    0.53    0.48 
  -8 -16  -6    1.25    0.33 
   8  16   6    1.19    0.52 
   9  16   6    0.66    0.47 
  10  16   6   -0.11    0.43 
  11  16   6    0.12    0.44 
  12  16   6    0.10    0.45 
  13  16   6    0.35    0.51 
  -1 -17  -6   -0.04    0.35 
  -2 -17  -6    0.33    0.34 
  -3 -17  -6    0.59    0.37 
  -4 -17  -6   -0.21    0.30 
   4  17   6   -0.09    0.45 
  -5 -17  -6    0.18    0.32 
   5  17   6   -0.35    0.42 
  -6 -17  -6    0.24    0.31 
   6  17   6    0.58    0.47 
  -7 -17  -6   -0.13    0.30 
   7  17   6    0.06    0.46 
   8  17   6    1.83    0.56 
   9  17   6    0.22    0.46 
  10  17   6    0.29    0.47 
  11  17   6    0.10    0.48 
  12  17   6    0.03    0.51 
  -4 -18  -6    0.72    0.37 
   4  18   6    0.77    0.56 
  -5 -18  -6   -0.25    0.32 
   5  18   6    0.97    0.55 
   6  18   6   -0.31    0.45 
   7  18   6    0.94    0.55 
   8  18   6    1.39    0.60 
   9  18   6    0.38    0.54 
  10  18   6   -0.04    0.45 
   5  18  -7    1.60    0.44 
   9  17  -7   -0.55    0.41 
   8  17  -7    0.05    0.43 
   7  17  -7    0.46    0.35 
   7  17  -7    0.44    0.43 
   6  17  -7    1.11    0.38 
   5  17  -7   -0.29    0.34 
   4  17  -7    0.75    0.39 
   3  17  -7    0.02    0.35 
   2  17  -7    0.33    0.40 
   1  17  -7   -0.03    0.39 
  11  16  -7    1.16    0.51 
  10  16  -7    1.43    0.50 
   9  16  -7    0.65    0.35 
   9  16  -7    0.23    0.42 
   8  16  -7   -0.19    0.38 
   8  16  -7   -0.01    0.30 
   7  16  -7   -0.10    0.36 
   7  16  -7    0.20    0.31 
   6  16  -7    1.38    0.44 
   6  16  -7    0.80    0.34 
   5  16  -7   -0.34    0.30 
   4  16  -7    0.03    0.32 
   3  16  -7   -0.21    0.36 
   2  16  -7    0.15    0.36 
   1  16  -7    0.55    0.38 
   0  16  -7    0.17    0.37 
  -1  16  -7    0.41    0.39 
  12  15  -7    0.33    0.47 
  11  15  -7    0.85    0.47 
  10  15  -7    0.39    0.42 
  10  15  -7    0.22    0.31 
   9  15  -7   -0.40    0.37 
   9  15  -7   -0.24    0.29 
   8  15  -7   -0.14    0.34 
   8  15  -7    0.19    0.30 
   7  15  -7   -0.11    0.27 
   7  15  -7    0.06    0.34 
   6  15  -7   -0.03    0.33 
   6  15  -7   -0.17    0.28 
   5  15  -7    0.27    0.30 
   5  15  -7   -0.16    0.34 
   4  15  -7    0.30    0.32 
   3  15  -7    0.21    0.33 
   2  15  -7    0.24    0.35 
   1  15  -7    1.62    0.45 
   0  15  -7    0.73    0.39 
  -1  15  -7    0.25    0.40 
  -2  15  -7   -0.24    0.38 
  -3  15  -7   -0.33    0.41 
  12  14  -7    0.36    0.43 
  11  14  -7    0.21    0.39 
  10  14  -7    0.26    0.41 
  10  14  -7    0.55    0.31 
   9  14  -7    3.69    0.43 
   9  14  -7    3.03    0.53 
   8  14  -7   -0.06    0.27 
   8  14  -7    0.09    0.33 
   7  14  -7   -0.11    0.27 
   7  14  -7   -0.05    0.31 
   6  14  -7    0.15    0.31 
   6  14  -7    0.88    0.32 
   5  14  -7    0.09    0.29 
   5  14  -7    0.22    0.30 
   4  14  -7    0.67    0.32 
   4  14  -7    0.70    0.33 
   3  14  -7    1.32    0.36 
   2  14  -7    0.36    0.34 
   1  14  -7   -0.24    0.29 
   0  14  -7    0.91    0.39 
  -1  14  -7    1.78    0.44 
  -2  14  -7    0.77    0.41 
  -3  14  -7   -0.34    0.36 
   3 -14   7   -0.48    0.33 
  -4  14  -7   -0.42    0.38 
   4 -14   7   -0.03    0.38 
  13  13  -7    0.03    0.42 
  12  13  -7    0.40    0.43 
  11  13  -7    0.81    0.40 
  10  13  -7   -0.39    0.33 
   9  13  -7    0.04    0.26 
   9  13  -7   -0.08    0.34 
   8  13  -7    2.48    0.37 
   8  13  -7    1.63    0.40 
   7  13  -7    3.43    0.40 
   7  13  -7    2.76    0.44 
   6  13  -7    0.16    0.30 
   6  13  -7   -0.25    0.23 
   5  13  -7    1.42    0.32 
   5  13  -7    0.88    0.33 
   4  13  -7    2.03    0.37 
   4  13  -7    1.69    0.33 
   3  13  -7    7.85    0.60 
   3  13  -7    7.18    0.61 
   2  13  -7   -0.16    0.28 
   1  13  -7    1.29    0.35 
   0  13  -7    0.42    0.31 
  -1  13  -7   -0.32    0.33 
  -2  13  -7   -0.22    0.34 
   2 -13   7   -0.20    0.30 
  -3  13  -7    0.45    0.40 
   3 -13   7    0.15    0.32 
  -4  13  -7   -0.07    0.37 
   4 -13   7    0.14    0.35 
  -5  13  -7    0.50    0.43 
   5 -13   7    0.75    0.41 
  13  12  -7    0.10    0.45 
  12  12  -7   -0.03    0.43 
  11  12  -7   -0.15    0.36 
  10  12  -7   -0.41    0.30 
   9  12  -7    0.24    0.33 
   8  12  -7   -0.07    0.30 
   8  12  -7    0.22    0.26 
   7  12  -7    1.16    0.34 
   7  12  -7    1.27    0.30 
   6  12  -7    7.83    0.63 
   6  12  -7    7.81    0.56 
   5  12  -7    0.23    0.25 
   5  12  -7   -0.25    0.24 
   4  12  -7    0.19    0.26 
   4  12  -7    0.45    0.27 
   3  12  -7    6.91    0.53 
   3  12  -7    5.63    0.52 
   2  12  -7    0.55    0.30 
   2  12  -7    1.23    0.27 
   1  12  -7    1.81    0.36 
   0  12  -7    0.90    0.33 
  -1  12  -7    0.59    0.34 
   1 -12   7    0.22    0.28 
  -2  12  -7    0.92    0.36 
   2 -12   7    0.38    0.32 
  -3  12  -7    0.12    0.35 
   3 -12   7    0.29    0.31 
  -4  12  -7    1.00    0.43 
   4 -12   7    1.54    0.41 
  -5  12  -7    0.42    0.39 
   5 -12   7   -0.06    0.33 
  -6  12  -7    0.06    0.41 
   6 -12   7    0.65    0.41 
  14  11  -7    0.70    0.45 
  13  11  -7    2.45    0.51 
  12  11  -7    1.19    0.46 
  11  11  -7    0.22    0.38 
  10  11  -7    5.97    0.62 
   9  11  -7    3.07    0.47 
   8  11  -7    0.85    0.33 
   7  11  -7    3.12    0.41 
   6  11  -7    1.15    0.27 
   6  11  -7    0.30    0.26 
   5  11  -7    0.05    0.24 
   5  11  -7    0.13    0.23 
   4  11  -7    1.33    0.29 
   4  11  -7    1.24    0.28 
   3  11  -7    0.21    0.19 
   3  11  -7    0.12    0.22 
   2  11  -7   12.10    0.75 
   2  11  -7   11.96    0.73 
   1  11  -7    7.60    0.57 
   0  11  -7    0.20    0.27 
   0 -11   7    0.01    0.12 
  -1  11  -7   -0.13    0.27 
   1 -11   7   -0.40    0.22 
  -2  11  -7    1.78    0.37 
   2 -11   7    1.23    0.35 
  -3  11  -7    2.20    0.41 
   3 -11   7    1.32    0.38 
  -4  11  -7   -0.27    0.35 
   4 -11   7   -0.37    0.28 
  -5  11  -7   -0.23    0.35 
   5 -11   7   -0.24    0.29 
  -6  11  -7    0.48    0.41 
   6 -11   7   -0.12    0.30 
   7 -11   7    0.41    0.38 
  14  10  -7    0.17    0.43 
  13  10  -7   -0.13    0.39 
  12  10  -7    0.07    0.39 
  11  10  -7   -0.27    0.35 
  10  10  -7    2.13    0.43 
   9  10  -7    2.54    0.43 
   8  10  -7    3.62    0.45 
   7  10  -7   -0.24    0.23 
   6  10  -7    7.75    0.61 
   5  10  -7    1.65    0.30 
   5  10  -7    1.96    0.30 
   4  10  -7    0.21    0.19 
   4  10  -7   -0.08    0.22 
   3  10  -7    0.59    0.20 
   3  10  -7    0.35    0.23 
   2  10  -7    1.47    0.25 
   2  10  -7    1.91    0.29 
   1  10  -7    2.43    0.28 
   1  10  -7    2.25    0.33 
  -1 -10   7    1.88    0.25 
  -1  10  -7    1.15    0.31 
   1 -10   7    0.97    0.24 
  -2  10  -7    2.77    0.42 
   2 -10   7    2.79    0.39 
  -3  10  -7    4.16    0.49 
   3 -10   7    4.01    0.47 
  -4  10  -7    3.07    0.44 
   4 -10   7    3.63    0.48 
  -5  10  -7    1.29    0.42 
   5 -10   7    0.99    0.37 
  -6  10  -7    2.36    0.47 
   6 -10   7    1.75    0.45 
   7 -10   7    0.05    0.36 
   8 -10   7    0.84    0.43 
  14   9  -7    0.90    0.48 
  13   9  -7    0.78    0.44 
  12   9  -7    1.29    0.43 
  11   9  -7   -0.14    0.33 
  10   9  -7   -0.04    0.33 
   9   9  -7    0.15    0.28 
   8   9  -7    0.04    0.27 
   7   9  -7    9.40    0.69 
   6   9  -7    6.86    0.55 
   5   9  -7    2.88    0.34 
   4   9  -7   15.69    0.87 
   4   9  -7   16.65    0.93 
   3   9  -7    0.52    0.23 
   3   9  -7    0.59    0.19 
   2   9  -7    3.52    0.37 
   2   9  -7    4.72    0.36 
  -2  -9   7    3.67    0.28 
   1   9  -7    1.53    0.22 
   1   9  -7    1.07    0.27 
  -1  -9   7    1.08    0.18 
   0   9  -7    0.27    0.24 
   0   9  -7    0.17    0.15 
   0  -9   7   -0.05    0.05 
  -1   9  -7    2.48    0.35 
   1  -9   7    2.16    0.29 
  -2   9  -7    1.56    0.33 
   2  -9   7    1.28    0.29 
  -3   9  -7    0.62    0.29 
   3  -9   7    0.57    0.27 
  -4   9  -7    0.32    0.33 
   4  -9   7    0.55    0.30 
  -5   9  -7    2.06    0.41 
   5  -9   7    1.73    0.39 
  -6   9  -7    2.73    0.48 
   6  -9   7    2.37    0.44 
  -7   9  -7    0.62    0.41 
   7  -9   7    0.87    0.39 
   8  -9   7    0.07    0.36 
   9  -9   7    0.26    0.39 
  14   8  -7    0.03    0.41 
  13   8  -7    0.14    0.37 
  12   8  -7    0.37    0.41 
  11   8  -7    0.68    0.39 
  10   8  -7   -0.12    0.32 
   9   8  -7    0.60    0.31 
   8   8  -7    7.39    0.61 
   7   8  -7    0.54    0.26 
   6   8  -7    0.19    0.21 
   5   8  -7    1.70    0.26 
   4   8  -7    3.01    0.30 
   3   8  -7   12.99    0.72 
   3   8  -7   11.31    0.68 
   2   8  -7    4.73    0.36 
   2   8  -7    5.04    0.38 
  -2  -8   7    4.52    0.29 
   1   8  -7   19.57    1.02 
   1   8  -7   19.78    1.05 
  -1  -8   7   19.77    0.95 
   0   8  -7    8.75    0.52 
   0   8  -7    7.97    0.56 
  -1   8  -7   21.40    1.15 
   1  -8   7   22.63    1.11 
  -2   8  -7    1.58    0.30 
   2  -8   7    2.02    0.29 
  -3   8  -7   -0.06    0.25 
   3  -8   7   -0.09    0.21 
  -4   8  -7    0.38    0.29 
   4  -8   7    0.13    0.24 
  -5   8  -7    1.32    0.34 
   5  -8   7   -0.01    0.24 
  -6   8  -7    0.21    0.35 
   6  -8   7    0.06    0.27 
  -7   8  -7    0.18    0.36 
   7  -8   7    0.52    0.35 
   8  -8   7    2.60    0.50 
   9  -8   7    1.02    0.39 
  10  -8   7    0.12    0.40 
  14   7  -7   -0.14    0.40 
  13   7  -7    1.06    0.45 
  12   7  -7   -0.08    0.34 
  11   7  -7    0.52    0.37 
  10   7  -7    1.17    0.37 
   9   7  -7    1.94    0.38 
   8   7  -7    3.27    0.43 
   7   7  -7    6.65    0.54 
   6   7  -7   32.82    1.73 
   5   7  -7    0.12    0.17 
   4   7  -7    8.23    0.55 
   3   7  -7    0.05    0.14 
   3   7  -7    0.07    0.16 
  -3  -7   7    0.04    0.06 
   2   7  -7    2.44    0.27 
   2   7  -7    2.57    0.25 
  -2  -7   7    2.38    0.18 
   1   7  -7    8.59    0.52 
   1   7  -7    8.15    0.50 
  -1  -7   7    8.00    0.45 
   0   7  -7   19.60    1.00 
   0   7  -7   20.94    1.01 
   0  -7   7   17.46    0.94 
  -1   7  -7    3.60    0.26 
  -1   7  -7    2.50    0.32 
   1  -7   7    3.47    0.30 
  -2   7  -7    7.39    0.54 
   2  -7   7    8.76    0.53 
  -3   7  -7    9.51    0.62 
   3  -7   7    8.66    0.59 
   4  -7   7    4.78    0.45 
  -5   7  -7    6.18    0.55 
   5  -7   7    5.82    0.54 
  -6   7  -7    2.29    0.41 
   6  -7   7    1.40    0.33 
  -7   7  -7    0.86    0.35 
   7  -7   7    1.43    0.36 
   8  -7   7    0.04    0.32 
   9  -7   7   -0.25    0.31 
  10  -7   7    0.84    0.40 
  11  -7   7    1.16    0.45 
  14   6  -7    0.43    0.42 
  13   6  -7    0.35    0.42 
  12   6  -7    0.14    0.37 
  11   6  -7    0.05    0.35 
  10   6  -7    0.01    0.31 
   9   6  -7   -0.01    0.27 
   8   6  -7    0.38    0.30 
   7   6  -7    1.19    0.29 
   6   6  -7    2.39    0.31 
   5   6  -7    4.87    0.40 
   4   6  -7    0.71    0.19 
   3   6  -7    5.86    0.42 
  -3  -6   7    5.82    0.28 
   2   6  -7   23.44    1.25 
   2   6  -7   23.39    1.18 
  -2  -6   7   25.73    1.10 
   1   6  -7   24.92    1.27 
   1   6  -7   24.76    1.22 
  -1  -6   7   25.63    1.16 
   0   6  -7    0.27    0.11 
   0   6  -7    0.54    0.18 
   0  -6   7    0.38    0.12 
  -1   6  -7    0.83    0.20 
  -1   6  -7    0.69    0.12 
   1  -6   7    0.82    0.16 
  -2   6  -7    0.84    0.22 
  -2   6  -7    0.85    0.11 
   2  -6   7    0.71    0.18 
  -3   6  -7    3.35    0.35 
   3  -6   7    3.09    0.31 
  -4   6  -7    0.94    0.27 
   4  -6   7    0.93    0.24 
  -5   6  -7    2.43    0.35 
   5  -6   7    2.03    0.32 
  -6   6  -7    3.65    0.42 
   6  -6   7    2.98    0.41 
  -7   6  -7    6.66    0.56 
   7  -6   7    5.05    0.53 
   8  -6   7   -0.37    0.28 
   9  -6   7    0.59    0.35 
  10  -6   7    0.27    0.36 
  11  -6   7    0.11    0.36 
  14   5  -7   -0.37    0.38 
  13   5  -7    0.02    0.38 
  12   5  -7    0.03    0.37 
  11   5  -7    0.19    0.34 
  10   5  -7    0.57    0.32 
   9   5  -7    5.32    0.54 
   8   5  -7    4.42    0.46 
   7   5  -7    8.87    0.64 
   6   5  -7    1.96    0.30 
   5   5  -7    2.02    0.27 
   4   5  -7   14.94    0.85 
   3   5  -7   30.24    1.55 
   2   5  -7   43.91    2.21 
  -2  -5   7   45.53    1.97 
   1   5  -7    5.43    0.37 
   1   5  -7    5.40    0.38 
  -1  -5   7    6.43    0.33 
   0   5  -7   12.25    0.64 
   0   5  -7   11.60    0.65 
   0  -5   7   11.72    0.60 
  -1   5  -7   13.61    0.74 
  -1   5  -7   14.03    0.71 
   1  -5   7   13.78    0.71 
  -2   5  -7    1.16    0.11 
  -2   5  -7    1.52    0.24 
   2  -5   7    1.34    0.19 
  -3   5  -7   10.99    0.65 
   3  -5   7   11.06    0.63 
  -4   5  -7    2.92    0.33 
   4  -5   7    3.00    0.31 
  -5   5  -7    7.70    0.54 
   5  -5   7    7.50    0.55 
  -6   5  -7    9.06    0.63 
   6  -5   7    9.16    0.64 
  -7   5  -7   19.36    1.07 
   7  -5   7   18.37    1.07 
   8  -5   7    1.07    0.32 
   9  -5   7    0.75    0.35 
  10  -5   7    1.03    0.39 
  11  -5   7    1.58    0.45 
  12  -5   7   -0.01    0.38 
  14   4  -7   -0.32    0.39 
  13   4  -7    0.00    0.40 
  12   4  -7    1.62    0.45 
  11   4  -7    0.79    0.39 
  10   4  -7    0.50    0.35 
   9   4  -7    0.36    0.31 
   8   4  -7    1.71    0.35 
   7   4  -7    1.24    0.31 
   6   4  -7    3.51    0.23 
   6   4  -7    2.65    0.34 
   5   4  -7    4.96    0.27 
   5   4  -7    4.17    0.38 
   4   4  -7    4.34    0.23 
   4   4  -7    4.34    0.35 
   3   4  -7    0.14    0.14 
   3   4  -7    0.06    0.06 
   2   4  -7    2.73    0.24 
  -2  -4   7    2.65    0.18 
   1   4  -7   -0.10    0.09 
  -1  -4   7    0.07    0.07 
   0   4  -7   11.91    0.61 
   0   4  -7   11.96    0.59 
   0  -4   7    9.28    0.54 
  -1   4  -7    4.24    0.26 
  -1   4  -7    4.66    0.33 
   1  -4   7    4.06    0.29 
  -2   4  -7    8.45    0.51 
  -2   4  -7    8.41    0.43 
   2  -4   7    8.32    0.48 
  -3   4  -7    4.51    0.35 
   3  -4   7    3.89    0.32 
  -4   4  -7   19.12    0.92 
   4  -4   7   15.30    0.88 
  -5   4  -7   12.00    0.70 
   5  -4   7   10.95    0.68 
  -6   4  -7    0.66    0.27 
   6  -4   7    0.14    0.22 
  -7   4  -7    1.24    0.32 
   7  -4   7    0.91    0.28 
   8  -4   7    3.73    0.44 
   9  -4   7    0.57    0.31 
  10  -4   7    0.24    0.32 
  11  -4   7    0.21    0.38 
  12  -4   7    0.08    0.39 
  14   3  -7    0.82    0.46 
  13   3  -7    0.94    0.45 
  12   3  -7    1.34    0.45 
  11   3  -7    2.26    0.46 
  10   3  -7    0.35    0.31 
   9   3  -7    5.28    0.54 
   8   3  -7    4.60    0.47 
   7   3  -7    2.08    0.34 
   7   3  -7    1.70    0.22 
   6   3  -7   14.00    0.66 
   6   3  -7   12.23    0.82 
   5   3  -7   15.31    0.86 
   5   3  -7   14.14    0.69 
   4   3  -7    7.54    0.39 
   4   3  -7    8.19    0.54 
   3   3  -7   17.19    0.92 
   3   3  -7   16.51    0.76 
   2   3  -7   15.55    0.83 
  -2  -3   7   14.91    0.71 
   1   3  -7    4.28    0.29 
  -1  -3   7    3.86    0.24 
   0   3  -7    0.04    0.13 
   0   3  -7    0.07    0.08 
   0  -3   7    0.03    0.03 
  -1   3  -7    0.84    0.16 
  -1   3  -7    1.03    0.11 
   1  -3   7    1.04    0.14 
  -2   3  -7   27.34    1.28 
  -2   3  -7   25.74    1.26 
   2  -3   7   25.58    1.24 
  -3   3  -7   26.48    1.30 
   3  -3   7   27.23    1.28 
  -4   3  -7   27.52    1.36 
   4  -3   7   28.33    1.35 
  -5   3  -7   44.84    2.13 
   5  -3   7   46.09    2.12 
  -6   3  -7   20.14    1.12 
   6  -3   7   23.96    1.15 
  -7   3  -7   16.63    0.92 
   7  -3   7   16.18    0.93 
   8  -3   7    0.61    0.27 
   9  -3   7    0.68    0.28 
  10  -3   7    0.59    0.32 
  11  -3   7   -0.26    0.32 
  12  -3   7    0.16    0.37 
  13  -3   7    2.06    0.53 
  13   2  -7    0.61    0.43 
  12   2  -7    1.01    0.41 
  11   2  -7    1.75    0.44 
  10   2  -7    0.07    0.32 
   9   2  -7    0.53    0.32 
   8   2  -7    0.48    0.20 
   8   2  -7   -0.08    0.26 
   7   2  -7   -0.28    0.21 
   7   2  -7    0.09    0.16 
   6   2  -7    0.12    0.21 
   6   2  -7   -0.05    0.13 
   5   2  -7    1.61    0.17 
   5   2  -7    1.41    0.25 
   4   2  -7    0.44    0.16 
   4   2  -7    0.35    0.11 
   3   2  -7    3.05    0.20 
   3   2  -7    3.49    0.29 
   2   2  -7    0.76    0.15 
  -2  -2   7    0.95    0.12 
   1   2  -7    6.84    0.41 
  -1  -2   7    6.70    0.36 
   0   2  -7    0.20    0.09 
   0  -2   7    0.26    0.08 
  -1   2  -7   11.01    0.60 
  -1   2  -7   11.82    0.61 
   1  -2   7   12.12    0.59 
  -2   2  -7   10.93    0.55 
  -2   2  -7   10.43    0.57 
   2  -2   7   11.07    0.57 
  -3   2  -7    1.23    0.19 
   3  -2   7    1.36    0.18 
  -4   2  -7    0.08    0.13 
   4  -2   7   -0.09    0.11 
  -5   2  -7   -0.06    0.16 
   5  -2   7   -0.06    0.13 
  -6   2  -7    0.76    0.22 
   6  -2   7    0.71    0.22 
  -7   2  -7    3.67    0.37 
   7  -2   7    3.07    0.37 
   8  -2   7    0.03    0.22 
   9  -2   7    1.94    0.36 
  10  -2   7    1.68    0.36 
  11  -2   7    0.08    0.30 
  12  -2   7    0.45    0.37 
  13  -2   7    0.28    0.40 
  13   1  -7   -0.06    0.41 
  12   1  -7    0.30    0.38 
  11   1  -7    0.14    0.36 
  10   1  -7    0.76    0.37 
   9   1  -7    7.26    0.55 
   9   1  -7    8.14    0.64 
   8   1  -7    0.28    0.26 
   8   1  -7    0.28    0.21 
   7   1  -7    2.76    0.28 
   7   1  -7    2.40    0.36 
   6   1  -7    7.44    0.56 
   6   1  -7    6.83    0.42 
   5   1  -7    3.35    0.34 
   5   1  -7    3.39    0.26 
   4   1  -7    1.91    0.25 
   4   1  -7    1.46    0.17 
   3   1  -7    2.47    0.25 
   3   1  -7    2.00    0.18 
   2   1  -7    8.51    0.43 
   2   1  -7    8.41    0.51 
   0  -1   7   72.07    3.17 
  -1   1  -7   81.06    3.69 
   1  -1   7   84.32    3.63 
  -2   1  -7   60.44    2.71 
   2  -1   7   59.92    2.68 
  -3   1  -7   26.45    1.21 
   3  -1   7   24.18    1.19 
  -4   1  -7   12.85    0.68 
   4  -1   7   12.94    0.68 
  -5   1  -7   11.92    0.67 
   5  -1   7   13.10    0.69 
  -6   1  -7    0.08    0.16 
   6  -1   7    0.22    0.17 
  -7   1  -7    0.08    0.17 
   7  -1   7    0.31    0.19 
   8  -1   7    7.35    0.56 
   9  -1   7    4.24    0.44 
  10  -1   7   17.22    1.01 
  11  -1   7    7.77    0.67 
  12  -1   7    4.12    0.54 
  13  -1   7    1.74    0.47 
  14  -1   7    0.03    0.40 
  13   0  -7    0.38    0.42 
  12   0  -7    0.63    0.40 
  11   0  -7    1.19    0.38 
  10   0  -7    0.61    0.31 
  10   0  -7    0.25    0.33 
   9   0  -7    1.42    0.35 
   9   0  -7    1.29    0.31 
   8   0  -7    1.72    0.30 
   8   0  -7    1.93    0.37 
   7   0  -7    9.50    0.60 
   7   0  -7   10.46    0.72 
   6   0  -7    1.73    0.30 
   6   0  -7    1.13    0.22 
   5   0  -7    0.20    0.18 
   5   0  -7    0.60    0.17 
   4   0  -7    1.08    0.17 
   4   0  -7    0.58    0.19 
   3   0  -7    0.37    0.12 
   2   0  -7   -0.02    0.09 
  -1   0   7    0.06    0.09 
   0   0   7    2.29    0.19 
   1   0   7    2.83    0.22 
  -2   0  -7    0.04    0.09 
   2   0   7   -0.06    0.08 
  -3   0  -7    0.16    0.10 
   3   0   7    0.06    0.10 
  -4   0  -7    1.15    0.17 
   4   0   7    1.64    0.19 
  -5   0  -7    0.27    0.14 
   5   0   7    0.02    0.12 
   5   0   7    0.04    0.07 
  -6   0  -7    0.00    0.14 
   6   0   7    0.22    0.09 
   6   0   7   -0.06    0.13 
  -7   0  -7    1.44    0.22 
   7   0   7    1.27    0.25 
   8   0   7   21.10    1.11 
   9   0   7    0.15    0.24 
  10   0   7    1.19    0.31 
  11   0   7    2.10    0.40 
  12   0   7    1.98    0.42 
  13   0   7    0.67    0.37 
  14   0   7   -0.17    0.37 
  12  -1  -7    1.40    0.45 
  11  -1  -7    0.32    0.35 
  11  -1  -7    0.01    0.35 
  10  -1  -7    0.70    0.36 
  10  -1  -7    1.36    0.36 
   9  -1  -7    0.24    0.27 
   9  -1  -7    0.29    0.32 
   8  -1  -7    2.83    0.40 
   8  -1  -7    2.38    0.36 
   7  -1  -7    0.28    0.26 
   7  -1  -7   -0.12    0.20 
   6  -1  -7    2.92    0.36 
   6  -1  -7    2.86    0.30 
   5  -1  -7    6.34    0.40 
   5  -1  -7    5.45    0.46 
   4  -1  -7   12.18    0.64 
   3  -1  -7   11.39    0.59 
   2  -1  -7   17.63    0.84 
   1  -1  -7   35.30    1.59 
   0   1   7   38.50    1.75 
   1   1   7   10.90    0.57 
  -2  -1  -7    0.23    0.09 
   2   1   7    0.08    0.09 
  -3  -1  -7    5.71    0.33 
   3   1   7    6.14    0.36 
  -4  -1  -7    6.22    0.36 
   4   1   7    5.85    0.38 
   4   1   7    6.24    0.37 
  -5  -1  -7    3.63    0.26 
   5   1   7    3.47    0.27 
   5   1   7    3.34    0.29 
  -6  -1  -7   46.30    2.17 
   6   1   7   48.38    2.34 
   6   1   7   47.97    2.19 
   7   1   7   34.30    1.73 
   7   1   7   38.25    1.84 
   8   1   7   33.32    1.63 
   9   1   7   26.91    1.38 
  10   1   7   19.69    1.09 
  11   1   7    0.69    0.31 
  12   1   7    0.48    0.34 
  13   1   7   -0.43    0.30 
  14   1   7    0.55    0.38 
  12  -2  -7    0.81    0.43 
  11  -2  -7    1.87    0.47 
  11  -2  -7    2.03    0.46 
  10  -2  -7    3.56    0.49 
  10  -2  -7    4.13    0.53 
   9  -2  -7    5.40    0.56 
   9  -2  -7    5.80    0.53 
   8  -2  -7    1.44    0.36 
   8  -2  -7    1.38    0.33 
   7  -2  -7    3.52    0.42 
   7  -2  -7    3.45    0.38 
   6  -2  -7    0.38    0.24 
   6  -2  -7   -0.01    0.20 
   5  -2  -7    1.43    0.24 
   4  -2  -7    1.10    0.21 
   3  -2  -7    0.08    0.13 
   2  -2  -7    1.10    0.16 
   1  -2  -7    7.42    0.41 
   0   2   7    9.38    0.51 
   1   2   7    0.13    0.10 
   2   2   7    3.30    0.26 
  -3  -2  -7    0.26    0.09 
   3   2   7    0.21    0.12 
  -4  -2  -7    6.31    0.36 
   4   2   7    6.86    0.40 
  -5  -2  -7    1.08    0.14 
   5   2   7    1.45    0.18 
   5   2   7    0.62    0.16 
  -6  -2  -7    2.29    0.21 
   6   2   7    2.27    0.24 
   6   2   7    2.55    0.27 
   7   2   7    1.14    0.22 
   7   2   7    1.18    0.20 
   8   2   7    2.29    0.31 
   8   2   7    2.13    0.26 
   9   2   7    1.35    0.29 
  10   2   7   -0.30    0.20 
  11   2   7    0.47    0.28 
  12   2   7    0.26    0.28 
  13   2   7    0.20    0.34 
  14   2   7   -0.07    0.33 
  15   2   7    0.48    0.41 
  12  -3  -7    0.37    0.43 
  12  -3  -7    0.45    0.47 
  11  -3  -7    1.45    0.45 
  11  -3  -7    0.43    0.40 
  10  -3  -7    1.09    0.39 
  10  -3  -7    1.02    0.39 
   9  -3  -7    0.20    0.32 
   9  -3  -7   -0.22    0.31 
   8  -3  -7    0.19    0.29 
   8  -3  -7   -0.12    0.28 
   7  -3  -7    2.08    0.33 
   7  -3  -7    2.00    0.34 
   6  -3  -7    4.58    0.42 
   5  -3  -7    0.29    0.20 
   4  -3  -7    1.31    0.23 
   3  -3  -7    7.17    0.45 
   2  -3  -7    4.71    0.33 
   1  -3  -7    0.59    0.14 
   0  -3  -7   27.44    1.27 
   1   3   7    2.83    0.24 
   2   3   7    9.04    0.50 
  -3  -3  -7   68.93    3.07 
   3   3   7   70.09    3.40 
   3   3   7   69.25    3.09 
  -4  -3  -7   47.57    2.17 
   4   3   7   50.27    2.43 
   4   3   7   48.50    2.21 
  -5  -3  -7   30.24    1.38 
   5   3   7   30.72    1.44 
   5   3   7   30.64    1.57 
   6   3   7   45.17    2.08 
   7   3   7   16.50    0.86 
   7   3   7   16.24    0.93 
   8   3   7    8.15    0.54 
   8   3   7    8.19    0.56 
   9   3   7    0.83    0.25 
   9   3   7    0.75    0.22 
  10   3   7    0.20    0.23 
  11   3   7   10.36    0.71 
  12   3   7    4.51    0.50 
  13   3   7    8.08    0.68 
  14   3   7    7.46    0.70 
  15   3   7    1.45    0.47 
  11  -4  -7    0.49    0.45 
  11  -4  -7    0.52    0.40 
  10  -4  -7    1.13    0.41 
  10  -4  -7    0.63    0.41 
   9  -4  -7    1.08    0.38 
   9  -4  -7    0.18    0.34 
   8  -4  -7    0.33    0.31 
   8  -4  -7    0.71    0.35 
   7  -4  -7   -0.13    0.25 
   7  -4  -7    0.20    0.29 
   6  -4  -7   -0.08    0.24 
   5  -4  -7   11.35    0.70 
   4  -4  -7    8.30    0.54 
   3  -4  -7    8.36    0.52 
   2  -4  -7    3.18    0.29 
   1  -4  -7    1.28    0.18 
   0  -4  -7    9.13    0.51 
   1   4   7    2.91    0.27 
   2   4   7    0.40    0.14 
  -3  -4  -7    2.80    0.18 
   3   4   7    2.89    0.25 
   3   4   7    2.96    0.28 
  -4  -4  -7    1.87    0.13 
   4   4   7    1.46    0.20 
   4   4   7    1.82    0.23 
  -5  -4  -7    7.90    0.38 
   5   4   7    8.06    0.47 
   5   4   7    7.03    0.51 
   6   4   7    2.43    0.26 
   6   4   7    2.68    0.30 
   7   4   7    1.49    0.25 
   7   4   7    1.91    0.25 
   8   4   7    0.60    0.18 
   8   4   7    0.79    0.20 
   9   4   7    5.37    0.44 
  10   4   7    0.54    0.24 
  10   4   7    0.65    0.22 
  11   4   7    9.66    0.66 
  12   4   7    0.03    0.25 
  13   4   7    0.26    0.32 
  14   4   7    0.49    0.35 
  15   4   7    1.14    0.45 
  11  -5  -7   -0.24    0.37 
  11  -5  -7    0.72    0.47 
  10  -5  -7    0.93    0.47 
  10  -5  -7    0.53    0.39 
   9  -5  -7    0.46    0.39 
   9  -5  -7    0.32    0.34 
   8  -5  -7    0.37    0.33 
   8  -5  -7    0.96    0.34 
   7  -5  -7    0.18    0.30 
   6  -5  -7    0.38    0.29 
   5  -5  -7    6.37    0.51 
   4  -5  -7    1.08    0.27 
   3  -5  -7   19.65    1.02 
   2  -5  -7    9.10    0.54 
   1  -5  -7    1.05    0.20 
   0  -5  -7   14.72    0.75 
  -1  -5  -7    2.42    0.23 
   2   5   7    6.53    0.41 
   3   5   7   49.11    2.23 
   3   5   7   48.75    2.47 
   4   5   7   10.36    0.66 
   4   5   7   10.22    0.58 
   5   5   7    2.31    0.25 
   5   5   7    1.90    0.26 
   6   5   7   -0.12    0.12 
   6   5   7    0.25    0.16 
   7   5   7    6.42    0.50 
   7   5   7    5.64    0.41 
   8   5   7    5.84    0.44 
   8   5   7    6.54    0.51 
   9   5   7   31.14    1.75 
   9   5   7   33.73    1.59 
  10   5   7   19.75    1.05 
  10   5   7   19.71    1.17 
  11   5   7   21.97    1.13 
  11   5   7   19.28    1.22 
  12   5   7    7.51    0.61 
  13   5   7    5.88    0.58 
  14   5   7    2.26    0.44 
  15   5   7    0.45    0.39 
  10  -6  -7   -0.20    0.45 
  10  -6  -7    0.04    0.37 
   9  -6  -7    0.70    0.37 
   9  -6  -7    0.50    0.44 
   8  -6  -7    1.85    0.46 
   8  -6  -7    1.86    0.40 
   7  -6  -7    3.87    0.52 
   6  -6  -7    4.73    0.50 
   5  -6  -7    7.69    0.59 
   4  -6  -7    0.49    0.26 
   3  -6  -7    0.17    0.23 
   2  -6  -7    0.70    0.22 
   1  -6  -7    1.07    0.21 
   0  -6  -7    3.33    0.29 
  -1  -6  -7    1.46    0.20 
  -2  -6  -7   43.43    1.96 
   2   6   7   42.65    2.21 
   3   6   7    8.75    0.53 
   3   6   7    9.21    0.62 
   4   6   7   16.94    0.90 
   4   6   7   18.45    1.03 
   5   6   7    2.53    0.32 
   5   6   7    3.14    0.28 
   6   6   7    8.17    0.59 
   6   6   7    7.94    0.49 
   7   6   7    0.23    0.16 
   7   6   7   -0.15    0.17 
   8   6   7   11.88    0.81 
   8   6   7   12.95    0.71 
   9   6   7    1.10    0.29 
   9   6   7    1.01    0.24 
  10   6   7    2.06    0.36 
  10   6   7    1.96    0.31 
  11   6   7    3.40    0.40 
  11   6   7    4.26    0.49 
  12   6   7    1.13    0.32 
  13   6   7   -0.01    0.28 
  14   6   7   -0.02    0.31 
  15   6   7    0.07    0.35 
   9  -7  -7    0.66    0.39 
   9  -7  -7    1.27    0.50 
   8  -7  -7    2.08    0.49 
   8  -7  -7    1.20    0.39 
   7  -7  -7    4.01    0.56 
   6  -7  -7   -0.28    0.30 
   5  -7  -7    1.50    0.35 
   4  -7  -7    3.54    0.42 
   3  -7  -7    0.13    0.25 
   2  -7  -7   -0.15    0.20 
   1  -7  -7    0.22    0.20 
   0  -7  -7    0.43    0.19 
  -1  -7  -7   16.43    0.84 
  -2  -7  -7    0.10    0.15 
   2   7   7    0.03    0.16 
  -3  -7  -7    8.58    0.50 
   3   7   7    8.52    0.61 
   4   7   7    0.68    0.22 
   4   7   7    1.20    0.21 
   5   7   7    0.56    0.22 
   5   7   7    0.58    0.17 
   6   7   7   20.91    1.22 
   6   7   7   21.33    1.06 
   7   7   7   56.84    2.70 
   7   7   7   47.56    2.36 
   8   7   7   16.20    1.01 
   8   7   7   16.05    0.87 
   9   7   7   16.77    0.91 
   9   7   7   17.88    1.10 
  10   7   7    1.87    0.31 
  10   7   7    2.37    0.41 
  11   7   7    2.44    0.35 
  11   7   7    2.51    0.43 
  12   7   7    0.52    0.27 
  12   7   7    0.60    0.33 
  13   7   7   -0.28    0.26 
  14   7   7    1.20    0.38 
  15   7   7    3.57    0.52 
   9  -8  -7    0.78    0.48 
   9  -8  -7    0.67    0.42 
   8  -8  -7    1.14    0.48 
   7  -8  -7   -0.21    0.39 
   6  -8  -7   -0.17    0.34 
   5  -8  -7    0.10    0.31 
   4  -8  -7    0.32    0.30 
   3  -8  -7    0.11    0.26 
   2  -8  -7    4.37    0.43 
   1  -8  -7   10.49    0.65 
   0  -8  -7    9.58    0.59 
  -1  -8  -7    0.93    0.23 
  -2  -8  -7    9.55    0.56 
   2   8   7    9.55    0.68 
  -3  -8  -7   13.37    0.69 
   3   8   7   11.74    0.82 
   4   8   7    9.25    0.57 
   4   8   7    8.61    0.66 
   5   8   7    0.24    0.21 
   5   8   7    0.20    0.14 
   6   8   7    8.38    0.55 
   6   8   7    9.82    0.69 
   7   8   7    0.21    0.24 
   7   8   7   -0.01    0.16 
   8   8   7    0.39    0.20 
   8   8   7    0.49    0.28 
   9   8   7    4.99    0.53 
   9   8   7    3.63    0.37 
  10   8   7    1.69    0.40 
  10   8   7    1.96    0.29 
  11   8   7   -0.01    0.23 
  11   8   7    0.42    0.32 
  12   8   7    0.66    0.26 
  12   8   7    0.49    0.35 
  13   8   7   -0.04    0.25 
  13   8   7    0.53    0.38 
  14   8   7    1.26    0.36 
  15   8   7    0.66    0.39 
   8  -9  -7   -0.56    0.44 
   7  -9  -7   -0.24    0.40 
   6  -9  -7    0.11    0.39 
   5  -9  -7   -0.30    0.32 
   4  -9  -7   -0.20    0.30 
   3  -9  -7    1.34    0.35 
   2  -9  -7    3.50    0.41 
   1  -9  -7    1.55    0.30 
   0  -9  -7    6.66    0.49 
  -1  -9  -7    0.68    0.22 
  -2  -9  -7    0.61    0.20 
   2   9   7    0.83    0.30 
  -3  -9  -7    4.41    0.36 
   3   9   7    4.51    0.48 
  -4  -9  -7    3.59    0.33 
   4   9   7    3.69    0.45 
   5   9   7   11.45    0.69 
   5   9   7   12.47    0.85 
   6   9   7    2.69    0.40 
   6   9   7    2.25    0.28 
   7   9   7    7.89    0.52 
   7   9   7    7.65    0.66 
   8   9   7    2.51    0.42 
   8   9   7    2.07    0.29 
   9   9   7    0.86    0.25 
   9   9   7    1.07    0.35 
  10   9   7    6.90    0.65 
  10   9   7    4.83    0.45 
  11   9   7    1.14    0.29 
  11   9   7    1.91    0.45 
  12   9   7    1.29    0.31 
  12   9   7    0.85    0.41 
  13   9   7    3.83    0.44 
  13   9   7    3.60    0.58 
  14   9   7    7.18    0.62 
  15   9   7    5.82    0.60 
   7 -10  -7    0.41    0.46 
   6 -10  -7    0.15    0.42 
   5 -10  -7    0.51    0.40 
   4 -10  -7    4.71    0.55 
   3 -10  -7    3.85    0.48 
   2 -10  -7    3.06    0.41 
   1 -10  -7    0.17    0.26 
   0 -10  -7    0.31    0.24 
  -1 -10  -7    3.79    0.38 
  -2 -10  -7    3.09    0.33 
   2  10   7    2.21    0.39 
  -3 -10  -7    3.01    0.31 
   3  10   7    2.61    0.40 
  -4 -10  -7    3.19    0.32 
   4  10   7    2.54    0.41 
  -5 -10  -7    3.12    0.32 
   5  10   7    3.83    0.48 
   6  10   7    3.02    0.34 
   6  10   7    3.42    0.47 
   7  10   7    0.38    0.20 
   7  10   7    0.31    0.28 
   8  10   7    2.59    0.33 
   8  10   7    2.82    0.46 
   9  10   7    3.28    0.36 
   9  10   7    3.42    0.49 
  10  10   7    2.68    0.49 
  10  10   7    2.13    0.32 
  11  10   7    2.45    0.50 
  11  10   7    1.35    0.30 
  12  10   7    3.60    0.58 
  12  10   7    3.84    0.42 
  13  10   7    0.35    0.41 
  13  10   7    0.67    0.31 
  14  10   7    0.57    0.45 
  14  10   7   -0.24    0.29 
   6 -11  -7    0.29    0.48 
   5 -11  -7    0.44    0.43 
   4 -11  -7    0.74    0.40 
   3 -11  -7    0.21    0.34 
   2 -11  -7    1.11    0.35 
   1 -11  -7    0.34    0.29 
   0 -11  -7    1.36    0.33 
  -1 -11  -7    0.11    0.23 
  -2 -11  -7    8.78    0.60 
  -3 -11  -7    0.76    0.25 
   3  11   7    1.04    0.37 
  -4 -11  -7    1.38    0.27 
   4  11   7    1.47    0.38 
  -5 -11  -7    3.44    0.35 
   5  11   7    2.46    0.44 
  -6 -11  -7    0.87    0.23 
   6  11   7    0.50    0.33 
   7  11   7    0.80    0.33 
   7  11   7    0.43    0.25 
   8  11   7    0.29    0.32 
   8  11   7   -0.18    0.20 
   9  11   7    6.67    0.69 
   9  11   7    6.93    0.53 
  10  11   7    7.21    0.56 
  10  11   7    7.67    0.73 
  11  11   7    2.20    0.33 
  11  11   7    3.36    0.56 
  12  11   7    2.03    0.52 
  12  11   7    1.06    0.30 
  13  11   7    5.14    0.70 
  13  11   7    3.70    0.45 
  14  11   7    2.78    0.63 
  15  11   7    0.02    0.50 
   5 -12  -7    0.58    0.47 
   4 -12  -7   -0.18    0.37 
   3 -12  -7   -0.21    0.33 
   2 -12  -7   -0.05    0.30 
   1 -12  -7   -0.04    0.29 
   0 -12  -7    0.05    0.28 
  -1 -12  -7    0.02    0.24 
  -2 -12  -7    6.75    0.54 
  -3 -12  -7    0.67    0.26 
   3  12   7    0.13    0.34 
  -4 -12  -7    3.12    0.34 
   4  12   7    2.21    0.45 
  -5 -12  -7    2.12    0.30 
   5  12   7    1.99    0.44 
  -6 -12  -7    1.13    0.26 
   6  12   7    0.81    0.37 
  -7 -12  -7    9.14    0.57 
   7  12   7    7.86    0.76 
   8  12   7    0.04    0.32 
   8  12   7    0.12    0.24 
   9  12   7    2.11    0.34 
   9  12   7    2.85    0.52 
  10  12   7    1.47    0.31 
  10  12   7    1.48    0.45 
  11  12   7    0.60    0.28 
  11  12   7    0.75    0.42 
  12  12   7    0.68    0.30 
  12  12   7    0.24    0.42 
  13  12   7    0.59    0.49 
  14  12   7    0.05    0.49 
  15  12   7    1.07    0.54 
   4 -13  -7    0.59    0.44 
   3 -13  -7    0.49    0.39 
   2 -13  -7   -0.20    0.30 
   1 -13  -7    0.00    0.30 
   0 -13  -7   -0.06    0.30 
  -1 -13  -7    2.64    0.41 
  -2 -13  -7    1.15    0.33 
  -3 -13  -7    1.27    0.32 
   3  13   7    1.49    0.44 
  -4 -13  -7    3.00    0.37 
   4  13   7    3.68    0.55 
  -5 -13  -7    0.61    0.24 
   5  13   7   -0.12    0.30 
  -6 -13  -7    0.92    0.27 
   6  13   7    1.02    0.41 
  -7 -13  -7    2.09    0.32 
   7  13   7    1.96    0.47 
  -8 -13  -7    3.26    0.36 
   8  13   7    3.89    0.59 
  -9 -13  -7    1.35    0.29 
   9  13   7    1.28    0.45 
  10  13   7    0.55    0.40 
  10  13   7    0.43    0.26 
  11  13   7    0.75    0.30 
  11  13   7    1.00    0.49 
  12  13   7   -0.15    0.42 
  12  13   7    0.29    0.29 
  13  13   7    0.04    0.45 
  14  13   7    0.59    0.52 
   3 -14  -7   -0.21    0.38 
   2 -14  -7    0.85    0.41 
   1 -14  -7    0.25    0.34 
   0 -14  -7    2.97    0.45 
  -1 -14  -7    0.25    0.31 
  -2 -14  -7   -0.29    0.28 
  -3 -14  -7    1.02    0.32 
   3  14   7    0.66    0.43 
  -4 -14  -7    1.54    0.34 
   4  14   7    1.68    0.46 
  -5 -14  -7    0.23    0.26 
   5  14   7   -0.02    0.36 
  -6 -14  -7    0.13    0.25 
   6  14   7    0.26    0.40 
  -7 -14  -7    1.05    0.29 
   7  14   7    1.36    0.47 
  -8 -14  -7    0.27    0.26 
   8  14   7   -0.18    0.35 
  -9 -14  -7    0.15    0.25 
   9  14   7   -0.61    0.34 
 -10 -14  -7    3.08    0.38 
  10  14   7    2.62    0.58 
  11  14   7    0.46    0.46 
  11  14   7    0.63    0.32 
  12  14   7    0.12    0.44 
  13  14   7    1.45    0.57 
  14  14   7   -0.05    0.48 
   2 -15  -7   -0.22    0.36 
   1 -15  -7    2.52    0.49 
   0 -15  -7   -0.10    0.33 
  -1 -15  -7    0.36    0.33 
  -2 -15  -7    0.28    0.33 
  -3 -15  -7    0.44    0.31 
  -4 -15  -7    0.15    0.27 
   4  15   7   -0.22    0.37 
  -5 -15  -7    1.53    0.34 
   5  15   7    1.49    0.50 
  -6 -15  -7    0.04    0.26 
   6  15   7   -0.15    0.39 
  -7 -15  -7    0.15    0.26 
   7  15   7   -0.21    0.44 
  -8 -15  -7    0.95    0.31 
   8  15   7    0.52    0.45 
  -9 -15  -7    0.62    0.29 
   9  15   7    0.13    0.42 
 -10 -15  -7   -0.04    0.27 
  10  15   7   -0.10    0.43 
  11  15   7    0.41    0.46 
  12  15   7    0.40    0.50 
  13  15   7    0.27    0.51 
   0 -16  -7   -0.37    0.32 
  -1 -16  -7    0.62    0.36 
  -2 -16  -7   -0.24    0.31 
  -3 -16  -7    0.36    0.32 
  -4 -16  -7   -0.25    0.28 
   4  16   7   -0.01    0.40 
  -5 -16  -7    0.52    0.32 
   5  16   7    0.99    0.51 
  -6 -16  -7    1.03    0.35 
   6  16   7    1.05    0.53 
  -7 -16  -7    0.26    0.29 
   7  16   7    0.85    0.48 
  -8 -16  -7   -0.04    0.27 
   8  16   7    0.77    0.52 
  -9 -16  -7    0.05    0.29 
   9  16   7    0.02    0.44 
  10  16   7    0.35    0.47 
  11  16   7   -0.14    0.41 
  12  16   7   -0.18    0.47 
  -2 -17  -7   -0.07    0.33 
  -3 -17  -7    0.07    0.34 
  -4 -17  -7    0.08    0.33 
   4  17   7    0.32    0.51 
  -5 -17  -7    1.98    0.42 
   5  17   7    1.55    0.56 
  -6 -17  -7    0.07    0.32 
   6  17   7   -0.87    0.41 
  -7 -17  -7    0.13    0.33 
   7  17   7    0.61    0.50 
  -8 -17  -7   -0.15    0.30 
   8  17   7    0.37    0.51 
   9  17   7    0.55    0.51 
  10  17   7   -0.07    0.48 
  11  17   7    1.05    0.50 
  -5 -18  -7   -0.32    0.32 
   5  18   7   -0.14    0.51 
  -6 -18  -7    0.73    0.37 
   6  18   7    0.35    0.51 
   7  18   7   -0.03    0.52 
   8  18   7    0.46    0.56 
   9  18   7    0.25    0.52 
   8  17  -8   -0.71    0.42 
   8  17  -8    0.17    0.35 
   7  17  -8    0.27    0.34 
   6  17  -8    0.20    0.35 
   5  17  -8   -0.09    0.34 
   4  17  -8    0.79    0.41 
   3  17  -8   -0.02    0.38 
   2  17  -8    1.15    0.46 
  10  16  -8    0.18    0.44 
   9  16  -8    0.43    0.44 
   9  16  -8    0.05    0.33 
   8  16  -8    0.59    0.35 
   8  16  -8    0.58    0.43 
   7  16  -8    0.56    0.33 
   7  16  -8    0.66    0.42 
   6  16  -8    0.66    0.34 
   5  16  -8   -0.55    0.30 
   4  16  -8    0.44    0.36 
   3  16  -8    0.61    0.39 
   2  16  -8    0.04    0.38 
   1  16  -8    0.93    0.45 
   0  16  -8   -0.28    0.39 
  -1  16  -8    0.17    0.42 
  11  15  -8    0.39    0.47 
  11  15  -8   -0.38    0.31 
  10  15  -8   -0.18    0.41 
  10  15  -8   -0.09    0.32 
   9  15  -8    0.91    0.35 
   9  15  -8    1.16    0.44 
   8  15  -8   -0.07    0.34 
   8  15  -8    0.33    0.32 
   7  15  -8    1.53    0.37 
   7  15  -8    1.04    0.41 
   6  15  -8    1.59    0.36 
   6  15  -8    0.85    0.39 
   5  15  -8    1.63    0.37 
   4  15  -8   -0.05    0.32 
   3  15  -8    0.39    0.33 
   2  15  -8   -0.06    0.36 
   1  15  -8   -0.12    0.35 
   0  15  -8    0.24    0.40 
  -1  15  -8   -0.20    0.36 
  -2  15  -8    0.32    0.42 
  12  14  -8   -0.20    0.42 
  11  14  -8    1.88    0.53 
  10  14  -8    0.79    0.42 
  10  14  -8    0.28    0.32 
   9  14  -8    0.92    0.42 
   9  14  -8    0.09    0.29 
   8  14  -8    0.10    0.34 
   8  14  -8    0.40    0.30 
   7  14  -8   -0.26    0.30 
   7  14  -8    0.08    0.30 
   6  14  -8    0.94    0.36 
   6  14  -8    0.89    0.33 
   5  14  -8   -0.23    0.30 
   5  14  -8    0.02    0.30 
   4  14  -8    0.46    0.32 
   3  14  -8    2.22    0.40 
   2  14  -8    0.36    0.34 
   1  14  -8    0.70    0.39 
   0  14  -8   -0.24    0.34 
  -1  14  -8   -0.01    0.39 
  -2  14  -8    0.32    0.37 
  -3  14  -8   -0.04    0.41 
  -4  14  -8    0.04    0.44 
  12  13  -8   -0.32    0.42 
  11  13  -8    0.29    0.41 
  10  13  -8    1.02    0.43 
   9  13  -8    0.69    0.32 
   9  13  -8    1.42    0.42 
   8  13  -8   -0.54    0.27 
   8  13  -8   -0.15    0.28 
   7  13  -8    0.40    0.33 
   7  13  -8    0.31    0.30 
   6  13  -8    1.20    0.32 
   6  13  -8    1.79    0.37 
   5  13  -8    0.16    0.30 
   5  13  -8    0.23    0.29 
   4  13  -8    0.38    0.29 
   4  13  -8   -0.01    0.27 
   3  13  -8    0.12    0.29 
   2  13  -8    0.50    0.32 
   1  13  -8   -0.36    0.30 
   0  13  -8    0.49    0.34 
  -1  13  -8    2.78    0.47 
  -2  13  -8    0.04    0.35 
  -3  13  -8    0.83    0.41 
   3 -13   8   -0.25    0.33 
  -4  13  -8    0.51    0.45 
   4 -13   8    0.15    0.35 
  -5  13  -8    0.36    0.41 
   5 -13   8    0.05    0.36 
  13  12  -8    1.38    0.53 
  12  12  -8    0.79    0.44 
  11  12  -8   -0.01    0.38 
  10  12  -8    2.13    0.45 
   9  12  -8    0.20    0.35 
   8  12  -8    0.33    0.32 
   8  12  -8    0.51    0.28 
   7  12  -8    3.43    0.44 
   7  12  -8    4.05    0.42 
   6  12  -8    2.01    0.34 
   6  12  -8    1.86    0.37 
   5  12  -8    4.13    0.45 
   5  12  -8    4.09    0.43 
   4  12  -8    2.16    0.36 
   4  12  -8    3.20    0.39 
   3  12  -8    0.13    0.24 
   3  12  -8    0.38    0.27 
   2  12  -8    0.47    0.31 
   1  12  -8    0.24    0.31 
   0  12  -8    0.15    0.30 
  -1  12  -8    0.62    0.33 
  -2  12  -8    0.62    0.37 
   2 -12   8    0.45    0.30 
  -3  12  -8    1.99    0.46 
   3 -12   8    1.93    0.41 
  -4  12  -8    1.03    0.43 
   4 -12   8    0.94    0.38 
  -5  12  -8    0.06    0.40 
   5 -12   8   -0.07    0.33 
  -6  12  -8   -0.23    0.42 
   6 -12   8   -0.21    0.34 
  13  11  -8    0.64    0.47 
  12  11  -8    2.15    0.51 
  11  11  -8   -0.14    0.35 
  10  11  -8    0.04    0.36 
   9  11  -8    2.59    0.44 
   8  11  -8    0.54    0.32 
   7  11  -8    1.36    0.34 
   6  11  -8    3.60    0.41 
   6  11  -8    3.14    0.37 
   5  11  -8    4.78    0.47 
   5  11  -8    5.75    0.46 
   4  11  -8    3.35    0.38 
   4  11  -8    3.12    0.38 
   3  11  -8    2.11    0.30 
   3  11  -8    2.54    0.35 
   2  11  -8    7.39    0.54 
   2  11  -8    7.42    0.57 
   1  11  -8    3.24    0.40 
   0  11  -8    2.68    0.39 
  -1  11  -8    2.20    0.38 
   1 -11   8    2.17    0.35 
  -2  11  -8    0.20    0.31 
   2 -11   8    0.28    0.26 
  -3  11  -8   -0.13    0.32 
   3 -11   8   -0.07    0.26 
  -4  11  -8   -0.13    0.35 
   4 -11   8   -0.16    0.29 
  -5  11  -8   -0.24    0.35 
   5 -11   8   -0.06    0.30 
  -6  11  -8    1.03    0.48 
   6 -11   8    1.31    0.43 
   7 -11   8   -0.29    0.34 
  13  10  -8    0.83    0.46 
  12  10  -8    2.39    0.51 
  11  10  -8    3.47    0.54 
  10  10  -8    6.37    0.64 
   9  10  -8    2.63    0.44 
   8  10  -8    1.97    0.37 
   7  10  -8   10.62    0.77 
   6  10  -8    2.38    0.35 
   5  10  -8    0.79    0.26 
   5  10  -8    1.11    0.28 
   4  10  -8    0.05    0.21 
   4  10  -8   -0.04    0.24 
   3  10  -8    0.08    0.18 
   3  10  -8    0.05    0.24 
   2  10  -8    2.55    0.35 
   2  10  -8    2.29    0.29 
   1  10  -8    5.37    0.47 
   0  10  -8    1.35    0.31 
   0 -10   8    1.75    0.24 
  -1  10  -8    3.71    0.42 
   1 -10   8    3.62    0.38 
  -2  10  -8    1.53    0.36 
   2 -10   8    1.16    0.29 
  -3  10  -8    0.88    0.36 
   3 -10   8    0.73    0.30 
  -4  10  -8    0.17    0.33 
   4 -10   8   -0.03    0.27 
  -5  10  -8    0.09    0.38 
   5 -10   8   -0.01    0.30 
  -6  10  -8    0.52    0.40 
   6 -10   8    0.12    0.33 
  -7  10  -8    0.02    0.41 
   7 -10   8   -0.04    0.35 
   8 -10   8   -0.03    0.38 
  14   9  -8    0.38    0.45 
  13   9  -8   -0.38    0.37 
  12   9  -8    0.45    0.41 
  11   9  -8   -0.17    0.38 
  10   9  -8    0.00    0.32 
   9   9  -8    0.19    0.30 
   8   9  -8    4.09    0.48 
   7   9  -8    0.78    0.30 
   6   9  -8    4.94    0.46 
   5   9  -8   -0.10    0.21 
   4   9  -8    2.43    0.29 
   4   9  -8    2.18    0.32 
   3   9  -8    1.46    0.27 
   3   9  -8    1.38    0.24 
   2   9  -8    4.46    0.36 
   2   9  -8    3.79    0.39 
   1   9  -8    2.70    0.35 
   1   9  -8    2.31    0.27 
  -1  -9   8    2.36    0.24 
   0   9  -8    1.13    0.28 
   0  -9   8    1.63    0.23 
  -1   9  -8    1.00    0.31 
   1  -9   8    0.92    0.22 
  -2   9  -8    0.24    0.27 
   2  -9   8    0.33    0.23 
  -3   9  -8    0.44    0.30 
   3  -9   8    0.23    0.24 
  -4   9  -8    8.43    0.64 
   4  -9   8    6.76    0.61 
  -5   9  -8    1.11    0.40 
   5  -9   8    1.38    0.37 
  -6   9  -8    1.41    0.44 
   6  -9   8    0.53    0.33 
  -7   9  -8   -0.25    0.38 
   7  -9   8   -0.31    0.29 
   8  -9   8    0.28    0.38 
   9  -9   8    0.70    0.44 
  14   8  -8    1.41    0.50 
  13   8  -8    7.50    0.76 
  12   8  -8    4.22    0.60 
  11   8  -8    0.57    0.40 
  10   8  -8    4.18    0.52 
   9   8  -8    6.29    0.59 
   8   8  -8    2.47    0.40 
   7   8  -8    7.45    0.60 
   6   8  -8    1.34    0.28 
   5   8  -8    2.23    0.30 
   4   8  -8    4.06    0.37 
   3   8  -8   22.40    1.16 
   3   8  -8   23.46    1.23 
   2   8  -8   29.03    1.42 
   2   8  -8   27.94    1.48 
  -2  -8   8   29.33    1.31 
   1   8  -8   17.58    0.94 
   1   8  -8   18.26    0.95 
  -1  -8   8   16.77    0.85 
   0   8  -8    3.07    0.27 
   0   8  -8    3.07    0.34 
   0  -8   8    3.08    0.28 
  -1   8  -8    0.04    0.22 
   1  -8   8    0.12    0.15 
  -2   8  -8    1.24    0.32 
   2  -8   8    1.41    0.25 
  -3   8  -8    0.77    0.31 
   3  -8   8    0.67    0.25 
  -4   8  -8    1.02    0.35 
   4  -8   8    1.00    0.29 
  -5   8  -8    0.19    0.33 
   5  -8   8   -0.06    0.24 
  -6   8  -8    2.00    0.42 
   6  -8   8    0.98    0.34 
  -7   8  -8    2.41    0.45 
   7  -8   8    0.99    0.36 
   8  -8   8   -0.06    0.32 
   9  -8   8    0.19    0.35 
  10  -8   8   -0.17    0.40 
  14   7  -8    0.06    0.41 
  13   7  -8   -0.29    0.39 
  12   7  -8   -0.17    0.36 
  11   7  -8    0.71    0.38 
  10   7  -8    2.03    0.42 
   9   7  -8    8.92    0.72 
   8   7  -8   -0.03    0.28 
   7   7  -8    0.33    0.27 
   6   7  -8    3.33    0.38 
   5   7  -8    5.43    0.46 
   4   7  -8    1.47    0.23 
   3   7  -8    2.96    0.30 
   3   7  -8    2.74    0.28 
   2   7  -8    3.04    0.34 
   2   7  -8    4.02    0.32 
  -2  -7   8    3.92    0.25 
   1   7  -8    0.23    0.13 
   1   7  -8    0.17    0.19 
  -1  -7   8    0.11    0.11 
   0   7  -8    3.92    0.38 
   0   7  -8    4.37    0.31 
   0  -7   8    4.26    0.31 
  -1   7  -8    1.79    0.29 
   1  -7   8    1.69    0.22 
  -2   7  -8   17.20    0.95 
   2  -7   8   16.89    0.90 
  -3   7  -8    0.63    0.27 
   3  -7   8    0.31    0.21 
  -4   7  -8    6.75    0.55 
   4  -7   8    5.75    0.50 
  -5   7  -8    0.61    0.32 
   5  -7   8    0.59    0.26 
  -6   7  -8   -0.03    0.30 
   6  -7   8    0.00    0.26 
  -7   7  -8    0.67    0.38 
   7  -7   8    0.91    0.34 
   8  -7   8    2.20    0.47 
   9  -7   8    0.43    0.36 
  10  -7   8    0.37    0.38 
  14   6  -8   -0.49    0.38 
  13   6  -8    0.86    0.47 
  12   6  -8    1.66    0.45 
  11   6  -8    0.48    0.39 
  10   6  -8    8.11    0.72 
   9   6  -8    3.82    0.48 
   8   6  -8   10.59    0.76 
   7   6  -8   21.21    1.22 
   6   6  -8   21.01    1.19 
   5   6  -8   12.53    0.77 
   4   6  -8   23.04    1.24 
   3   6  -8   36.40    1.85 
  -3  -6   8   36.54    1.61 
   2   6  -8    0.96    0.18 
   2   6  -8    0.68    0.19 
  -2  -6   8    0.95    0.12 
   1   6  -8    0.69    0.20 
   1   6  -8    0.38    0.13 
  -1  -6   8    0.37    0.11 
   0   6  -8    4.95    0.33 
   0   6  -8    5.39    0.39 
   0  -6   8    4.63    0.32 
  -1   6  -8   11.60    0.66 
  -1   6  -8   11.59    0.61 
   1  -6   8   10.82    0.61 
  -2   6  -8   30.18    1.46 
   2  -6   8   28.39    1.40 
  -3   6  -8    2.53    0.35 
   3  -6   8    2.80    0.30 
  -4   6  -8    4.66    0.45 
   4  -6   8    5.04    0.44 
  -5   6  -8    4.63    0.46 
   5  -6   8    5.18    0.46 
  -6   6  -8    0.93    0.31 
   6  -6   8    0.98    0.31 
  -7   6  -8   -0.13    0.28 
   7  -6   8    0.43    0.29 
  -8   6  -8    0.13    0.34 
   8  -6   8    0.19    0.31 
   9  -6   8   -0.19    0.30 
  10  -6   8    0.80    0.41 
  11  -6   8    0.42    0.41 
  13   5  -8    0.30    0.42 
  12   5  -8   -0.05    0.36 
  11   5  -8    0.10    0.34 
  10   5  -8   -0.12    0.31 
   9   5  -8    1.38    0.39 
   8   5  -8    0.05    0.29 
   7   5  -8    6.24    0.55 
   6   5  -8    0.20    0.22 
   5   5  -8    0.61    0.22 
   4   5  -8    0.93    0.09 
   4   5  -8    0.61    0.19 
   3   5  -8    4.69    0.37 
   2   5  -8    0.24    0.14 
  -2  -5   8    0.23    0.09 
   1   5  -8    1.05    0.16 
   1   5  -8    0.85    0.19 
  -1  -5   8    0.85    0.13 
   0   5  -8    0.21    0.11 
   0   5  -8   -0.06    0.16 
   0  -5   8   -0.07    0.10 
  -1   5  -8   13.22    0.74 
  -1   5  -8   13.73    0.71 
   1  -5   8   13.97    0.70 
  -2   5  -8    8.61    0.45 
  -2   5  -8    8.70    0.54 
   2  -5   8    8.55    0.51 
  -3   5  -8    0.05    0.20 
   3  -5   8    0.11    0.15 
  -4   5  -8    1.83    0.30 
   4  -5   8    1.28    0.25 
  -5   5  -8    3.15    0.38 
   5  -5   8    2.55    0.33 
  -6   5  -8    3.67    0.43 
   6  -5   8    3.50    0.41 
  -7   5  -8    0.10    0.30 
   7  -5   8   -0.01    0.24 
  -8   5  -8    5.42    0.52 
   8  -5   8    4.77    0.54 
   9  -5   8   -0.22    0.28 
  10  -5   8    0.74    0.39 
  11  -5   8    0.68    0.39 
  12  -5   8   -0.11    0.38 
  13   4  -8    1.81    0.51 
  12   4  -8    5.16    0.64 
  11   4  -8    7.41    0.72 
  10   4  -8   11.37    0.85 
   9   4  -8    3.76    0.49 
   8   4  -8    9.98    0.73 
   7   4  -8   24.01    1.36 
   6   4  -8   10.76    0.73 
   5   4  -8    0.82    0.12 
   5   4  -8    0.79    0.22 
   4   4  -8   11.23    0.66 
   4   4  -8   10.48    0.51 
   3   4  -8    4.80    0.37 
   3   4  -8    4.60    0.25 
   2   4  -8    9.32    0.57 
  -2  -4   8    9.72    0.48 
   1   4  -8   26.47    1.34 
  -1  -4   8   26.39    1.21 
   0   4  -8  155.32    6.93 
   0   4  -8  156.87    7.46 
  -1   4  -8   39.67    1.90 
  -1   4  -8   38.42    1.83 
   1  -4   8   38.56    1.78 
  -2   4  -8   22.57    1.10 
  -2   4  -8   21.76    1.07 
   2  -4   8   21.50    1.06 
  -3   4  -8    2.02    0.27 
   3  -4   8    2.10    0.24 
  -4   4  -8    0.91    0.23 
   4  -4   8    0.49    0.18 
  -5   4  -8   -0.03    0.24 
   5  -4   8    0.06    0.18 
  -6   4  -8    0.94    0.29 
   6  -4   8    0.78    0.25 
  -7   4  -8   -0.01    0.26 
   7  -4   8    0.01    0.23 
  -8   4  -8    0.06    0.30 
   8  -4   8   -0.08    0.23 
   9  -4   8    0.39    0.32 
  10  -4   8    4.63    0.56 
  11  -4   8    2.47    0.49 
  12  -4   8   -0.18    0.37 
  13   3  -8    0.59    0.45 
  12   3  -8   -0.45    0.39 
  11   3  -8    0.27    0.38 
  10   3  -8   -0.05    0.34 
   9   3  -8   -0.05    0.29 
   8   3  -8    0.64    0.31 
   7   3  -8   10.18    0.73 
   6   3  -8    5.63    0.49 
   6   3  -8    5.37    0.34 
   5   3  -8    5.71    0.32 
   5   3  -8    5.18    0.45 
   4   3  -8    0.47    0.11 
   4   3  -8    0.31    0.18 
   3   3  -8    0.27    0.15 
   3   3  -8    0.29    0.09 
   2   3  -8    1.01    0.17 
  -2  -3   8    1.14    0.13 
   1   3  -8  102.94    5.03 
  -1  -3   8  105.86    4.56 
   0   3  -8    0.33    0.12 
   0   3  -8    0.36    0.16 
  -1   3  -8   21.45    1.04 
  -1   3  -8   21.02    1.06 
   1  -3   8   21.24    1.01 
  -2   3  -8   22.89    1.14 
  -2   3  -8   23.67    1.15 
   2  -3   8   23.48    1.12 
  -3   3  -8    0.23    0.16 
   3  -3   8    0.27    0.14 
  -4   3  -8    1.85    0.25 
   4  -3   8    2.14    0.26 
  -5   3  -8    2.59    0.30 
   5  -3   8    2.07    0.28 
  -6   3  -8    0.09    0.23 
   6  -3   8   -0.13    0.19 
  -7   3  -8    5.26    0.46 
   7  -3   8    4.75    0.46 
  -8   3  -8    2.15    0.36 
   8  -3   8    1.37    0.32 
   9  -3   8    1.10    0.33 
  10  -3   8    1.35    0.38 
  11  -3   8    1.96    0.45 
  12  -3   8    0.03    0.38 
  13  -3   8    0.23    0.43 
  13   2  -8    3.75    0.61 
  12   2  -8    3.64    0.58 
  11   2  -8    0.62    0.40 
  10   2  -8    0.22    0.34 
   9   2  -8    0.19    0.33 
   8   2  -8    1.33    0.35 
   7   2  -8    2.28    0.26 
   7   2  -8    2.22    0.35 
   6   2  -8   21.75    1.16 
   6   2  -8   18.58    0.95 
   5   2  -8   34.91    1.84 
   5   2  -8   35.49    1.60 
   4   2  -8   51.28    2.31 
   4   2  -8   53.22    2.62 
   3   2  -8   58.10    2.58 
   3   2  -8   59.46    2.91 
   2   2  -8   49.56    2.48 
  -2  -2   8   50.33    2.22 
   1   2  -8   34.62    1.70 
  -1  -2   8   33.26    1.54 
   0   2  -8   97.84    4.75 
   0  -2   8   99.84    4.33 
  -1   2  -8    3.54    0.27 
  -1   2  -8    3.17    0.23 
   1  -2   8    3.03    0.24 
  -2   2  -8    6.04    0.38 
  -2   2  -8    5.39    0.32 
   2  -2   8    5.87    0.37 
  -3   2  -8    7.76    0.47 
  -3   2  -8    8.36    0.42 
   3  -2   8    7.50    0.47 
  -4   2  -8    3.41    0.31 
   4  -2   8    3.30    0.29 
  -5   2  -8    6.35    0.44 
   5  -2   8    5.52    0.43 
  -6   2  -8   16.61    0.86 
   6  -2   8   14.84    0.86 
  -7   2  -8   17.76    0.94 
   7  -2   8   16.42    0.95 
  -8   2  -8   10.13    0.64 
   8  -2   8    9.90    0.70 
   9  -2   8    0.56    0.29 
  10  -2   8    1.18    0.36 
  11  -2   8   -0.02    0.31 
  12  -2   8   -0.38    0.33 
  13  -2   8   -0.22    0.37 
  13   1  -8    0.26    0.45 
  12   1  -8    0.54    0.44 
  11   1  -8    0.71    0.42 
  10   1  -8    1.00    0.40 
   9   1  -8    0.68    0.31 
   8   1  -8    0.63    0.22 
   8   1  -8    0.31    0.31 
   7   1  -8    0.50    0.20 
   7   1  -8    0.46    0.30 
   6   1  -8    0.17    0.16 
   6   1  -8    0.44    0.24 
   5   1  -8    1.53    0.19 
   5   1  -8    1.33    0.28 
   4   1  -8    1.89    0.27 
   4   1  -8    1.81    0.19 
   3   1  -8    0.34    0.16 
   3   1  -8    0.73    0.13 
   2   1  -8    0.11    0.09 
   2   1  -8    0.04    0.13 
  -1  -1   8   13.49    0.67 
   0  -1   8    7.84    0.44 
  -1   1  -8   16.78    0.83 
   1  -1   8   16.58    0.81 
  -2   1  -8   29.18    1.39 
   2  -1   8   30.37    1.39 
  -3   1  -8    4.45    0.31 
   3  -1   8    3.87    0.31 
  -4   1  -8    9.47    0.55 
   4  -1   8   10.06    0.57 
  -5   1  -8   12.18    0.69 
   5  -1   8   13.35    0.71 
  -6   1  -8    2.01    0.25 
   6  -1   8    1.71    0.26 
  -7   1  -8    1.11    0.23 
   7  -1   8    1.28    0.27 
  -8   1  -8    9.42    0.60 
   8  -1   8    9.02    0.63 
   9  -1   8    1.57    0.34 
  10  -1   8    0.99    0.33 
  11  -1   8    0.94    0.38 
  12  -1   8    0.01    0.34 
  13  -1   8   -0.05    0.38 
  12   0  -8    0.11    0.40 
  11   0  -8    0.07    0.39 
  10   0  -8    2.55    0.48 
   9   0  -8    6.07    0.52 
   9   0  -8    6.49    0.62 
   8   0  -8    2.87    0.43 
   8   0  -8    3.57    0.39 
   7   0  -8   15.81    0.87 
   7   0  -8   18.04    1.05 
   6   0  -8   32.39    1.72 
   6   0  -8   31.44    1.50 
   5   0  -8   28.42    1.34 
   5   0  -8   28.49    1.53 
   4   0  -8   18.49    0.89 
   4   0  -8   17.83    1.02 
   3   0  -8    9.27    0.50 
   2   0  -8   -0.07    0.10 
  -1   0   8   14.27    0.71 
   0   0   8    2.38    0.21 
   1   0   8   74.61    3.30 
  -2   0  -8   18.13    0.88 
   2   0   8   18.00    0.88 
  -3   0  -8   65.64    3.00 
   3   0   8   68.21    2.99 
  -4   0  -8   55.05    2.52 
   4   0   8   55.91    2.51 
  -5   0  -8   32.53    1.55 
   5   0   8   33.68    1.57 
  -6   0  -8   25.45    1.28 
   6   0   8   26.41    1.30 
   6   0   8   27.16    1.31 
  -7   0  -8    0.97    0.22 
   7   0   8    1.59    0.27 
   8   0   8    0.27    0.22 
   9   0   8    1.21    0.32 
  10   0   8    0.55    0.29 
  11   0   8    0.12    0.31 
  12   0   8    1.47    0.40 
  13   0   8    3.73    0.55 
  14   0   8    2.05    0.49 
  12  -1  -8    0.52    0.44 
  11  -1  -8    0.18    0.39 
  10  -1  -8   -0.01    0.31 
  10  -1  -8    0.37    0.37 
   9  -1  -8    0.60    0.32 
   9  -1  -8    0.34    0.34 
   8  -1  -8    0.13    0.28 
   8  -1  -8    0.35    0.26 
   7  -1  -8    0.67    0.25 
   7  -1  -8    1.01    0.32 
   6  -1  -8    5.14    0.39 
   6  -1  -8    4.23    0.44 
   5  -1  -8    3.86    0.39 
   5  -1  -8    4.41    0.35 
   4  -1  -8    6.07    0.40 
   3  -1  -8    0.00    0.12 
   2  -1  -8    2.08    0.20 
   1  -1  -8   27.09    1.25 
   0   1   8   10.15    0.55 
   1   1   8    2.39    0.23 
  -2  -1  -8   21.64    1.04 
   2   1   8   22.72    1.07 
  -3  -1  -8    0.10    0.10 
   3   1   8    0.29    0.12 
  -4  -1  -8    1.58    0.17 
   4   1   8    1.40    0.20 
  -5  -1  -8    0.94    0.17 
   5   1   8    0.79    0.13 
   5   1   8    0.91    0.19 
  -6  -1  -8    0.41    0.15 
   6   1   8    0.09    0.11 
   6   1   8    0.23    0.16 
  -7  -1  -8    0.30    0.17 
   7   1   8    0.38    0.13 
   7   1   8    0.13    0.19 
   8   1   8    1.08    0.27 
   9   1   8   -0.09    0.22 
  10   1   8    1.79    0.36 
  11   1   8   -0.05    0.29 
  12   1   8    0.10    0.31 
  13   1   8    0.10    0.33 
  14   1   8    0.21    0.38 
  12  -2  -8    0.09    0.42 
  11  -2  -8    2.37    0.49 
  10  -2  -8    3.33    0.52 
  10  -2  -8    3.82    0.51 
   9  -2  -8    4.53    0.50 
   9  -2  -8    4.73    0.55 
   8  -2  -8    0.14    0.28 
   8  -2  -8   -0.08    0.27 
   7  -2  -8    0.28    0.26 
   7  -2  -8    0.16    0.24 
   6  -2  -8    5.30    0.43 
   6  -2  -8    4.81    0.47 
   5  -2  -8    1.22    0.23 
   4  -2  -8   14.17    0.75 
   3  -2  -8   24.84    1.19 
   2  -2  -8   15.57    0.78 
   1  -2  -8   35.45    1.62 
   0   2   8   50.49    2.28 
   1   2   8  168.82    7.36 
   2   2   8   11.39    0.61 
  -3  -2  -8   23.56    1.09 
   3   2   8   23.53    1.13 
  -4  -2  -8    7.77    0.42 
   4   2   8    7.65    0.46 
  -5  -2  -8    0.12    0.12 
   5   2   8    0.14    0.11 
   5   2   8    0.00    0.13 
  -6  -2  -8    3.29    0.25 
   6   2   8    3.10    0.30 
   6   2   8    3.25    0.28 
  -7  -2  -8   22.62    1.10 
   7   2   8   23.13    1.21 
   7   2   8   23.08    1.17 
   8   2   8    4.52    0.42 
   8   2   8    4.37    0.36 
   9   2   8    5.68    0.49 
  10   2   8    7.16    0.58 
  11   2   8    6.14    0.58 
  12   2   8    3.98    0.50 
  13   2   8    1.43    0.42 
  14   2   8    0.52    0.40 
  11  -3  -8    1.08    0.46 
  11  -3  -8    0.57    0.40 
  10  -3  -8    0.45    0.39 
  10  -3  -8    0.19    0.37 
   9  -3  -8    0.24    0.35 
   9  -3  -8    0.38    0.35 
   8  -3  -8    0.48    0.32 
   8  -3  -8   -0.08    0.29 
   7  -3  -8    7.15    0.58 
   7  -3  -8    6.34    0.54 
   6  -3  -8    0.41    0.25 
   5  -3  -8    0.11    0.21 
   4  -3  -8    0.79    0.22 
   3  -3  -8    1.54    0.23 
   2  -3  -8    0.48    0.16 
   1  -3  -8    4.91    0.34 
   0  -3  -8   30.29    1.40 
   1   3   8   15.74    0.81 
   2   3   8   41.24    1.89 
  -3  -3  -8   60.55    2.75 
   3   3   8   63.26    2.78 
  -4  -3  -8    3.24    0.22 
   4   3   8    3.78    0.31 
   4   3   8    3.59    0.30 
  -5  -3  -8    0.00    0.10 
   5   3   8    0.09    0.13 
   5   3   8    0.01    0.11 
  -6  -3  -8    0.72    0.13 
   6   3   8    0.60    0.18 
   6   3   8    0.55    0.16 
   7   3   8    1.75    0.26 
   7   3   8    1.10    0.21 
   8   3   8   13.19    0.74 
   8   3   8   12.07    0.76 
   9   3   8    0.16    0.18 
   9   3   8   -0.01    0.22 
  10   3   8    0.18    0.24 
  11   3   8    2.13    0.38 
  12   3   8    0.79    0.32 
  13   3   8    0.32    0.35 
  14   3   8    0.30    0.35 
  15   3   8   -0.10    0.39 
  11  -4  -8    0.06    0.44 
  11  -4  -8    0.30    0.39 
  10  -4  -8    0.59    0.44 
  10  -4  -8    0.84    0.41 
   9  -4  -8   -0.20    0.35 
   9  -4  -8    0.14    0.33 
   8  -4  -8    0.60    0.36 
   8  -4  -8    0.72    0.34 
   7  -4  -8    1.01    0.33 
   7  -4  -8    0.63    0.32 
   6  -4  -8   10.32    0.69 
   5  -4  -8    7.09    0.53 
   4  -4  -8    6.02    0.47 
   3  -4  -8   15.01    0.81 
   2  -4  -8   13.01    0.71 
   1  -4  -8   23.15    1.12 
   0  -4  -8   23.31    1.12 
   1   4   8   22.64    1.11 
   2   4   8   36.65    1.71 
  -3  -4  -8   23.90    1.06 
   3   4   8   22.10    1.13 
  -4  -4  -8   17.55    0.83 
   4   4   8   19.57    1.02 
   4   4   8   17.83    0.92 
  -5  -4  -8   11.63    0.56 
   5   4   8   11.63    0.65 
   5   4   8   12.43    0.73 
   6   4   8   21.28    1.10 
   6   4   8   23.46    1.23 
   7   4   8   40.33    2.07 
   7   4   8   39.91    1.89 
   9   4   8    8.44    0.58 
   9   4   8    9.19    0.64 
  10   4   8    0.46    0.25 
  11   4   8    0.97    0.30 
  12   4   8    1.29    0.36 
  13   4   8    0.40    0.34 
  14   4   8    0.32    0.38 
  15   4   8    0.57    0.41 
  10  -5  -8    0.68    0.40 
  10  -5  -8    0.33    0.44 
   9  -5  -8    2.29    0.51 
   9  -5  -8    2.63    0.48 
   8  -5  -8   -0.12    0.32 
   8  -5  -8    0.11    0.35 
   7  -5  -8    0.14    0.30 
   6  -5  -8    0.73    0.31 
   5  -5  -8    0.39    0.27 
   4  -5  -8    0.83    0.26 
   3  -5  -8   -0.13    0.20 
   2  -5  -8    0.59    0.21 
   1  -5  -8    8.47    0.52 
   0  -5  -8    0.04    0.15 
  -1  -5  -8   12.05    0.64 
   2   5   8    2.97    0.28 
   3   5   8    0.95    0.19 
   3   5   8    0.76    0.20 
  -4  -5  -8    0.36    0.08 
   4   5   8    0.51    0.19 
   4   5   8    0.52    0.17 
   5   5   8    3.99    0.38 
   5   5   8    4.19    0.35 
   6   5   8    0.07    0.15 
   6   5   8    0.09    0.14 
   7   5   8   -0.15    0.15 
   7   5   8   -0.11    0.15 
   8   5   8    1.47    0.26 
   8   5   8    1.59    0.29 
   9   5   8    2.23    0.31 
   9   5   8    1.45    0.31 
  10   5   8    0.29    0.18 
  10   5   8    0.32    0.25 
  11   5   8    0.32    0.26 
  12   5   8    0.08    0.27 
  13   5   8    0.12    0.31 
  14   5   8    0.25    0.36 
  15   5   8    0.56    0.42 
  10  -6  -8    0.01    0.38 
  10  -6  -8    0.32    0.47 
   9  -6  -8    0.54    0.45 
   9  -6  -8    0.66    0.39 
   8  -6  -8    0.89    0.42 
   8  -6  -8    1.23    0.40 
   7  -6  -8    2.15    0.44 
   6  -6  -8    1.98    0.40 
   5  -6  -8   -0.06    0.26 
   4  -6  -8    0.06    0.24 
   3  -6  -8    3.50    0.39 
   2  -6  -8    5.19    0.44 
   1  -6  -8   -0.01    0.18 
   0  -6  -8   26.95    1.30 
  -1  -6  -8   18.26    0.93 
  -2  -6  -8   29.01    1.37 
   3   6   8   33.50    1.79 
   3   6   8   34.39    1.62 
   4   6   8   36.84    1.76 
   4   6   8   37.63    1.96 
   5   6   8    2.99    0.35 
   5   6   8    2.99    0.29 
   6   6   8    4.94    0.44 
   6   6   8    3.86    0.36 
   7   6   8    6.94    0.49 
   7   6   8    7.31    0.56 
   8   6   8    2.05    0.34 
   8   6   8    3.58    0.34 
   9   6   8   -0.05    0.21 
   9   6   8   -0.04    0.19 
  10   6   8    7.15    0.53 
  10   6   8    5.77    0.59 
  11   6   8    1.24    0.37 
  11   6   8    0.90    0.30 
  12   6   8    1.11    0.33 
  13   6   8    3.29    0.46 
  14   6   8    6.19    0.62 
  15   6   8    3.36    0.54 
   9  -7  -8    0.03    0.37 
   9  -7  -8    0.22    0.46 
   8  -7  -8    1.11    0.40 
   8  -7  -8    1.20    0.45 
   7  -7  -8    0.05    0.37 
   6  -7  -8    0.77    0.37 
   5  -7  -8    0.13    0.29 
   4  -7  -8    5.61    0.50 
   3  -7  -8    2.65    0.38 
   2  -7  -8    2.02    0.32 
   1  -7  -8    5.24    0.43 
   0  -7  -8    1.03    0.23 
  -1  -7  -8    1.03    0.22 
  -2  -7  -8    1.15    0.22 
  -3  -7  -8    0.49    0.18 
   3   7   8    0.22    0.19 
   4   7   8   -0.10    0.18 
   4   7   8   -0.01    0.15 
   5   7   8    0.64    0.23 
   5   7   8    1.00    0.23 
   6   7   8    1.17    0.23 
   6   7   8    1.66    0.31 
   7   7   8    4.20    0.38 
   7   7   8    4.62    0.46 
   8   7   8    1.80    0.27 
   8   7   8    1.98    0.37 
   9   7   8    2.15    0.39 
   9   7   8    2.34    0.32 
  10   7   8    0.00    0.22 
  10   7   8    0.01    0.27 
  11   7   8    5.81    0.51 
  11   7   8    6.40    0.64 
  12   7   8   -0.19    0.25 
  12   7   8    0.02    0.32 
  13   7   8    0.03    0.27 
  14   7   8    0.25    0.34 
  15   7   8    0.25    0.38 
   8  -8  -8    0.02    0.36 
   8  -8  -8    0.06    0.44 
   7  -8  -8    0.15    0.41 
   6  -8  -8    0.87    0.40 
   5  -8  -8    1.22    0.38 
   4  -8  -8    1.40    0.38 
   3  -8  -8    6.83    0.56 
   2  -8  -8    6.46    0.54 
   1  -8  -8    0.03    0.23 
   0  -8  -8   10.49    0.65 
  -1  -8  -8   14.64    0.80 
  -2  -8  -8    6.84    0.46 
  -3  -8  -8    0.93    0.21 
   3   8   8    1.16    0.30 
   4   8   8    0.21    0.19 
   4   8   8   -0.03    0.22 
   5   8   8    2.90    0.31 
   5   8   8    2.86    0.39 
   6   8   8    0.40    0.21 
   6   8   8    0.39    0.25 
   7   8   8    2.00    0.29 
   7   8   8    2.49    0.39 
   8   8   8    6.88    0.48 
   8   8   8    6.11    0.60 
   9   8   8    4.89    0.44 
   9   8   8    5.73    0.57 
  10   8   8    5.84    0.62 
  10   8   8    6.67    0.52 
  11   8   8    6.50    0.54 
  11   8   8    7.56    0.71 
  12   8   8    8.54    0.80 
  12   8   8    9.09    0.66 
  13   8   8    2.19    0.39 
  14   8   8   -0.10    0.30 
  15   8   8   -0.01    0.35 
   7  -9  -8   -0.30    0.41 
   6  -9  -8    1.60    0.47 
   5  -9  -8   -0.17    0.35 
   4  -9  -8    0.41    0.32 
   3  -9  -8    2.86    0.43 
   2  -9  -8    0.85    0.31 
   1  -9  -8    1.02    0.29 
   0  -9  -8   -0.07    0.21 
  -1  -9  -8    0.32    0.21 
  -2  -9  -8    1.26    0.26 
  -3  -9  -8   -0.17    0.17 
   3   9   8   -0.34    0.23 
  -4  -9  -8    7.96    0.51 
   5   9   8    7.86    0.54 
   5   9   8    6.63    0.61 
   6   9   8    2.01    0.29 
   6   9   8    2.10    0.38 
   7   9   8    3.45    0.46 
   7   9   8    3.12    0.35 
   8   9   8    3.32    0.36 
   8   9   8    3.22    0.47 
   9   9   8    1.89    0.40 
   9   9   8    1.50    0.29 
  10   9   8    0.05    0.23 
  10   9   8   -0.24    0.29 
  11   9   8    1.73    0.45 
  11   9   8    1.45    0.31 
  12   9   8    0.97    0.31 
  12   9   8    0.65    0.39 
  13   9   8    0.00    0.28 
  13   9   8    0.40    0.43 
  14   9   8    0.80    0.35 
  15   9   8   -0.02    0.35 
   7 -10  -8    0.60    0.49 
   6 -10  -8    0.55    0.46 
   5 -10  -8   -0.35    0.35 
   4 -10  -8    0.13    0.35 
   3 -10  -8    1.64    0.38 
   2 -10  -8    0.90    0.35 
   1 -10  -8    0.55    0.28 
   0 -10  -8    0.17    0.25 
  -1 -10  -8    0.17    0.25 
  -2 -10  -8    0.28    0.22 
  -3 -10  -8    4.61    0.40 
   3  10   8    3.48    0.48 
  -4 -10  -8    4.51    0.39 
   4  10   8    4.73    0.52 
  -5 -10  -8    3.61    0.35 
   5  10   8    3.30    0.46 
   6  10   8    2.32    0.32 
   6  10   8    3.73    0.50 
   7  10   8    5.95    0.46 
   7  10   8    4.47    0.56 
   8  10   8    4.57    0.54 
   8  10   8    4.06    0.40 
   9  10   8    4.13    0.56 
   9  10   8    3.73    0.39 
  10  10   8    1.62    0.31 
  10  10   8    1.59    0.43 
  11  10   8    0.56    0.40 
  11  10   8    0.15    0.25 
  12  10   8    0.54    0.29 
  12  10   8    0.22    0.40 
  13  10   8    0.65    0.30 
  13  10   8   -0.11    0.41 
  14  10   8    0.24    0.50 
  14  10   8    0.28    0.32 
  15  10   8    0.97    0.41 
   6 -11  -8    0.34    0.47 
   5 -11  -8    0.78    0.44 
   4 -11  -8    0.25    0.39 
   3 -11  -8   -0.19    0.33 
   2 -11  -8    0.11    0.30 
   1 -11  -8    1.06    0.34 
   0 -11  -8    2.47    0.37 
  -1 -11  -8    0.37    0.25 
  -2 -11  -8    8.70    0.61 
  -3 -11  -8   -0.17    0.21 
   3  11   8    0.11    0.31 
  -4 -11  -8    8.84    0.56 
   4  11   8    7.43    0.70 
  -5 -11  -8   -0.14    0.21 
   5  11   8    0.09    0.31 
  -6 -11  -8    5.89    0.46 
   6  11   8    6.34    0.65 
   7  11   8    0.53    0.36 
   7  11   8    0.67    0.25 
   8  11   8    6.56    0.52 
   8  11   8    6.95    0.69 
   9  11   8    0.33    0.32 
   9  11   8    0.16    0.23 
  10  11   8    0.12    0.36 
  10  11   8   -0.09    0.23 
  11  11   8    4.33    0.45 
  11  11   8    5.06    0.67 
  12  11   8    0.28    0.43 
  12  11   8   -0.04    0.25 
  13  11   8    0.12    0.29 
  13  11   8    0.91    0.47 
  14  11   8    1.75    0.58 
  14  11   8    1.27    0.38 
   5 -12  -8   -0.01    0.44 
   4 -12  -8    0.28    0.44 
   3 -12  -8   -0.31    0.34 
   2 -12  -8    0.09    0.31 
   1 -12  -8   -0.01    0.31 
   0 -12  -8    0.66    0.32 
  -1 -12  -8    1.26    0.34 
  -2 -12  -8    0.44    0.28 
  -3 -12  -8    0.42    0.26 
   3  12   8    0.35    0.37 
  -4 -12  -8    2.75    0.35 
   4  12   8    4.49    0.56 
  -5 -12  -8    1.71    0.30 
   5  12   8    2.41    0.48 
  -6 -12  -8    0.28    0.23 
   6  12   8    0.35    0.34 
  -7 -12  -8    0.07    0.22 
   7  12   8    0.55    0.36 
   8  12   8    0.16    0.34 
   8  12   8    0.11    0.24 
   9  12   8   -0.09    0.32 
   9  12   8    0.20    0.24 
  10  12   8    2.59    0.54 
  10  12   8    1.79    0.32 
  11  12   8    1.08    0.31 
  11  12   8    0.54    0.44 
  12  12   8    0.89    0.47 
  12  12   8    0.72    0.31 
  13  12   8    1.09    0.52 
  13  12   8    0.12    0.28 
  14  12   8    0.42    0.49 
   4 -13  -8    0.57    0.44 
   3 -13  -8    0.60    0.41 
   2 -13  -8    0.11    0.37 
   1 -13  -8   -0.11    0.32 
   0 -13  -8    1.00    0.36 
  -1 -13  -8    0.76    0.33 
  -2 -13  -8   -0.16    0.28 
  -3 -13  -8    0.01    0.27 
  -4 -13  -8    0.64    0.28 
   4  13   8   -0.03    0.37 
  -5 -13  -8    0.10    0.24 
   5  13   8    0.10    0.37 
  -6 -13  -8   -0.05    0.23 
   6  13   8    0.17    0.38 
  -7 -13  -8    0.84    0.29 
   7  13   8    1.16    0.42 
  -8 -13  -8    2.66    0.37 
   8  13   8    3.80    0.58 
  -9 -13  -8   -0.13    0.23 
   9  13   8    0.44    0.40 
  10  13   8    1.21    0.33 
  10  13   8    0.85    0.46 
  11  13   8    0.69    0.30 
  11  13   8    0.85    0.49 
  12  13   8    0.54    0.32 
  12  13   8   -0.07    0.43 
  13  13   8    0.72    0.51 
  14  13   8    2.09    0.62 
   3 -14  -8   -0.50    0.37 
   2 -14  -8    0.22    0.37 
   1 -14  -8    0.07    0.34 
   0 -14  -8    0.17    0.35 
  -1 -14  -8   -0.03    0.31 
  -2 -14  -8    0.58    0.33 
  -3 -14  -8    0.33    0.28 
  -4 -14  -8    0.30    0.30 
   4  14   8    0.77    0.43 
  -5 -14  -8   -0.15    0.27 
   5  14   8   -0.13    0.38 
  -6 -14  -8    0.06    0.25 
   6  14   8   -0.03    0.36 
  -7 -14  -8    0.08    0.25 
   7  14   8    0.23    0.40 
  -8 -14  -8    2.09    0.35 
   8  14   8    2.70    0.54 
  -9 -14  -8    0.93    0.30 
   9  14   8    1.00    0.45 
 -10 -14  -8    0.57    0.30 
  10  14   8    0.32    0.45 
  11  14   8    0.38    0.47 
  11  14   8    0.03    0.31 
  12  14   8    0.61    0.48 
  13  14   8    1.23    0.56 
  14  14   8    1.23    0.57 
   1 -15  -8   -0.35    0.36 
   0 -15  -8    0.24    0.33 
  -1 -15  -8    0.14    0.36 
  -2 -15  -8    0.04    0.30 
  -3 -15  -8    0.74    0.35 
  -4 -15  -8    0.22    0.30 
   4  15   8   -0.97    0.37 
  -5 -15  -8    0.97    0.32 
   5  15   8    1.13    0.50 
  -6 -15  -8    0.33    0.29 
   6  15   8    0.87    0.47 
  -7 -15  -8    1.34    0.34 
   7  15   8    1.69    0.53 
  -8 -15  -8    0.00    0.28 
   8  15   8    0.23    0.42 
  -9 -15  -8    1.16    0.33 
   9  15   8    0.00    0.44 
 -10 -15  -8    0.26    0.30 
  10  15   8    1.03    0.48 
  11  15   8    2.53    0.63 
  12  15   8    0.32    0.49 
  13  15   8    0.76    0.56 
   0 -16  -8    0.34    0.40 
  -1 -16  -8   -0.01    0.35 
  -2 -16  -8   -0.06    0.35 
  -3 -16  -8    0.34    0.36 
  -4 -16  -8   -0.29    0.31 
  -5 -16  -8    0.62    0.33 
   5  16   8    0.72    0.52 
  -6 -16  -8    0.39    0.30 
   6  16   8   -0.11    0.43 
  -7 -16  -8   -0.24    0.29 
   7  16   8    0.03    0.46 
  -8 -16  -8    0.95    0.33 
   8  16   8    1.03    0.51 
  -9 -16  -8    0.44    0.31 
   9  16   8   -0.45    0.42 
  10  16   8    0.42    0.48 
  11  16   8   -0.08    0.46 
  12  16   8    0.13    0.51 
  -3 -17  -8    1.40    0.42 
  -4 -17  -8    0.37    0.36 
  -5 -17  -8    0.20    0.33 
   5  17   8   -0.23    0.48 
  -6 -17  -8    0.23    0.34 
   6  17   8    0.26    0.52 
  -7 -17  -8    0.14    0.34 
   7  17   8   -0.54    0.48 
  -8 -17  -8    0.06    0.32 
   8  17   8   -0.04    0.48 
   9  17   8    0.15    0.48 
  10  17   8    0.52    0.51 
   7  17  -9    1.23    0.39 
   6  17  -9   -0.22    0.34 
   5  17  -9    0.08    0.37 
   4  17  -9   -0.35    0.33 
   3  17  -9    0.07    0.41 
   9  16  -9   -0.13    0.41 
   9  16  -9    0.12    0.33 
   8  16  -9    0.22    0.33 
   8  16  -9    0.56    0.44 
   7  16  -9    0.09    0.42 
   7  16  -9    0.13    0.33 
   6  16  -9   -0.04    0.30 
   5  16  -9   -0.17    0.34 
   4  16  -9    0.57    0.37 
   3  16  -9    1.46    0.43 
   2  16  -9    0.77    0.40 
   1  16  -9   -0.04    0.38 
   0  16  -9    0.82    0.43 
  10  15  -9    0.72    0.36 
  10  15  -9    0.60    0.46 
   9  15  -9    0.86    0.43 
   9  15  -9    0.75    0.36 
   8  15  -9    0.47    0.34 
   8  15  -9    0.82    0.42 
   7  15  -9   -0.11    0.37 
   7  15  -9   -0.13    0.32 
   6  15  -9    0.20    0.32 
   6  15  -9   -0.04    0.34 
   5  15  -9    0.33    0.32 
   4  15  -9    0.31    0.35 
   3  15  -9   -0.36    0.34 
   2  15  -9    0.06    0.35 
   1  15  -9    2.21    0.48 
   0  15  -9    0.29    0.39 
  -1  15  -9    0.65    0.41 
  -2  15  -9    0.61    0.46 
  11  14  -9    0.52    0.44 
  10  14  -9    0.54    0.33 
  10  14  -9   -0.06    0.39 
   9  14  -9    0.82    0.36 
   9  14  -9    0.56    0.40 
   8  14  -9    0.03    0.29 
   8  14  -9   -0.37    0.35 
   7  14  -9    0.70    0.33 
   7  14  -9    0.02    0.33 
   6  14  -9    2.62    0.44 
   6  14  -9    1.41    0.36 
   5  14  -9    0.11    0.31 
   5  14  -9    0.36    0.34 
   4  14  -9   -0.01    0.29 
   3  14  -9    0.96    0.38 
   2  14  -9    0.33    0.35 
   1  14  -9    1.19    0.39 
   0  14  -9    0.00    0.37 
  -1  14  -9   -0.04    0.39 
  -2  14  -9    0.03    0.37 
  -3  14  -9   -0.03    0.42 
  12  13  -9    1.89    0.55 
  11  13  -9    1.01    0.46 
  10  13  -9    0.71    0.41 
   9  13  -9    1.46    0.40 
   9  13  -9    0.74    0.34 
   8  13  -9    0.91    0.34 
   8  13  -9    0.26    0.33 
   7  13  -9    0.07    0.29 
   7  13  -9   -0.37    0.29 
   6  13  -9    0.77    0.33 
   6  13  -9    0.89    0.35 
   5  13  -9    0.36    0.31 
   5  13  -9    0.08    0.30 
   4  13  -9    1.27    0.35 
   3  13  -9   -0.06    0.29 
   2  13  -9    0.68    0.34 
   1  13  -9    0.32    0.33 
   0  13  -9    0.34    0.37 
  -1  13  -9    0.96    0.38 
  -2  13  -9    0.33    0.37 
  -3  13  -9    0.12    0.37 
  -4  13  -9    0.34    0.43 
   4 -13   9   -0.12    0.34 
  -5  13  -9    1.36    0.49 
   5 -13   9    0.41    0.40 
  12  12  -9    1.47    0.52 
  11  12  -9    0.54    0.43 
  10  12  -9   -0.08    0.37 
   9  12  -9    3.18    0.48 
   8  12  -9    1.12    0.34 
   8  12  -9    0.90    0.36 
   7  12  -9   -0.12    0.28 
   7  12  -9    0.08    0.30 
   6  12  -9    0.32    0.30 
   6  12  -9    0.22    0.28 
   5  12  -9    2.84    0.39 
   5  12  -9    3.19    0.42 
   4  12  -9    1.00    0.32 
   4  12  -9    0.33    0.26 
   3  12  -9   -0.15    0.27 
   2  12  -9    0.44    0.31 
   1  12  -9    0.09    0.29 
   0  12  -9    0.55    0.34 
  -1  12  -9    0.03    0.32 
  -2  12  -9   -0.05    0.34 
  -3  12  -9    1.70    0.46 
   3 -12   9    0.81    0.35 
  -4  12  -9    1.19    0.45 
   4 -12   9    1.08    0.39 
  -5  12  -9    0.23    0.40 
   5 -12   9   -0.33    0.31 
  -6  12  -9    1.03    0.50 
   6 -12   9   -0.06    0.36 
  13  11  -9    2.21    0.56 
  12  11  -9    0.17    0.41 
  11  11  -9    0.38    0.39 
  10  11  -9    1.34    0.44 
   9  11  -9    0.50    0.36 
   8  11  -9    0.29    0.32 
   7  11  -9    2.50    0.39 
   6  11  -9    5.40    0.53 
   6  11  -9    6.06    0.51 
   5  11  -9    0.74    0.27 
   5  11  -9    0.60    0.28 
   4  11  -9    0.17    0.25 
   4  11  -9   -0.02    0.23 
   3  11  -9    0.92    0.28 
   3  11  -9    1.35    0.33 
   2  11  -9    1.62    0.34 
   1  11  -9    0.25    0.31 
   0  11  -9   -0.08    0.30 
  -1  11  -9    0.02    0.31 
  -2  11  -9    2.05    0.42 
   2 -11   9    2.27    0.37 
  -3  11  -9    0.44    0.38 
   3 -11   9    0.98    0.32 
  -4  11  -9    0.49    0.39 
   4 -11   9    0.77    0.34 
  -5  11  -9   -0.77    0.39 
   5 -11   9   -0.05    0.32 
  -6  11  -9    0.38    0.47 
   6 -11   9   -0.78    0.29 
  -7  11  -9    0.95    0.49 
   7 -11   9    0.58    0.40 
  13  10  -9    0.25    0.45 
  12  10  -9    0.10    0.41 
  11  10  -9    1.87    0.49 
  10  10  -9    0.39    0.37 
   9  10  -9    1.50    0.40 
   8  10  -9   -0.04    0.29 
   7  10  -9    0.76    0.31 
   6  10  -9    0.61    0.29 
   5  10  -9   -0.01    0.23 
   5  10  -9   -0.03    0.23 
   4  10  -9    3.87    0.39 
   4  10  -9    3.37    0.38 
   3  10  -9    4.75    0.40 
   3  10  -9    3.49    0.41 
   2  10  -9    1.62    0.25 
   2  10  -9    1.48    0.31 
   1  10  -9    0.06    0.27 
   0  10  -9   -0.11    0.27 
  -1  10  -9    4.56    0.47 
   1 -10   9    3.79    0.40 
  -2  10  -9    4.65    0.49 
   2 -10   9    4.95    0.47 
  -3  10  -9   -0.11    0.32 
   3 -10   9    0.07    0.26 
  -4  10  -9    0.14    0.35 
   4 -10   9    0.10    0.28 
  -5  10  -9    0.15    0.37 
   5 -10   9   -0.33    0.28 
  -6  10  -9    0.24    0.43 
   6 -10   9   -0.10    0.31 
  -7  10  -9    0.73    0.47 
   7 -10   9   -0.18    0.33 
   8 -10   9   -0.20    0.36 
  13   9  -9   -0.11    0.44 
  12   9  -9   -0.14    0.42 
  11   9  -9    1.21    0.45 
  10   9  -9    4.61    0.56 
   9   9  -9    2.06    0.43 
   8   9  -9    7.42    0.64 
   7   9  -9    8.79    0.68 
   6   9  -9    5.74    0.52 
   5   9  -9    2.11    0.32 
   4   9  -9    0.33    0.24 
   4   9  -9    0.41    0.23 
   3   9  -9    0.20    0.18 
   3   9  -9   -0.13    0.23 
   2   9  -9    0.71    0.19 
   2   9  -9    1.00    0.28 
   1   9  -9    1.50    0.32 
   1   9  -9    1.61    0.23 
   0   9  -9    0.88    0.29 
   0  -9   9    1.12    0.21 
  -1   9  -9    2.09    0.37 
   1  -9   9    2.36    0.28 
  -2   9  -9    0.59    0.33 
   2  -9   9    0.46    0.23 
  -3   9  -9    0.26    0.31 
   3  -9   9    0.24    0.24 
  -4   9  -9    2.68    0.45 
   4  -9   9    2.47    0.41 
  -5   9  -9    0.47    0.36 
   5  -9   9    0.39    0.32 
  -6   9  -9    0.33    0.38 
   6  -9   9    0.33    0.33 
  -7   9  -9    0.00    0.41 
   7  -9   9    0.06    0.35 
   8  -9   9    0.06    0.37 
   9  -9   9    0.81    0.42 
  13   8  -9    0.45    0.45 
  12   8  -9    0.00    0.40 
  11   8  -9    0.19    0.41 
  10   8  -9    1.68    0.41 
   9   8  -9    0.12    0.30 
   8   8  -9    0.68    0.32 
   7   8  -9    0.82    0.31 
   6   8  -9    2.82    0.37 
   5   8  -9   11.57    0.75 
   4   8  -9    0.03    0.18 
   3   8  -9    8.00    0.54 
   3   8  -9    6.78    0.51 
   2   8  -9    3.50    0.31 
   2   8  -9    3.68    0.36 
   1   8  -9   13.55    0.77 
   1   8  -9   12.64    0.72 
  -1  -8   9   12.19    0.65 
   0   8  -9    1.14    0.29 
   0  -8   9    1.93    0.23 
  -1   8  -9    4.06    0.42 
   1  -8   9    4.36    0.36 
  -2   8  -9    0.99    0.31 
   2  -8   9    1.68    0.27 
  -3   8  -9    0.77    0.32 
   3  -8   9    0.52    0.24 
  -4   8  -9    2.65    0.43 
   4  -8   9    3.03    0.41 
  -5   8  -9    1.27    0.39 
   5  -8   9    0.91    0.32 
  -6   8  -9    0.85    0.40 
   6  -8   9    1.02    0.35 
  -7   8  -9    1.12    0.43 
   7  -8   9    1.15    0.39 
  -8   8  -9    0.54    0.43 
   8  -8   9    0.34    0.37 
   9  -8   9    0.42    0.38 
  13   7  -9    3.76    0.60 
  12   7  -9    7.22    0.76 
  11   7  -9    7.12    0.73 
  10   7  -9    5.32    0.61 
   9   7  -9    4.31    0.53 
   8   7  -9   12.29    0.87 
   7   7  -9    6.29    0.55 
   6   7  -9   -0.03    0.22 
   5   7  -9    6.81    0.52 
   4   7  -9    7.46    0.53 
   3   7  -9    7.69    0.55 
   3   7  -9    9.16    0.57 
   2   7  -9    3.96    0.32 
   2   7  -9    3.77    0.36 
   1   7  -9    0.77    0.17 
   1   7  -9    0.68    0.25 
  -1  -7   9    0.50    0.14 
   0   7  -9   -0.05    0.21 
   0   7  -9    0.09    0.12 
   0  -7   9    0.06    0.12 
  -1   7  -9    1.49    0.28 
   1  -7   9    1.46    0.22 
  -2   7  -9    1.43    0.30 
   2  -7   9    1.92    0.25 
  -3   7  -9    0.47    0.29 
   3  -7   9    0.33    0.22 
  -4   7  -9    0.19    0.30 
   4  -7   9   -0.29    0.20 
  -5   7  -9    3.75    0.46 
   5  -7   9    2.28    0.38 
  -6   7  -9    0.99    0.36 
   6  -7   9    0.76    0.31 
  -7   7  -9   -0.01    0.36 
   7  -7   9    0.59    0.32 
  -8   7  -9    0.74    0.41 
   8  -7   9    0.05    0.34 
   9  -7   9    0.28    0.38 
  10  -7   9    0.79    0.42 
  13   6  -9   -0.20    0.42 
  12   6  -9    0.98    0.45 
  11   6  -9    2.03    0.48 
  10   6  -9    0.28    0.34 
   9   6  -9    4.45    0.52 
   8   6  -9    3.98    0.47 
   7   6  -9    4.97    0.50 
   6   6  -9   10.12    0.70 
   5   6  -9    1.22    0.28 
   4   6  -9    1.70    0.26 
   3   6  -9    0.32    0.18 
   2   6  -9    2.85    0.27 
   2   6  -9    3.02    0.32 
  -2  -6   9    2.84    0.21 
   1   6  -9    4.74    0.41 
   1   6  -9    5.51    0.37 
  -1  -6   9    5.38    0.33 
   0   6  -9    2.29    0.31 
   0   6  -9    2.40    0.22 
   0  -6   9    2.87    0.25 
  -1   6  -9    8.61    0.58 
  -1   6  -9    9.96    0.52 
   1  -6   9    8.73    0.53 
  -2   6  -9    0.26    0.24 
   2  -6   9   -0.02    0.15 
  -3   6  -9    0.41    0.26 
   3  -6   9    0.22    0.18 
  -4   6  -9    8.79    0.61 
   4  -6   9    7.77    0.58 
  -5   6  -9    5.42    0.50 
   5  -6   9    4.40    0.46 
  -6   6  -9    0.38    0.31 
   6  -6   9    0.00    0.25 
  -7   6  -9    0.30    0.32 
   7  -6   9    0.24    0.29 
  -8   6  -9    0.14    0.37 
   8  -6   9    0.28    0.32 
   9  -6   9    0.46    0.37 
  10  -6   9   -0.17    0.36 
  11  -6   9    0.38    0.39 
  13   5  -9    6.75    0.76 
  12   5  -9    3.63    0.57 
  11   5  -9    0.80    0.44 
  10   5  -9    1.89    0.45 
   9   5  -9   -0.15    0.31 
   8   5  -9    1.15    0.34 
   7   5  -9   17.28    1.07 
   6   5  -9   10.89    0.75 
   5   5  -9   34.50    1.81 
   4   5  -9   12.43    0.75 
   3   5  -9    7.24    0.50 
   2   5  -9    3.03    0.28 
  -2  -5   9    3.17    0.22 
   1   5  -9    3.86    0.29 
   1   5  -9    2.74    0.30 
  -1  -5   9    3.26    0.24 
   0   5  -9    0.89    0.14 
   0   5  -9    0.81    0.20 
   0  -5   9    0.49    0.14 
  -1   5  -9   -0.01    0.16 
  -1   5  -9    0.10    0.10 
   1  -5   9    0.09    0.12 
  -2   5  -9    0.07    0.19 
   2  -5   9    0.02    0.13 
  -3   5  -9    1.49    0.29 
   3  -5   9    2.02    0.26 
  -4   5  -9    4.17    0.40 
   4  -5   9    3.11    0.35 
  -5   5  -9   -0.17    0.23 
   5  -5   9   -0.16    0.18 
  -6   5  -9   -0.10    0.25 
   6  -5   9    0.05    0.22 
  -7   5  -9    2.85    0.41 
   7  -5   9    2.29    0.39 
  -8   5  -9   -0.03    0.28 
   8  -5   9    0.12    0.28 
   9  -5   9    0.32    0.32 
  10  -5   9    1.74    0.45 
  11  -5   9    0.70    0.42 
  13   4  -9    0.11    0.44 
  12   4  -9   -0.25    0.40 
  11   4  -9    0.34    0.41 
  10   4  -9    0.48    0.36 
   9   4  -9    3.93    0.52 
   8   4  -9    2.97    0.44 
   7   4  -9    0.53    0.28 
   6   4  -9    2.81    0.36 
   5   4  -9    3.50    0.38 
   4   4  -9    0.76    0.22 
   4   4  -9    0.91    0.12 
   3   4  -9    0.05    0.16 
   3   4  -9    0.58    0.10 
   2   4  -9    3.42    0.30 
  -2  -4   9    3.32    0.24 
   1   4  -9    4.18    0.34 
  -1  -4   9    5.17    0.30 
   0   4  -9    3.66    0.29 
   0   4  -9    4.24    0.34 
  -1   4  -9    3.24    0.25 
  -1   4  -9    3.72    0.32 
   1  -4   9    3.29    0.27 
  -2   4  -9    3.55    0.23 
  -2   4  -9    3.17    0.31 
   2  -4   9    3.47    0.29 
  -3   4  -9   -0.19    0.15 
   3  -4   9   -0.20    0.12 
  -4   4  -9    4.50    0.40 
   4  -4   9    4.09    0.37 
  -5   4  -9    1.04    0.28 
   5  -4   9    1.31    0.27 
  -6   4  -9    2.91    0.37 
   6  -4   9    1.97    0.33 
  -7   4  -9    3.32    0.41 
   7  -4   9    3.81    0.44 
  -8   4  -9    3.57    0.44 
   8  -4   9    2.05    0.39 
   9  -4   9    0.37    0.30 
  10  -4   9    0.78    0.39 
  11  -4   9    0.39    0.35 
  12  -4   9    0.28    0.40 
  13   3  -9    1.30    0.51 
  12   3  -9    0.02    0.40 
  11   3  -9    1.58    0.44 
  10   3  -9    5.30    0.61 
   9   3  -9   20.76    1.28 
   8   3  -9   11.66    0.85 
   7   3  -9   26.67    1.50 
   6   3  -9   11.05    0.77 
   5   3  -9   15.66    0.93 
   5   3  -9   14.50    0.72 
   4   3  -9    1.66    0.27 
   4   3  -9    1.94    0.18 
   3   3  -9    0.20    0.10 
   3   3  -9    0.09    0.17 
   2   3  -9   -0.04    0.14 
  -2  -3   9    0.23    0.10 
   1   3  -9    2.30    0.23 
  -1  -3   9    2.73    0.22 
   0   3  -9    5.85    0.37 
   0   3  -9    5.91    0.40 
  -1   3  -9    9.65    0.56 
  -1   3  -9    9.70    0.54 
   1  -3   9   10.04    0.54 
  -2   3  -9    3.70    0.25 
  -2   3  -9    4.11    0.32 
   2  -3   9    3.11    0.28 
  -3   3  -9    0.51    0.08 
  -3   3  -9    0.48    0.20 
   3  -3   9    0.80    0.18 
  -4   3  -9    2.08    0.27 
   4  -3   9    2.05    0.26 
  -5   3  -9    8.37    0.59 
   5  -3   9    9.72    0.59 
  -6   3  -9    0.73    0.26 
   6  -3   9    0.99    0.27 
  -7   3  -9    2.05    0.33 
   7  -3   9    1.91    0.34 
  -8   3  -9    2.12    0.37 
   8  -3   9    2.26    0.38 
   9  -3   9    0.28    0.28 
  10  -3   9    1.05    0.37 
  11  -3   9    0.99    0.39 
  12  -3   9    0.12    0.39 
  13   2  -9   -0.14    0.44 
  12   2  -9    0.06    0.40 
  11   2  -9    0.88    0.43 
  10   2  -9    1.16    0.42 
   9   2  -9    0.90    0.37 
   8   2  -9    0.91    0.32 
   7   2  -9    0.27    0.29 
   6   2  -9    0.26    0.16 
   6   2  -9    0.29    0.26 
   5   2  -9    0.40    0.15 
   5   2  -9    0.34    0.25 
   4   2  -9    0.09    0.18 
   4   2  -9    0.06    0.12 
   3   2  -9    2.77    0.29 
   3   2  -9    3.03    0.22 
   2   2  -9    3.32    0.30 
  -2  -2   9    3.43    0.25 
   1   2  -9    1.14    0.18 
   0   2  -9    0.06    0.12 
   0  -2   9    0.14    0.11 
  -1   2  -9    5.02    0.35 
  -1   2  -9    4.46    0.30 
   1  -2   9    4.43    0.32 
  -2   2  -9   15.49    0.78 
  -2   2  -9   14.47    0.77 
   2  -2   9   15.21    0.77 
  -3   2  -9    0.26    0.08 
  -3   2  -9    0.42    0.16 
   3  -2   9    0.38    0.14 
  -4   2  -9    0.03    0.16 
   4  -2   9   -0.07    0.13 
  -5   2  -9    1.50    0.24 
   5  -2   9    1.25    0.25 
  -6   2  -9   -0.16    0.20 
   6  -2   9   -0.04    0.18 
  -7   2  -9    5.03    0.45 
   7  -2   9    5.97    0.50 
  -8   2  -9    1.20    0.30 
   8  -2   9    0.88    0.28 
   9  -2   9    0.20    0.27 
  10  -2   9    0.43    0.32 
  11  -2   9   -0.22    0.31 
  12  -2   9    0.36    0.39 
  13  -2   9    0.34    0.41 
  12   1  -9    3.15    0.55 
  11   1  -9    6.35    0.68 
  10   1  -9    7.70    0.74 
   9   1  -9   12.11    0.89 
   8   1  -9    0.31    0.29 
   7   1  -9    5.62    0.40 
   7   1  -9    4.54    0.51 
   6   1  -9    0.66    0.27 
   6   1  -9    0.98    0.20 
   5   1  -9    6.76    0.55 
   5   1  -9    7.26    0.43 
   4   1  -9   15.45    0.92 
   4   1  -9   16.27    0.79 
   3   1  -9    5.36    0.32 
   3   1  -9    5.13    0.41 
   2   1  -9    4.89    0.30 
   2   1  -9    4.45    0.37 
  -1  -1   9   26.97    1.26 
   0  -1   9   35.94    1.65 
  -1   1  -9   19.11    0.96 
   1  -1   9   20.26    0.96 
  -2   1  -9    3.64    0.29 
   2  -1   9    4.42    0.31 
  -3   1  -9   -0.01    0.14 
   3  -1   9   -0.13    0.10 
  -4   1  -9    0.87    0.18 
   4  -1   9    0.68    0.18 
  -5   1  -9    0.64    0.18 
   5  -1   9    0.36    0.17 
  -6   1  -9    3.20    0.32 
   6  -1   9    3.22    0.34 
  -7   1  -9    1.78    0.27 
   7  -1   9    1.57    0.29 
  -8   1  -9   -0.33    0.21 
   8  -1   9   -0.09    0.23 
   9  -1   9    1.02    0.31 
  10  -1   9    1.25    0.36 
  11  -1   9   -0.31    0.29 
  12  -1   9    0.35    0.37 
  13  -1   9    1.21    0.46 
  12   0  -9   -0.50    0.38 
  11   0  -9    0.34    0.40 
  10   0  -9    0.11    0.37 
   9   0  -9    3.51    0.50 
   8   0  -9    0.28    0.26 
   8   0  -9   -0.17    0.28 
   7   0  -9    0.72    0.23 
   7   0  -9    0.39    0.30 
   6   0  -9    5.89    0.55 
   6   0  -9    7.03    0.45 
   5   0  -9    3.36    0.39 
   5   0  -9    4.66    0.34 
   4   0  -9    1.04    0.18 
   4   0  -9    0.81    0.23 
   3   0  -9    0.57    0.15 
   2   0  -9    1.35    0.18 
  -1   0   9    1.14    0.17 
   0   0   9   -0.04    0.11 
   1   0   9    0.04    0.12 
  -2   0  -9    0.20    0.13 
   2   0   9    0.00    0.12 
  -3   0  -9    0.91    0.16 
   3   0   9    0.87    0.18 
  -4   0  -9    0.58    0.16 
   4   0   9    0.46    0.15 
  -5   0  -9    0.09    0.14 
   5   0   9    0.13    0.15 
  -6   0  -9    0.24    0.17 
   6   0   9    0.56    0.20 
  -7   0  -9   -0.08    0.18 
   7   0   9    0.02    0.21 
  -8   0  -9    1.45    0.26 
   8   0   9    1.77    0.31 
   9   0   9   -0.09    0.24 
  10   0   9   -0.14    0.25 
  11   0   9    1.27    0.38 
  12   0   9    0.73    0.37 
  13   0   9    0.22    0.38 
  14   0   9    0.41    0.43 
  12  -1  -9    2.88    0.56 
  11  -1  -9   -0.16    0.38 
  10  -1  -9    0.37    0.39 
   9  -1  -9   -0.03    0.34 
   9  -1  -9    0.01    0.31 
   8  -1  -9    2.58    0.44 
   8  -1  -9    2.45    0.37 
   7  -1  -9    6.79    0.61 
   7  -1  -9    6.69    0.51 
   6  -1  -9   18.75    1.11 
   6  -1  -9   17.98    0.95 
   5  -1  -9    9.12    0.63 
   5  -1  -9    8.53    0.53 
   4  -1  -9   29.08    1.38 
   3  -1  -9   10.64    0.58 
   2  -1  -9    6.28    0.39 
   1  -1  -9   16.63    0.82 
   0   1   9    7.99    0.46 
   1   1   9    0.18    0.13 
  -2  -1  -9    8.21    0.45 
   2   1   9    7.85    0.47 
  -3  -1  -9   14.89    0.72 
   3   1   9   13.67    0.74 
  -4  -1  -9    1.11    0.17 
   4   1   9    1.60    0.22 
  -5  -1  -9    0.63    0.15 
   5   1   9    0.43    0.17 
  -6  -1  -9    0.21    0.14 
   6   1   9    0.28    0.19 
  -7  -1  -9    1.91    0.24 
   7   1   9    1.38    0.27 
  -8  -1  -9   15.62    0.82 
   8   1   9   14.89    0.87 
   9   1   9    0.51    0.26 
  10   1   9    1.43    0.35 
  11   1   9   -0.12    0.29 
  12   1   9    0.04    0.32 
  13   1   9    0.20    0.36 
  14   1   9    0.15    0.39 
  11  -2  -9   -0.20    0.39 
  10  -2  -9    0.00    0.36 
   9  -2  -9    0.68    0.38 
   9  -2  -9    0.15    0.33 
   8  -2  -9   -0.16    0.28 
   8  -2  -9    0.34    0.31 
   7  -2  -9    5.86    0.58 
   7  -2  -9    7.07    0.53 
   6  -2  -9    3.99    0.39 
   6  -2  -9    3.73    0.44 
   5  -2  -9    1.47    0.27 
   4  -2  -9    2.00    0.26 
   3  -2  -9    1.39    0.22 
   2  -2  -9   -0.01    0.13 
   1  -2  -9    0.05    0.12 
   0   2   9   13.10    0.69 
   1   2   9   10.24    0.58 
   2   2   9    0.90    0.17 
  -3  -2  -9    1.13    0.14 
   3   2   9    0.74    0.17 
  -4  -2  -9    0.38    0.12 
   4   2   9    0.29    0.15 
  -5  -2  -9    1.31    0.17 
   5   2   9    1.11    0.20 
  -6  -2  -9    0.31    0.14 
   6   2   9    0.21    0.14 
   6   2   9    0.62    0.20 
  -7  -2  -9    0.03    0.14 
   7   2   9    0.10    0.14 
   7   2   9    0.26    0.20 
   8   2   9    0.37    0.22 
   9   2   9    0.25    0.25 
  10   2   9    0.19    0.24 
  11   2   9    0.85    0.32 
  12   2   9    0.44    0.33 
  13   2   9   -0.07    0.32 
  14   2   9    0.02    0.38 
  11  -3  -9    0.63    0.45 
  10  -3  -9    1.71    0.47 
  10  -3  -9    1.83    0.47 
   9  -3  -9    1.99    0.44 
   9  -3  -9    2.48    0.46 
   8  -3  -9    2.53    0.41 
   8  -3  -9    2.16    0.41 
   7  -3  -9    3.75    0.46 
   7  -3  -9    3.19    0.41 
   6  -3  -9   16.87    0.94 
   5  -3  -9    1.99    0.31 
   4  -3  -9    3.15    0.35 
   3  -3  -9    2.04    0.26 
   2  -3  -9    2.40    0.26 
   1  -3  -9    3.15    0.28 
   0  -3  -9   10.11    0.56 
   1   3   9    9.74    0.56 
   2   3   9   15.87    0.82 
  -3  -3  -9   10.55    0.53 
   3   3   9    9.99    0.58 
  -4  -3  -9    3.48    0.24 
   4   3   9    3.93    0.32 
  -5  -3  -9    4.74    0.28 
   5   3   9    3.64    0.33 
   5   3   9    4.72    0.36 
  -6  -3  -9    5.21    0.32 
   6   3   9    5.29    0.40 
   6   3   9    4.24    0.38 
  -7  -3  -9    0.83    0.15 
   7   3   9    0.78    0.24 
   7   3   9    0.64    0.19 
   8   3   9    2.05    0.31 
   8   3   9    2.72    0.30 
   9   3   9    2.89    0.38 
  10   3   9    0.74    0.29 
  11   3   9    0.57    0.32 
  12   3   9    0.13    0.30 
  13   3   9    0.30    0.34 
  14   3   9    0.08    0.38 
  10  -4  -9    0.00    0.40 
  10  -4  -9    0.73    0.41 
   9  -4  -9   -0.02    0.37 
   9  -4  -9    0.12    0.35 
   8  -4  -9    0.15    0.33 
   8  -4  -9   -0.14    0.32 
   7  -4  -9    1.13    0.34 
   7  -4  -9    0.66    0.32 
   6  -4  -9    6.14    0.53 
   5  -4  -9    5.23    0.47 
   4  -4  -9    1.63    0.30 
   3  -4  -9    0.99    0.25 
   2  -4  -9   14.01    0.76 
   1  -4  -9    7.25    0.45 
   0  -4  -9   -0.24    0.13 
   1   4   9    2.84    0.29 
   2   4   9    2.19    0.26 
  -3  -4  -9    2.93    0.20 
   3   4   9    2.29    0.26 
  -4  -4  -9    1.00    0.13 
   4   4   9    1.30    0.22 
   4   4   9    0.86    0.19 
  -5  -4  -9    0.21    0.09 
   5   4   9    0.07    0.15 
   5   4   9   -0.09    0.13 
  -6  -4  -9    1.05    0.14 
   6   4   9    0.59    0.19 
   6   4   9    1.14    0.23 
   7   4   9    0.14    0.09 
   7   4   9    0.86    0.23 
   8   4   9    1.90    0.30 
   8   4   9    2.03    0.29 
   9   4   9    0.10    0.19 
   9   4   9    0.32    0.24 
  10   4   9    0.15    0.24 
  11   4   9    0.09    0.27 
  12   4   9    0.22    0.30 
  13   4   9    0.09    0.32 
  14   4   9    0.41    0.39 
  15   4   9   -0.05    0.39 
  10  -5  -9    0.93    0.49 
  10  -5  -9    1.68    0.47 
   9  -5  -9    0.74    0.45 
   9  -5  -9    0.47    0.40 
   8  -5  -9    0.20    0.37 
   8  -5  -9    0.05    0.32 
   7  -5  -9    1.24    0.38 
   6  -5  -9    1.80    0.38 
   5  -5  -9    1.07    0.31 
   4  -5  -9    9.80    0.64 
   3  -5  -9   20.60    1.08 
   2  -5  -9    6.72    0.49 
   1  -5  -9    2.21    0.27 
   0  -5  -9    6.87    0.45 
  -1  -5  -9    7.74    0.47 
   2   5   9    3.79    0.33 
   3   5   9    0.69    0.19 
  -4  -5  -9    1.68    0.14 
   4   5   9    1.79    0.24 
   4   5   9    1.66    0.26 
   5   5   9    1.03    0.24 
   5   5   9    1.30    0.23 
   6   5   9    0.38    0.19 
   6   5   9    0.01    0.18 
   7   5   9   11.94    0.78 
   7   5   9   11.35    0.69 
   8   5   9    3.45    0.37 
   8   5   9    4.14    0.41 
   9   5   9    0.35    0.23 
   9   5   9    0.15    0.18 
  10   5   9   -0.05    0.11 
  10   5   9    0.03    0.22 
  11   5   9    1.99    0.36 
  12   5   9    0.15    0.30 
  13   5   9   -0.01    0.32 
  14   5   9    0.01    0.35 
  15   5   9    0.67    0.40 
   9  -6  -9    0.36    0.39 
   9  -6  -9    0.31    0.47 
   8  -6  -9    0.57    0.36 
   8  -6  -9    0.64    0.44 
   7  -6  -9   -0.36    0.34 
   6  -6  -9    0.11    0.30 
   5  -6  -9    0.73    0.31 
   4  -6  -9    5.20    0.50 
   3  -6  -9   -0.17    0.23 
   2  -6  -9    3.15    0.36 
   1  -6  -9    1.02    0.25 
   0  -6  -9    0.62    0.22 
  -1  -6  -9    5.71    0.42 
  -2  -6  -9    0.34    0.18 
   3   6   9    4.98    0.40 
   4   6   9    8.58    0.55 
   4   6   9    9.07    0.63 
   5   6   9    1.66    0.26 
   5   6   9    1.41    0.28 
   6   6   9    0.96    0.24 
   6   6   9    0.24    0.18 
   7   6   9    0.54    0.20 
   7   6   9   -0.05    0.18 
   8   6   9    7.39    0.54 
   8   6   9    9.06    0.64 
   9   6   9    3.18    0.40 
   9   6   9    2.92    0.35 
  10   6   9    2.14    0.35 
  10   6   9    3.08    0.43 
  11   6   9   -0.20    0.23 
  12   6   9    0.39    0.30 
  13   6   9    0.46    0.34 
  14   6   9    0.44    0.36 
  15   6   9   -0.32    0.35 
   9  -7  -9    0.34    0.41 
   8  -7  -9   -0.20    0.40 
   8  -7  -9   -0.26    0.34 
   7  -7  -9    1.25    0.44 
   6  -7  -9    1.38    0.40 
   5  -7  -9    4.55    0.52 
   4  -7  -9    1.69    0.35 
   3  -7  -9    2.76    0.39 
   2  -7  -9    1.16    0.30 
   1  -7  -9    0.35    0.23 
   0  -7  -9    0.79    0.25 
  -1  -7  -9    0.26    0.20 
  -2  -7  -9    0.06    0.19 
  -3  -7  -9    0.27    0.19 
   4   7   9    2.40    0.31 
   4   7   9    2.83    0.39 
   5   7   9    9.80    0.60 
   5   7   9    9.12    0.70 
   6   7   9    2.80    0.39 
   6   7   9    3.49    0.34 
   7   7   9    1.83    0.35 
   7   7   9    1.68    0.27 
   8   7   9    3.70    0.46 
   8   7   9    3.90    0.38 
   9   7   9    1.23    0.35 
   9   7   9    1.30    0.28 
  10   7   9    0.00    0.29 
  10   7   9   -0.21    0.21 
  11   7   9    0.68    0.28 
  11   7   9    0.95    0.37 
  12   7   9   -0.04    0.27 
  13   7   9   -0.22    0.29 
  14   7   9   -0.12    0.33 
  15   7   9    0.54    0.41 
   8  -8  -9   -0.31    0.34 
   8  -8  -9    0.61    0.46 
   7  -8  -9    2.08    0.52 
   6  -8  -9   -0.30    0.35 
   5  -8  -9    0.27    0.36 
   4  -8  -9    0.34    0.31 
   3  -8  -9    4.22    0.48 
   2  -8  -9    2.16    0.35 
   1  -8  -9    0.69    0.27 
   0  -8  -9    0.29    0.23 
  -1  -8  -9   11.51    0.68 
  -2  -8  -9   15.35    0.83 
  -3  -8  -9    5.86    0.44 
   4   8   9    5.81    0.47 
   4   8   9    6.60    0.59 
   5   8   9    6.82    0.59 
   5   8   9    6.42    0.48 
   6   8   9    0.59    0.29 
   6   8   9    0.27    0.21 
   7   8   9    8.29    0.65 
   7   8   9    5.90    0.49 
   8   8   9    2.89    0.35 
   8   8   9    3.65    0.47 
   9   8   9    5.43    0.59 
   9   8   9    6.32    0.50 
  10   8   9    0.86    0.27 
  10   8   9    1.82    0.42 
  11   8   9   -0.08    0.30 
  11   8   9   -0.35    0.24 
  12   8   9    0.29    0.28 
  12   8   9    0.07    0.36 
  13   8   9   -0.13    0.29 
  14   8   9    0.20    0.33 
  15   8   9    0.17    0.38 
   7  -9  -9    0.19    0.44 
   6  -9  -9    0.24    0.43 
   5  -9  -9    0.00    0.38 
   4  -9  -9    0.02    0.34 
   3  -9  -9    0.05    0.29 
   2  -9  -9    1.36    0.36 
   1  -9  -9    0.43    0.28 
   0  -9  -9    0.65    0.27 
  -1  -9  -9    0.85    0.27 
  -2  -9  -9    1.72    0.30 
  -3  -9  -9    2.71    0.33 
  -4  -9  -9    3.84    0.37 
   4   9   9    3.60    0.48 
   5   9   9    1.69    0.37 
   5   9   9    0.98    0.27 
   6   9   9    0.98    0.26 
   6   9   9    1.54    0.38 
   7   9   9    0.64    0.24 
   7   9   9    0.70    0.34 
   8   9   9    0.34    0.23 
   8   9   9    0.17    0.30 
   9   9   9    0.31    0.22 
   9   9   9   -0.07    0.30 
  10   9   9    3.36    0.52 
  10   9   9    2.66    0.37 
  11   9   9    0.38    0.25 
  11   9   9   -0.23    0.32 
  12   9   9    0.13    0.28 
  12   9   9    0.10    0.38 
  13   9   9    0.52    0.31 
  14   9   9    0.60    0.36 
  15   9   9    1.06    0.40 
   6 -10  -9    0.80    0.48 
   5 -10  -9    1.77    0.49 
   4 -10  -9    0.88    0.41 
   3 -10  -9   -0.29    0.30 
   2 -10  -9   -0.02    0.32 
   1 -10  -9    5.73    0.53 
   0 -10  -9    1.23    0.32 
  -1 -10  -9    3.73    0.40 
  -2 -10  -9    0.12    0.23 
  -3 -10  -9    0.93    0.26 
  -4 -10  -9    1.73    0.30 
   4  10   9    1.43    0.39 
  -5 -10  -9    1.83    0.29 
   5  10   9    1.83    0.42 
   6  10   9    6.51    0.52 
   6  10   9    7.32    0.68 
   7  10   9    5.03    0.46 
   7  10   9    5.38    0.61 
   8  10   9    1.61    0.44 
   8  10   9    2.74    0.35 
   9  10   9    0.16    0.31 
   9  10   9    0.24    0.24 
  10  10   9    0.50    0.25 
  10  10   9    0.39    0.38 
  11  10   9    0.71    0.43 
  11  10   9    0.21    0.24 
  12  10   9    0.53    0.30 
  12  10   9    0.00    0.42 
  13  10   9    1.97    0.54 
  13  10   9    1.52    0.36 
  14  10   9    0.52    0.34 
  15  10   9   -0.03    0.35 
   5 -11  -9   -0.02    0.43 
   4 -11  -9   -0.06    0.37 
   3 -11  -9    1.09    0.41 
   2 -11  -9    0.45    0.36 
   1 -11  -9   -0.27    0.27 
   0 -11  -9    0.21    0.28 
  -1 -11  -9    1.53    0.33 
  -2 -11  -9    1.61    0.32 
  -3 -11  -9    0.84    0.27 
  -4 -11  -9    0.26    0.24 
   4  11   9    0.72    0.38 
  -5 -11  -9   -0.05    0.23 
   5  11   9    0.44    0.35 
  -6 -11  -9    0.44    0.24 
   6  11   9    0.35    0.35 
   7  11   9    0.09    0.23 
   7  11   9    0.35    0.34 
   8  11   9    5.08    0.63 
   8  11   9    6.38    0.52 
   9  11   9    0.17    0.23 
   9  11   9    0.43    0.38 
  10  11   9   -0.03    0.26 
  10  11   9    0.50    0.41 
  11  11   9    0.16    0.41 
  11  11   9   -0.05    0.23 
  12  11   9    1.21    0.35 
  12  11   9    2.01    0.55 
  13  11   9    0.76    0.32 
  13  11   9    1.50    0.54 
  14  11   9    1.32    0.58 
  14  11   9    0.38    0.34 
   4 -12  -9   -0.33    0.42 
   3 -12  -9    0.56    0.42 
   2 -12  -9    0.14    0.34 
   1 -12  -9   -0.09    0.31 
   0 -12  -9    0.30    0.33 
  -1 -12  -9    0.20    0.30 
  -2 -12  -9    0.59    0.30 
  -3 -12  -9    1.46    0.32 
  -4 -12  -9    1.54    0.32 
   4  12   9    2.44    0.49 
  -5 -12  -9    2.11    0.33 
   5  12   9    2.19    0.50 
  -6 -12  -9    0.47    0.27 
   6  12   9    0.62    0.39 
  -7 -12  -9    1.54    0.30 
   7  12   9    1.90    0.47 
   8  12   9    0.03    0.37 
   8  12   9    0.39    0.28 
   9  12   9   -0.29    0.34 
   9  12   9    0.01    0.24 
  10  12   9    1.56    0.33 
  10  12   9    2.05    0.53 
  11  12   9    2.35    0.57 
  11  12   9    2.31    0.38 
  12  12   9    1.00    0.34 
  12  12   9    1.55    0.54 
  13  12   9    0.29    0.49 
  13  12   9    0.20    0.30 
  14  12   9    0.77    0.53 
  14  12   9    1.11    0.39 
   3 -13  -9   -0.20    0.40 
   2 -13  -9   -0.56    0.33 
   1 -13  -9    0.12    0.35 
   0 -13  -9    0.02    0.33 
  -1 -13  -9    1.10    0.37 
  -2 -13  -9    0.06    0.29 
  -3 -13  -9    0.08    0.27 
  -4 -13  -9    1.03    0.31 
   4  13   9    0.95    0.42 
  -5 -13  -9    0.29    0.28 
   5  13   9    0.24    0.41 
  -6 -13  -9    1.66    0.33 
   6  13   9    1.22    0.48 
  -7 -13  -9    0.27    0.29 
   7  13   9    0.45    0.41 
  -8 -13  -9    0.55    0.29 
   8  13   9   -0.37    0.37 
  -9 -13  -9    0.83    0.30 
   9  13   9    0.76    0.46 
  10  13   9    0.03    0.44 
  10  13   9    1.06    0.32 
  11  13   9    0.08    0.28 
  11  13   9    0.06    0.42 
  12  13   9    0.64    0.51 
  12  13   9    0.46    0.33 
  13  13   9    0.00    0.31 
  13  13   9    0.12    0.49 
  14  13   9    0.39    0.54 
   2 -14  -9    0.45    0.41 
   1 -14  -9    0.19    0.37 
   0 -14  -9    0.05    0.35 
  -1 -14  -9    0.64    0.35 
  -2 -14  -9    0.88    0.36 
  -3 -14  -9    0.53    0.34 
  -4 -14  -9   -0.01    0.29 
  -5 -14  -9   -0.02    0.27 
   5  14   9    0.15    0.44 
  -6 -14  -9    0.01    0.26 
   6  14   9    0.24    0.43 
  -7 -14  -9    0.42    0.29 
   7  14   9    0.81    0.49 
  -8 -14  -9    2.82    0.40 
   8  14   9    2.49    0.56 
  -9 -14  -9    0.64    0.30 
   9  14   9    1.16    0.50 
 -10 -14  -9    0.37    0.29 
  10  14   9    0.36    0.43 
  11  14   9    1.16    0.53 
  11  14   9    0.55    0.33 
  12  14   9    0.48    0.34 
  12  14   9    0.74    0.51 
  13  14   9   -0.03    0.50 
   1 -15  -9    0.23    0.40 
   0 -15  -9    0.40    0.38 
  -1 -15  -9   -0.53    0.30 
  -2 -15  -9    0.42    0.38 
  -3 -15  -9    0.38    0.35 
  -4 -15  -9    0.61    0.33 
  -5 -15  -9    1.13    0.36 
   5  15   9    0.98    0.51 
  -6 -15  -9    0.08    0.28 
   6  15   9   -0.16    0.41 
  -7 -15  -9    0.14    0.29 
   7  15   9    0.42    0.45 
  -8 -15  -9    0.35    0.30 
   8  15   9   -0.11    0.44 
  -9 -15  -9    0.04    0.30 
   9  15   9   -0.34    0.40 
 -10 -15  -9    0.22    0.31 
  10  15   9    0.12    0.48 
 -11 -15  -9    0.66    0.33 
  11  15   9    0.45    0.50 
  12  15   9    1.25    0.55 
  -1 -16  -9   -0.45    0.36 
  -2 -16  -9    0.62    0.37 
  -3 -16  -9    0.24    0.36 
  -4 -16  -9    0.90    0.38 
  -5 -16  -9    0.48    0.38 
   5  16   9    1.83    0.58 
  -6 -16  -9    1.68    0.41 
   6  16   9    1.55    0.60 
  -7 -16  -9    0.46    0.32 
   7  16   9   -0.25    0.44 
  -8 -16  -9    0.68    0.34 
   8  16   9    0.25    0.51 
  -9 -16  -9   -0.14    0.30 
   9  16   9    0.19    0.47 
 -10 -16  -9    0.07    0.32 
  10  16   9    0.11    0.48 
  11  16   9   -0.37    0.47 
  -4 -17  -9   -0.15    0.33 
  -5 -17  -9    0.26    0.36 
  -6 -17  -9    0.20    0.35 
   6  17   9    0.44    0.56 
  -7 -17  -9   -0.16    0.33 
   7  17   9    0.85    0.57 
  -8 -17  -9    0.19    0.34 
   8  17   9   -0.20    0.48 
  -9 -17  -9    0.94    0.37 
   9  17   9    1.67    0.58 
   8  16 -10    0.31    0.43 
   8  16 -10    0.46    0.38 
   7  16 -10    0.10    0.34 
   6  16 -10    0.24    0.33 
   5  16 -10   -0.15    0.34 
   4  16 -10    0.27    0.37 
   3  16 -10   -0.23    0.37 
   2  16 -10    0.11    0.38 
   1  16 -10    1.15    0.46 
  10  15 -10    0.42    0.37 
   9  15 -10    0.00    0.41 
   9  15 -10    0.73    0.35 
   8  15 -10    0.76    0.41 
   8  15 -10    0.72    0.36 
   7  15 -10    0.62    0.40 
   7  15 -10   -0.33    0.34 
   6  15 -10    0.55    0.36 
   5  15 -10    0.46    0.34 
   4  15 -10    0.06    0.36 
   3  15 -10    0.88    0.37 
   2  15 -10    0.13    0.34 
   1  15 -10    0.29    0.40 
   0  15 -10   -0.13    0.37 
  -1  15 -10    0.19    0.43 
  10  14 -10    0.08    0.41 
  10  14 -10   -0.47    0.32 
   9  14 -10   -0.48    0.33 
   9  14 -10    0.19    0.38 
   8  14 -10    0.53    0.39 
   8  14 -10   -0.05    0.32 
   7  14 -10    0.45    0.34 
   7  14 -10    0.65    0.37 
   6  14 -10    2.41    0.45 
   6  14 -10    2.54    0.44 
   5  14 -10   -0.02    0.32 
   4  14 -10    1.70    0.40 
   3  14 -10    0.03    0.35 
   2  14 -10    0.13    0.34 
   1  14 -10    0.24    0.38 
   0  14 -10    0.57    0.40 
  -1  14 -10   -0.55    0.34 
  -2  14 -10    1.32    0.48 
  -3  14 -10   -0.34    0.39 
  11  13 -10    0.82    0.48 
  10  13 -10    0.41    0.43 
   9  13 -10    0.59    0.35 
   9  13 -10    0.74    0.39 
   8  13 -10   -0.11    0.34 
   8  13 -10   -0.29    0.30 
   7  13 -10    0.37    0.34 
   7  13 -10    0.41    0.31 
   6  13 -10    0.31    0.32 
   6  13 -10    0.18    0.32 
   5  13 -10    0.23    0.31 
   5  13 -10   -0.29    0.31 
   4  13 -10    0.14    0.32 
   3  13 -10    1.53    0.38 
   2  13 -10    0.08    0.34 
   1  13 -10    0.40    0.34 
   0  13 -10    0.40    0.39 
  -1  13 -10    0.32    0.37 
  -2  13 -10    0.25    0.41 
  -3  13 -10    0.76    0.42 
  -4  13 -10    0.51    0.44 
  12  12 -10    0.52    0.46 
  11  12 -10    0.72    0.42 
  10  12 -10    0.41    0.37 
   9  12 -10    0.75    0.38 
   8  12 -10    1.11    0.39 
   8  12 -10    0.95    0.34 
   7  12 -10    0.73    0.34 
   7  12 -10    0.78    0.33 
   6  12 -10    0.15    0.29 
   6  12 -10    0.36    0.31 
   5  12 -10    0.97    0.33 
   5  12 -10    0.42    0.32 
   4  12 -10    1.44    0.33 
   4  12 -10    1.68    0.37 
   3  12 -10    0.56    0.32 
   2  12 -10    0.41    0.31 
   1  12 -10    1.19    0.36 
   0  12 -10    1.54    0.39 
  -1  12 -10    1.32    0.42 
  -2  12 -10    1.73    0.44 
  -3  12 -10    0.57    0.43 
  -4  12 -10   -0.26    0.39 
   4 -12  10   -0.11    0.33 
  -5  12 -10    0.44    0.47 
   5 -12  10    0.46    0.39 
  12  11 -10    0.77    0.51 
  11  11 -10    0.14    0.41 
  10  11 -10   -0.22    0.38 
   9  11 -10    0.60    0.39 
   8  11 -10    0.44    0.32 
   7  11 -10    1.11    0.34 
   6  11 -10    2.94    0.39 
   6  11 -10    2.52    0.39 
   5  11 -10    1.12    0.32 
   5  11 -10    2.29    0.37 
   4  11 -10   -0.13    0.25 
   4  11 -10    0.13    0.27 
   3  11 -10    0.93    0.32 
   2  11 -10    2.58    0.40 
   1  11 -10    1.10    0.36 
   0  11 -10    0.20    0.30 
  -1  11 -10   -0.02    0.33 
  -2  11 -10    0.12    0.33 
  -3  11 -10    0.87    0.39 
   3 -11  10    0.64    0.31 
  -4  11 -10    0.02    0.41 
   4 -11  10    0.24    0.31 
  -5  11 -10   -0.03    0.43 
   5 -11  10    0.29    0.34 
  -6  11 -10    0.36    0.47 
   6 -11  10   -0.04    0.35 
  12  10 -10    1.83    0.54 
  11  10 -10    0.95    0.46 
  10  10 -10    0.14    0.39 
   9  10 -10   -0.09    0.35 
   8  10 -10    0.74    0.35 
   7  10 -10    1.33    0.36 
   6  10 -10    0.03    0.27 
   5  10 -10   -0.04    0.24 
   5  10 -10    0.12    0.24 
   4  10 -10    0.22    0.24 
   4  10 -10    0.07    0.27 
   3  10 -10    1.79    0.34 
   3  10 -10    1.74    0.29 
   2  10 -10   -0.07    0.25 
   1  10 -10    3.87    0.44 
   0  10 -10   -0.11    0.29 
  -1  10 -10   -0.07    0.31 
  -2  10 -10    0.13    0.36 
   2 -10  10    0.13    0.23 
  -3  10 -10    0.34    0.36 
   3 -10  10    0.14    0.27 
  -4  10 -10    0.96    0.42 
   4 -10  10    0.35    0.31 
  -5  10 -10    0.70    0.41 
   5 -10  10    0.44    0.32 
  -6  10 -10    0.34    0.44 
   6 -10  10    0.61    0.38 
  -7  10 -10   -0.31    0.45 
   7 -10  10    0.21    0.39 
  13   9 -10    0.45    0.48 
  12   9 -10    0.82    0.46 
  11   9 -10    0.45    0.44 
  10   9 -10   -0.27    0.37 
   9   9 -10    4.13    0.53 
   8   9 -10    0.89    0.37 
   7   9 -10    0.44    0.28 
   6   9 -10    0.51    0.28 
   5   9 -10    1.40    0.30 
   4   9 -10    3.75    0.38 
   4   9 -10    3.40    0.39 
   3   9 -10    0.03    0.17 
   3   9 -10   -0.12    0.25 
   2   9 -10    0.62    0.20 
   2   9 -10    0.55    0.27 
   1   9 -10    0.46    0.27 
   0   9 -10    7.51    0.58 
  -1   9 -10    1.53    0.34 
   1  -9  10    1.21    0.24 
  -2   9 -10    0.15    0.31 
   2  -9  10   -0.02    0.21 
  -3   9 -10    0.07    0.32 
   3  -9  10   -0.16    0.24 
  -4   9 -10    0.37    0.37 
   4  -9  10    0.10    0.25 
  -5   9 -10    0.92    0.41 
   5  -9  10    0.92    0.35 
  -6   9 -10   -0.37    0.37 
   6  -9  10   -0.19    0.29 
  -7   9 -10    1.64    0.47 
   7  -9  10    0.61    0.38 
  -8   9 -10    0.59    0.47 
   8  -9  10    0.59    0.42 
  13   8 -10    0.32    0.48 
  12   8 -10    0.48    0.46 
  11   8 -10   -0.06    0.40 
  10   8 -10    0.75    0.42 
   9   8 -10    0.24    0.36 
   8   8 -10    0.31    0.30 
   7   8 -10    0.85    0.33 
   6   8 -10    1.30    0.31 
   5   8 -10    0.10    0.23 
   4   8 -10    2.36    0.31 
   3   8 -10    0.60    0.20 
   3   8 -10    0.53    0.25 
   2   8 -10    0.02    0.16 
   2   8 -10    0.60    0.25 
   1   8 -10    0.07    0.25 
   1   8 -10    0.03    0.15 
   0   8 -10    1.10    0.31 
   0  -8  10    1.18    0.20 
  -1   8 -10    0.05    0.29 
   1  -8  10   -0.01    0.14 
  -2   8 -10    0.21    0.28 
   2  -8  10    0.42    0.22 
  -3   8 -10    4.34    0.49 
   3  -8  10    3.74    0.41 
  -4   8 -10   -0.02    0.30 
   4  -8  10   -0.04    0.25 
  -5   8 -10    6.06    0.59 
   5  -8  10    5.02    0.53 
  -6   8 -10   -0.15    0.33 
   6  -8  10    0.16    0.30 
  -7   8 -10    0.80    0.41 
   7  -8  10    0.28    0.35 
  -8   8 -10    1.18    0.47 
   8  -8  10    1.44    0.47 
   9  -8  10    0.60    0.41 
  13   7 -10   -0.47    0.39 
  12   7 -10   -0.03    0.42 
  11   7 -10    0.60    0.44 
  10   7 -10    0.52    0.38 
   9   7 -10    0.13    0.33 
   8   7 -10    2.40    0.44 
   7   7 -10    1.14    0.34 
   6   7 -10   -0.22    0.26 
   5   7 -10    0.21    0.24 
   4   7 -10    0.25    0.23 
   3   7 -10    5.50    0.45 
   3   7 -10    6.21    0.47 
   2   7 -10    5.78    0.43 
   2   7 -10    5.75    0.47 
   1   7 -10    0.17    0.22 
   1   7 -10   -0.13    0.15 
  -1  -7  10    0.07    0.12 
   0   7 -10    0.30    0.26 
   0  -7  10    0.40    0.16 
  -1   7 -10    4.78    0.44 
   1  -7  10    3.88    0.34 
  -2   7 -10    3.83    0.41 
   2  -7  10    3.53    0.35 
  -3   7 -10    0.05    0.28 
   3  -7  10    0.16    0.21 
  -4   7 -10   -0.05    0.27 
   4  -7  10   -0.03    0.22 
  -5   7 -10    2.06    0.38 
   5  -7  10    1.31    0.33 
  -6   7 -10    0.14    0.35 
   6  -7  10    0.70    0.30 
  -7   7 -10   -0.26    0.34 
   7  -7  10   -0.09    0.31 
  -8   7 -10    0.21    0.37 
   8  -7  10    0.60    0.35 
   9  -7  10    0.12    0.38 
  10  -7  10    0.34    0.42 
  13   6 -10   -0.01    0.43 
  12   6 -10    1.35    0.48 
  11   6 -10    0.23    0.38 
  10   6 -10    1.32    0.45 
   9   6 -10    1.83    0.43 
   8   6 -10    1.97    0.41 
   7   6 -10    0.17    0.28 
   6   6 -10    0.17    0.27 
   5   6 -10   -0.03    0.24 
   4   6 -10    0.99    0.25 
   3   6 -10   -0.18    0.15 
   2   6 -10    4.03    0.33 
   2   6 -10    3.39    0.36 
   1   6 -10    0.29    0.23 
   1   6 -10    0.29    0.16 
  -1  -6  10    0.11    0.12 
   0   6 -10   10.98    0.65 
   0   6 -10    9.74    0.59 
   0  -6  10   10.75    0.58 
  -1   6 -10    1.67    0.29 
   1  -6  10    1.73    0.23 
  -2   6 -10    9.46    0.64 
   2  -6  10   10.25    0.60 
  -3   6 -10    8.54    0.64 
   3  -6  10    9.90    0.61 
  -4   6 -10   -0.09    0.25 
   4  -6  10    0.25    0.23 
  -5   6 -10   -0.15    0.27 
   5  -6  10    0.15    0.25 
  -6   6 -10    0.38    0.31 
   6  -6  10    0.36    0.27 
  -7   6 -10    2.24    0.44 
   7  -6  10    2.31    0.43 
  -8   6 -10   -0.04    0.34 
   8  -6  10    0.36    0.34 
   9  -6  10   -0.11    0.33 
  10  -6  10    0.32    0.39 
  13   5 -10    0.22    0.45 
  12   5 -10    1.56    0.50 
  11   5 -10    0.02    0.37 
  10   5 -10    0.39    0.38 
   9   5 -10   -0.07    0.34 
   8   5 -10   -0.27    0.28 
   7   5 -10    0.20    0.30 
   6   5 -10    0.54    0.29 
   5   5 -10    3.93    0.42 
   4   5 -10    0.16    0.21 
   3   5 -10    0.82    0.21 
   2   5 -10    1.61    0.23 
  -2  -5  10    1.75    0.17 
   1   5 -10    1.44    0.26 
   1   5 -10    1.27    0.19 
  -1  -5  10    1.37    0.17 
   0   5 -10    0.30    0.20 
   0   5 -10    0.28    0.13 
   0  -5  10    0.36    0.14 
  -1   5 -10    0.05    0.10 
  -1   5 -10   -0.29    0.20 
   1  -5  10    0.08    0.13 
  -2   5 -10   -0.01    0.22 
   2  -5  10    0.11    0.15 
  -3   5 -10    0.60    0.25 
   3  -5  10    0.58    0.19 
  -4   5 -10    0.55    0.27 
   4  -5  10    0.39    0.22 
  -5   5 -10    1.45    0.33 
   5  -5  10    1.87    0.32 
  -6   5 -10    0.83    0.31 
   6  -5  10    0.92    0.30 
  -7   5 -10    0.24    0.31 
   7  -5  10    0.17    0.27 
  -8   5 -10    2.36    0.41 
   8  -5  10    2.22    0.44 
   9  -5  10    0.02    0.31 
  10  -5  10    1.18    0.42 
  11  -5  10   -0.52    0.37 
  12   4 -10    2.90    0.56 
  11   4 -10    1.43    0.46 
  10   4 -10   -0.03    0.37 
   9   4 -10    0.49    0.36 
   8   4 -10    2.97    0.44 
   7   4 -10   -0.03    0.27 
   6   4 -10    0.04    0.25 
   5   4 -10    0.04    0.24 
   4   4 -10    1.21    0.26 
   3   4 -10    0.25    0.18 
   3   4 -10    0.15    0.10 
   2   4 -10    5.50    0.41 
  -2  -4  10    4.89    0.32 
   1   4 -10    1.07    0.19 
  -1  -4  10    1.13    0.17 
   0   4 -10    1.93    0.20 
   0   4 -10    2.26    0.27 
   0  -4  10    1.06    0.15 
  -1   4 -10    1.24    0.23 
  -1   4 -10    1.29    0.16 
   1  -4  10    1.11    0.19 
  -2   4 -10    0.32    0.20 
   2  -4  10    0.08    0.14 
  -3   4 -10    1.86    0.30 
   3  -4  10    2.53    0.28 
  -4   4 -10    0.14    0.23 
   4  -4  10    0.16    0.18 
  -5   4 -10    0.00    0.22 
   5  -4  10   -0.15    0.18 
  -6   4 -10    0.58    0.28 
   6  -4  10    0.85    0.26 
  -7   4 -10    0.33    0.28 
   7  -4  10    0.03    0.25 
  -8   4 -10    4.70    0.50 
   8  -4  10    3.41    0.48 
  -9   4 -10    2.72    0.45 
   9  -4  10    2.16    0.43 
  10  -4  10    0.44    0.36 
  11  -4  10    0.31    0.38 
  12  -4  10    1.83    0.51 
  12   3 -10    0.30    0.43 
  11   3 -10    0.03    0.40 
  10   3 -10    1.23    0.42 
   9   3 -10    2.54    0.45 
   8   3 -10   -0.04    0.30 
   7   3 -10    0.82    0.34 
   6   3 -10    4.89    0.49 
   5   3 -10    2.55    0.36 
   4   3 -10    0.79    0.15 
   4   3 -10    0.52    0.22 
   3   3 -10    0.35    0.19 
   3   3 -10    0.26    0.12 
   2   3 -10    0.33    0.17 
  -2  -3  10    0.54    0.13 
   1   3 -10    6.26    0.43 
  -1  -3  10    6.54    0.39 
   0   3 -10    0.74    0.15 
   0   3 -10    0.52    0.19 
   0  -3  10    0.30    0.10 
  -1   3 -10    0.63    0.18 
  -1   3 -10    0.32    0.12 
   1  -3  10    0.33    0.14 
  -2   3 -10    3.38    0.30 
  -2   3 -10    2.88    0.21 
   2  -3  10    2.59    0.26 
  -3   3 -10    1.07    0.24 
   3  -3  10    1.40    0.22 
  -4   3 -10    1.82    0.28 
   4  -3  10    1.57    0.26 
  -5   3 -10    4.91    0.42 
   5  -3  10    4.74    0.43 
  -6   3 -10    0.15    0.27 
   6  -3  10    0.43    0.24 
  -7   3 -10    0.38    0.28 
   7  -3  10   -0.27    0.20 
  -8   3 -10    2.66    0.39 
   8  -3  10    3.08    0.43 
  -9   3 -10    0.26    0.32 
   9  -3  10    0.47    0.31 
  10  -3  10    0.46    0.34 
  11  -3  10   -0.03    0.34 
  12  -3  10    0.36    0.40 
  12   2 -10    0.45    0.44 
  11   2 -10   -0.20    0.40 
  10   2 -10    0.82    0.42 
   9   2 -10    0.57    0.35 
   8   2 -10    0.34    0.31 
   7   2 -10    0.66    0.34 
   6   2 -10    0.15    0.26 
   5   2 -10    8.29    0.48 
   5   2 -10    8.33    0.62 
   4   2 -10    1.58    0.29 
   4   2 -10    1.81    0.20 
   3   2 -10    0.53    0.20 
   3   2 -10    0.53    0.13 
   2   2 -10    0.31    0.17 
   0   2 -10   -0.07    0.12 
   0  -2  10    0.08    0.12 
  -1   2 -10    1.82    0.23 
  -1   2 -10    1.45    0.18 
   1  -2  10    1.74    0.21 
  -2   2 -10    7.95    0.50 
  -2   2 -10    8.86    0.48 
   2  -2  10    8.08    0.50 
  -3   2 -10    1.99    0.25 
  -3   2 -10    1.81    0.16 
   3  -2  10    1.88    0.24 
  -4   2 -10    0.63    0.20 
   4  -2  10    0.84    0.21 
  -5   2 -10    7.87    0.52 
   5  -2  10    7.88    0.54 
  -6   2 -10   13.58    0.79 
   6  -2  10   13.50    0.80 
  -7   2 -10    1.89    0.32 
   7  -2  10    1.96    0.34 
  -8   2 -10    0.33    0.28 
   8  -2  10    0.58    0.28 
  -9   2 -10    1.97    0.37 
   9  -2  10    1.43    0.36 
  10  -2  10    1.78    0.42 
  11  -2  10    0.21    0.34 
  12  -2  10    0.40    0.39 
  13  -2  10    0.63    0.43 
  12   1 -10    2.46    0.55 
  11   1 -10    0.10    0.40 
  10   1 -10    0.33    0.39 
   9   1 -10    0.24    0.32 
   8   1 -10    1.16    0.38 
   7   1 -10    1.56    0.38 
   6   1 -10    0.15    0.26 
   6   1 -10    0.08    0.18 
   5   1 -10   -0.09    0.24 
   5   1 -10    0.23    0.16 
   4   1 -10    1.04    0.26 
   4   1 -10    0.76    0.18 
   3   1 -10    0.37    0.20 
   3   1 -10    0.46    0.14 
   2   1 -10    0.03    0.16 
   2   1 -10   -0.09    0.11 
  -1  -1  10   -0.03    0.11 
   0  -1  10    3.39    0.28 
  -1   1 -10    0.05    0.15 
   1  -1  10    0.04    0.12 
  -2   1 -10    4.28    0.31 
   2  -1  10    3.20    0.30 
  -3   1 -10    1.99    0.23 
   3  -1  10    1.77    0.24 
  -4   1 -10    0.08    0.16 
   4  -1  10    0.34    0.17 
  -5   1 -10   -0.14    0.16 
   5  -1  10    0.20    0.19 
  -6   1 -10   -0.19    0.18 
   6  -1  10    0.19    0.20 
  -7   1 -10    1.48    0.28 
   7  -1  10    1.63    0.31 
  -8   1 -10   -0.06    0.25 
   8  -1  10   -0.11    0.22 
   9  -1  10    0.88    0.30 
  10  -1  10   -0.25    0.28 
  11  -1  10    0.16    0.33 
  12  -1  10    1.65    0.47 
  13  -1  10   -0.21    0.39 
  12   0 -10    0.66    0.47 
  11   0 -10    2.40    0.55 
  10   0 -10    1.21    0.42 
   9   0 -10    0.10    0.33 
   8   0 -10    0.00    0.31 
   7   0 -10    2.73    0.35 
   7   0 -10    3.06    0.44 
   6   0 -10    1.13    0.33 
   6   0 -10    0.93    0.23 
   5   0 -10    5.05    0.49 
   5   0 -10    5.31    0.39 
   4   0 -10   -0.01    0.15 
   4   0 -10   -0.24    0.18 
   3   0 -10    1.69    0.20 
   2   0 -10    0.47    0.15 
  -1   0  10    0.08    0.12 
   0   0  10    5.09    0.36 
   1   0  10    1.68    0.21 
  -2   0 -10    4.74    0.34 
   2   0  10    5.08    0.37 
  -3   0 -10    2.96    0.26 
   3   0  10    2.88    0.28 
  -4   0 -10    0.72    0.18 
   4   0  10    0.59    0.17 
  -5   0 -10   -0.04    0.15 
   5   0  10    0.09    0.16 
  -6   0 -10    0.16    0.18 
   6   0  10    0.28    0.21 
  -7   0 -10    1.48    0.25 
   7   0  10    1.44    0.29 
  -8   0 -10    1.72    0.29 
   8   0  10    1.43    0.32 
   9   0  10    0.75    0.29 
  10   0  10    0.30    0.29 
  11   0  10    3.69    0.51 
  12   0  10    2.52    0.49 
  13   0  10    1.55    0.48 
  11  -1 -10    0.34    0.42 
  10  -1 -10    0.60    0.39 
   9  -1 -10    0.03    0.36 
   8  -1 -10   -0.30    0.26 
   8  -1 -10   -0.56    0.30 
   7  -1 -10    1.61    0.32 
   7  -1 -10    1.56    0.36 
   6  -1 -10   10.20    0.64 
   6  -1 -10   11.53    0.77 
   5  -1 -10    0.60    0.21 
   5  -1 -10    0.66    0.26 
   4  -1 -10    0.42    0.18 
   3  -1 -10    6.89    0.43 
   2  -1 -10    4.85    0.34 
   1  -1 -10   -0.08    0.12 
   0   1  10    4.20    0.33 
   1   1  10    0.08    0.12 
  -2  -1 -10    0.20    0.13 
   2   1  10    0.29    0.15 
  -3  -1 -10    0.57    0.15 
   3   1  10    0.23    0.15 
  -4  -1 -10    0.28    0.14 
   4   1  10    0.27    0.16 
  -5  -1 -10   -0.02    0.13 
   5   1  10    0.08    0.17 
  -6  -1 -10    0.14    0.16 
   6   1  10    0.43    0.20 
  -7  -1 -10    0.83    0.20 
   7   1  10    0.73    0.25 
  -8  -1 -10    0.17    0.18 
   8   1  10   -0.05    0.23 
   9   1  10    0.02    0.25 
  10   1  10    1.43    0.36 
  11   1  10    1.18    0.37 
  12   1  10    0.19    0.35 
  13   1  10   -0.22    0.36 
  14   1  10    0.34    0.42 
  11  -2 -10    0.20    0.41 
  10  -2 -10    0.09    0.38 
   9  -2 -10   -0.12    0.37 
   9  -2 -10    0.54    0.36 
   8  -2 -10   -0.20    0.28 
   8  -2 -10   -0.03    0.34 
   7  -2 -10   -0.07    0.27 
   7  -2 -10    0.07    0.27 
   6  -2 -10    0.39    0.29 
   6  -2 -10    0.85    0.27 
   5  -2 -10    0.71    0.25 
   4  -2 -10    1.41    0.25 
   3  -2 -10    0.27    0.17 
   2  -2 -10    1.64    0.22 
   1  -2 -10    7.40    0.46 
   0   2  10    3.30    0.30 
   1   2  10   -0.04    0.13 
   2   2  10    0.32    0.16 
  -3  -2 -10    4.16    0.29 
   3   2  10    4.52    0.35 
  -4  -2 -10    0.96    0.16 
   4   2  10    0.89    0.19 
  -5  -2 -10    2.06    0.22 
   5   2  10    2.24    0.28 
  -6  -2 -10    1.00    0.19 
   6   2  10    0.80    0.23 
  -7  -2 -10    0.71    0.19 
   7   2  10    0.43    0.22 
  -8  -2 -10   10.74    0.59 
   8   2  10    9.77    0.68 
   9   2  10   11.44    0.77 
  10   2  10    1.03    0.32 
  11   2  10    1.82    0.41 
  12   2  10    1.46    0.40 
  13   2  10    1.17    0.41 
  14   2  10    0.10    0.37 
  10  -3 -10    1.05    0.46 
   9  -3 -10    3.59    0.52 
   9  -3 -10    3.69    0.54 
   8  -3 -10    4.56    0.57 
   8  -3 -10    4.17    0.50 
   7  -3 -10    0.66    0.33 
   7  -3 -10    0.56    0.32 
   6  -3 -10    0.28    0.27 
   5  -3 -10    4.91    0.45 
   4  -3 -10    1.42    0.29 
   3  -3 -10    1.86    0.27 
   2  -3 -10    0.79    0.20 
   1  -3 -10    0.44    0.18 
   0  -3 -10   12.48    0.67 
   1   3  10   -0.08    0.13 
   2   3  10    0.25    0.15 
  -3  -3 -10    5.29    0.32 
   3   3  10    4.89    0.39 
  -4  -3 -10    2.43    0.20 
   4   3  10    2.06    0.26 
  -5  -3 -10    0.28    0.12 
   5   3  10   -0.01    0.16 
  -6  -3 -10    0.81    0.15 
   6   3  10    0.52    0.17 
   6   3  10    0.51    0.20 
  -7  -3 -10    0.80    0.16 
   7   3  10    0.82    0.24 
   7   3  10    0.60    0.18 
   8   3  10    3.19    0.37 
   9   3  10    0.44    0.26 
  10   3  10    0.32    0.26 
  11   3  10   -0.21    0.28 
  12   3  10   -0.32    0.31 
  13   3  10   -0.23    0.34 
  14   3  10    0.83    0.42 
  10  -4 -10   -0.25    0.41 
  10  -4 -10    0.50    0.43 
   9  -4 -10    0.56    0.40 
   9  -4 -10    0.49    0.41 
   8  -4 -10    1.30    0.40 
   8  -4 -10    0.79    0.40 
   7  -4 -10    1.62    0.38 
   7  -4 -10    1.40    0.38 
   6  -4 -10    0.03    0.26 
   5  -4 -10   -0.09    0.25 
   4  -4 -10    2.28    0.35 
   3  -4 -10    0.73    0.24 
   2  -4 -10    0.27    0.19 
   1  -4 -10    1.32    0.24 
   0  -4 -10    1.07    0.22 
   1   4  10    0.27    0.17 
   2   4  10    1.91    0.26 
  -3  -4 -10    4.29    0.27 
   3   4  10    4.00    0.35 
  -4  -4 -10    3.47    0.24 
   4   4  10    3.50    0.34 
  -5  -4 -10   -0.06    0.10 
   5   4  10    0.34    0.20 
   5   4  10    0.11    0.16 
   6   4  10    8.69    0.60 
   6   4  10   10.89    0.67 
   7   4  10    4.13    0.39 
   8   4  10    0.77    0.23 
   8   4  10    0.54    0.24 
   9   4  10    0.85    0.28 
  10   4  10    0.01    0.24 
  11   4  10    0.21    0.29 
  12   4  10    0.80    0.34 
  13   4  10    2.16    0.45 
  14   4  10    2.26    0.49 
   9  -5 -10    0.84    0.47 
   9  -5 -10   -0.01    0.39 
   8  -5 -10    0.90    0.39 
   8  -5 -10    1.21    0.43 
   7  -5 -10   -0.11    0.34 
   6  -5 -10    1.75    0.39 
   5  -5 -10   -0.27    0.26 
   4  -5 -10    2.90    0.38 
   3  -5 -10    7.81    0.57 
   2  -5 -10    2.91    0.34 
   1  -5 -10    1.01    0.23 
   0  -5 -10    6.87    0.48 
  -1  -5 -10    5.17    0.39 
   2   5  10    0.37    0.19 
   3   5  10    0.04    0.16 
   4   5  10    1.29    0.24 
   5   5  10    0.49    0.20 
   5   5  10    0.48    0.21 
   6   5  10    2.19    0.31 
   6   5  10    2.43    0.30 
   7   5  10    2.52    0.34 
   7   5  10    2.98    0.35 
   8   5  10    0.97    0.27 
   8   5  10    1.05    0.26 
   9   5  10    0.04    0.08 
   9   5  10    0.22    0.24 
  10   5  10    0.02    0.26 
  11   5  10    0.14    0.27 
  12   5  10    0.11    0.30 
  13   5  10    0.47    0.36 
  14   5  10    0.23    0.36 
   9  -6 -10    0.33    0.39 
   9  -6 -10   -0.08    0.46 
   8  -6 -10    0.04    0.35 
   8  -6 -10    0.52    0.45 
   7  -6 -10    0.72    0.40 
   6  -6 -10   -0.08    0.32 
   5  -6 -10    0.93    0.34 
   4  -6 -10    0.08    0.30 
   3  -6 -10    0.71    0.29 
   2  -6 -10    0.61    0.26 
   1  -6 -10    2.14    0.31 
   0  -6 -10    0.31    0.21 
  -1  -6 -10    3.29    0.34 
  -2  -6 -10   10.01    0.60 
   3   6  10    0.38    0.21 
   4   6  10    4.58    0.41 
   5   6  10    0.93    0.26 
   5   6  10    0.50    0.21 
   6   6  10    0.62    0.22 
   6   6  10    1.28    0.28 
   7   6  10    0.19    0.20 
   7   6  10    0.08    0.21 
   8   6  10    1.28    0.29 
   8   6  10    1.13    0.31 
   9   6  10    4.32    0.44 
   9   6  10    3.88    0.47 
  10   6  10    0.30    0.29 
  10   6  10   -0.09    0.23 
  11   6  10    0.38    0.28 
  12   6  10    7.16    0.62 
  13   6  10    3.03    0.46 
  14   6  10    0.15    0.36 
  15   6  10   -0.35    0.36 
   8  -7 -10    0.03    0.46 
   8  -7 -10    1.03    0.42 
   7  -7 -10    0.85    0.43 
   6  -7 -10    4.63    0.56 
   5  -7 -10    0.98    0.37 
   4  -7 -10    0.48    0.32 
   3  -7 -10   -0.16    0.28 
   2  -7 -10    5.64    0.50 
   1  -7 -10    4.90    0.44 
   0  -7 -10    4.79    0.42 
  -1  -7 -10    2.79    0.33 
  -2  -7 -10    0.00    0.20 
  -3  -7 -10    0.78    0.22 
   4   7  10    9.34    0.60 
   5   7  10    4.32    0.46 
   5   7  10    4.31    0.40 
   6   7  10    0.26    0.27 
   6   7  10    0.66    0.23 
   7   7  10    1.03    0.31 
   7   7  10    1.40    0.28 
   8   7  10    0.12    0.23 
   8   7  10    0.16    0.28 
   9   7  10    0.84    0.27 
   9   7  10    1.46    0.36 
  10   7  10    1.33    0.38 
  10   7  10    1.01    0.30 
  11   7  10    2.01    0.38 
  12   7  10   -0.10    0.29 
  13   7  10    0.01    0.31 
  14   7  10   -0.30    0.29 
  15   7  10    0.58    0.42 
   7  -8 -10   -0.29    0.41 
   6  -8 -10    0.41    0.42 
   5  -8 -10    0.22    0.36 
   4  -8 -10    2.33    0.44 
   3  -8 -10    0.04    0.30 
   2  -8 -10   -0.08    0.26 
   1  -8 -10    0.12    0.25 
   0  -8 -10    0.74    0.27 
  -1  -8 -10    1.79    0.30 
  -2  -8 -10   -0.07    0.22 
  -3  -8 -10    1.67    0.28 
   4   8  10    0.66    0.25 
   4   8  10    0.40    0.28 
   5   8  10    1.35    0.27 
   5   8  10    0.74    0.32 
   6   8  10    4.07    0.50 
   6   8  10    3.92    0.40 
   7   8  10   -0.09    0.20 
   7   8  10    0.10    0.27 
   8   8  10    1.33    0.37 
   8   8  10    0.52    0.25 
   9   8  10    2.01    0.33 
   9   8  10    2.93    0.46 
  10   8  10    5.94    0.53 
  10   8  10    5.71    0.64 
  11   8  10    0.38    0.34 
  11   8  10    0.10    0.24 
  12   8  10    0.24    0.28 
  13   8  10    0.42    0.31 
  14   8  10   -0.60    0.30 
  15   8  10    2.09    0.48 
   7  -9 -10    0.65    0.50 
   6  -9 -10    0.16    0.42 
   5  -9 -10   -0.04    0.38 
   4  -9 -10    1.58    0.40 
   3  -9 -10   -0.12    0.31 
   2  -9 -10    3.29    0.45 
   1  -9 -10    1.47    0.35 
   0  -9 -10    1.46    0.32 
  -1  -9 -10    3.25    0.39 
  -2  -9 -10    9.32    0.62 
  -3  -9 -10    3.46    0.38 
  -4  -9 -10    0.57    0.25 
   4   9  10    0.39    0.31 
   5   9  10    0.37    0.33 
   5   9  10    0.40    0.24 
   6   9  10    1.80    0.40 
   6   9  10    1.45    0.29 
   7   9  10    0.37    0.31 
   7   9  10    0.78    0.27 
   8   9  10   -0.01    0.23 
   8   9  10    0.26    0.33 
   9   9  10    1.50    0.31 
   9   9  10    1.96    0.44 
  10   9  10    0.41    0.26 
  10   9  10    0.26    0.36 
  11   9  10    2.39    0.50 
  11   9  10    1.21    0.34 
  12   9  10   -0.46    0.34 
  12   9  10   -0.01    0.29 
  13   9  10    1.06    0.36 
  14   9  10   -0.47    0.31 
   6 -10 -10   -0.54    0.45 
   5 -10 -10    0.56    0.45 
   4 -10 -10    0.30    0.40 
   3 -10 -10   -0.35    0.34 
   2 -10 -10    0.69    0.36 
   1 -10 -10    0.03    0.29 
   0 -10 -10    0.46    0.31 
  -1 -10 -10    0.40    0.27 
  -2 -10 -10    0.06    0.24 
  -3 -10 -10    0.46    0.26 
  -4 -10 -10   -0.02    0.23 
   4  10  10    0.74    0.35 
  -5 -10 -10    2.60    0.35 
   5  10  10    3.32    0.51 
   6  10  10   -0.10    0.30 
   6  10  10   -0.22    0.22 
   7  10  10    4.14    0.56 
   7  10  10    3.28    0.40 
   8  10  10    0.38    0.38 
   8  10  10   -0.02    0.23 
   9  10  10    2.48    0.38 
   9  10  10    2.46    0.51 
  10  10  10    0.32    0.38 
  10  10  10   -0.16    0.23 
  11  10  10    0.00    0.39 
  11  10  10    0.33    0.29 
  12  10  10    2.11    0.53 
  12  10  10    1.07    0.35 
  13  10  10   -0.09    0.31 
  14  10  10    0.32    0.36 
   5 -11 -10    0.33    0.46 
   4 -11 -10    0.05    0.42 
   3 -11 -10    0.96    0.43 
   2 -11 -10    3.39    0.52 
   1 -11 -10    0.90    0.40 
   0 -11 -10   -0.25    0.27 
  -1 -11 -10    0.97    0.33 
  -2 -11 -10    1.64    0.34 
  -3 -11 -10    0.93    0.29 
  -4 -11 -10    4.31    0.44 
  -5 -11 -10    0.83    0.29 
   5  11  10    0.83    0.41 
  -6 -11 -10   -0.21    0.24 
   6  11  10   -0.15    0.34 
   7  11  10    2.44    0.51 
   7  11  10    1.58    0.33 
   8  11  10    2.24    0.51 
   8  11  10    1.21    0.32 
   9  11  10    0.91    0.45 
   9  11  10    1.41    0.32 
  10  11  10    0.21    0.26 
  10  11  10    0.03    0.40 
  11  11  10    2.11    0.54 
  11  11  10    0.74    0.31 
  12  11  10    0.25    0.45 
  12  11  10   -0.18    0.28 
  13  11  10    0.45    0.48 
  13  11  10    0.08    0.31 
  14  11  10    0.66    0.35 
   4 -12 -10    0.18    0.45 
   3 -12 -10    0.42    0.41 
   2 -12 -10    0.31    0.40 
   1 -12 -10    2.10    0.44 
   0 -12 -10    1.01    0.37 
  -1 -12 -10    0.24    0.32 
  -2 -12 -10    1.44    0.37 
  -3 -12 -10    0.29    0.28 
  -4 -12 -10    0.25    0.26 
  -5 -12 -10    0.17    0.26 
   5  12  10    0.07    0.39 
  -6 -12 -10   -0.17    0.23 
   6  12  10   -0.42    0.35 
  -7 -12 -10    0.41    0.26 
   7  12  10   -0.35    0.37 
   8  12  10    0.43    0.39 
   8  12  10   -0.04    0.27 
   9  12  10    0.53    0.30 
   9  12  10    0.87    0.42 
  10  12  10    0.26    0.42 
  10  12  10   -0.62    0.23 
  11  12  10    0.54    0.44 
  11  12  10   -0.02    0.28 
  12  12  10    3.22    0.64 
  12  12  10    2.36    0.43 
  13  12  10    0.85    0.55 
  13  12  10    0.54    0.34 
  14  12  10    0.09    0.35 
   3 -13 -10    0.13    0.42 
   2 -13 -10    0.15    0.36 
   1 -13 -10    0.69    0.39 
   0 -13 -10   -0.09    0.34 
  -1 -13 -10    0.49    0.33 
  -2 -13 -10    0.91    0.36 
  -3 -13 -10    0.24    0.29 
  -4 -13 -10    1.23    0.34 
  -5 -13 -10    2.74    0.40 
   5  13  10    3.34    0.58 
  -6 -13 -10    0.62    0.31 
   6  13  10    0.78    0.44 
  -7 -13 -10    0.10    0.29 
   7  13  10   -0.73    0.35 
  -8 -13 -10   -0.03    0.27 
   8  13  10   -0.09    0.41 
  -9 -13 -10    0.56    0.30 
   9  13  10   -0.37    0.40 
  10  13  10   -0.12    0.28 
  10  13  10   -0.10    0.40 
  11  13  10    0.08    0.46 
  11  13  10   -0.11    0.28 
  12  13  10    2.38    0.42 
  12  13  10    2.16    0.61 
  13  13  10    0.41    0.35 
  13  13  10   -0.07    0.51 
   1 -14 -10    0.33    0.38 
   0 -14 -10   -0.19    0.37 
  -1 -14 -10    0.03    0.35 
  -2 -14 -10    0.06    0.34 
  -3 -14 -10   -0.15    0.33 
  -4 -14 -10    0.10    0.32 
  -5 -14 -10    0.27    0.32 
   5  14  10    0.59    0.45 
  -6 -14 -10    1.27    0.35 
   6  14  10    0.77    0.48 
  -7 -14 -10    0.17    0.28 
   7  14  10    0.00    0.42 
  -8 -14 -10    2.36    0.39 
   8  14  10    2.87    0.62 
  -9 -14 -10   -0.47    0.26 
   9  14  10   -0.12    0.43 
 -10 -14 -10    1.10    0.34 
  10  14  10    0.63    0.47 
  11  14  10   -0.83    0.43 
  11  14  10    0.24    0.33 
  12  14  10    0.61    0.53 
  12  14  10    0.48    0.36 
  13  14  10    1.30    0.58 
  13  14  10    0.63    0.37 
   0 -15 -10    0.49    0.41 
  -1 -15 -10   -0.17    0.37 
  -2 -15 -10    0.32    0.35 
  -3 -15 -10    0.51    0.37 
  -4 -15 -10   -0.06    0.32 
  -5 -15 -10   -0.12    0.31 
  -6 -15 -10   -0.30    0.29 
   6  15  10   -0.27    0.39 
  -7 -15 -10   -0.13    0.31 
   7  15  10   -0.04    0.43 
  -8 -15 -10    0.33    0.33 
   8  15  10   -0.07    0.43 
  -9 -15 -10    0.13    0.31 
   9  15  10    0.03    0.47 
 -10 -15 -10    1.16    0.36 
  10  15  10    0.95    0.53 
 -11 -15 -10   -0.03    0.31 
  11  15  10    0.31    0.51 
 -12 -15 -10    0.61    0.36 
  12  15  10    1.11    0.58 
  -2 -16 -10    0.05    0.39 
  -3 -16 -10   -0.03    0.36 
  -4 -16 -10   -0.32    0.32 
  -5 -16 -10   -0.34    0.34 
  -6 -16 -10    0.45    0.36 
   6  16  10    1.03    0.55 
  -7 -16 -10    0.00    0.30 
   7  16  10    0.20    0.48 
  -8 -16 -10    0.54    0.34 
   8  16  10    0.15    0.51 
  -9 -16 -10    0.30    0.33 
   9  16  10   -0.08    0.46 
 -10 -16 -10   -0.18    0.33 
  10  16  10   -0.33    0.48 
  -6 -17 -10    0.09    0.37 
   6  17  10    0.05    0.52 
  -7 -17 -10    0.94    0.39 
   7  17  10    0.00    0.49 
  -8 -17 -10    0.71    0.37 
   8  17  10    0.33    0.51 
   6  16 -11    0.32    0.37 
   5  16 -11    0.68    0.39 
   4  16 -11   -0.19    0.38 
   3  16 -11    0.16    0.37 
   9  15 -11    0.51    0.36 
   8  15 -11    0.06    0.36 
   8  15 -11    0.69    0.43 
   7  15 -11    0.11    0.37 
   6  15 -11    0.12    0.35 
   5  15 -11    0.50    0.38 
   4  15 -11    0.28    0.36 
   3  15 -11   -0.06    0.37 
   2  15 -11    0.26    0.39 
   1  15 -11    0.60    0.43 
   0  15 -11    0.34    0.42 
  10  14 -11    0.42    0.45 
  10  14 -11    0.22    0.37 
   9  14 -11    0.05    0.34 
   9  14 -11    0.32    0.42 
   8  14 -11    0.24    0.38 
   8  14 -11   -0.33    0.33 
   7  14 -11    0.66    0.35 
   7  14 -11    0.14    0.36 
   6  14 -11   -0.14    0.34 
   5  14 -11    0.32    0.35 
   4  14 -11   -0.18    0.30 
   3  14 -11    0.42    0.37 
   2  14 -11    0.06    0.36 
   1  14 -11    0.34    0.37 
   0  14 -11   -0.14    0.39 
  -1  14 -11    0.16    0.39 
  -2  14 -11    0.59    0.46 
  10  13 -11   -0.02    0.39 
   9  13 -11   -0.16    0.34 
   9  13 -11   -0.24    0.38 
   8  13 -11    1.33    0.39 
   8  13 -11    1.40    0.42 
   7  13 -11    0.66    0.37 
   7  13 -11    0.41    0.35 
   6  13 -11    0.62    0.35 
   6  13 -11    0.37    0.35 
   5  13 -11    1.25    0.39 
   4  13 -11    1.05    0.36 
   3  13 -11    1.06    0.38 
   2  13 -11    0.91    0.41 
   1  13 -11    1.78    0.45 
   0  13 -11    0.72    0.40 
  -1  13 -11   -0.12    0.37 
  -2  13 -11    0.91    0.44 
  -3  13 -11    0.36    0.42 
  -4  13 -11    0.11    0.45 
  11  12 -11    0.43    0.46 
  10  12 -11    0.62    0.44 
   9  12 -11    1.03    0.41 
   8  12 -11    2.50    0.45 
   8  12 -11    1.77    0.41 
   7  12 -11    0.10    0.34 
   7  12 -11    0.18    0.32 
   6  12 -11    0.67    0.34 
   6  12 -11    0.17    0.31 
   5  12 -11    0.06    0.28 
   5  12 -11    0.41    0.32 
   4  12 -11   -0.26    0.30 
   3  12 -11    1.44    0.37 
   2  12 -11   -0.12    0.29 
   1  12 -11   -0.18    0.34 
   0  12 -11    0.43    0.35 
  -1  12 -11    0.31    0.39 
  -2  12 -11    0.09    0.37 
  -3  12 -11   -0.27    0.38 
  -4  12 -11   -0.50    0.41 
  -5  12 -11    0.28    0.45 
  11  11 -11    0.32    0.43 
  10  11 -11    1.21    0.46 
   9  11 -11   -0.19    0.35 
   8  11 -11    0.20    0.34 
   7  11 -11    1.91    0.39 
   7  11 -11    0.99    0.33 
   6  11 -11    0.39    0.32 
   6  11 -11   -0.28    0.27 
   5  11 -11    0.86    0.33 
   5  11 -11    0.49    0.29 
   4  11 -11    2.08    0.35 
   4  11 -11    2.34    0.39 
   3  11 -11    0.02    0.31 
   2  11 -11    3.72    0.46 
   1  11 -11    0.91    0.37 
   0  11 -11    0.25    0.34 
  -1  11 -11    0.55    0.35 
  -2  11 -11    1.35    0.43 
  -3  11 -11    0.82    0.45 
  -4  11 -11    1.28    0.48 
   4 -11  11    1.46    0.42 
  -5  11 -11    1.01    0.48 
   5 -11  11    0.41    0.38 
  -6  11 -11   -0.20    0.47 
   6 -11  11   -0.31    0.35 
  12  10 -11    0.37    0.45 
  11  10 -11    1.10    0.50 
  10  10 -11    0.32    0.42 
   9  10 -11    0.26    0.38 
   8  10 -11    0.33    0.35 
   7  10 -11    0.21    0.31 
   6  10 -11    0.91    0.32 
   5  10 -11   -0.18    0.28 
   5  10 -11   -0.24    0.24 
   4  10 -11    0.67    0.26 
   4  10 -11    0.57    0.31 
   3  10 -11    0.98    0.26 
   3  10 -11    1.08    0.32 
   2  10 -11    0.66    0.33 
   1  10 -11    1.98    0.38 
   0  10 -11    2.57    0.42 
  -1  10 -11   -0.01    0.33 
  -2  10 -11    0.60    0.38 
  -3  10 -11    1.81    0.44 
   3 -10  11    1.28    0.35 
  -4  10 -11    0.39    0.39 
   4 -10  11    0.08    0.30 
  -5  10 -11    0.02    0.41 
   5 -10  11    0.04    0.31 
  -6  10 -11    0.56    0.44 
   6 -10  11    0.51    0.38 
  -7  10 -11   -0.05    0.45 
   7 -10  11    0.28    0.39 
  12   9 -11   -0.29    0.46 
  11   9 -11    0.78    0.47 
  10   9 -11    0.91    0.43 
   9   9 -11    0.27    0.38 
   8   9 -11    0.50    0.34 
   7   9 -11    2.96    0.44 
   6   9 -11   -0.05    0.27 
   5   9 -11    0.76    0.28 
   4   9 -11    3.33    0.37 
   4   9 -11    2.95    0.40 
   3   9 -11    1.56    0.29 
   3   9 -11    2.54    0.37 
   2   9 -11    0.00    0.25 
   1   9 -11    0.33    0.29 
   0   9 -11    0.09    0.27 
  -1   9 -11   -0.06    0.32 
  -2   9 -11    7.80    0.62 
   2  -9  11    5.77    0.52 
  -3   9 -11    0.55    0.35 
   3  -9  11    0.43    0.27 
  -4   9 -11    0.09    0.36 
   4  -9  11    0.80    0.31 
  -5   9 -11    0.83    0.41 
   5  -9  11    0.80    0.34 
  -6   9 -11    0.44    0.40 
   6  -9  11   -0.29    0.29 
  -7   9 -11    0.10    0.46 
   7  -9  11   -0.23    0.34 
  -8   9 -11    0.29    0.47 
   8  -9  11   -0.18    0.39 
  12   8 -11   -0.09    0.42 
  11   8 -11    0.14    0.45 
  10   8 -11    0.00    0.41 
   9   8 -11   -0.31    0.35 
   8   8 -11   -0.04    0.33 
   7   8 -11    1.00    0.34 
   6   8 -11    0.65    0.31 
   5   8 -11    2.87    0.37 
   4   8 -11    0.01    0.25 
   4   8 -11    0.44    0.24 
   3   8 -11    0.43    0.22 
   3   8 -11    0.10    0.26 
   2   8 -11    2.26    0.26 
   2   8 -11    2.25    0.36 
   1   8 -11   -0.05    0.28 
   0   8 -11    8.26    0.62 
  -1   8 -11    0.70    0.31 
   1  -8  11    0.15    0.09 
  -2   8 -11   -0.32    0.27 
   2  -8  11    0.26    0.22 
  -3   8 -11   -0.04    0.30 
   3  -8  11   -0.17    0.22 
  -4   8 -11    0.61    0.35 
   4  -8  11    0.29    0.27 
  -5   8 -11    0.45    0.38 
   5  -8  11   -0.27    0.26 
  -6   8 -11    1.34    0.41 
   6  -8  11    0.64    0.33 
  -7   8 -11    0.42    0.43 
   7  -8  11    0.47    0.36 
  -8   8 -11    0.83    0.46 
   8  -8  11    0.88    0.44 
   9  -8  11    0.03    0.40 
  12   7 -11    0.28    0.45 
  11   7 -11    1.35    0.48 
  10   7 -11    0.76    0.44 
   9   7 -11    0.21    0.36 
   8   7 -11   -0.02    0.33 
   7   7 -11    0.26    0.29 
   6   7 -11    0.06    0.28 
   5   7 -11   10.10    0.71 
   4   7 -11    2.68    0.34 
   3   7 -11   -0.14    0.18 
   3   7 -11    0.04    0.24 
   2   7 -11   -0.13    0.25 
   2   7 -11    0.28    0.18 
   1   7 -11   22.70    1.21 
   1   7 -11   23.47    1.21 
   0   7 -11   12.62    0.76 
   0  -7  11   12.31    0.68 
  -1   7 -11    0.53    0.28 
   1  -7  11    0.56    0.15 
  -2   7 -11    2.54    0.38 
   2  -7  11    2.78    0.32 
  -3   7 -11    0.25    0.29 
   3  -7  11   -0.04    0.20 
  -4   7 -11    0.20    0.31 
   4  -7  11   -0.07    0.23 
  -5   7 -11    0.21    0.32 
   5  -7  11    0.00    0.26 
  -6   7 -11    0.57    0.38 
   6  -7  11   -0.19    0.29 
  -7   7 -11    1.43    0.43 
   7  -7  11    1.33    0.40 
  -8   7 -11    2.31    0.48 
   8  -7  11    1.72    0.46 
  -9   7 -11   -0.33    0.42 
   9  -7  11    0.14    0.36 
  12   6 -11   -0.31    0.43 
  11   6 -11   -0.16    0.44 
  10   6 -11    0.51    0.43 
   9   6 -11    0.10    0.37 
   8   6 -11    0.75    0.37 
   7   6 -11    0.86    0.35 
   6   6 -11    1.65    0.36 
   5   6 -11    0.43    0.27 
   4   6 -11    3.14    0.37 
   3   6 -11    0.30    0.20 
   2   6 -11    0.53    0.20 
   2   6 -11    0.75    0.25 
   1   6 -11    0.36    0.17 
   1   6 -11    0.40    0.24 
  -1  -6  11    0.42    0.14 
   0   6 -11    0.40    0.15 
   0   6 -11    0.26    0.24 
   0  -6  11    0.52    0.16 
  -1   6 -11    0.93    0.28 
   1  -6  11    1.07    0.21 
  -2   6 -11   -0.25    0.24 
   2  -6  11    0.32    0.18 
  -3   6 -11    0.92    0.30 
   3  -6  11    1.29    0.27 
  -4   6 -11    0.46    0.29 
   4  -6  11    0.67    0.26 
  -5   6 -11    0.06    0.29 
   5  -6  11    0.10    0.23 
  -6   6 -11    1.16    0.36 
   6  -6  11    1.51    0.35 
  -7   6 -11    0.98    0.38 
   7  -6  11    0.01    0.30 
  -8   6 -11   -0.26    0.35 
   8  -6  11    0.01    0.33 
  -9   6 -11    0.14    0.41 
   9  -6  11   -0.23    0.33 
  10  -6  11    0.42    0.40 
  12   5 -11    0.07    0.42 
  11   5 -11    0.26    0.43 
  10   5 -11    0.39    0.44 
   9   5 -11    0.04    0.35 
   8   5 -11    4.18    0.54 
   7   5 -11    7.32    0.63 
   6   5 -11    0.06    0.26 
   5   5 -11    2.26    0.36 
   4   5 -11    3.75    0.39 
   3   5 -11    2.32    0.30 
   2   5 -11    6.73    0.48 
   1   5 -11    2.07    0.24 
   1   5 -11    2.49    0.31 
  -1  -5  11    2.09    0.22 
   0   5 -11   -0.23    0.22 
   0   5 -11   -0.02    0.14 
   0  -5  11    0.07    0.13 
  -1   5 -11   10.83    0.70 
   1  -5  11   11.74    0.64 
  -2   5 -11    6.26    0.49 
   2  -5  11    5.78    0.43 
  -3   5 -11    1.28    0.31 
   3  -5  11    2.01    0.30 
  -4   5 -11    0.75    0.29 
   4  -5  11    0.71    0.25 
  -5   5 -11   17.34    0.98 
   5  -5  11   16.25    0.96 
  -6   5 -11    7.79    0.63 
   6  -5  11    7.33    0.62 
  -7   5 -11    0.52    0.34 
   7  -5  11    0.78    0.31 
  -8   5 -11    0.42    0.36 
   8  -5  11    0.01    0.29 
  -9   5 -11    0.84    0.41 
   9  -5  11    0.34    0.36 
  10  -5  11    0.38    0.38 
  11  -5  11   -0.63    0.36 
  12   4 -11    0.95    0.47 
  11   4 -11    0.13    0.40 
  10   4 -11    0.07    0.39 
   9   4 -11   -0.36    0.33 
   8   4 -11    0.81    0.35 
   7   4 -11   -0.20    0.27 
   6   4 -11    0.60    0.29 
   5   4 -11    0.79    0.29 
   4   4 -11    0.22    0.24 
   3   4 -11    0.17    0.19 
   2   4 -11    0.09    0.16 
  -2  -4  11   -0.01    0.11 
   1   4 -11    2.81    0.29 
  -1  -4  11    3.12    0.26 
   0   4 -11    2.87    0.27 
   0   4 -11    2.97    0.33 
  -1   4 -11    2.39    0.32 
  -1   4 -11    2.66    0.23 
   1  -4  11    3.06    0.28 
  -2   4 -11    0.11    0.21 
   2  -4  11    0.16    0.16 
  -3   4 -11    2.11    0.31 
   3  -4  11    2.11    0.28 
  -4   4 -11    0.89    0.28 
   4  -4  11    1.20    0.27 
  -5   4 -11    0.55    0.28 
   5  -4  11    0.69    0.26 
  -6   4 -11    0.54    0.30 
   6  -4  11   -0.06    0.22 
  -7   4 -11   -0.20    0.29 
   7  -4  11   -0.10    0.26 
  -8   4 -11    0.59    0.35 
   8  -4  11    0.38    0.30 
  -9   4 -11    0.19    0.35 
   9  -4  11    0.32    0.34 
  10  -4  11    0.24    0.37 
  11  -4  11   -0.08    0.35 
  12   3 -11    0.01    0.44 
  11   3 -11    0.00    0.40 
  10   3 -11    0.54    0.42 
   9   3 -11    2.56    0.50 
   8   3 -11    0.41    0.38 
   7   3 -11    0.59    0.32 
   6   3 -11    1.64    0.36 
   5   3 -11   -0.20    0.26 
   4   3 -11    0.85    0.27 
   3   3 -11    0.16    0.20 
   3   3 -11    0.17    0.13 
   2   3 -11   11.58    0.71 
  -2  -3  11   11.65    0.61 
   1   3 -11   35.45    1.88 
  -1  -3  11   38.64    1.71 
   0   3 -11    0.17    0.14 
   0   3 -11    0.46    0.18 
   0  -3  11    0.13    0.13 
  -1   3 -11    0.27    0.13 
  -1   3 -11   -0.05    0.17 
   1  -3  11    0.18    0.14 
  -2   3 -11   36.91    1.84 
  -2   3 -11   39.65    1.91 
   2  -3  11   39.07    1.81 
  -3   3 -11   15.38    0.86 
   3  -3  11   16.05    0.85 
  -4   3 -11    2.47    0.33 
   4  -3  11    2.31    0.31 
  -5   3 -11    2.63    0.35 
   5  -3  11    2.58    0.35 
  -6   3 -11    0.06    0.26 
   6  -3  11   -0.08    0.21 
  -7   3 -11    0.63    0.30 
   7  -3  11    0.39    0.25 
  -8   3 -11    3.25    0.44 
   8  -3  11    3.01    0.45 
  -9   3 -11    0.48    0.33 
   9  -3  11    0.47    0.33 
  10  -3  11    1.22    0.43 
  11  -3  11    1.19    0.42 
  12  -3  11   -0.06    0.37 
  12   2 -11    0.00    0.42 
  11   2 -11    0.19    0.39 
  10   2 -11    0.19    0.37 
   9   2 -11    0.01    0.35 
   8   2 -11    0.63    0.36 
   7   2 -11    1.36    0.39 
   6   2 -11    0.07    0.27 
   5   2 -11   -0.02    0.24 
   4   2 -11   -0.03    0.14 
   4   2 -11   -0.20    0.22 
   3   2 -11   -0.17    0.18 
   3   2 -11    0.12    0.12 
   2   2 -11    0.81    0.20 
   2   2 -11    0.99    0.16 
   1   2 -11    4.15    0.35 
   0   2 -11    0.94    0.19 
   0  -2  11    0.86    0.18 
  -1   2 -11    0.36    0.14 
  -1   2 -11    0.39    0.18 
   1  -2  11    0.26    0.15 
  -2   2 -11   -0.05    0.11 
  -2   2 -11    0.04    0.16 
   2  -2  11   -0.08    0.14 
  -3   2 -11    0.58    0.21 
   3  -2  11    0.19    0.16 
  -4   2 -11   -0.32    0.17 
   4  -2  11    0.05    0.17 
  -5   2 -11    0.16    0.23 
   5  -2  11    0.25    0.21 
  -6   2 -11    0.44    0.26 
   6  -2  11    1.24    0.29 
  -7   2 -11   -0.23    0.24 
   7  -2  11   -0.22    0.23 
  -8   2 -11    1.92    0.36 
   8  -2  11    1.42    0.35 
  -9   2 -11    4.84    0.50 
   9  -2  11    4.29    0.51 
  10  -2  11    0.56    0.35 
  11  -2  11   -0.34    0.34 
  12  -2  11   -0.30    0.33 
  11   1 -11    0.98    0.46 
  10   1 -11    0.13    0.36 
   9   1 -11    0.62    0.39 
   8   1 -11    1.01    0.41 
   7   1 -11   -0.59    0.29 
   6   1 -11    6.11    0.58 
   5   1 -11    6.05    0.56 
   5   1 -11    7.29    0.45 
   4   1 -11   29.68    1.59 
   4   1 -11   28.70    1.37 
   3   1 -11    6.90    0.42 
   3   1 -11    7.29    0.54 
   2   1 -11    0.66    0.16 
   2   1 -11    0.35    0.17 
  -1  -1  11    4.54    0.34 
   0  -1  11   12.39    0.67 
  -1   1 -11    4.38    0.34 
   1  -1  11    3.86    0.33 
  -2   1 -11    2.02    0.25 
   2  -1  11    2.31    0.26 
  -3   1 -11    0.00    0.16 
   3  -1  11    0.01    0.15 
  -4   1 -11    3.77    0.34 
   4  -1  11    3.40    0.34 
  -5   1 -11    4.30    0.36 
   5  -1  11    3.80    0.38 
  -6   1 -11    6.22    0.47 
   6  -1  11    6.04    0.50 
  -7   1 -11    2.92    0.35 
   7  -1  11    1.98    0.35 
  -8   1 -11   14.12    0.83 
   8  -1  11   13.21    0.87 
  -9   1 -11    7.04    0.56 
   9  -1  11    6.44    0.61 
  10  -1  11    0.73    0.36 
  11  -1  11   -0.02    0.32 
  12  -1  11    0.76    0.42 
  13  -1  11   -0.54    0.35 
  11   0 -11    0.19    0.46 
  10   0 -11    1.47    0.47 
   9   0 -11    2.58    0.48 
   8   0 -11    0.03    0.34 
   7   0 -11    0.02    0.30 
   6   0 -11    0.03    0.20 
   6   0 -11    0.29    0.30 
   5   0 -11    0.05    0.27 
   5   0 -11    0.16    0.18 
   4   0 -11    0.50    0.19 
   4   0 -11    0.53    0.26 
   3   0 -11    1.36    0.21 
   2   0 -11    0.07    0.15 
  -1   0  11    0.95    0.19 
   0   0  11    0.59    0.17 
   1   0  11    0.09    0.15 
  -2   0 -11    0.77    0.19 
   2   0  11    0.43    0.17 
  -3   0 -11    2.44    0.26 
   3   0  11    2.39    0.28 
  -4   0 -11    0.71    0.19 
   4   0  11    0.71    0.20 
  -5   0 -11   -0.11    0.16 
   5   0  11   -0.08    0.16 
  -6   0 -11    1.25    0.23 
   6   0  11    0.95    0.25 
  -7   0 -11    4.76    0.39 
   7   0  11    4.39    0.45 
  -8   0 -11    7.89    0.55 
   8   0  11    6.48    0.58 
  -9   0 -11    0.05    0.27 
   9   0  11    0.18    0.28 
  10   0  11    1.29    0.37 
  11   0  11    0.86    0.38 
  12   0  11   -0.53    0.35 
  13   0  11    0.17    0.42 
  11  -1 -11   -0.24    0.41 
  10  -1 -11    0.25    0.40 
   9  -1 -11   -0.16    0.38 
   8  -1 -11    0.02    0.33 
   7  -1 -11    5.05    0.46 
   7  -1 -11    4.40    0.54 
   6  -1 -11    1.87    0.31 
   6  -1 -11    1.08    0.34 
   5  -1 -11    0.29    0.23 
   5  -1 -11    0.40    0.29 
   4  -1 -11    1.27    0.23 
   3  -1 -11    1.29    0.22 
   2  -1 -11    0.62    0.18 
   1  -1 -11    0.31    0.16 
   0   1  11    0.31    0.16 
   1   1  11    5.37    0.40 
  -2  -1 -11   22.63    1.06 
   2   1  11   20.41    1.08 
  -3  -1 -11    7.56    0.45 
   3   1  11    7.10    0.49 
  -4  -1 -11    2.20    0.23 
   4   1  11    1.86    0.26 
  -5  -1 -11   12.96    0.70 
   5   1  11   13.26    0.75 
  -6  -1 -11   31.48    1.55 
   6   1  11   33.76    1.60 
  -7  -1 -11    7.49    0.51 
   7   1  11    9.00    0.59 
  -8  -1 -11    0.21    0.20 
   8   1  11    0.07    0.24 
   9   1  11    0.28    0.28 
  10   1  11    1.03    0.35 
  11   1  11    3.21    0.51 
  12   1  11    1.56    0.45 
  13   1  11    1.24    0.46 
  10  -2 -11   -0.41    0.38 
   9  -2 -11    0.32    0.39 
   8  -2 -11    0.25    0.32 
   8  -2 -11    0.32    0.35 
   7  -2 -11   -0.06    0.29 
   7  -2 -11   -0.06    0.29 
   6  -2 -11    0.19    0.29 
   6  -2 -11    0.16    0.26 
   5  -2 -11    1.21    0.29 
   4  -2 -11    0.65    0.25 
   3  -2 -11    2.32    0.28 
   2  -2 -11    0.67    0.20 
   1  -2 -11   -0.22    0.15 
   0   2  11    1.34    0.23 
   1   2  11    0.26    0.16 
   2   2  11    0.64    0.19 
  -3  -2 -11    1.57    0.19 
   3   2  11    1.29    0.24 
  -4  -2 -11    3.41    0.27 
   4   2  11    3.16    0.33 
  -5  -2 -11    2.38    0.24 
   5   2  11    2.35    0.30 
  -6  -2 -11    0.36    0.18 
   6   2  11    0.01    0.20 
  -7  -2 -11    0.59    0.18 
   7   2  11    0.32    0.23 
   8   2  11    0.56    0.26 
   9   2  11    0.05    0.26 
  10   2  11    0.16    0.30 
  11   2  11    0.05    0.31 
  12   2  11    0.17    0.35 
  13   2  11    1.53    0.47 
  14   2  11    0.02    0.41 
  10  -3 -11    0.27    0.40 
   9  -3 -11    0.60    0.42 
   8  -3 -11   -0.32    0.31 
   8  -3 -11    0.08    0.36 
   7  -3 -11    0.94    0.34 
   7  -3 -11    0.28    0.32 
   6  -3 -11   -0.12    0.30 
   6  -3 -11    0.23    0.28 
   5  -3 -11    1.05    0.31 
   4  -3 -11    0.29    0.25 
   3  -3 -11    0.22    0.21 
   2  -3 -11    1.03    0.24 
   1  -3 -11   17.26    0.90 
   0  -3 -11   25.21    1.23 
   1   3  11    1.18    0.23 
   2   3  11    0.01    0.16 
  -3  -3 -11   38.01    1.69 
   3   3  11   34.55    1.73 
  -4  -3 -11    7.08    0.42 
   4   3  11    8.05    0.52 
  -5  -3 -11    0.25    0.13 
   5   3  11   -0.07    0.17 
  -6  -3 -11    0.29    0.15 
   6   3  11    0.12    0.19 
   7   3  11    1.00    0.26 
   8   3  11    6.43    0.54 
   9   3  11    9.80    0.70 
  10   3  11    1.08    0.33 
  11   3  11    9.07    0.71 
  12   3  11    2.99    0.48 
  13   3  11    1.79    0.46 
  14   3  11    1.22    0.46 
   9  -4 -11    0.63    0.43 
   9  -4 -11    0.08    0.42 
   8  -4 -11    1.26    0.43 
   8  -4 -11    0.66    0.40 
   7  -4 -11    1.28    0.40 
   7  -4 -11    0.37    0.35 
   6  -4 -11    3.46    0.44 
   5  -4 -11    3.07    0.42 
   4  -4 -11    0.88    0.30 
   3  -4 -11    1.18    0.29 
   2  -4 -11    2.42    0.32 
   1  -4 -11    0.69    0.23 
   0  -4 -11    0.42    0.21 
  -1  -4 -11    1.31    0.24 
   2   4  11    2.08    0.28 
  -3  -4 -11    4.61    0.30 
   3   4  11    3.75    0.38 
  -4  -4 -11    0.32    0.13 
   4   4  11    0.65    0.21 
   5   4  11    0.30    0.21 
   6   4  11    0.25    0.20 
   7   4  11    0.74    0.25 
   7   4  11    0.17    0.10 
   8   4  11    0.60    0.26 
   9   4  11    0.15    0.25 
  10   4  11    0.77    0.30 
  11   4  11    4.96    0.54 
  12   4  11   -0.14    0.31 
  13   4  11    0.65    0.39 
  14   4  11   -0.19    0.38 
   9  -5 -11   -0.25    0.39 
   9  -5 -11    0.27    0.46 
   8  -5 -11   -0.03    0.34 
   8  -5 -11   -0.18    0.38 
   7  -5 -11    0.10    0.33 
   7  -5 -11   -0.17    0.34 
   6  -5 -11    0.38    0.31 
   5  -5 -11    0.01    0.29 
   4  -5 -11    1.68    0.36 
   3  -5 -11    3.89    0.43 
   2  -5 -11   -0.26    0.22 
   1  -5 -11    0.54    0.23 
   0  -5 -11    5.23    0.43 
  -1  -5 -11    2.65    0.32 
   2   5  11   -0.19    0.18 
   3   5  11   -0.24    0.18 
   4   5  11    6.60    0.49 
   5   5  11    6.23    0.48 
   6   5  11    6.23    0.50 
   6   5  11    6.99    0.53 
   7   5  11    5.62    0.50 
   7   5  11    5.87    0.49 
   8   5  11    2.93    0.36 
   8   5  11    3.22    0.38 
   9   5  11   21.03    1.15 
  10   5  11    2.72    0.40 
  11   5  11    0.31    0.30 
  12   5  11   -0.01    0.30 
  13   5  11    0.72    0.38 
  14   5  11    0.37    0.38 
   8  -6 -11    1.71    0.52 
   8  -6 -11    0.57    0.42 
   7  -6 -11   -0.10    0.38 
   6  -6 -11   -0.34    0.32 
   5  -6 -11    0.52    0.34 
   4  -6 -11    0.34    0.31 
   3  -6 -11    1.37    0.33 
   2  -6 -11    3.39    0.41 
   1  -6 -11    1.11    0.28 
   0  -6 -11    0.80    0.26 
  -1  -6 -11    3.37    0.37 
  -2  -6 -11    0.23    0.21 
   3   6  11   -0.07    0.19 
   4   6  11    0.26    0.21 
   5   6  11   -0.14    0.19 
   6   6  11    0.11    0.23 
   6   6  11    0.31    0.21 
   7   6  11    0.81    0.25 
   7   6  11    0.61    0.29 
   8   6  11    1.12    0.28 
   8   6  11    1.14    0.32 
   9   6  11    0.03    0.27 
   9   6  11    0.55    0.27 
  10   6  11    0.10    0.26 
  11   6  11    1.31    0.34 
  12   6  11    0.13    0.29 
  13   6  11    0.39    0.33 
  14   6  11    0.88    0.42 
   8  -7 -11    0.38    0.41 
   7  -7 -11    0.14    0.42 
   6  -7 -11    0.14    0.37 
   5  -7 -11   -0.49    0.32 
   4  -7 -11   -0.44    0.30 
   3  -7 -11    0.59    0.34 
   2  -7 -11   -0.01    0.27 
   1  -7 -11    0.07    0.26 
   0  -7 -11    0.12    0.23 
  -1  -7 -11    2.01    0.31 
  -2  -7 -11   12.93    0.76 
  -3  -7 -11   19.72    1.03 
   4   7  11    0.42    0.23 
   5   7  11    0.66    0.26 
   6   7  11    7.71    0.66 
   6   7  11    8.46    0.59 
   7   7  11   13.96    0.84 
   7   7  11   15.37    1.00 
   8   7  11   -0.24    0.27 
   8   7  11    0.28    0.25 
   9   7  11    0.58    0.31 
   9   7  11   -0.04    0.25 
  10   7  11    1.07    0.32 
  10   7  11    0.75    0.36 
  11   7  11    2.12    0.39 
  12   7  11    2.22    0.41 
  13   7  11    0.33    0.35 
  14   7  11    1.13    0.42 
   7  -8 -11   -0.37    0.43 
   6  -8 -11    0.39    0.43 
   5  -8 -11    1.16    0.43 
   4  -8 -11    1.62    0.44 
   3  -8 -11    1.62    0.40 
   2  -8 -11    3.04    0.43 
   1  -8 -11   -0.27    0.27 
   0  -8 -11    0.12    0.25 
  -1  -8 -11    0.61    0.26 
  -2  -8 -11    1.20    0.29 
  -3  -8 -11    1.34    0.30 
   4   8  11    1.12    0.29 
   5   8  11    0.06    0.28 
   5   8  11    0.09    0.22 
   6   8  11    1.17    0.35 
   6   8  11    1.92    0.33 
   7   8  11    0.41    0.25 
   7   8  11    1.51    0.39 
   8   8  11    0.15    0.23 
   8   8  11    0.57    0.35 
   9   8  11   -0.27    0.23 
   9   8  11    0.03    0.30 
  10   8  11    0.23    0.27 
  10   8  11   -0.26    0.32 
  11   8  11    0.30    0.29 
  12   8  11    0.66    0.33 
  13   8  11    1.00    0.37 
  14   8  11    0.56    0.37 
   6  -9 -11   -0.37    0.42 
   5  -9 -11   -0.06    0.41 
   4  -9 -11    0.09    0.34 
   3  -9 -11    0.34    0.36 
   2  -9 -11    1.38    0.38 
   1  -9 -11   -0.02    0.29 
   0  -9 -11    4.49    0.49 
  -1  -9 -11    0.77    0.31 
  -2  -9 -11    0.40    0.27 
  -3  -9 -11    1.09    0.30 
  -4  -9 -11    0.05    0.23 
   5   9  11    2.10    0.35 
   5   9  11    3.19    0.46 
   6   9  11    1.13    0.40 
   6   9  11    1.38    0.32 
   7   9  11    0.04    0.31 
   7   9  11   -0.20    0.21 
   8   9  11    0.27    0.36 
   8   9  11    0.35    0.25 
   9   9  11    5.29    0.52 
   9   9  11    6.36    0.67 
  10   9  11    2.23    0.37 
  10   9  11    1.87    0.48 
  11   9  11    1.07    0.42 
  11   9  11    1.22    0.35 
  12   9  11    2.02    0.39 
  13   9  11    2.28    0.44 
  14   9  11    0.26    0.37 
   5 -10 -11    1.13    0.48 
   4 -10 -11    0.50    0.42 
   3 -10 -11   -0.03    0.38 
   2 -10 -11    0.39    0.37 
   1 -10 -11    0.49    0.35 
   0 -10 -11    0.78    0.34 
  -1 -10 -11    0.57    0.30 
  -2 -10 -11    1.20    0.32 
  -3 -10 -11    1.96    0.34 
  -4 -10 -11    3.91    0.42 
  -5 -10 -11    1.29    0.30 
   5  10  11    1.42    0.41 
   6  10  11    0.34    0.27 
   6  10  11    0.28    0.34 
   7  10  11    0.25    0.34 
   7  10  11    0.27    0.25 
   8  10  11    0.52    0.28 
   8  10  11    0.33    0.39 
   9  10  11    0.43    0.39 
   9  10  11   -0.29    0.25 
  10  10  11    0.60    0.43 
  10  10  11    0.10    0.25 
  11  10  11    0.18    0.40 
  11  10  11    0.22    0.27 
  12  10  11    0.20    0.46 
  12  10  11    0.10    0.31 
  13  10  11    0.78    0.37 
  14  10  11    0.44    0.38 
   4 -11 -11   -0.39    0.43 
   3 -11 -11   -0.13    0.38 
   2 -11 -11    0.03    0.37 
   1 -11 -11   -0.01    0.37 
   0 -11 -11    0.47    0.34 
  -1 -11 -11   -0.32    0.29 
  -2 -11 -11    0.84    0.33 
  -3 -11 -11   -0.06    0.25 
  -4 -11 -11    0.73    0.28 
  -5 -11 -11   -0.26    0.25 
   5  11  11    0.01    0.34 
  -6 -11 -11    3.40    0.42 
   6  11  11    3.67    0.58 
   7  11  11   -0.04    0.38 
   7  11  11    0.18    0.26 
   8  11  11    0.03    0.28 
   8  11  11    0.11    0.40 
   9  11  11    3.00    0.41 
   9  11  11    2.61    0.56 
  10  11  11    1.19    0.49 
  10  11  11    1.39    0.36 
  11  11  11    0.33    0.46 
  11  11  11   -0.13    0.28 
  12  11  11   -0.28    0.44 
  12  11  11    0.35    0.32 
  13  11  11    0.30    0.34 
  14  11  11    0.59    0.38 
   3 -12 -11    0.87    0.45 
   2 -12 -11    0.39    0.43 
   1 -12 -11    0.18    0.38 
   0 -12 -11   -0.09    0.32 
  -1 -12 -11    0.14    0.33 
  -2 -12 -11    1.29    0.37 
  -3 -12 -11    0.46    0.30 
  -4 -12 -11    0.29    0.28 
  -5 -12 -11   -0.02    0.28 
  -6 -12 -11    0.52    0.28 
   6  12  11    0.32    0.38 
  -7 -12 -11    0.03    0.26 
   7  12  11   -0.20    0.36 
   8  12  11    0.50    0.44 
   8  12  11    0.84    0.31 
   9  12  11   -0.14    0.40 
   9  12  11    0.03    0.29 
  10  12  11    1.42    0.52 
  10  12  11    0.41    0.30 
  11  12  11    0.00    0.31 
  11  12  11   -0.06    0.45 
  12  12  11    0.52    0.35 
  12  12  11    0.65    0.51 
  13  12  11    0.39    0.52 
  13  12  11   -0.10    0.32 
   2 -13 -11   -0.03    0.40 
   1 -13 -11   -0.33    0.36 
   0 -13 -11    0.12    0.36 
  -1 -13 -11    2.67    0.48 
  -2 -13 -11    0.17    0.33 
  -3 -13 -11    1.62    0.39 
  -4 -13 -11    0.61    0.32 
  -5 -13 -11    0.81    0.32 
  -6 -13 -11    0.29    0.29 
   6  13  11    0.28    0.43 
  -7 -13 -11    2.79    0.43 
   7  13  11    2.82    0.59 
  -8 -13 -11    1.07    0.34 
   8  13  11    1.08    0.49 
  -9 -13 -11    0.25    0.29 
   9  13  11    0.05    0.46 
  10  13  11    1.16    0.55 
  10  13  11    0.27    0.32 
  11  13  11    0.35    0.51 
  11  13  11    0.11    0.31 
  12  13  11    0.45    0.34 
  12  13  11    0.91    0.55 
  13  13  11    0.42    0.38 
  13  13  11    0.34    0.53 
   0 -14 -11    0.22    0.40 
  -1 -14 -11   -0.16    0.36 
  -2 -14 -11    0.18    0.35 
  -3 -14 -11    0.22    0.34 
  -4 -14 -11   -0.38    0.30 
  -5 -14 -11    0.49    0.33 
  -6 -14 -11   -0.09    0.30 
   6  14  11    0.19    0.42 
  -7 -14 -11    0.10    0.32 
   7  14  11    0.63    0.51 
  -8 -14 -11    0.00    0.31 
   8  14  11    0.01    0.47 
  -9 -14 -11   -0.09    0.30 
   9  14  11    0.40    0.46 
 -10 -14 -11   -0.12    0.31 
  10  14  11   -0.20    0.46 
  11  14  11    0.10    0.31 
  11  14  11    0.60    0.52 
  12  14  11   -0.13    0.33 
  12  14  11    0.82    0.57 
  -1 -15 -11    0.41    0.42 
  -2 -15 -11    0.16    0.38 
  -3 -15 -11   -0.08    0.34 
  -4 -15 -11   -0.24    0.34 
  -5 -15 -11   -0.08    0.31 
  -6 -15 -11    0.43    0.34 
   6  15  11    0.22    0.49 
  -7 -15 -11    0.13    0.33 
   7  15  11    0.19    0.48 
  -8 -15 -11   -0.27    0.31 
   8  15  11    0.09    0.49 
  -9 -15 -11   -0.26    0.33 
   9  15  11    0.61    0.49 
 -10 -15 -11   -0.02    0.32 
  10  15  11    0.34    0.52 
 -11 -15 -11    0.39    0.35 
  11  15  11   -0.06    0.51 
  -4 -16 -11   -0.35    0.36 
  -5 -16 -11    0.80    0.40 
  -6 -16 -11   -0.13    0.34 
  -7 -16 -11   -0.11    0.33 
   7  16  11    0.16    0.51 
  -8 -16 -11    0.09    0.34 
   8  16  11    0.44    0.51 
  -9 -16 -11    0.06    0.33 
   9  16  11    0.20    0.50 
   7  15 -12    0.27    0.39 
   6  15 -12    0.11    0.37 
   5  15 -12    0.05    0.38 
   4  15 -12    0.25    0.37 
   3  15 -12   -0.15    0.35 
   2  15 -12   -0.14    0.39 
   1  15 -12    0.47    0.45 
   9  14 -12    0.17    0.38 
   8  14 -12    1.80    0.47 
   8  14 -12    0.85    0.38 
   7  14 -12    0.25    0.34 
   6  14 -12    0.02    0.37 
   5  14 -12    0.50    0.38 
   4  14 -12    0.29    0.36 
   3  14 -12    0.49    0.37 
   2  14 -12   -0.23    0.33 
   1  14 -12    0.70    0.41 
   0  14 -12    0.52    0.44 
  -1  14 -12    0.55    0.43 
   9  13 -12    0.06    0.40 
   9  13 -12   -0.07    0.35 
   8  13 -12    0.03    0.37 
   8  13 -12   -0.05    0.37 
   7  13 -12   -0.09    0.35 
   7  13 -12   -0.48    0.34 
   6  13 -12    1.21    0.39 
   5  13 -12    0.19    0.37 
   4  13 -12    0.10    0.34 
   3  13 -12   -0.05    0.33 
   2  13 -12   -0.51    0.32 
   1  13 -12   -0.32    0.36 
   0  13 -12   -0.07    0.39 
  -1  13 -12    0.14    0.38 
  -2  13 -12    0.29    0.43 
  -3  13 -12    0.27    0.45 
  10  12 -12    1.12    0.48 
   9  12 -12   -0.06    0.38 
   8  12 -12    0.40    0.39 
   8  12 -12   -0.03    0.33 
   7  12 -12    0.77    0.36 
   7  12 -12    0.99    0.38 
   6  12 -12   -0.11    0.30 
   6  12 -12    0.16    0.31 
   5  12 -12    0.77    0.36 
   4  12 -12    0.48    0.36 
   3  12 -12    0.45    0.32 
   2  12 -12    1.10    0.38 
   1  12 -12   -0.03    0.34 
   0  12 -12   -0.07    0.35 
  -1  12 -12    0.78    0.41 
  -2  12 -12    0.32    0.42 
  -3  12 -12   -0.42    0.44 
  -4  12 -12    0.31    0.48 
  11  11 -12    0.13    0.45 
  10  11 -12    0.39    0.45 
   9  11 -12    0.16    0.38 
   8  11 -12    0.32    0.35 
   7  11 -12   -0.18    0.31 
   7  11 -12   -0.13    0.33 
   6  11 -12    0.21    0.30 
   6  11 -12   -0.26    0.30 
   5  11 -12   -0.10    0.29 
   5  11 -12   -0.18    0.29 
   4  11 -12    0.94    0.35 
   3  11 -12    0.08    0.31 
   2  11 -12   -0.07    0.31 
   1  11 -12    0.04    0.32 
   0  11 -12    2.11    0.44 
  -1  11 -12    0.79    0.43 
  -2  11 -12    0.75    0.41 
  -3  11 -12    0.55    0.43 
  -4  11 -12    0.69    0.45 
  -5  11 -12    0.18    0.46 
  11  10 -12   -0.37    0.39 
  10  10 -12    0.98    0.46 
   9  10 -12   -0.28    0.37 
   8  10 -12    0.30    0.36 
   7  10 -12    1.40    0.39 
   6  10 -12    1.51    0.36 
   6  10 -12    1.70    0.39 
   5  10 -12    6.14    0.54 
   5  10 -12    5.93    0.53 
   4  10 -12    0.31    0.31 
   4  10 -12    0.16    0.27 
   3  10 -12    0.07    0.28 
   2  10 -12    2.89    0.44 
   1  10 -12    3.87    0.49 
   0  10 -12   -0.08    0.32 
  -1  10 -12    0.18    0.36 
  -2  10 -12    0.62    0.38 
  -3  10 -12    0.25    0.37 
  -4  10 -12    0.03    0.38 
   4 -10  12    0.09    0.32 
  -5  10 -12   -0.40    0.41 
   5 -10  12    0.20    0.35 
  -6  10 -12    0.50    0.44 
   6 -10  12    0.49    0.39 
  11   9 -12   -0.34    0.42 
  10   9 -12    0.73    0.45 
   9   9 -12    0.75    0.40 
   8   9 -12    1.18    0.38 
   7   9 -12   -0.18    0.29 
   6   9 -12    0.02    0.29 
   5   9 -12    0.50    0.32 
   5   9 -12    0.92    0.31 
   4   9 -12    2.12    0.33 
   4   9 -12    1.35    0.34 
   3   9 -12    1.53    0.30 
   3   9 -12    1.50    0.36 
   2   9 -12    0.26    0.31 
   1   9 -12    0.43    0.33 
   0   9 -12   -0.23    0.31 
  -1   9 -12    0.27    0.35 
  -2   9 -12   -0.09    0.33 
  -3   9 -12    0.63    0.37 
   3  -9  12    0.18    0.28 
  -4   9 -12    1.08    0.43 
   4  -9  12    0.75    0.34 
  -5   9 -12    0.57    0.41 
   5  -9  12    0.54    0.35 
  -6   9 -12    0.55    0.42 
   6  -9  12    1.08    0.38 
  -7   9 -12    0.80    0.48 
   7  -9  12    0.35    0.39 
  11   8 -12    0.39    0.47 
  10   8 -12    0.02    0.38 
   9   8 -12   -0.22    0.36 
   8   8 -12    8.48    0.72 
   7   8 -12    3.26    0.45 
   6   8 -12    2.05    0.37 
   5   8 -12    4.14    0.45 
   4   8 -12    2.32    0.37 
   4   8 -12    1.57    0.32 
   3   8 -12    1.72    0.35 
   3   8 -12    2.35    0.32 
   2   8 -12    1.63    0.35 
   2   8 -12    1.49    0.25 
   1   8 -12    0.42    0.30 
   0   8 -12    3.27    0.42 
  -1   8 -12    2.97    0.42 
  -2   8 -12    1.18    0.37 
   2  -8  12    0.15    0.24 
  -3   8 -12    0.32    0.34 
   3  -8  12   -0.06    0.25 
  -4   8 -12    1.55    0.42 
   4  -8  12    1.27    0.33 
  -5   8 -12    0.58    0.41 
   5  -8  12    0.73    0.34 
  -6   8 -12    0.01    0.36 
   6  -8  12   -0.15    0.30 
  -7   8 -12    0.11    0.39 
   7  -8  12   -0.12    0.33 
  -8   8 -12    0.24    0.47 
   8  -8  12    0.00    0.36 
  11   7 -12    0.13    0.45 
  10   7 -12    0.31    0.40 
   9   7 -12    0.72    0.41 
   8   7 -12    0.06    0.35 
   7   7 -12    1.73    0.41 
   6   7 -12    0.48    0.31 
   5   7 -12    0.19    0.27 
   4   7 -12   -0.23    0.23 
   3   7 -12    0.10    0.25 
   3   7 -12    0.27    0.24 
   2   7 -12   -0.08    0.25 
   2   7 -12   -0.10    0.17 
   1   7 -12    2.05    0.35 
   0   7 -12    1.89    0.34 
  -1   7 -12    0.03    0.28 
   1  -7  12    0.00    0.07 
  -2   7 -12    0.22    0.28 
   2  -7  12    0.26    0.22 
  -3   7 -12    1.43    0.37 
   3  -7  12    1.64    0.31 
  -4   7 -12    2.20    0.42 
   4  -7  12    2.00    0.36 
  -5   7 -12    0.52    0.34 
   5  -7  12    0.00    0.26 
  -6   7 -12    0.10    0.36 
   6  -7  12    0.24    0.30 
  -7   7 -12   -0.05    0.39 
   7  -7  12    0.24    0.34 
  -8   7 -12   -0.35    0.40 
   8  -7  12    0.39    0.40 
  -9   7 -12    0.16    0.45 
   9  -7  12    0.16    0.38 
  12   6 -12    0.52    0.51 
  11   6 -12    3.40    0.63 
  10   6 -12    4.26    0.62 
   9   6 -12    0.95    0.44 
   8   6 -12    1.63    0.43 
   7   6 -12    3.24    0.47 
   6   6 -12    0.44    0.30 
   5   6 -12    0.36    0.29 
   4   6 -12    1.12    0.30 
   3   6 -12    1.42    0.29 
   2   6 -12   15.52    0.90 
   2   6 -12   15.81    0.89 
   1   6 -12    4.25    0.43 
   1   6 -12    4.53    0.37 
   0   6 -12    2.76    0.36 
   0  -6  12    2.79    0.28 
  -1   6 -12    1.57    0.33 
   1  -6  12    1.32    0.22 
  -2   6 -12    9.85    0.66 
   2  -6  12    9.20    0.60 
  -3   6 -12    0.08    0.27 
   3  -6  12    0.26    0.23 
  -4   6 -12   -0.37    0.27 
   4  -6  12   -0.02    0.24 
  -5   6 -12    0.10    0.32 
   5  -6  12    0.03    0.25 
  -6   6 -12    0.21    0.35 
   6  -6  12    0.38    0.32 
  -7   6 -12    0.02    0.37 
   7  -6  12    0.32    0.33 
  -8   6 -12    0.66    0.42 
   8  -6  12    0.43    0.36 
  -9   6 -12   -0.16    0.40 
   9  -6  12    0.33    0.37 
  10  -6  12    0.64    0.44 
  11   5 -12    0.22    0.47 
  10   5 -12    0.02    0.44 
   9   5 -12    0.67    0.40 
   8   5 -12   -0.29    0.34 
   7   5 -12    0.26    0.31 
   6   5 -12    0.40    0.30 
   5   5 -12    1.09    0.32 
   4   5 -12    1.84    0.33 
   3   5 -12    0.74    0.25 
   2   5 -12    0.11    0.18 
   1   5 -12    4.90    0.39 
   1   5 -12    5.24    0.45 
  -1  -5  12    5.41    0.37 
   0   5 -12    2.53    0.26 
   0   5 -12    2.34    0.34 
   0  -5  12    2.05    0.25 
  -1   5 -12   -0.33    0.23 
   1  -5  12   -0.02    0.15 
  -2   5 -12    2.43    0.35 
   2  -5  12    1.47    0.25 
  -3   5 -12    0.43    0.27 
   3  -5  12    1.05    0.26 
  -4   5 -12    0.95    0.33 
   4  -5  12    0.49    0.25 
  -5   5 -12   -0.26    0.27 
   5  -5  12   -0.06    0.24 
  -6   5 -12    0.12    0.33 
   6  -5  12   -0.09    0.23 
  -7   5 -12    0.26    0.34 
   7  -5  12    0.24    0.31 
  -8   5 -12    0.07    0.34 
   8  -5  12    0.06    0.33 
  -9   5 -12    0.47    0.40 
   9  -5  12    0.00    0.34 
  10  -5  12    1.22    0.46 
  11   4 -12    1.90    0.52 
  10   4 -12    1.04    0.48 
   9   4 -12    1.42    0.46 
   8   4 -12   -0.14    0.35 
   7   4 -12    2.35    0.44 
   6   4 -12    2.21    0.41 
   5   4 -12   21.23    1.25 
   4   4 -12   17.69    1.06 
   3   4 -12    3.16    0.37 
   2   4 -12    2.48    0.30 
  -2  -4  12    2.24    0.23 
   1   4 -12    9.34    0.62 
   1   4 -12    9.90    0.61 
  -1  -4  12    8.80    0.53 
   0   4 -12   28.75    1.44 
   0   4 -12   29.37    1.50 
  -1   4 -12    0.78    0.27 
  -1   4 -12    1.55    0.20 
   1  -4  12    1.50    0.23 
  -2   4 -12    0.35    0.23 
   2  -4  12    0.12    0.16 
  -3   4 -12    0.92    0.29 
   3  -4  12    0.72    0.23 
  -4   4 -12    2.10    0.35 
   4  -4  12    2.09    0.32 
  -5   4 -12    0.79    0.29 
   5  -4  12    1.65    0.32 
  -6   4 -12    1.62    0.37 
   6  -4  12    1.54    0.35 
  -7   4 -12    0.61    0.34 
   7  -4  12    0.41    0.31 
  -8   4 -12    1.30    0.39 
   8  -4  12    1.88    0.41 
  -9   4 -12   -0.21    0.35 
   9  -4  12    0.24    0.34 
  10  -4  12    0.14    0.38 
  11  -4  12   -0.14    0.36 
  11   3 -12   -0.12    0.41 
  10   3 -12    0.13    0.38 
   9   3 -12    0.03    0.37 
   8   3 -12    0.52    0.37 
   7   3 -12   -0.03    0.32 
   6   3 -12    4.84    0.53 
   5   3 -12    1.29    0.35 
   4   3 -12    0.53    0.28 
   3   3 -12    0.28    0.24 
   2   3 -12    0.03    0.19 
  -2  -3  12   -0.05    0.12 
   1   3 -12    7.18    0.47 
  -1  -3  12    5.45    0.40 
   0   3 -12    0.31    0.22 
   0   3 -12   -0.06    0.16 
   0  -3  12    0.19    0.15 
  -1   3 -12   -0.06    0.20 
  -1   3 -12    0.43    0.17 
   1  -3  12    0.36    0.17 
  -2   3 -12    0.76    0.26 
   2  -3  12    1.05    0.21 
  -3   3 -12    8.77    0.57 
   3  -3  12    8.85    0.57 
  -4   3 -12    0.63    0.27 
   4  -3  12    0.76    0.24 
  -5   3 -12    0.08    0.26 
   5  -3  12   -0.20    0.21 
  -6   3 -12    2.43    0.38 
   6  -3  12    1.74    0.35 
  -7   3 -12    2.21    0.37 
   7  -3  12    2.19    0.39 
  -8   3 -12   -0.08    0.30 
   8  -3  12   -0.11    0.28 
  -9   3 -12   -0.38    0.31 
   9  -3  12   -0.42    0.27 
  10  -3  12    1.58    0.43 
  11  -3  12   -0.22    0.35 
  11   2 -12    1.16    0.49 
  10   2 -12    0.75    0.42 
   9   2 -12    0.92    0.41 
   8   2 -12    0.75    0.41 
   7   2 -12   16.25    1.12 
   6   2 -12    9.94    0.78 
   5   2 -12    0.84    0.32 
   4   2 -12    4.00    0.42 
   3   2 -12    2.26    0.24 
   3   2 -12    2.64    0.34 
   2   2 -12    1.60    0.21 
   2   2 -12    1.97    0.29 
   1   2 -12    0.19    0.18 
  -1  -2  12    0.13    0.10 
   0   2 -12    0.05    0.16 
   0  -2  12    0.09    0.15 
  -1   2 -12   34.45    1.71 
  -1   2 -12   31.55    1.61 
   1  -2  12   34.31    1.59 
  -2   2 -12   16.41    0.85 
  -2   2 -12   14.23    0.84 
   2  -2  12   16.07    0.84 
  -3   2 -12    3.10    0.33 
   3  -2  12    1.59    0.27 
  -4   2 -12    2.17    0.31 
   4  -2  12    1.63    0.29 
  -5   2 -12    6.47    0.52 
   5  -2  12    7.34    0.54 
  -6   2 -12    6.24    0.51 
   6  -2  12    5.86    0.52 
  -7   2 -12    0.12    0.27 
   7  -2  12    0.37    0.26 
  -8   2 -12    0.11    0.29 
   8  -2  12    0.33    0.29 
  -9   2 -12    0.11    0.30 
   9  -2  12    0.35    0.32 
  10  -2  12   -0.02    0.31 
  11  -2  12    0.49    0.39 
  12  -2  12    0.36    0.41 
  11   1 -12    0.25    0.45 
  10   1 -12    0.09    0.37 
   9   1 -12    0.25    0.37 
   8   1 -12   -0.21    0.34 
   7   1 -12    0.54    0.35 
   6   1 -12    0.21    0.29 
   5   1 -12    0.52    0.30 
   4   1 -12    0.28    0.18 
   4   1 -12   -0.17    0.24 
   3   1 -12    0.41    0.16 
   3   1 -12    0.09    0.23 
   2   1 -12    0.27    0.21 
   2   1 -12    0.12    0.16 
   1   1 -12    0.31    0.18 
  -1  -1  12    0.14    0.16 
   0  -1  12   13.24    0.73 
  -1   1 -12    3.56    0.33 
   1  -1  12    3.65    0.33 
  -2   1 -12    4.58    0.36 
   2  -1  12    3.81    0.35 
  -3   1 -12    4.94    0.39 
   3  -1  12    4.79    0.41 
  -4   1 -12    7.07    0.47 
   4  -1  12    5.88    0.47 
  -5   1 -12    1.40    0.27 
   5  -1  12    1.51    0.28 
  -6   1 -12    0.69    0.25 
   6  -1  12    0.70    0.26 
  -7   1 -12    1.11    0.29 
   7  -1  12    0.25    0.25 
  -8   1 -12    2.16    0.36 
   8  -1  12    2.23    0.40 
  -9   1 -12    0.19    0.29 
   9  -1  12   -0.17    0.27 
  10  -1  12    0.39    0.33 
  11  -1  12   -0.17    0.32 
  12  -1  12    0.72    0.42 
  10   0 -12    1.68    0.48 
   9   0 -12    2.51    0.52 
   8   0 -12    0.05    0.38 
   7   0 -12    0.92    0.39 
   6   0 -12   -0.08    0.31 
   5   0 -12    2.37    0.30 
   5   0 -12    1.38    0.34 
   4   0 -12   -0.03    0.18 
   4   0 -12    0.16    0.25 
   3   0 -12    0.38    0.18 
   3   0 -12    0.19    0.23 
   2   0 -12    6.36    0.42 
   1   0 -12   43.99    2.01 
   0   0  12   14.65    0.79 
   1   0  12    2.01    0.26 
  -2   0 -12   11.69    0.68 
   2   0  12   13.17    0.71 
  -3   0 -12   18.08    0.93 
   3   0  12   18.01    0.96 
  -4   0 -12   -0.02    0.17 
   4   0  12    0.41    0.20 
  -5   0 -12    0.04    0.18 
   5   0  12    0.41    0.22 
  -6   0 -12    0.09    0.18 
   6   0  12    0.00    0.21 
  -7   0 -12    0.68    0.28 
   7   0  12    0.85    0.29 
  -8   0 -12    3.51    0.39 
   8   0  12    2.95    0.42 
  -9   0 -12    1.79    0.35 
   9   0  12    2.16    0.41 
  10   0  12    0.25    0.35 
  11   0  12    0.44    0.37 
  12   0  12    0.22    0.38 
  13   0  12   -0.12    0.40 
  10  -1 -12    0.77    0.45 
   9  -1 -12    0.44    0.41 
   8  -1 -12    0.25    0.37 
   7  -1 -12    0.27    0.33 
   6  -1 -12    0.16    0.25 
   6  -1 -12   -0.03    0.31 
   5  -1 -12   -0.01    0.28 
   5  -1 -12    0.65    0.26 
   4  -1 -12    0.10    0.22 
   3  -1 -12    2.16    0.27 
   2  -1 -12    4.05    0.34 
   1  -1 -12    1.67    0.24 
   0   1  12    2.14    0.27 
   1   1  12    2.09    0.27 
  -2  -1 -12    3.74    0.31 
   2   1  12    3.24    0.33 
  -3  -1 -12    1.44    0.21 
   3   1  12    1.55    0.26 
  -4  -1 -12    0.48    0.19 
   4   1  12    1.26    0.26 
  -5  -1 -12    0.52    0.19 
   5   1  12    0.49    0.22 
  -6  -1 -12    1.22    0.23 
   6   1  12    1.29    0.28 
  -7  -1 -12    0.71    0.21 
   7   1  12    0.84    0.28 
   8   1  12    0.35    0.28 
   9   1  12    1.49    0.35 
  10   1  12    1.57    0.40 
  11   1  12    0.61    0.37 
  12   1  12   -0.08    0.38 
  13   1  12    0.34    0.43 
  10  -2 -12   -0.44    0.41 
   9  -2 -12   -0.09    0.39 
   8  -2 -12    1.24    0.41 
   7  -2 -12   -0.21    0.30 
   7  -2 -12    0.55    0.31 
   6  -2 -12    0.70    0.30 
   6  -2 -12    0.47    0.34 
   5  -2 -12    4.04    0.42 
   4  -2 -12   22.20    1.15 
   3  -2 -12    8.52    0.55 
   2  -2 -12    0.21    0.20 
   1  -2 -12    3.24    0.33 
   0  -2 -12   10.16    0.60 
   1   2  12    4.66    0.40 
   2   2  12    3.64    0.36 
  -3  -2 -12    1.36    0.21 
   3   2  12    1.24    0.25 
  -4  -2 -12    9.10    0.52 
   4   2  12    8.81    0.58 
  -5  -2 -12    6.09    0.40 
   5   2  12    6.09    0.48 
  -6  -2 -12    4.98    0.36 
   6   2  12    4.77    0.45 
   7   2  12    3.12    0.38 
   8   2  12    3.67    0.43 
   9   2  12    3.77    0.45 
  10   2  12    0.16    0.29 
  11   2  12    0.34    0.33 
  12   2  12    0.77    0.40 
  13   2  12   -0.04    0.38 
   9  -3 -12    0.50    0.44 
   8  -3 -12    0.29    0.39 
   7  -3 -12   -0.30    0.33 
   7  -3 -12   -0.60    0.30 
   6  -3 -12    0.22    0.29 
   6  -3 -12    0.23    0.31 
   5  -3 -12    0.22    0.28 
   4  -3 -12    0.53    0.27 
   3  -3 -12    0.35    0.24 
   2  -3 -12   -0.15    0.20 
   1  -3 -12    0.81    0.24 
   0  -3 -12    4.61    0.39 
   1   3  12   -0.28    0.18 
   2   3  12    0.65    0.23 
  -3  -3 -12   13.18    0.66 
   3   3  12   11.14    0.72 
  -4  -3 -12    0.16    0.15 
   4   3  12   -0.20    0.19 
   5   3  12    0.20    0.21 
   6   3  12   -0.09    0.21 
   7   3  12    4.04    0.43 
   8   3  12    4.67    0.46 
   9   3  12    2.63    0.40 
  10   3  12    0.51    0.32 
  11   3  12    0.58    0.34 
  12   3  12    0.22    0.37 
  13   3  12    0.32    0.39 
   9  -4 -12   -0.09    0.40 
   8  -4 -12   -0.09    0.38 
   8  -4 -12   -0.08    0.38 
   7  -4 -12    1.47    0.41 
   7  -4 -12    1.55    0.44 
   6  -4 -12    3.13    0.44 
   5  -4 -12    0.42    0.31 
   4  -4 -12   -0.03    0.28 
   3  -4 -12    0.22    0.26 
   2  -4 -12    0.62    0.26 
   1  -4 -12    0.93    0.25 
   0  -4 -12   -0.06    0.21 
  -1  -4 -12    0.42    0.22 
   2   4  12   53.21    2.48 
  -3  -4 -12    7.96    0.46 
   3   4  12    7.77    0.55 
   4   4  12    0.95    0.25 
   5   4  12    3.68    0.39 
   6   4  12    7.02    0.54 
   7   4  12    2.53    0.35 
   8   4  12   -0.17    0.22 
   9   4  12    0.55    0.29 
  10   4  12    0.40    0.31 
  11   4  12   -0.01    0.30 
  12   4  12    0.54    0.35 
  13   4  12    0.50    0.39 
  14   4  12    1.49    0.47 
   8  -5 -12    0.55    0.44 
   8  -5 -12    0.16    0.38 
   7  -5 -12    0.39    0.38 
   7  -5 -12   -0.21    0.36 
   6  -5 -12   -0.19    0.31 
   5  -5 -12    0.10    0.32 
   4  -5 -12    0.36    0.29 
   3  -5 -12    0.10    0.25 
   2  -5 -12    0.19    0.26 
   1  -5 -12    1.01    0.27 
   0  -5 -12    1.30    0.28 
  -1  -5 -12    0.29    0.23 
   2   5  12    0.03    0.20 
   3   5  12    0.48    0.23 
   4   5  12    2.27    0.33 
   5   5  12    1.03    0.27 
   6   5  12   -0.12    0.21 
   7   5  12    1.61    0.31 
   8   5  12    0.10    0.15 
   8   5  12    0.22    0.25 
   9   5  12    1.65    0.34 
  10   5  12    0.10    0.27 
  11   5  12    0.31    0.32 
  12   5  12    0.44    0.33 
  13   5  12    0.17    0.38 
  14   5  12   -0.19    0.38 
   8  -6 -12   -0.69    0.35 
   8  -6 -12   -0.10    0.45 
   7  -6 -12    0.33    0.42 
   6  -6 -12   -0.19    0.34 
   5  -6 -12    0.62    0.36 
   4  -6 -12    0.15    0.33 
   3  -6 -12    0.55    0.32 
   2  -6 -12    1.13    0.32 
   1  -6 -12    6.75    0.54 
   0  -6 -12   13.09    0.78 
  -1  -6 -12   -0.04    0.22 
  -2  -6 -12    2.37    0.32 
   3   6  12    1.19    0.28 
   4   6  12    2.57    0.35 
   5   6  12    0.79    0.25 
   6   6  12    1.03    0.28 
   7   6  12   -0.02    0.23 
   7   6  12    0.16    0.26 
   8   6  12    2.67    0.40 
   8   6  12    3.75    0.42 
   9   6  12    3.11    0.41 
  10   6  12    0.55    0.30 
  11   6  12    1.68    0.40 
  12   6  12    2.66    0.46 
  13   6  12    0.58    0.39 
  14   6  12    0.69    0.42 
   7  -7 -12    0.46    0.47 
   6  -7 -12    0.21    0.41 
   5  -7 -12   -0.53    0.33 
   4  -7 -12   -0.23    0.32 
   3  -7 -12    0.44    0.33 
   2  -7 -12    0.12    0.31 
   1  -7 -12    0.19    0.28 
   0  -7 -12   -0.43    0.23 
  -1  -7 -12   -0.21    0.22 
  -2  -7 -12    0.24    0.25 
  -3  -7 -12   -0.09    0.22 
   4   7  12    2.16    0.35 
   5   7  12    1.74    0.32 
   6   7  12    0.57    0.26 
   7   7  12   -0.03    0.23 
   7   7  12   -0.02    0.27 
   8   7  12   -0.10    0.23 
   8   7  12   -0.11    0.28 
   9   7  12   -0.17    0.29 
   9   7  12    0.13    0.27 
  10   7  12    0.34    0.29 
  11   7  12    0.24    0.29 
  12   7  12    1.51    0.40 
  13   7  12    0.41    0.36 
  14   7  12    0.42    0.39 
   6  -8 -12    0.30    0.44 
   5  -8 -12    0.70    0.43 
   4  -8 -12   -0.10    0.37 
   3  -8 -12    4.14    0.54 
   2  -8 -12    0.31    0.35 
   1  -8 -12    0.72    0.34 
   0  -8 -12    0.63    0.31 
  -1  -8 -12    0.60    0.29 
  -2  -8 -12    0.35    0.27 
  -3  -8 -12    1.99    0.33 
  -4  -8 -12    1.74    0.33 
   5   8  12    3.21    0.40 
   6   8  12    1.61    0.33 
   7   8  12    2.39    0.37 
   7   8  12    2.50    0.44 
   8   8  12    1.79    0.43 
   8   8  12    1.87    0.35 
   9   8  12    1.61    0.42 
   9   8  12    1.74    0.35 
  10   8  12    2.09    0.47 
  10   8  12    2.64    0.40 
  11   8  12   -0.13    0.27 
  12   8  12   -0.06    0.30 
  13   8  12    0.33    0.34 
  14   8  12    0.10    0.36 
   5  -9 -12    0.04    0.40 
   4  -9 -12    0.25    0.41 
   3  -9 -12    0.66    0.40 
   2  -9 -12   -0.19    0.35 
   1  -9 -12   -0.09    0.29 
   0  -9 -12   -0.04    0.30 
  -1  -9 -12    0.31    0.28 
  -2  -9 -12    0.39    0.30 
  -3  -9 -12    1.38    0.32 
  -4  -9 -12   -0.14    0.25 
   5   9  12    0.29    0.26 
   6   9  12    0.20    0.25 
   6   9  12    0.02    0.32 
   7   9  12    0.40    0.36 
   7   9  12    0.50    0.28 
   8   9  12   -0.08    0.34 
   8   9  12   -0.12    0.26 
   9   9  12   -0.19    0.35 
   9   9  12    0.18    0.28 
  10   9  12   -0.14    0.34 
  10   9  12    0.06    0.27 
  11   9  12    1.07    0.36 
  12   9  12    1.07    0.38 
  13   9  12    0.91    0.38 
  14   9  12   -0.07    0.36 
   4 -10 -12   -0.15    0.40 
   3 -10 -12    0.31    0.39 
   2 -10 -12    0.29    0.40 
   1 -10 -12    0.36    0.37 
   0 -10 -12   -0.24    0.32 
  -1 -10 -12   -0.20    0.29 
  -2 -10 -12    0.45    0.29 
  -3 -10 -12    5.61    0.52 
  -4 -10 -12    1.34    0.34 
  -5 -10 -12    0.22    0.27 
   6  10  12    0.26    0.39 
   6  10  12    0.65    0.30 
   7  10  12    3.74    0.46 
   7  10  12    4.67    0.62 
   8  10  12    0.35    0.42 
   8  10  12   -0.13    0.27 
   9  10  12    0.60    0.30 
   9  10  12    0.89    0.46 
  10  10  12   -0.30    0.27 
  10  10  12    0.36    0.41 
  11  10  12   -0.09    0.43 
  11  10  12   -0.01    0.29 
  12  10  12    0.47    0.33 
  13  10  12    0.26    0.34 
   3 -11 -12   -0.02    0.40 
   2 -11 -12   -0.38    0.38 
   1 -11 -12    0.61    0.39 
   0 -11 -12   -0.36    0.31 
  -1 -11 -12    0.37    0.37 
  -2 -11 -12    0.11    0.30 
  -3 -11 -12    0.29    0.30 
  -4 -11 -12   -0.04    0.29 
  -5 -11 -12   -0.40    0.26 
  -6 -11 -12    0.05    0.30 
   6  11  12    0.00    0.38 
   7  11  12    0.78    0.43 
   7  11  12    0.14    0.29 
   8  11  12    0.85    0.31 
   8  11  12    0.58    0.43 
   9  11  12   -0.38    0.41 
   9  11  12    0.25    0.30 
  10  11  12   -0.12    0.40 
  10  11  12    0.24    0.30 
  11  11  12   -0.17    0.27 
  11  11  12    0.33    0.46 
  12  11  12    0.09    0.33 
  12  11  12    0.15    0.49 
  13  11  12   -0.12    0.33 
   2 -12 -12    0.48    0.43 
   1 -12 -12    0.33    0.43 
   0 -12 -12    0.91    0.43 
  -1 -12 -12    0.79    0.38 
  -2 -12 -12    0.08    0.32 
  -3 -12 -12   -0.03    0.32 
  -4 -12 -12    0.46    0.32 
  -5 -12 -12    0.17    0.30 
  -6 -12 -12    0.52    0.33 
  -7 -12 -12    0.30    0.30 
   7  12  12    0.18    0.46 
   8  12  12   -0.51    0.40 
   8  12  12   -0.17    0.28 
   9  12  12    1.20    0.49 
   9  12  12    0.54    0.33 
  10  12  12    1.77    0.57 
  10  12  12    1.52    0.36 
  11  12  12   -0.11    0.48 
  11  12  12    0.18    0.33 
  12  12  12    0.41    0.53 
  12  12  12    0.50    0.37 
  13  12  12    0.98    0.39 
   1 -13 -12   -0.13    0.43 
   0 -13 -12    0.25    0.40 
  -1 -13 -12    0.15    0.36 
  -2 -13 -12    0.51    0.37 
  -3 -13 -12    0.14    0.33 
  -4 -13 -12   -0.05    0.32 
  -5 -13 -12    0.44    0.34 
  -6 -13 -12   -0.08    0.29 
  -7 -13 -12    0.64    0.34 
   7  13  12    1.28    0.51 
  -8 -13 -12    0.36    0.30 
   8  13  12   -0.12    0.43 
  -9 -13 -12    1.66    0.39 
   9  13  12    2.08    0.62 
  10  13  12    0.15    0.32 
  10  13  12    0.60    0.53 
  11  13  12    0.24    0.32 
  11  13  12    0.23    0.50 
  12  13  12   -0.52    0.47 
  12  13  12   -0.35    0.32 
  -1 -14 -12    0.15    0.40 
  -2 -14 -12   -0.07    0.37 
  -3 -14 -12   -0.03    0.36 
  -4 -14 -12    0.16    0.34 
  -5 -14 -12    0.26    0.35 
  -6 -14 -12    0.23    0.33 
  -7 -14 -12    0.26    0.34 
   7  14  12   -0.32    0.41 
  -8 -14 -12   -0.03    0.33 
   8  14  12   -0.30    0.47 
  -9 -14 -12    0.27    0.33 
   9  14  12    0.24    0.48 
 -10 -14 -12    0.31    0.34 
  10  14  12    1.07    0.58 
  11  14  12    0.25    0.54 
  11  14  12    0.00    0.34 
  -3 -15 -12   -0.08    0.36 
  -4 -15 -12   -0.61    0.35 
  -5 -15 -12    0.23    0.36 
  -6 -15 -12    0.00    0.34 
  -7 -15 -12    0.17    0.34 
   7  15  12   -0.11    0.46 
  -8 -15 -12    0.30    0.36 
   8  15  12    0.00    0.50 
  -9 -15 -12    0.26    0.35 
   9  15  12    0.01    0.52 
 -10 -15 -12    0.15    0.34 
  10  15  12    0.68    0.56 
   7  14 -13   -0.13    0.37 
   6  14 -13   -0.04    0.38 
   5  14 -13    0.37    0.38 
   4  14 -13    0.01    0.37 
   3  14 -13    0.47    0.40 
   2  14 -13   -0.11    0.39 
   1  14 -13    0.18    0.43 
   0  14 -13    0.15    0.43 
   8  13 -13    0.06    0.39 
   8  13 -13   -0.02    0.37 
   7  13 -13   -0.09    0.36 
   6  13 -13    1.04    0.40 
   5  13 -13    0.43    0.40 
   4  13 -13    0.39    0.35 
   3  13 -13   -0.04    0.36 
   2  13 -13    0.51    0.40 
   1  13 -13   -0.32    0.35 
   0  13 -13    0.26    0.42 
  -1  13 -13    0.40    0.44 
  -2  13 -13    0.58    0.45 
   9  12 -13   -0.18    0.40 
   8  12 -13    0.17    0.36 
   8  12 -13    0.35    0.39 
   7  12 -13    0.34    0.38 
   7  12 -13    0.31    0.36 
   6  12 -13    0.89    0.39 
   5  12 -13    0.99    0.38 
   4  12 -13    0.20    0.34 
   3  12 -13    0.56    0.37 
   2  12 -13    0.34    0.37 
   1  12 -13    0.61    0.41 
   0  12 -13    0.36    0.39 
  -1  12 -13   -0.33    0.41 
  -2  12 -13    0.43    0.45 
  -3  12 -13   -0.20    0.45 
  10  11 -13    0.00    0.41 
   9  11 -13    0.62    0.45 
   8  11 -13    2.27    0.47 
   7  11 -13    1.67    0.41 
   7  11 -13    1.01    0.38 
   6  11 -13    0.06    0.35 
   6  11 -13    0.09    0.32 
   5  11 -13    0.76    0.36 
   4  11 -13   -0.01    0.34 
   3  11 -13    0.12    0.37 
   2  11 -13    0.00    0.34 
   1  11 -13    0.21    0.35 
   0  11 -13    0.11    0.37 
  -1  11 -13   -0.44    0.38 
  -2  11 -13    0.05    0.40 
  -3  11 -13    0.06    0.44 
  -4  11 -13    0.02    0.45 
  -5  11 -13    0.42    0.47 
  10  10 -13    0.11    0.41 
   9  10 -13   -0.11    0.36 
   8  10 -13    0.66    0.40 
   7  10 -13    0.20    0.35 
   6  10 -13    0.23    0.33 
   6  10 -13    0.21    0.34 
   5  10 -13    0.21    0.34 
   5  10 -13    0.42    0.31 
   4  10 -13    0.19    0.32 
   3  10 -13   -0.28    0.29 
   2  10 -13   -0.26    0.32 
   1  10 -13    0.63    0.36 
   0  10 -13    0.37    0.37 
  -1  10 -13   -0.38    0.33 
  -2  10 -13   -0.15    0.36 
  -3  10 -13    2.13    0.49 
  -4  10 -13   -0.18    0.41 
  -5  10 -13    0.45    0.45 
  -6  10 -13    0.25    0.46 
   6 -10  13    0.20    0.40 
  11   9 -13    1.50    0.53 
  10   9 -13    1.79    0.54 
   9   9 -13    1.10    0.45 
   8   9 -13    0.27    0.38 
   7   9 -13   -0.02    0.34 
   6   9 -13    0.13    0.32 
   5   9 -13    0.06    0.28 
   5   9 -13    1.09    0.33 
   4   9 -13    0.01    0.25 
   4   9 -13   -0.31    0.30 
   3   9 -13    1.37    0.36 
   2   9 -13    0.88    0.36 
   1   9 -13    0.40    0.32 
   0   9 -13   -0.20    0.30 
  -1   9 -13    0.04    0.35 
  -2   9 -13   -0.02    0.36 
  -3   9 -13    0.55    0.39 
  -4   9 -13   -0.35    0.36 
   4  -9  13   -0.39    0.28 
  -5   9 -13    0.04    0.42 
   5  -9  13    0.47    0.34 
  -6   9 -13   -0.21    0.41 
   6  -9  13    0.10    0.36 
  -7   9 -13   -0.75    0.44 
   7  -9  13   -0.06    0.36 
  11   8 -13    0.36    0.47 
  10   8 -13   -0.15    0.43 
   9   8 -13   -0.26    0.39 
   8   8 -13    0.25    0.35 
   7   8 -13    0.53    0.36 
   6   8 -13    0.28    0.32 
   5   8 -13    0.24    0.29 
   4   8 -13    0.29    0.30 
   4   8 -13    0.97    0.29 
   3   8 -13    0.57    0.32 
   3   8 -13    1.03    0.27 
   2   8 -13    0.70    0.32 
   1   8 -13    0.35    0.33 
   0   8 -13    3.73    0.46 
  -1   8 -13    2.03    0.41 
  -2   8 -13    0.18    0.32 
  -3   8 -13    0.41    0.36 
   3  -8  13    0.35    0.29 
  -4   8 -13    0.95    0.39 
   4  -8  13    0.70    0.32 
  -5   8 -13    0.63    0.41 
   5  -8  13   -0.19    0.28 
  -6   8 -13    0.42    0.40 
   6  -8  13   -0.31    0.32 
  -7   8 -13   -0.25    0.40 
   7  -8  13    0.09    0.36 
  -8   8 -13   -0.41    0.45 
   8  -8  13    0.20    0.37 
  11   7 -13    1.32    0.53 
  10   7 -13    0.60    0.46 
   9   7 -13    0.51    0.41 
   8   7 -13    0.97    0.42 
   7   7 -13   -0.38    0.32 
   6   7 -13    1.93    0.40 
   5   7 -13    9.40    0.71 
   4   7 -13    1.93    0.34 
   3   7 -13    0.34    0.28 
   3   7 -13    0.18    0.25 
   2   7 -13    0.14    0.27 
   2   7 -13   -0.13    0.21 
   1   7 -13    1.21    0.32 
   0   7 -13   -0.29    0.28 
  -1   7 -13    0.07    0.29 
  -2   7 -13   -0.03    0.29 
   2  -7  13   -0.01    0.21 
  -3   7 -13    0.12    0.32 
   3  -7  13    0.26    0.26 
  -4   7 -13    0.19    0.33 
   4  -7  13   -0.06    0.26 
  -5   7 -13    0.22    0.36 
   5  -7  13    0.19    0.29 
  -6   7 -13   -0.18    0.35 
   6  -7  13    0.33    0.33 
  -7   7 -13    0.29    0.41 
   7  -7  13   -0.04    0.32 
  -8   7 -13    0.40    0.45 
   8  -7  13    0.17    0.36 
  11   6 -13    0.58    0.48 
  10   6 -13    0.14    0.46 
   9   6 -13    1.46    0.49 
   8   6 -13   -0.07    0.37 
   7   6 -13   -0.13    0.34 
   6   6 -13    2.99    0.44 
   5   6 -13    0.18    0.30 
   4   6 -13    0.14    0.27 
   3   6 -13    1.25    0.29 
   2   6 -13    0.29    0.23 
   2   6 -13   -0.18    0.26 
   1   6 -13    0.67    0.29 
   0   6 -13    1.44    0.33 
  -1   6 -13    0.46    0.30 
   1  -6  13    0.18    0.14 
  -2   6 -13    0.97    0.34 
   2  -6  13    1.09    0.26 
  -3   6 -13   -0.31    0.27 
   3  -6  13   -0.18    0.22 
  -4   6 -13    1.08    0.37 
   4  -6  13    1.02    0.30 
  -5   6 -13    0.04    0.33 
   5  -6  13    0.52    0.30 
  -6   6 -13    1.17    0.40 
   6  -6  13    0.51    0.31 
  -7   6 -13    0.36    0.40 
   7  -6  13    0.15    0.30 
  -8   6 -13    0.20    0.40 
   8  -6  13    0.49    0.39 
  -9   6 -13    0.00    0.42 
   9  -6  13    0.17    0.37 
  11   5 -13    1.86    0.59 
  10   5 -13    0.31    0.46 
   9   5 -13    1.33    0.48 
   8   5 -13    4.29    0.58 
   7   5 -13   12.61    0.93 
   6   5 -13    0.45    0.34 
   5   5 -13    1.49    0.36 
   4   5 -13    0.11    0.26 
   3   5 -13    0.23    0.24 
   2   5 -13    0.16    0.21 
   1   5 -13   -0.05    0.18 
   1   5 -13    0.25    0.26 
   0   5 -13    1.49    0.32 
   0  -5  13    0.90    0.21 
  -1   5 -13    2.78    0.36 
   1  -5  13    1.84    0.26 
  -2   5 -13   -0.05    0.27 
   2  -5  13    0.06    0.20 
  -3   5 -13    0.34    0.28 
   3  -5  13    0.35    0.23 
  -4   5 -13    0.42    0.31 
   4  -5  13    1.09    0.30 
  -5   5 -13    0.36    0.32 
   5  -5  13    0.40    0.28 
  -6   5 -13    0.24    0.35 
   6  -5  13    0.66    0.34 
  -7   5 -13    0.47    0.37 
   7  -5  13    0.34    0.32 
  -8   5 -13    0.12    0.38 
   8  -5  13    0.34    0.35 
  -9   5 -13    0.29    0.42 
   9  -5  13    0.33    0.37 
  10  -5  13    0.32    0.40 
  11   4 -13    0.17    0.45 
  10   4 -13    0.20    0.47 
   9   4 -13    0.75    0.43 
   8   4 -13    0.45    0.37 
   7   4 -13   -0.08    0.35 
   6   4 -13    0.48    0.33 
   5   4 -13    0.01    0.29 
   4   4 -13   -0.08    0.26 
   3   4 -13    0.55    0.26 
   2   4 -13    0.20    0.22 
   1   4 -13    3.48    0.38 
   1   4 -13    3.00    0.32 
  -1  -4  13    3.22    0.30 
   0   4 -13    5.71    0.49 
   0   4 -13    5.97    0.46 
  -1   4 -13    0.53    0.27 
   1  -4  13    0.87    0.21 
  -2   4 -13    0.60    0.25 
   2  -4  13    0.41    0.21 
  -3   4 -13    0.77    0.29 
   3  -4  13    0.37    0.22 
  -4   4 -13    2.83    0.38 
   4  -4  13    2.75    0.36 
  -5   4 -13    0.48    0.30 
   5  -4  13    0.52    0.27 
  -6   4 -13    0.02    0.31 
   6  -4  13    0.43    0.28 
  -7   4 -13    2.59    0.43 
   7  -4  13    2.83    0.45 
  -8   4 -13    0.34    0.36 
   8  -4  13    0.33    0.36 
  -9   4 -13    0.00    0.37 
   9  -4  13    0.00    0.33 
  10  -4  13    0.13    0.37 
  11   3 -13    2.86    0.58 
  10   3 -13    2.37    0.54 
   9   3 -13    2.53    0.52 
   8   3 -13   -0.12    0.39 
   7   3 -13    3.86    0.51 
   6   3 -13    0.32    0.30 
   5   3 -13    0.65    0.32 
   4   3 -13    1.51    0.32 
   3   3 -13    0.76    0.28 
   2   3 -13    2.41    0.33 
   1   3 -13    5.52    0.43 
  -1  -3  13    5.07    0.39 
   0   3 -13    1.49    0.24 
   0   3 -13    1.14    0.28 
   0  -3  13    1.30    0.23 
  -1   3 -13    1.09    0.28 
  -1   3 -13    1.63    0.22 
   1  -3  13    1.12    0.23 
  -2   3 -13    1.13    0.28 
   2  -3  13    0.58    0.22 
  -3   3 -13    0.16    0.25 
   3  -3  13    0.27    0.20 
  -4   3 -13   -0.17    0.24 
   4  -3  13    0.17    0.22 
  -5   3 -13    0.31    0.28 
   5  -3  13   -0.26    0.19 
  -6   3 -13    0.01    0.28 
   6  -3  13   -0.04    0.25 
  -7   3 -13    0.00    0.30 
   7  -3  13    0.51    0.31 
  -8   3 -13   -0.25    0.30 
   8  -3  13    0.11    0.30 
  -9   3 -13    0.35    0.36 
   9  -3  13    0.12    0.34 
  10  -3  13    0.16    0.36 
  11  -3  13    0.38    0.38 
  10   2 -13    0.33    0.41 
   9   2 -13   -0.17    0.41 
   8   2 -13    0.02    0.36 
   7   2 -13    0.21    0.34 
   6   2 -13    0.37    0.32 
   5   2 -13    0.29    0.31 
   4   2 -13    1.52    0.34 
   3   2 -13    7.00    0.43 
   3   2 -13    6.56    0.56 
   2   2 -13    1.06    0.26 
   2   2 -13    0.74    0.18 
   1   2 -13    0.72    0.24 
  -1  -2  13    0.72    0.18 
   0   2 -13    0.12    0.18 
   0  -2  13    0.05    0.15 
  -1   2 -13    1.28    0.21 
  -1   2 -13    1.25    0.28 
   1  -2  13    0.82    0.21 
  -2   2 -13    0.21    0.22 
   2  -2  13    0.42    0.21 
  -3   2 -13    0.10    0.23 
   3  -2  13    0.36    0.20 
  -4   2 -13    0.86    0.28 
   4  -2  13    0.93    0.26 
  -5   2 -13    0.01    0.25 
   5  -2  13    0.16    0.23 
  -6   2 -13    0.34    0.27 
   6  -2  13   -0.02    0.22 
  -7   2 -13    0.75    0.32 
   7  -2  13    1.21    0.33 
  -8   2 -13    0.94    0.33 
   8  -2  13    0.40    0.33 
  -9   2 -13    1.16    0.37 
   9  -2  13    0.48    0.34 
  10  -2  13   -0.35    0.32 
  11  -2  13    0.29    0.39 
  10   1 -13    0.34    0.44 
   9   1 -13    0.28    0.41 
   8   1 -13    3.18    0.55 
   7   1 -13    0.29    0.38 
   6   1 -13    2.07    0.42 
   5   1 -13    9.46    0.74 
   4   1 -13   12.18    0.84 
   3   1 -13    0.96    0.30 
   3   1 -13    1.19    0.21 
   2   1 -13    0.14    0.17 
   2   1 -13    0.10    0.23 
   1   1 -13    4.08    0.39 
  -1  -1  13    3.75    0.34 
   0  -1  13    1.39    0.24 
  -1   1 -13    0.19    0.21 
   1  -1  13    0.02    0.16 
  -2   1 -13    0.10    0.21 
   2  -1  13    0.58    0.22 
  -3   1 -13    1.20    0.26 
   3  -1  13    1.01    0.25 
  -4   1 -13    0.06    0.22 
   4  -1  13    0.02    0.20 
  -5   1 -13    0.19    0.24 
   5  -1  13    0.18    0.23 
  -6   1 -13    1.60    0.30 
   6  -1  13    1.43    0.32 
  -7   1 -13    0.83    0.30 
   7  -1  13    1.14    0.32 
  -8   1 -13    0.41    0.30 
   8  -1  13    0.07    0.27 
  -9   1 -13    2.27    0.38 
   9  -1  13    2.03    0.43 
  10  -1  13   -0.15    0.31 
  11  -1  13   -0.25    0.35 
  12  -1  13    0.29    0.39 
  10   0 -13    0.06    0.43 
   9   0 -13   -0.16    0.36 
   8   0 -13    0.24    0.43 
   7   0 -13    0.24    0.37 
   6   0 -13    2.96    0.46 
   5   0 -13    0.72    0.33 
   4   0 -13    0.54    0.30 
   4   0 -13    0.51    0.24 
   3   0 -13    1.94    0.35 
   3   0 -13    2.35    0.27 
   2   0 -13    0.37    0.19 
   1   0 -13    0.01    0.16 
   0   0  13    1.02    0.22 
   1   0  13    0.09    0.18 
  -2   0 -13    0.63    0.20 
   2   0  13    0.67    0.23 
  -3   0 -13    3.58    0.33 
   3   0  13    3.29    0.36 
  -4   0 -13   -0.22    0.17 
   4   0  13    0.01    0.20 
  -5   0 -13    1.98    0.28 
   5   0  13    1.76    0.31 
  -6   0 -13    0.50    0.24 
   6   0  13    0.10    0.23 
  -7   0 -13    4.21    0.40 
   7   0  13    4.07    0.45 
  -8   0 -13    0.78    0.28 
   8   0  13    0.59    0.31 
   9   0  13    1.60    0.39 
  10   0  13   -0.09    0.31 
  11   0  13    1.40    0.43 
  12   0  13    0.12    0.37 
  10  -1 -13    1.57    0.50 
   9  -1 -13    0.04    0.40 
   8  -1 -13    0.69    0.40 
   7  -1 -13    2.68    0.48 
   6  -1 -13    7.43    0.69 
   5  -1 -13    0.54    0.32 
   5  -1 -13    0.39    0.28 
   4  -1 -13    0.44    0.26 
   4  -1 -13    0.14    0.29 
   3  -1 -13    0.21    0.22 
   2  -1 -13    0.65    0.21 
   1  -1 -13    0.30    0.20 
   0   1  13    0.67    0.23 
   1   1  13    2.83    0.33 
  -2  -1 -13    3.75    0.33 
   2   1  13    3.44    0.36 
  -3  -1 -13    2.93    0.28 
   3   1  13    1.99    0.31 
  -4  -1 -13    0.30    0.19 
   4   1  13    0.50    0.23 
  -5  -1 -13    0.87    0.21 
   5   1  13    1.30    0.28 
  -6  -1 -13    0.15    0.18 
   6   1  13    0.18    0.24 
   7   1  13   -0.12    0.23 
   8   1  13    1.56    0.36 
   9   1  13    0.99    0.35 
  10   1  13    0.11    0.30 
  11   1  13    0.12    0.34 
  12   1  13   -0.03    0.36 
   9  -2 -13    0.18    0.42 
   8  -2 -13   -0.25    0.38 
   7  -2 -13    0.47    0.36 
   6  -2 -13    0.65    0.33 
   6  -2 -13    0.38    0.37 
   5  -2 -13    4.36    0.45 
   5  -2 -13    3.91    0.50 
   4  -2 -13    0.77    0.28 
   3  -2 -13    0.88    0.26 
   2  -2 -13    0.29    0.22 
   1  -2 -13    0.35    0.22 
   0  -2 -13    3.01    0.32 
   1   2  13    0.97    0.24 
  -2  -2 -13    0.98    0.20 
   2   2  13    0.36    0.22 
  -3  -2 -13    1.42    0.22 
   3   2  13    1.28    0.27 
  -4  -2 -13    1.45    0.22 
   4   2  13    1.18    0.27 
  -5  -2 -13    0.99    0.20 
   5   2  13    0.49    0.24 
   6   2  13    1.84    0.32 
   7   2  13    1.18    0.31 
   8   2  13    0.07    0.25 
   9   2  13   -0.18    0.28 
  10   2  13   -0.63    0.27 
  11   2  13    0.31    0.36 
  12   2  13   -0.12    0.37 
  13   2  13    0.46    0.41 
   9  -3 -13    1.17    0.49 
   8  -3 -13    0.51    0.40 
   7  -3 -13   -0.19    0.34 
   6  -3 -13    0.02    0.34 
   6  -3 -13    0.41    0.32 
   5  -3 -13    2.47    0.40 
   4  -3 -13    0.36    0.29 
   3  -3 -13    2.62    0.36 
   2  -3 -13    1.18    0.28 
   1  -3 -13    3.67    0.38 
   0  -3 -13    4.72    0.40 
   1   3  13    0.96    0.26 
   2   3  13    1.44    0.28 
  -3  -3 -13    1.36    0.21 
   3   3  13    1.26    0.28 
   4   3  13   -0.10    0.20 
   5   3  13    0.56    0.24 
   6   3  13    0.89    0.28 
   7   3  13    0.13    0.25 
   8   3  13   -0.13    0.24 
   9   3  13    2.37    0.39 
  10   3  13    0.25    0.32 
  11   3  13    0.15    0.33 
  12   3  13    0.38    0.38 
  13   3  13   -0.45    0.37 
   8  -4 -13    0.28    0.40 
   7  -4 -13    0.27    0.39 
   7  -4 -13   -0.02    0.36 
   6  -4 -13    1.46    0.43 
   6  -4 -13    1.30    0.39 
   5  -4 -13    1.90    0.40 
   4  -4 -13    0.03    0.28 
   3  -4 -13    0.17    0.28 
   2  -4 -13   -0.04    0.25 
   1  -4 -13    0.92    0.27 
   0  -4 -13    2.24    0.32 
  -1  -4 -13    0.32    0.23 
   2   4  13    1.93    0.32 
   3   4  13    1.20    0.29 
   4   4  13    5.45    0.48 
   5   4  13    1.01    0.28 
   6   4  13    0.09    0.23 
   7   4  13    0.28    0.26 
   8   4  13    0.00    0.25 
   9   4  13    0.59    0.32 
  10   4  13    0.77    0.35 
  11   4  13    0.11    0.33 
  12   4  13    0.20    0.37 
  13   4  13    0.05    0.39 
   8  -5 -13   -0.05    0.42 
   7  -5 -13    1.40    0.45 
   7  -5 -13    1.17    0.46 
   6  -5 -13   -0.20    0.35 
   5  -5 -13    0.46    0.36 
   4  -5 -13    2.24    0.42 
   3  -5 -13    5.23    0.51 
   2  -5 -13    0.16    0.27 
   1  -5 -13    0.37    0.26 
   0  -5 -13    0.64    0.27 
  -1  -5 -13    1.26    0.29 
   2   5  13    0.43    0.25 
   3   5  13    0.39    0.23 
   4   5  13    0.23    0.24 
   5   5  13    0.16    0.22 
   6   5  13    0.61    0.25 
   7   5  13    2.35    0.37 
   8   5  13    1.00    0.31 
   9   5  13    0.24    0.29 
  10   5  13    0.76    0.35 
  11   5  13    0.47    0.33 
  12   5  13    0.40    0.37 
  13   5  13   -0.54    0.36 
   7  -6 -13   -0.01    0.44 
   7  -6 -13   -0.09    0.37 
   6  -6 -13    0.21    0.41 
   5  -6 -13    0.78    0.41 
   4  -6 -13   -0.01    0.34 
   3  -6 -13    0.57    0.35 
   2  -6 -13    0.28    0.31 
   1  -6 -13    0.51    0.28 
   0  -6 -13    0.01    0.26 
  -1  -6 -13    2.87    0.38 
  -2  -6 -13    1.91    0.33 
   3   6  13    0.35    0.25 
   4   6  13    0.24    0.25 
   5   6  13   -0.03    0.24 
   6   6  13    0.91    0.29 
   7   6  13    0.28    0.24 
   8   6  13    0.53    0.28 
   9   6  13    4.06    0.47 
  10   6  13    0.77    0.35 
  11   6  13    1.12    0.39 
  12   6  13   -0.10    0.33 
  13   6  13   -0.07    0.37 
   6  -7 -13    0.67    0.45 
   5  -7 -13   -0.47    0.37 
   4  -7 -13    0.33    0.37 
   3  -7 -13   -0.08    0.32 
   2  -7 -13    0.39    0.34 
   1  -7 -13    0.50    0.31 
   0  -7 -13    0.28    0.28 
  -1  -7 -13    0.36    0.28 
  -2  -7 -13    2.99    0.39 
  -3  -7 -13    4.80    0.45 
   4   7  13   -0.01    0.23 
   5   7  13    1.62    0.33 
   6   7  13    1.33    0.32 
   7   7  13    0.85    0.29 
   8   7  13   -0.02    0.23 
   8   7  13    0.10    0.29 
   9   7  13    0.35    0.29 
  10   7  13    0.13    0.28 
  11   7  13    0.20    0.33 
  12   7  13    0.04    0.33 
  13   7  13   -0.17    0.35 
   5  -8 -13    0.58    0.44 
   4  -8 -13   -0.17    0.39 
   3  -8 -13    0.97    0.42 
   2  -8 -13    0.53    0.38 
   1  -8 -13   -0.37    0.28 
   0  -8 -13   -0.53    0.26 
  -1  -8 -13    0.43    0.30 
  -2  -8 -13   -0.05    0.27 
  -3  -8 -13    6.27    0.55 
  -4  -8 -13    1.58    0.33 
   5   8  13    0.19    0.25 
   6   8  13    0.65    0.27 
   7   8  13    3.05    0.43 
   8   8  13    0.16    0.27 
   8   8  13    0.61    0.36 
   9   8  13    0.75    0.33 
   9   8  13    0.77    0.40 
  10   8  13   -0.05    0.30 
  11   8  13    0.51    0.34 
  12   8  13   -0.20    0.31 
  13   8  13    0.20    0.35 
   5  -9 -13    0.18    0.45 
   4  -9 -13    0.72    0.45 
   3  -9 -13    0.71    0.44 
   2  -9 -13    0.19    0.37 
   1  -9 -13   -0.02    0.34 
   0  -9 -13    1.84    0.41 
  -1  -9 -13    0.06    0.30 
  -2  -9 -13    0.20    0.31 
  -3  -9 -13    1.51    0.37 
  -4  -9 -13    0.32    0.28 
  -5  -9 -13    0.31    0.29 
   6   9  13    0.65    0.30 
   7   9  13   -0.46    0.24 
   8   9  13    0.34    0.37 
   8   9  13    0.47    0.31 
   9   9  13    0.38    0.39 
   9   9  13   -0.01    0.29 
  10   9  13   -0.08    0.30 
  10   9  13    0.35    0.40 
  11   9  13   -0.23    0.29 
  12   9  13    0.25    0.34 
  13   9  13    0.32    0.38 
   4 -10 -13    0.15    0.41 
   3 -10 -13    0.02    0.42 
   2 -10 -13    0.42    0.43 
   1 -10 -13    0.03    0.37 
   0 -10 -13    1.11    0.39 
  -1 -10 -13    1.46    0.41 
  -2 -10 -13    0.53    0.32 
  -3 -10 -13    2.88    0.43 
  -4 -10 -13   -0.07    0.28 
  -5 -10 -13    0.07    0.27 
  -6 -10 -13    0.81    0.30 
   6  10  13    0.32    0.31 
   7  10  13   -0.03    0.29 
   8  10  13    0.05    0.39 
   8  10  13    0.02    0.28 
   9  10  13    0.39    0.41 
   9  10  13    0.71    0.35 
  10  10  13    0.06    0.43 
  10  10  13   -0.24    0.27 
  11  10  13    0.13    0.30 
  12  10  13    0.58    0.38 
  13  10  13    0.73    0.39 
   3 -11 -13    0.12    0.43 
   2 -11 -13   -0.24    0.42 
   1 -11 -13   -0.16    0.39 
   0 -11 -13   -0.14    0.35 
  -1 -11 -13    0.16    0.36 
  -2 -11 -13   -0.27    0.31 
  -3 -11 -13   -0.07    0.29 
  -4 -11 -13    0.27    0.31 
  -5 -11 -13    0.55    0.34 
  -6 -11 -13    0.45    0.33 
  -7 -11 -13    0.16    0.28 
   8  11  13    0.87    0.46 
   8  11  13    0.53    0.33 
   9  11  13    0.22    0.30 
   9  11  13   -0.30    0.39 
  10  11  13   -0.11    0.29 
  10  11  13    0.05    0.44 
  11  11  13    0.12    0.33 
  11  11  13   -0.25    0.44 
  12  11  13    0.08    0.33 
   1 -12 -13    0.36    0.46 
   0 -12 -13    0.51    0.41 
  -1 -12 -13    0.55    0.41 
  -2 -12 -13   -0.16    0.34 
  -3 -12 -13    0.27    0.33 
  -4 -12 -13    0.25    0.32 
  -5 -12 -13   -0.11    0.31 
  -6 -12 -13    0.75    0.34 
  -7 -12 -13    1.22    0.36 
  -8 -12 -13   -0.35    0.27 
   8  12  13    0.41    0.47 
   9  12  13    0.53    0.34 
   9  12  13    0.53    0.50 
  10  12  13    0.06    0.49 
  10  12  13    0.45    0.32 
  11  12  13    0.82    0.56 
  11  12  13    0.13    0.34 
  12  12  13    0.22    0.54 
  12  12  13    0.12    0.36 
   0 -13 -13    0.20    0.44 
  -1 -13 -13   -0.15    0.39 
  -2 -13 -13    0.39    0.38 
  -3 -13 -13    0.59    0.37 
  -4 -13 -13    0.54    0.36 
  -5 -13 -13    0.57    0.35 
  -6 -13 -13    0.35    0.34 
  -7 -13 -13    0.25    0.35 
  -8 -13 -13    0.58    0.34 
   8  13  13    0.03    0.47 
  -9 -13 -13    0.28    0.32 
   9  13  13    0.16    0.49 
  10  13  13   -0.08    0.50 
  10  13  13   -0.26    0.32 
  11  13  13   -0.69    0.45 
  11  13  13   -0.06    0.33 
  -2 -14 -13    0.28    0.40 
  -3 -14 -13   -0.13    0.37 
  -4 -14 -13   -0.14    0.35 
  -5 -14 -13    0.13    0.35 
  -6 -14 -13    0.24    0.36 
  -7 -14 -13    0.65    0.37 
  -8 -14 -13    0.14    0.35 
   8  14  13   -0.08    0.46 
  -9 -14 -13    0.30    0.34 
   9  14  13   -0.12    0.50 
 -10 -14 -13    0.22    0.34 
  10  14  13   -0.09    0.52 
  -5 -15 -13   -0.44    0.35 
  -6 -15 -13   -0.21    0.32 
  -7 -15 -13   -0.94    0.32 
  -8 -15 -13    0.35    0.37 
   8  15  13    0.35    0.50 
   5  14 -14    0.67    0.41 
   4  14 -14   -0.19    0.37 
   3  14 -14    0.08    0.40 
   2  14 -14    0.30    0.41 
   7  13 -14    0.49    0.41 
   6  13 -14    0.80    0.41 
   5  13 -14    0.50    0.39 
   4  13 -14   -0.16    0.34 
   3  13 -14   -0.53    0.36 
   2  13 -14   -0.14    0.35 
   1  13 -14    0.15    0.39 
   0  13 -14    0.42    0.44 
  -1  13 -14    0.57    0.47 
   8  12 -14   -0.05    0.39 
   8  12 -14    0.01    0.40 
   7  12 -14    0.40    0.39 
   7  12 -14   -0.09    0.38 
   6  12 -14   -0.11    0.36 
   5  12 -14    0.13    0.37 
   4  12 -14    0.16    0.39 
   3  12 -14    0.02    0.34 
   2  12 -14   -0.04    0.37 
   1  12 -14   -0.29    0.38 
   0  12 -14   -0.18    0.42 
  -1  12 -14    1.10    0.49 
  -2  12 -14    0.35    0.47 
   9  11 -14    0.52    0.46 
   8  11 -14    0.68    0.42 
   7  11 -14   -0.15    0.35 
   7  11 -14    0.19    0.36 
   6  11 -14    1.04    0.40 
   6  11 -14    0.53    0.37 
   5  11 -14    0.03    0.34 
   4  11 -14    0.60    0.36 
   3  11 -14    0.23    0.36 
   2  11 -14    0.33    0.36 
   1  11 -14    0.32    0.38 
   0  11 -14    1.34    0.45 
  -1  11 -14   -0.18    0.41 
  -2  11 -14   -0.47    0.42 
  -3  11 -14   -0.11    0.45 
  -4  11 -14    1.10    0.51 
   9  10 -14    0.29    0.42 
   8  10 -14    0.17    0.39 
   7  10 -14    0.32    0.36 
   6  10 -14   -0.02    0.35 
   6  10 -14   -0.31    0.31 
   5  10 -14    0.37    0.34 
   4  10 -14    0.00    0.34 
   3  10 -14    0.11    0.36 
   2  10 -14    0.15    0.36 
   1  10 -14    1.11    0.42 
   0  10 -14    0.02    0.36 
  -1  10 -14    0.01    0.39 
  -2  10 -14    0.10    0.42 
  -3  10 -14   -0.34    0.38 
  -4  10 -14    0.01    0.45 
  -5  10 -14    0.20    0.44 
  10   9 -14    0.48    0.46 
   9   9 -14    0.74    0.45 
   8   9 -14    0.33    0.40 
   7   9 -14    0.22    0.37 
   6   9 -14    0.43    0.34 
   5   9 -14    0.47    0.33 
   5   9 -14    0.02    0.30 
   4   9 -14   -0.02    0.31 
   3   9 -14    1.04    0.36 
   2   9 -14    0.52    0.35 
   1   9 -14    0.20    0.36 
   0   9 -14    0.45    0.37 
  -1   9 -14   -0.08    0.37 
  -2   9 -14   -0.43    0.33 
  -3   9 -14   -0.22    0.37 
  -4   9 -14    0.22    0.42 
  -5   9 -14    0.41    0.42 
  -6   9 -14    0.51    0.47 
   6  -9  14    0.11    0.38 
  10   8 -14   -0.15    0.46 
   9   8 -14    0.19    0.43 
   8   8 -14    0.36    0.40 
   7   8 -14    0.38    0.37 
   6   8 -14   -0.01    0.33 
   5   8 -14    0.04    0.30 
   4   8 -14    0.24    0.32 
   4   8 -14    0.43    0.30 
   3   8 -14    0.11    0.33 
   2   8 -14   -0.03    0.28 
   1   8 -14    0.12    0.34 
   0   8 -14    0.58    0.33 
  -1   8 -14   -0.28    0.33 
  -2   8 -14    0.54    0.38 
  -3   8 -14    0.43    0.39 
  -4   8 -14    0.15    0.38 
   4  -8  14    0.34    0.31 
  -5   8 -14    1.83    0.49 
   5  -8  14    1.41    0.41 
  -6   8 -14   -0.40    0.42 
   6  -8  14    0.44    0.37 
  -7   8 -14   -0.15    0.44 
   7  -8  14    0.01    0.36 
  10   7 -14   -0.39    0.42 
   9   7 -14    0.70    0.47 
   8   7 -14    0.35    0.41 
   7   7 -14    0.19    0.37 
   6   7 -14    0.39    0.35 
   5   7 -14   -0.36    0.28 
   4   7 -14    0.29    0.30 
   3   7 -14    1.19    0.31 
   3   7 -14    1.08    0.36 
   2   7 -14    0.18    0.28 
   1   7 -14    0.65    0.33 
   0   7 -14   -0.50    0.30 
  -1   7 -14    1.02    0.37 
  -2   7 -14    0.07    0.32 
  -3   7 -14    0.78    0.39 
   3  -7  14    1.35    0.34 
  -4   7 -14    0.24    0.36 
   4  -7  14    0.64    0.32 
  -5   7 -14   -0.04    0.34 
   5  -7  14    0.35    0.32 
  -6   7 -14    0.16    0.41 
   6  -7  14   -0.62    0.29 
  -7   7 -14    0.10    0.42 
   7  -7  14   -0.34    0.32 
  -8   7 -14    0.77    0.48 
   8  -7  14    0.47    0.40 
  10   6 -14    0.38    0.50 
   9   6 -14   -0.47    0.43 
   8   6 -14   -0.09    0.37 
   7   6 -14    0.66    0.37 
   6   6 -14    0.82    0.37 
   5   6 -14    0.47    0.32 
   4   6 -14   -0.47    0.25 
   3   6 -14    0.29    0.27 
   2   6 -14    0.02    0.29 
   2   6 -14    0.03    0.24 
   1   6 -14    0.18    0.27 
   0   6 -14    1.36    0.36 
  -1   6 -14    1.25    0.35 
  -2   6 -14    1.97    0.40 
   2  -6  14    2.10    0.32 
  -3   6 -14    0.38    0.35 
   3  -6  14    0.38    0.26 
  -4   6 -14    0.33    0.36 
   4  -6  14    0.06    0.27 
  -5   6 -14   -0.09    0.34 
   5  -6  14   -0.20    0.27 
  -6   6 -14   -0.12    0.36 
   6  -6  14    0.17    0.32 
  -7   6 -14   -0.14    0.38 
   7  -6  14    0.62    0.37 
  -8   6 -14    0.17    0.43 
   8  -6  14    0.37    0.39 
  -9   6 -14   -0.09    0.46 
   9  -6  14    0.46    0.43 
  10   5 -14    0.32    0.49 
   9   5 -14   -0.24    0.42 
   8   5 -14    0.60    0.43 
   7   5 -14    0.55    0.40 
   6   5 -14    0.38    0.34 
   5   5 -14    0.16    0.30 
   4   5 -14    0.93    0.31 
   3   5 -14    0.78    0.29 
   2   5 -14    1.77    0.36 
   2   5 -14    1.76    0.32 
   1   5 -14    0.14    0.20 
   1   5 -14   -0.02    0.28 
   0   5 -14    1.22    0.33 
  -1   5 -14    1.27    0.33 
   1  -5  14    0.66    0.24 
  -2   5 -14    0.34    0.30 
   2  -5  14    0.09    0.22 
  -3   5 -14   -0.05    0.30 
   3  -5  14    0.10    0.24 
  -4   5 -14   -0.17    0.31 
   4  -5  14    0.40    0.26 
  -5   5 -14    0.04    0.30 
   5  -5  14    0.06    0.26 
  -6   5 -14    0.40    0.37 
   6  -5  14    0.69    0.35 
  -7   5 -14    0.57    0.38 
   7  -5  14    0.34    0.33 
  -8   5 -14    0.05    0.37 
   8  -5  14    0.23    0.37 
  -9   5 -14    0.06    0.43 
   9  -5  14   -0.22    0.34 
  10   4 -14    0.23    0.49 
   9   4 -14    0.38    0.44 
   8   4 -14   -0.04    0.37 
   7   4 -14    0.08    0.34 
   6   4 -14    0.83    0.37 
   5   4 -14    0.39    0.33 
   4   4 -14    0.20    0.28 
   3   4 -14   -0.29    0.23 
   2   4 -14    0.09    0.23 
   1   4 -14    0.77    0.28 
   1   4 -14    0.46    0.24 
   0   4 -14    0.02    0.25 
   0  -4  14    0.04    0.08 
  -1   4 -14    0.46    0.27 
   1  -4  14    0.49    0.23 
  -2   4 -14   -0.07    0.26 
   2  -4  14   -0.15    0.19 
  -3   4 -14   -0.11    0.27 
   3  -4  14    0.36    0.23 
  -4   4 -14    1.01    0.34 
   4  -4  14    1.67    0.33 
  -5   4 -14    0.80    0.35 
   5  -4  14    1.07    0.32 
  -6   4 -14    0.40    0.34 
   6  -4  14    0.10    0.29 
  -7   4 -14    0.42    0.36 
   7  -4  14    0.30    0.31 
  -8   4 -14    1.63    0.42 
   8  -4  14    1.43    0.41 
  -9   4 -14   -0.24    0.38 
   9  -4  14    0.22    0.37 
 -10   4 -14    0.30    0.43 
  10  -4  14   -0.01    0.38 
  10   3 -14    0.79    0.49 
   9   3 -14    0.57    0.45 
   8   3 -14    0.27    0.39 
   7   3 -14    0.19    0.37 
   6   3 -14    3.05    0.48 
   5   3 -14    0.20    0.30 
   4   3 -14    1.67    0.34 
   3   3 -14    0.24    0.26 
   2   3 -14   -0.04    0.23 
   1   3 -14    1.32    0.27 
  -1  -3  14    1.54    0.23 
   0   3 -14    0.35    0.20 
   0   3 -14    0.48    0.27 
   0  -3  14    0.41    0.19 
  -1   3 -14    0.04    0.25 
   1  -3  14   -0.05    0.20 
  -2   3 -14   -0.07    0.25 
   2  -3  14   -0.09    0.19 
  -3   3 -14    1.23    0.31 
   3  -3  14    0.77    0.25 
  -4   3 -14    1.08    0.32 
   4  -3  14    1.28    0.30 
  -5   3 -14    1.41    0.35 
   5  -3  14    1.40    0.32 
  -6   3 -14    0.03    0.29 
   6  -3  14    0.57    0.28 
  -7   3 -14    0.81    0.35 
   7  -3  14    0.58    0.33 
  -8   3 -14    0.26    0.34 
   8  -3  14    1.00    0.37 
  -9   3 -14    0.11    0.35 
   9  -3  14    0.03    0.35 
  10  -3  14    0.71    0.41 
  10   2 -14    0.26    0.47 
   9   2 -14   -0.42    0.42 
   8   2 -14    0.13    0.38 
   7   2 -14    1.72    0.44 
   6   2 -14   -0.10    0.34 
   5   2 -14    0.30    0.32 
   4   2 -14    0.09    0.28 
   3   2 -14    0.01    0.24 
   2   2 -14    0.21    0.17 
   2   2 -14    0.34    0.25 
   1   2 -14    1.40    0.29 
  -1  -2  14    1.89    0.26 
   0   2 -14    0.60    0.26 
   0   2 -14    1.02    0.23 
   0  -2  14    0.73    0.22 
  -1   2 -14    2.29    0.32 
  -1   2 -14    2.11    0.27 
   1  -2  14    2.12    0.30 
  -2   2 -14    1.80    0.31 
   2  -2  14    1.88    0.30 
  -3   2 -14    0.87    0.28 
   3  -2  14    1.11    0.26 
  -4   2 -14    0.13    0.26 
   4  -2  14   -0.04    0.22 
  -5   2 -14    2.33    0.35 
   5  -2  14    1.40    0.31 
  -6   2 -14    0.91    0.32 
   6  -2  14    0.94    0.32 
  -7   2 -14   -0.23    0.29 
   7  -2  14   -0.28    0.26 
  -8   2 -14    0.86    0.36 
   8  -2  14    1.08    0.35 
  -9   2 -14   -0.15    0.34 
   9  -2  14   -0.49    0.28 
  10  -2  14   -0.18    0.34 
  11  -2  14    0.66    0.42 
   9   1 -14    0.24    0.45 
   8   1 -14    0.22    0.43 
   7   1 -14    0.46    0.40 
   6   1 -14   -0.01    0.36 
   5   1 -14    0.61    0.35 
   4   1 -14    0.47    0.31 
   3   1 -14    0.09    0.27 
   2   1 -14    0.46    0.27 
   2   1 -14    0.98    0.22 
   1   1 -14   -0.19    0.20 
  -1  -1  14    0.06    0.18 
   0   1 -14    3.48    0.36 
   0  -1  14    3.34    0.35 
  -1   1 -14    0.49    0.24 
  -1   1 -14    0.55    0.20 
   1  -1  14   -0.11    0.19 
  -2   1 -14    4.72    0.41 
   2  -1  14    3.89    0.40 
  -3   1 -14    0.87    0.26 
   3  -1  14    0.78    0.26 
  -4   1 -14    1.10    0.28 
   4  -1  14    1.29    0.30 
  -5   1 -14   -0.01    0.24 
   5  -1  14   -0.08    0.23 
  -6   1 -14    0.17    0.26 
   6  -1  14    0.33    0.26 
  -7   1 -14    0.53    0.32 
   7  -1  14    0.47    0.30 
  -8   1 -14    0.52    0.31 
   8  -1  14    0.77    0.34 
   9  -1  14    0.50    0.32 
  10  -1  14    0.45    0.36 
  11  -1  14    0.40    0.39 
   9   0 -14    0.00    0.38 
   8   0 -14    0.22    0.44 
   7   0 -14    0.24    0.41 
   6   0 -14   -0.17    0.34 
   5   0 -14   -0.17    0.32 
   4   0 -14   -0.01    0.28 
   3   0 -14    0.18    0.21 
   3   0 -14   -0.39    0.24 
   2   0 -14    0.15    0.25 
   2   0 -14    0.22    0.22 
   1   0 -14    0.39    0.22 
   0   0  14    0.35    0.21 
  -1   0 -14    0.47    0.24 
   1   0  14    0.59    0.24 
  -2   0 -14   -0.14    0.20 
   2   0  14    0.20    0.21 
  -3   0 -14   -0.02    0.23 
   3   0  14    0.03    0.21 
  -4   0 -14    0.01    0.21 
   4   0  14   -0.08    0.19 
  -5   0 -14    0.65    0.25 
   5   0  14    0.41    0.25 
  -6   0 -14    0.36    0.26 
   6   0  14    0.66    0.28 
   7   0  14    0.01    0.27 
   8   0  14    2.36    0.41 
   9   0  14    0.08    0.31 
  10   0  14    0.57    0.34 
  11   0  14    2.37    0.48 
  12   0  14    0.82    0.44 
   9  -1 -14    0.59    0.47 
   8  -1 -14    1.19    0.48 
   7  -1 -14    0.92    0.41 
   6  -1 -14    0.75    0.41 
   5  -1 -14    0.29    0.34 
   4  -1 -14   -0.27    0.28 
   4  -1 -14   -0.18    0.25 
   3  -1 -14    2.74    0.34 
   2  -1 -14    1.14    0.26 
   1  -1 -14    2.82    0.33 
   0   1  14    4.49    0.42 
   1   1  14    0.69    0.24 
  -2  -1 -14   -0.14    0.20 
   2   1  14    0.59    0.24 
  -3  -1 -14    0.99    0.23 
   3   1  14    1.17    0.28 
  -4  -1 -14    0.14    0.19 
   4   1  14   -0.05    0.20 
  -5  -1 -14    0.29    0.20 
   5   1  14    0.27    0.23 
   6   1  14    0.06    0.23 
   7   1  14    0.53    0.28 
   8   1  14    0.92    0.34 
   9   1  14   -0.25    0.28 
  10   1  14    0.25    0.34 
  11   1  14    0.23    0.34 
  12   1  14    0.11    0.36 
   8  -2 -14   -0.09    0.39 
   7  -2 -14    0.59    0.43 
   6  -2 -14   -0.41    0.35 
   5  -2 -14    0.15    0.33 
   5  -2 -14    0.05    0.30 
   4  -2 -14    1.70    0.35 
   3  -2 -14    0.01    0.24 
   2  -2 -14    0.29    0.23 
   1  -2 -14    0.57    0.24 
   0  -2 -14    0.52    0.25 
   1   2  14    0.25    0.22 
  -2  -2 -14    0.70    0.20 
   2   2  14    0.59    0.25 
  -3  -2 -14    2.43    0.27 
   3   2  14    1.96    0.32 
  -4  -2 -14   -0.10    0.17 
   4   2  14    0.10    0.21 
   5   2  14    0.53    0.26 
   6   2  14   -0.21    0.21 
   7   2  14    0.56    0.29 
   8   2  14    2.01    0.39 
   9   2  14    1.20    0.35 
  10   2  14    0.13    0.32 
  11   2  14    0.10    0.34 
  12   2  14   -0.60    0.35 
   8  -3 -14   -0.10    0.41 
   7  -3 -14    0.13    0.37 
   6  -3 -14   -0.27    0.35 
   6  -3 -14    0.18    0.33 
   5  -3 -14    0.20    0.32 
   4  -3 -14    0.46    0.30 
   3  -3 -14    3.90    0.42 
   2  -3 -14    0.38    0.27 
   1  -3 -14    0.34    0.24 
   0  -3 -14    4.27    0.41 
   1   3  14    0.60    0.25 
   2   3  14   -0.12    0.20 
   3   3  14    0.81    0.26 
   4   3  14    0.57    0.26 
   5   3  14    1.54    0.32 
   6   3  14    0.35    0.26 
   7   3  14    0.71    0.30 
   8   3  14    0.20    0.28 
   9   3  14    0.39    0.32 
  10   3  14    0.21    0.32 
  11   3  14    1.43    0.44 
  12   3  14   -0.05    0.35 
   7  -4 -14    0.16    0.39 
   6  -4 -14    0.08    0.37 
   6  -4 -14    0.05    0.36 
   5  -4 -14    0.02    0.34 
   4  -4 -14    0.44    0.33 
   3  -4 -14   -0.04    0.29 
   2  -4 -14   -0.17    0.23 
   1  -4 -14   -0.08    0.24 
   0  -4 -14   -0.18    0.24 
  -1  -4 -14    0.22    0.24 
   2   4  14    0.16    0.23 
   3   4  14    0.02    0.23 
   4   4  14    1.76    0.32 
   5   4  14   -0.08    0.21 
   6   4  14    0.98    0.29 
   7   4  14   -0.14    0.23 
   8   4  14    0.96    0.31 
   9   4  14    1.72    0.38 
  10   4  14    0.33    0.33 
  11   4  14   -0.25    0.30 
  12   4  14    1.84    0.46 
  13   4  14    0.62    0.43 
   7  -5 -14    0.56    0.46 
   7  -5 -14    0.45    0.40 
   6  -5 -14    0.81    0.43 
   5  -5 -14    0.33    0.37 
   4  -5 -14    1.04    0.38 
   3  -5 -14    0.78    0.34 
   2  -5 -14    0.10    0.28 
   1  -5 -14    0.18    0.27 
   0  -5 -14    0.95    0.30 
  -1  -5 -14    0.17    0.25 
  -2  -5 -14    2.46    0.36 
   3   5  14    3.33    0.41 
   4   5  14    0.63    0.27 
   5   5  14    1.22    0.29 
   6   5  14    0.19    0.25 
   7   5  14    0.34    0.28 
   8   5  14   -0.07    0.27 
   9   5  14    0.51    0.32 
  10   5  14    0.21    0.30 
  11   5  14    0.38    0.34 
  12   5  14    0.23    0.37 
  13   5  14   -0.03    0.39 
   6  -6 -14   -0.29    0.40 
   5  -6 -14    0.48    0.41 
   4  -6 -14    0.14    0.38 
   3  -6 -14    0.06    0.34 
   2  -6 -14   -0.07    0.31 
   1  -6 -14    0.08    0.29 
   0  -6 -14    0.28    0.29 
  -1  -6 -14    0.73    0.30 
  -2  -6 -14    2.45    0.37 
   3   6  14    1.13    0.32 
   4   6  14    0.41    0.26 
   5   6  14   -0.13    0.23 
   6   6  14    1.11    0.32 
   7   6  14    0.25    0.25 
   8   6  14   -0.20    0.24 
   9   6  14    1.31    0.39 
  10   6  14    0.39    0.33 
  11   6  14    0.47    0.36 
  12   6  14    0.68    0.39 
  13   6  14   -0.23    0.33 
   5  -7 -14    0.02    0.40 
   4  -7 -14   -0.36    0.38 
   3  -7 -14   -0.20    0.37 
   2  -7 -14   -0.27    0.33 
   1  -7 -14    0.73    0.34 
   0  -7 -14    4.08    0.47 
  -1  -7 -14    0.93    0.32 
  -2  -7 -14    0.36    0.31 
  -3  -7 -14    0.67    0.29 
   4   7  14    1.00    0.30 
   5   7  14   -0.10    0.23 
   6   7  14   -0.14    0.25 
   7   7  14    0.18    0.26 
   8   7  14    0.16    0.30 
   9   7  14    1.45    0.37 
  10   7  14    0.13    0.34 
  11   7  14   -0.16    0.32 
  12   7  14   -0.30    0.34 
  13   7  14    0.17    0.38 
   5  -8 -14    0.20    0.45 
   4  -8 -14    0.71    0.45 
   3  -8 -14   -0.04    0.40 
   2  -8 -14   -0.25    0.36 
   1  -8 -14    0.43    0.36 
   0  -8 -14    0.57    0.33 
  -1  -8 -14   -0.10    0.31 
  -2  -8 -14   -0.41    0.26 
  -3  -8 -14    1.13    0.34 
  -4  -8 -14    0.06    0.28 
   5   8  14    0.58    0.30 
   6   8  14    0.02    0.26 
   7   8  14   -0.09    0.30 
   8   8  14   -0.42    0.25 
   9   8  14    0.00    0.28 
  10   8  14   -0.01    0.33 
  11   8  14    0.13    0.32 
  12   8  14    0.76    0.39 
  13   8  14    0.62    0.40 
   4  -9 -14   -0.53    0.42 
   3  -9 -14    0.35    0.43 
   2  -9 -14    1.80    0.47 
   1  -9 -14    0.97    0.39 
   0  -9 -14    0.50    0.36 
  -1  -9 -14    0.26    0.33 
  -2  -9 -14   -0.04    0.30 
  -3  -9 -14   -0.20    0.31 
  -4  -9 -14    0.03    0.28 
  -5  -9 -14   -0.11    0.29 
   6   9  14    2.95    0.45 
   7   9  14    0.34    0.30 
   8   9  14   -0.14    0.30 
   9   9  14    1.38    0.45 
   9   9  14    0.64    0.36 
  10   9  14   -0.28    0.28 
  11   9  14    0.39    0.35 
  12   9  14    0.26    0.36 
   3 -10 -14   -0.22    0.42 
   2 -10 -14   -0.34    0.39 
   1 -10 -14    0.69    0.44 
   0 -10 -14   -0.10    0.37 
  -1 -10 -14   -0.16    0.35 
  -2 -10 -14   -0.03    0.30 
  -3 -10 -14    0.22    0.32 
  -4 -10 -14   -0.19    0.31 
  -5 -10 -14   -0.13    0.30 
  -6 -10 -14    0.16    0.31 
   7  10  14   -0.25    0.29 
   8  10  14    0.26    0.31 
   9  10  14    0.94    0.46 
   9  10  14    0.77    0.35 
  10  10  14   -0.36    0.31 
  10  10  14    0.56    0.47 
  11  10  14    0.10    0.33 
  12  10  14    0.71    0.39 
   2 -11 -14    0.48    0.48 
   1 -11 -14    1.81    0.51 
   0 -11 -14   -0.04    0.38 
  -1 -11 -14    0.14    0.38 
  -2 -11 -14    0.17    0.36 
  -3 -11 -14    0.72    0.38 
  -4 -11 -14    0.95    0.35 
  -5 -11 -14    0.27    0.35 
  -6 -11 -14    0.27    0.32 
  -7 -11 -14    1.19    0.35 
   8  11  14    0.00    0.32 
   9  11  14    0.12    0.31 
   9  11  14    0.34    0.44 
  10  11  14   -0.06    0.32 
  10  11  14   -0.46    0.44 
  11  11  14   -0.07    0.35 
  12  11  14    0.44    0.38 
   0 -12 -14    0.25    0.44 
  -1 -12 -14   -0.55    0.38 
  -2 -12 -14   -0.04    0.39 
  -3 -12 -14   -0.20    0.33 
  -4 -12 -14   -0.20    0.33 
  -5 -12 -14   -0.43    0.33 
  -6 -12 -14    0.06    0.33 
  -7 -12 -14    0.15    0.31 
  -8 -12 -14    0.24    0.34 
   9  12  14   -0.15    0.46 
   9  12  14   -0.02    0.32 
  10  12  14   -0.26    0.49 
  10  12  14   -0.20    0.32 
  11  12  14   -0.50    0.46 
  11  12  14    0.14    0.36 
  -1 -13 -14    1.65    0.47 
  -2 -13 -14    0.78    0.43 
  -3 -13 -14    0.15    0.36 
  -4 -13 -14    0.22    0.38 
  -5 -13 -14    0.20    0.34 
  -6 -13 -14    0.15    0.33 
  -7 -13 -14    0.36    0.36 
  -8 -13 -14   -0.15    0.32 
  -9 -13 -14    1.27    0.38 
   9  13  14    0.42    0.53 
  10  13  14    0.45    0.38 
  10  13  14   -0.32    0.50 
  -4 -14 -14    0.93    0.43 
  -5 -14 -14    0.21    0.38 
  -6 -14 -14    0.19    0.38 
  -7 -14 -14    0.38    0.36 
  -8 -14 -14    0.54    0.37 
  -9 -14 -14    0.05    0.36 
   9  14  14   -0.38    0.52 
   5  13 -15   -0.20    0.40 
   4  13 -15    0.38    0.41 
   3  13 -15    0.10    0.40 
   2  13 -15    0.30    0.42 
   7  12 -15    0.32    0.43 
   6  12 -15   -0.03    0.36 
   5  12 -15    1.46    0.45 
   4  12 -15    0.39    0.39 
   3  12 -15    0.12    0.38 
   2  12 -15    0.10    0.36 
   1  12 -15   -0.02    0.44 
   0  12 -15    0.17    0.46 
  -1  12 -15   -0.46    0.42 
   8  11 -15    0.08    0.42 
   8  11 -15    0.66    0.44 
   7  11 -15    0.42    0.37 
   7  11 -15    0.68    0.42 
   6  11 -15   -0.04    0.37 
   5  11 -15    0.01    0.35 
   4  11 -15   -0.02    0.35 
   3  11 -15   -0.06    0.39 
   2  11 -15    0.15    0.40 
   1  11 -15   -0.40    0.38 
   0  11 -15   -0.01    0.44 
  -1  11 -15   -0.05    0.44 
  -2  11 -15    0.76    0.50 
  -3  11 -15    0.46    0.48 
   8  10 -15   -0.04    0.40 
   7  10 -15    0.37    0.39 
   6  10 -15   -0.16    0.35 
   6  10 -15   -0.12    0.37 
   5  10 -15    0.19    0.37 
   4  10 -15    0.35    0.37 
   3  10 -15    0.30    0.40 
   2  10 -15    0.15    0.36 
   1  10 -15   -0.01    0.40 
   0  10 -15    0.28    0.41 
  -1  10 -15   -0.10    0.38 
  -2  10 -15    0.04    0.43 
  -3  10 -15   -0.39    0.44 
  -4  10 -15    0.51    0.46 
   9   9 -15   -0.20    0.44 
   8   9 -15    0.24    0.42 
   7   9 -15    0.14    0.38 
   6   9 -15    0.27    0.36 
   5   9 -15   -0.53    0.35 
   5   9 -15   -0.02    0.34 
   4   9 -15    0.36    0.39 
   3   9 -15    0.61    0.38 
   2   9 -15    0.02    0.35 
   1   9 -15    0.70    0.39 
   0   9 -15    0.08    0.38 
  -1   9 -15    0.20    0.39 
  -2   9 -15    0.95    0.42 
  -3   9 -15    0.40    0.43 
  -4   9 -15   -0.37    0.41 
  -5   9 -15   -0.35    0.44 
   9   8 -15    0.44    0.44 
   8   8 -15    0.12    0.42 
   7   8 -15   -0.22    0.37 
   6   8 -15    0.12    0.35 
   5   8 -15    1.27    0.38 
   4   8 -15    0.20    0.34 
   3   8 -15   -0.21    0.31 
   2   8 -15    1.57    0.39 
   1   8 -15    0.29    0.37 
   0   8 -15   -0.13    0.32 
  -1   8 -15    0.99    0.40 
  -2   8 -15    0.40    0.38 
  -3   8 -15   -0.53    0.37 
  -4   8 -15    0.15    0.42 
  -5   8 -15    0.35    0.43 
  -6   8 -15    0.80    0.49 
   6  -8  15    0.93    0.44 
   9   7 -15    0.18    0.45 
   8   7 -15   -0.10    0.41 
   7   7 -15   -0.03    0.39 
   6   7 -15    1.02    0.40 
   5   7 -15    0.37    0.35 
   4   7 -15    0.47    0.32 
   3   7 -15    0.53    0.32 
   2   7 -15    0.02    0.30 
   1   7 -15    2.41    0.43 
   0   7 -15    0.11    0.34 
  -1   7 -15    1.83    0.42 
  -2   7 -15    0.19    0.37 
  -3   7 -15    0.16    0.38 
  -4   7 -15    0.23    0.40 
   4  -7  15    0.42    0.32 
  -5   7 -15    0.10    0.39 
   5  -7  15    0.02    0.32 
  -6   7 -15    0.32    0.44 
   6  -7  15    0.62    0.39 
  -7   7 -15    0.79    0.45 
   7  -7  15    0.39    0.38 
   9   6 -15    0.61    0.50 
   8   6 -15    0.17    0.43 
   7   6 -15   -0.40    0.37 
   6   6 -15    1.05    0.40 
   5   6 -15    0.91    0.37 
   4   6 -15    0.06    0.30 
   3   6 -15   -0.29    0.31 
   3   6 -15    0.48    0.30 
   2   6 -15    0.04    0.32 
   1   6 -15    0.24    0.32 
   0   6 -15    0.91    0.36 
  -1   6 -15    2.95    0.45 
  -2   6 -15    0.20    0.32 
  -3   6 -15   -0.09    0.35 
   3  -6  15    0.33    0.27 
  -4   6 -15    0.51    0.39 
   4  -6  15    1.17    0.33 
  -5   6 -15    0.05    0.37 
   5  -6  15   -0.14    0.28 
  -6   6 -15    0.39    0.39 
   6  -6  15    0.20    0.34 
  -7   6 -15   -0.22    0.40 
   7  -6  15   -0.16    0.35 
  -8   6 -15    0.08    0.44 
   8  -6  15   -0.63    0.30 
   9   5 -15    0.41    0.45 
   8   5 -15    0.85    0.47 
   7   5 -15   -0.11    0.38 
   6   5 -15   -0.21    0.34 
   5   5 -15    0.21    0.33 
   4   5 -15   -0.07    0.30 
   3   5 -15    0.14    0.27 
   2   5 -15   -0.18    0.25 
   2   5 -15   -0.16    0.28 
   1   5 -15    0.12    0.30 
   0   5 -15    2.57    0.40 
  -1   5 -15    5.04    0.51 
  -2   5 -15   -0.19    0.31 
   2  -5  15    0.19    0.23 
  -3   5 -15   -0.06    0.31 
   3  -5  15   -0.13    0.23 
  -4   5 -15    1.18    0.37 
   4  -5  15    1.06    0.32 
  -5   5 -15    1.90    0.44 
   5  -5  15    2.35    0.41 
  -6   5 -15    0.17    0.38 
   6  -5  15    0.37    0.32 
  -7   5 -15    0.27    0.40 
   7  -5  15    0.04    0.33 
  -8   5 -15   -0.47    0.39 
   8  -5  15   -0.23    0.34 
  -9   5 -15    0.07    0.45 
   9  -5  15   -0.01    0.38 
   9   4 -15    1.01    0.49 
   8   4 -15    0.09    0.39 
   7   4 -15    2.20    0.49 
   6   4 -15    0.39    0.38 
   5   4 -15    0.20    0.30 
   4   4 -15    0.00    0.29 
   3   4 -15    1.04    0.32 
   2   4 -15    0.15    0.26 
   1   4 -15   -0.49    0.25 
   1   4 -15   -0.25    0.23 
   0   4 -15    0.05    0.28 
  -1   4 -15    4.24    0.45 
   1  -4  15    4.41    0.43 
  -2   4 -15    0.84    0.32 
   2  -4  15    0.40    0.24 
  -3   4 -15    0.06    0.29 
   3  -4  15    0.45    0.26 
  -4   4 -15    0.08    0.30 
   4  -4  15   -0.07    0.24 
  -5   4 -15   -0.18    0.31 
   5  -4  15   -0.15    0.25 
  -6   4 -15    0.36    0.34 
   6  -4  15   -0.12    0.27 
  -7   4 -15    0.08    0.37 
   7  -4  15    0.09    0.32 
  -8   4 -15    0.45    0.41 
   8  -4  15   -0.12    0.33 
  -9   4 -15    0.19    0.42 
   9  -4  15    0.31    0.37 
   9   3 -15    0.33    0.47 
   8   3 -15    0.47    0.45 
   7   3 -15    0.62    0.41 
   6   3 -15   -0.19    0.34 
   5   3 -15    0.69    0.36 
   4   3 -15    1.48    0.39 
   3   3 -15    1.33    0.35 
   2   3 -15    3.38    0.41 
   1   3 -15    2.96    0.37 
   0   3 -15    1.04    0.31 
   0   3 -15    0.59    0.25 
   0  -3  15    0.39    0.25 
  -1   3 -15   -0.15    0.26 
   1  -3  15    0.00    0.23 
  -2   3 -15    3.41    0.40 
   2  -3  15    3.19    0.38 
  -3   3 -15   -0.07    0.27 
   3  -3  15   -0.01    0.23 
  -4   3 -15    0.34    0.30 
   4  -3  15    0.17    0.26 
  -5   3 -15   -0.02    0.29 
   5  -3  15   -0.12    0.25 
  -6   3 -15    1.45    0.37 
   6  -3  15    0.42    0.31 
  -7   3 -15    0.65    0.37 
   7  -3  15    0.79    0.35 
  -8   3 -15    0.79    0.39 
   8  -3  15    0.86    0.38 
   9  -3  15    0.58    0.39 
  10  -3  15    0.18    0.37 
   9   2 -15    0.44    0.46 
   8   2 -15   -0.30    0.37 
   7   2 -15    0.58    0.41 
   6   2 -15   -0.30    0.35 
   5   2 -15    1.70    0.42 
   4   2 -15    0.37    0.32 
   3   2 -15    0.73    0.31 
   2   2 -15    0.17    0.26 
   1   2 -15    3.04    0.37 
  -1  -2  15    2.38    0.33 
   0   2 -15    0.08    0.24 
   0   2 -15    0.01    0.26 
   0  -2  15    0.21    0.23 
  -1   2 -15    0.60    0.27 
   1  -2  15    0.73    0.25 
  -2   2 -15   -0.07    0.25 
   2  -2  15    0.12    0.23 
  -3   2 -15    0.04    0.25 
   3  -2  15    0.43    0.25 
  -4   2 -15    1.45    0.33 
   4  -2  15    1.15    0.30 
  -5   2 -15    0.96    0.33 
   5  -2  15    0.37    0.28 
  -6   2 -15    0.36    0.31 
   6  -2  15    0.33    0.29 
  -7   2 -15    0.82    0.34 
   7  -2  15    0.12    0.30 
   8  -2  15    0.12    0.33 
   9  -2  15    0.73    0.39 
  10  -2  15    0.54    0.39 
   9   1 -15   -0.58    0.42 
   8   1 -15   -0.02    0.38 
   7   1 -15    0.89    0.45 
   6   1 -15    0.02    0.37 
   5   1 -15    3.08    0.49 
   4   1 -15    1.29    0.37 
   3   1 -15    0.10    0.27 
   2   1 -15    0.10    0.27 
   1   1 -15    0.31    0.26 
   1   1 -15    0.15    0.21 
   0   1 -15   -0.01    0.22 
   0  -1  15    0.04    0.21 
  -1   1 -15    0.72    0.26 
  -1   1 -15    0.59    0.27 
   1  -1  15    0.92    0.27 
  -2   1 -15    0.23    0.26 
   2  -1  15    0.30    0.23 
  -3   1 -15    2.66    0.35 
   3  -1  15    1.69    0.33 
  -4   1 -15    4.50    0.42 
   4  -1  15    3.27    0.41 
  -5   1 -15    1.99    0.35 
   5  -1  15    1.98    0.35 
  -6   1 -15    1.22    0.32 
   6  -1  15    1.17    0.33 
   7  -1  15    0.98    0.35 
   8  -1  15    1.79    0.41 
   9  -1  15    0.64    0.34 
  10  -1  15    1.38    0.42 
  11  -1  15   -0.36    0.34 
   8   0 -15    1.52    0.53 
   7   0 -15    0.04    0.44 
   6   0 -15    1.87    0.48 
   5   0 -15    0.28    0.33 
   4   0 -15    2.16    0.42 
   3   0 -15    0.57    0.31 
   2   0 -15    0.34    0.27 
   2   0 -15    0.41    0.23 
   1   0 -15    0.09    0.22 
   0   0  15    0.15    0.23 
  -1   0 -15    0.52    0.26 
   1   0  15    0.97    0.28 
  -2   0 -15    0.24    0.24 
   2   0  15   -0.06    0.21 
  -3   0 -15    0.03    0.25 
   3   0  15    0.05    0.24 
  -4   0 -15    1.29    0.29 
   4   0  15    1.34    0.31 
  -5   0 -15    0.61    0.28 
   5   0  15    0.56    0.26 
   6   0  15    0.00    0.24 
   7   0  15    0.04    0.27 
   8   0  15    0.49    0.32 
   9   0  15   -0.01    0.34 
  10   0  15    1.06    0.40 
  11   0  15   -0.24    0.36 
   8  -1 -15    0.47    0.49 
   7  -1 -15    0.77    0.47 
   6  -1 -15    0.24    0.41 
   5  -1 -15    0.24    0.36 
   4  -1 -15    0.02    0.31 
   3  -1 -15    0.71    0.28 
   3  -1 -15    0.42    0.31 
   2  -1 -15    0.52    0.26 
   1  -1 -15    0.82    0.26 
   0  -1 -15    1.23    0.27 
   1   1  15    2.37    0.34 
  -2  -1 -15    2.73    0.34 
   2   1  15    3.21    0.39 
  -3  -1 -15    0.36    0.25 
   3   1  15    0.39    0.26 
  -4  -1 -15    0.31    0.24 
   4   1  15   -0.02    0.24 
   5   1  15    1.41    0.32 
   6   1  15    1.74    0.35 
   7   1  15    1.14    0.34 
   8   1  15    3.89    0.50 
   9   1  15    1.06    0.37 
  10   1  15    0.14    0.34 
  11   1  15    1.03    0.43 
   8  -2 -15    0.22    0.43 
   7  -2 -15    0.25    0.41 
   6  -2 -15    0.33    0.38 
   5  -2 -15    1.40    0.42 
   4  -2 -15   -0.38    0.30 
   4  -2 -15    0.07    0.29 
   3  -2 -15    0.57    0.28 
   2  -2 -15    0.56    0.27 
   1  -2 -15    0.98    0.28 
   0  -2 -15    0.47    0.26 
   1   2  15   -0.04    0.22 
  -2  -2 -15    1.95    0.31 
   2   2  15    2.00    0.34 
   3   2  15    0.01    0.23 
   4   2  15    0.98    0.30 
   5   2  15    0.05    0.25 
   6   2  15   -0.16    0.23 
   7   2  15    0.65    0.30 
   8   2  15    1.91    0.39 
   9   2  15    0.93    0.36 
  10   2  15    0.38    0.33 
  11   2  15    0.12    0.35 
  12   2  15    0.29    0.37 
   7  -3 -15    0.28    0.45 
   6  -3 -15    0.02    0.40 
   5  -3 -15    0.37    0.39 
   5  -3 -15    0.51    0.36 
   4  -3 -15   -0.40    0.30 
   3  -3 -15    0.12    0.28 
   2  -3 -15    0.50    0.28 
   1  -3 -15    1.76    0.32 
   0  -3 -15    0.55    0.27 
  -1  -3 -15    1.46    0.31 
   2   3  15    0.22    0.24 
   3   3  15    2.32    0.37 
   4   3  15    0.75    0.27 
   5   3  15    3.64    0.43 
   6   3  15    1.67    0.35 
   7   3  15    1.34    0.34 
   8   3  15    2.11    0.40 
   9   3  15    1.46    0.39 
  10   3  15    0.41    0.35 
  11   3  15    1.25    0.42 
  12   3  15    0.24    0.39 
   7  -4 -15   -0.11    0.40 
   6  -4 -15    0.08    0.42 
   5  -4 -15    0.24    0.36 
   4  -4 -15    1.34    0.39 
   3  -4 -15    0.27    0.31 
   2  -4 -15   -0.16    0.26 
   1  -4 -15    2.04    0.36 
   0  -4 -15    1.09    0.32 
  -1  -4 -15    0.59    0.28 
   2   4  15    1.35    0.31 
   3   4  15    0.12    0.25 
   4   4  15   -0.14    0.24 
   5   4  15   -0.03    0.23 
   6   4  15    0.12    0.25 
   7   4  15    0.38    0.28 
   8   4  15    0.50    0.31 
   9   4  15    0.14    0.31 
  10   4  15    0.66    0.34 
  11   4  15    0.29    0.38 
  12   4  15   -0.11    0.37 
   6  -5 -15   -0.29    0.37 
   6  -5 -15   -0.29    0.40 
   5  -5 -15    0.39    0.41 
   4  -5 -15   -0.44    0.33 
   3  -5 -15   -0.52    0.29 
   2  -5 -15    0.41    0.32 
   1  -5 -15    0.18    0.29 
   0  -5 -15    0.28    0.26 
  -1  -5 -15    0.22    0.28 
  -2  -5 -15    1.34    0.32 
   3   5  15    1.74    0.36 
   4   5  15    2.77    0.41 
   5   5  15    0.89    0.31 
   6   5  15    0.40    0.29 
   7   5  15    0.44    0.29 
   8   5  15    0.05    0.30 
   9   5  15    1.43    0.39 
  10   5  15    0.39    0.34 
  11   5  15    1.40    0.45 
  12   5  15    0.25    0.40 
   5  -6 -15   -0.04    0.41 
   4  -6 -15    0.49    0.42 
   3  -6 -15   -0.25    0.35 
   2  -6 -15    1.12    0.39 
   1  -6 -15   -0.41    0.27 
   0  -6 -15   -0.14    0.29 
  -1  -6 -15   -0.09    0.27 
  -2  -6 -15    2.40    0.39 
  -3  -6 -15    1.09    0.33 
   4   6  15    0.33    0.28 
   5   6  15    0.61    0.30 
   6   6  15    0.18    0.29 
   7   6  15    0.33    0.30 
   8   6  15    0.45    0.31 
   9   6  15   -0.02    0.29 
  10   6  15   -0.03    0.33 
  11   6  15   -0.16    0.35 
  12   6  15    0.28    0.38 
   5  -7 -15   -0.30    0.42 
   4  -7 -15   -0.40    0.38 
   3  -7 -15   -0.22    0.38 
   2  -7 -15   -0.35    0.35 
   1  -7 -15   -0.16    0.34 
   0  -7 -15   -0.08    0.31 
  -1  -7 -15   -0.02    0.29 
  -2  -7 -15    2.93    0.45 
  -3  -7 -15    0.89    0.33 
   4   7  15    1.60    0.35 
   5   7  15    0.18    0.27 
   6   7  15   -0.08    0.26 
   7   7  15   -0.05    0.29 
   8   7  15    1.79    0.39 
   9   7  15    1.16    0.37 
  10   7  15    0.45    0.35 
  11   7  15    0.90    0.41 
  12   7  15    0.67    0.40 
   4  -8 -15   -0.32    0.44 
   3  -8 -15    0.59    0.45 
   2  -8 -15   -0.55    0.36 
   1  -8 -15    0.83    0.39 
   0  -8 -15    0.13    0.34 
  -1  -8 -15    0.40    0.35 
  -2  -8 -15    1.68    0.41 
  -3  -8 -15   -0.35    0.31 
  -4  -8 -15    0.85    0.36 
   5   8  15   -0.17    0.28 
   6   8  15   -0.22    0.26 
   7   8  15    0.28    0.29 
   8   8  15    1.34    0.39 
   9   8  15    0.42    0.32 
  10   8  15   -0.26    0.33 
  11   8  15    0.01    0.34 
  12   8  15    0.67    0.39 
   3  -9 -15    0.01    0.45 
   2  -9 -15    0.15    0.40 
   1  -9 -15   -0.20    0.39 
   0  -9 -15   -0.22    0.37 
  -1  -9 -15   -0.07    0.32 
  -2  -9 -15    0.10    0.35 
  -3  -9 -15   -0.40    0.30 
  -4  -9 -15    0.59    0.34 
  -5  -9 -15    0.07    0.33 
   6   9  15    0.26    0.30 
   7   9  15    0.41    0.32 
   8   9  15    0.21    0.33 
   9   9  15    0.76    0.37 
  10   9  15    0.08    0.32 
  11   9  15    0.03    0.36 
  12   9  15    0.28    0.39 
   2 -10 -15   -0.06    0.45 
   1 -10 -15    0.08    0.43 
   0 -10 -15    1.17    0.46 
  -1 -10 -15    0.04    0.36 
  -2 -10 -15    0.34    0.36 
  -3 -10 -15   -0.01    0.34 
  -4 -10 -15    0.09    0.35 
  -5 -10 -15    0.27    0.37 
  -6 -10 -15   -0.04    0.32 
   7  10  15   -0.16    0.30 
   8  10  15   -0.04    0.32 
   9  10  15    0.01    0.31 
  10  10  15    0.32    0.38 
  11  10  15   -0.39    0.34 
   0 -11 -15   -0.25    0.40 
  -1 -11 -15    0.17    0.39 
  -2 -11 -15    0.44    0.42 
  -3 -11 -15   -0.02    0.35 
  -4 -11 -15    0.29    0.35 
  -5 -11 -15    0.38    0.34 
  -6 -11 -15    0.25    0.34 
  -7 -11 -15    0.04    0.33 
   8  11  15    0.23    0.34 
   9  11  15    0.10    0.34 
  10  11  15   -0.24    0.33 
  11  11  15    0.10    0.36 
  -1 -12 -15    0.04    0.42 
  -2 -12 -15    0.80    0.44 
  -3 -12 -15    0.10    0.38 
  -4 -12 -15    0.33    0.36 
  -5 -12 -15    0.32    0.37 
  -6 -12 -15    0.62    0.38 
  -7 -12 -15    0.59    0.38 
  -8 -12 -15    0.27    0.35 
   9  12  15   -0.35    0.34 
  10  12  15    0.40    0.38 
  -3 -13 -15    0.13    0.39 
  -4 -13 -15    0.01    0.37 
  -5 -13 -15    0.15    0.38 
  -6 -13 -15    0.40    0.37 
  -7 -13 -15   -0.31    0.35 
  -8 -13 -15    0.25    0.37 
  -9 -13 -15   -0.04    0.36 
   4  12 -16    0.45    0.40 
   3  12 -16    0.71    0.41 
   2  12 -16    0.18    0.45 
   1  12 -16    0.36    0.46 
   6  11 -16    0.13    0.41 
   5  11 -16    0.26    0.41 
   4  11 -16    0.00    0.41 
   3  11 -16    0.60    0.45 
   2  11 -16    0.40    0.41 
   1  11 -16    0.07    0.40 
   0  11 -16   -0.21    0.45 
  -1  11 -16   -0.04    0.43 
   7  10 -16    0.23    0.43 
   7  10 -16   -0.33    0.38 
   6  10 -16    1.41    0.45 
   5  10 -16    0.42    0.44 
   4  10 -16   -0.09    0.40 
   3  10 -16    0.13    0.41 
   2  10 -16    1.22    0.46 
   1  10 -16    0.31    0.40 
   0  10 -16    0.20    0.43 
  -1  10 -16    1.08    0.49 
  -2  10 -16    0.51    0.48 
  -3  10 -16    0.42    0.50 
   7   9 -16   -0.15    0.41 
   6   9 -16    0.23    0.40 
   6   9 -16    0.49    0.43 
   5   9 -16    0.59    0.42 
   4   9 -16   -0.35    0.37 
   3   9 -16    0.20    0.37 
   2   9 -16    0.24    0.37 
   1   9 -16    0.70    0.41 
   0   9 -16    0.02    0.38 
  -1   9 -16    0.32    0.41 
  -2   9 -16    0.35    0.44 
  -3   9 -16   -0.41    0.40 
  -4   9 -16    0.98    0.50 
   8   8 -16    0.91    0.47 
   7   8 -16    0.84    0.45 
   6   8 -16    0.10    0.38 
   5   8 -16   -0.21    0.38 
   5   8 -16   -0.06    0.35 
   4   8 -16    0.26    0.38 
   3   8 -16   -0.10    0.33 
   2   8 -16    0.12    0.36 
   1   8 -16   -0.23    0.37 
   0   8 -16    1.31    0.42 
  -1   8 -16    0.83    0.41 
  -2   8 -16   -0.50    0.37 
  -3   8 -16   -0.08    0.42 
  -4   8 -16    1.44    0.51 
  -5   8 -16   -0.70    0.43 
   8   7 -16   -0.16    0.43 
   7   7 -16    0.53    0.42 
   6   7 -16    0.48    0.41 
   5   7 -16    0.47    0.39 
   4   7 -16   -0.04    0.35 
   4   7 -16    0.06    0.33 
   3   7 -16    0.03    0.35 
   2   7 -16   -0.24    0.34 
   1   7 -16    0.54    0.36 
   0   7 -16    0.45    0.37 
  -1   7 -16   -0.50    0.34 
  -2   7 -16   -0.27    0.37 
  -3   7 -16    0.19    0.39 
  -4   7 -16    0.17    0.43 
  -5   7 -16    0.20    0.40 
  -6   7 -16    0.39    0.45 
   6  -7  16   -0.78    0.33 
   8   6 -16    0.35    0.46 
   7   6 -16    0.09    0.44 
   6   6 -16    0.19    0.39 
   5   6 -16    0.73    0.39 
   4   6 -16    1.00    0.37 
   3   6 -16    1.38    0.39 
   2   6 -16    0.68    0.36 
   1   6 -16   -0.04    0.33 
   0   6 -16    0.69    0.38 
  -1   6 -16    0.15    0.31 
  -2   6 -16    0.20    0.33 
  -3   6 -16    0.07    0.36 
  -4   6 -16   -0.02    0.37 
  -5   6 -16    0.06    0.40 
   5  -6  16   -0.12    0.30 
  -6   6 -16   -0.42    0.41 
   6  -6  16   -0.15    0.32 
  -7   6 -16    0.14    0.44 
   7  -6  16   -0.14    0.35 
   8   5 -16    0.24    0.46 
   7   5 -16   -0.09    0.38 
   6   5 -16    1.52    0.46 
   5   5 -16    0.75    0.37 
   4   5 -16    0.37    0.34 
   3   5 -16    0.26    0.30 
   2   5 -16    0.65    0.33 
   1   5 -16    1.73    0.39 
   0   5 -16    0.21    0.30 
  -1   5 -16    1.66    0.39 
  -2   5 -16    0.50    0.35 
  -3   5 -16    0.07    0.35 
   3  -5  16    0.03    0.27 
  -4   5 -16   -0.02    0.35 
   4  -5  16    0.34    0.30 
  -5   5 -16   -0.07    0.38 
   5  -5  16    0.23    0.31 
  -6   5 -16    0.98    0.43 
   6  -5  16    0.79    0.37 
  -7   5 -16    0.03    0.40 
   7  -5  16   -0.04    0.34 
  -8   5 -16    0.30    0.44 
   8  -5  16    0.30    0.38 
   8   4 -16    0.07    0.43 
   7   4 -16    0.48    0.43 
   6   4 -16    1.81    0.47 
   5   4 -16    2.23    0.45 
   4   4 -16    0.95    0.37 
   3   4 -16   -0.29    0.27 
   2   4 -16   -0.16    0.27 
   1   4 -16   -0.17    0.27 
   0   4 -16    0.20    0.30 
  -1   4 -16    4.13    0.47 
  -2   4 -16    0.30    0.31 
   2  -4  16    0.23    0.26 
  -3   4 -16    0.54    0.33 
   3  -4  16    0.49    0.27 
  -4   4 -16    1.31    0.39 
   4  -4  16    0.52    0.30 
  -5   4 -16    0.17    0.35 
   5  -4  16   -0.06    0.28 
  -6   4 -16    0.07    0.35 
   6  -4  16    0.68    0.35 
  -7   4 -16    0.18    0.39 
   7  -4  16   -0.09    0.33 
  -8   4 -16   -0.25    0.40 
   8  -4  16   -0.01    0.35 
   8   3 -16    1.26    0.49 
   7   3 -16    0.17    0.41 
   6   3 -16    0.30    0.39 
   5   3 -16    0.27    0.34 
   4   3 -16    1.22    0.38 
   3   3 -16    0.25    0.29 
   2   3 -16   -0.11    0.26 
   1   3 -16   -0.35    0.27 
   1   3 -16   -0.12    0.24 
   0   3 -16    1.96    0.38 
  -1   3 -16    0.20    0.29 
   1  -3  16    1.08    0.30 
  -2   3 -16    0.22    0.29 
   2  -3  16    0.11    0.25 
  -3   3 -16    0.86    0.32 
   3  -3  16    0.24    0.27 
  -4   3 -16    0.92    0.34 
   4  -3  16    0.39    0.26 
  -5   3 -16   -0.12    0.31 
   5  -3  16    0.13    0.27 
  -6   3 -16    0.35    0.34 
   6  -3  16    0.28    0.29 
  -7   3 -16   -0.24    0.36 
   7  -3  16   -0.26    0.30 
   8  -3  16   -0.02    0.34 
   9  -3  16   -0.36    0.35 
   8   2 -16   -0.61    0.42 
   7   2 -16    0.29    0.42 
   6   2 -16    0.25    0.42 
   5   2 -16    0.84    0.40 
   4   2 -16   -0.05    0.32 
   3   2 -16    0.06    0.30 
   2   2 -16    0.11    0.28 
   1   2 -16    1.24    0.32 
   0   2 -16    2.70    0.37 
   0   2 -16    2.31    0.38 
   0  -2  16    2.26    0.34 
  -1   2 -16    6.11    0.52 
   1  -2  16    5.77    0.50 
  -2   2 -16    0.96    0.32 
   2  -2  16    0.25    0.25 
  -3   2 -16    0.35    0.29 
   3  -2  16    0.31    0.26 
  -4   2 -16   -0.13    0.28 
   4  -2  16   -0.13    0.24 
  -5   2 -16    0.81    0.34 
   5  -2  16    0.63    0.30 
  -6   2 -16   -0.08    0.31 
   6  -2  16   -0.04    0.28 
   7  -2  16    1.26    0.39 
   8  -2  16    0.14    0.33 
   9  -2  16    0.40    0.38 
  10  -2  16    0.36    0.41 
   8   1 -16    0.15    0.45 
   7   1 -16   -0.11    0.42 
   6   1 -16    0.05    0.40 
   5   1 -16    0.25    0.37 
   4   1 -16   -0.14    0.29 
   3   1 -16   -0.01    0.30 
   2   1 -16    0.68    0.31 
   1   1 -16    0.28    0.28 
   0   1 -16    0.15    0.26 
   0   1 -16    0.08    0.26 
   0  -1  16   -0.23    0.22 
  -1   1 -16    0.34    0.27 
   1  -1  16   -0.27    0.23 
  -2   1 -16    0.09    0.27 
   2  -1  16   -0.23    0.23 
  -3   1 -16    0.05    0.27 
   3  -1  16    0.20    0.27 
  -4   1 -16    0.24    0.28 
   4  -1  16    0.15    0.26 
  -5   1 -16    0.11    0.30 
   5  -1  16   -0.09    0.24 
   6  -1  16    0.01    0.27 
   7  -1  16    0.38    0.31 
   8  -1  16    0.26    0.34 
   9  -1  16    0.19    0.36 
  10  -1  16   -0.26    0.34 
   8   0 -16    0.45    0.47 
   7   0 -16   -0.16    0.44 
   6   0 -16   -0.08    0.39 
   5   0 -16    1.10    0.43 
   4   0 -16   -0.20    0.32 
   3   0 -16    0.89    0.35 
   2   0 -16    2.25    0.39 
   1   0 -16    5.28    0.51 
   1   0 -16    5.24    0.45 
   0   0  16    0.31    0.26 
  -1   0 -16    0.21    0.27 
   1   0  16    0.48    0.26 
  -2   0 -16    0.25    0.28 
   2   0  16    0.26    0.27 
  -3   0 -16    0.39    0.27 
   3   0  16    0.00    0.26 
  -4   0 -16    4.50    0.43 
   4   0  16    3.20    0.43 
   5   0  16    0.21    0.27 
   6   0  16    0.10    0.28 
   7   0  16    0.13    0.29 
   8   0  16    0.34    0.31 
   9   0  16   -0.09    0.33 
  10   0  16    0.65    0.39 
   7  -1 -16    0.12    0.42 
   6  -1 -16   -0.34    0.36 
   5  -1 -16    0.83    0.39 
   4  -1 -16    0.13    0.35 
   3  -1 -16    0.20    0.32 
   2  -1 -16    0.15    0.26 
   1  -1 -16    0.23    0.26 
   0  -1 -16   -0.11    0.23 
  -1  -1 -16    0.72    0.28 
   1   1  16    1.01    0.30 
  -2  -1 -16    0.71    0.27 
   2   1  16    0.66    0.28 
   3   1  16    0.39    0.28 
   4   1  16    0.45    0.28 
   5   1  16    0.02    0.27 
   6   1  16   -0.20    0.26 
   7   1  16    0.15    0.31 
   8   1  16    0.26    0.31 
   9   1  16   -0.15    0.32 
  10   1  16    0.42    0.37 
  11   1  16    0.11    0.40 
   7  -2 -16    0.17    0.46 
   6  -2 -16    0.35    0.42 
   5  -2 -16    1.14    0.43 
   4  -2 -16    0.84    0.36 
   3  -2 -16    0.43    0.30 
   2  -2 -16    0.02    0.25 
   1  -2 -16    0.26    0.26 
   0  -2 -16   -0.38    0.23 
   1   2  16    1.16    0.32 
   2   2  16    2.48    0.38 
   3   2  16    1.57    0.36 
   4   2  16    2.43    0.40 
   5   2  16    0.65    0.30 
   6   2  16    0.20    0.30 
   7   2  16   -0.07    0.29 
   8   2  16    2.29    0.44 
   9   2  16    0.04    0.33 
  10   2  16    1.78    0.44 
  11   2  16    0.09    0.36 
   6  -3 -16   -0.64    0.36 
   5  -3 -16    0.33    0.39 
   4  -3 -16   -0.43    0.33 
   3  -3 -16   -0.32    0.30 
   2  -3 -16    0.40    0.28 
   1  -3 -16    0.84    0.31 
   0  -3 -16    0.54    0.29 
  -1  -3 -16   -0.01    0.26 
   2   3  16    0.38    0.26 
   3   3  16    0.75    0.29 
   4   3  16   -0.11    0.24 
   5   3  16    0.24    0.28 
   6   3  16    0.41    0.29 
   7   3  16    0.12    0.30 
   8   3  16    0.10    0.31 
   9   3  16    0.40    0.33 
  10   3  16   -0.01    0.34 
  11   3  16   -0.07    0.35 
   6  -4 -16    0.28    0.44 
   5  -4 -16   -0.13    0.37 
   4  -4 -16   -0.05    0.35 
   3  -4 -16    1.07    0.38 
   2  -4 -16    0.79    0.33 
   1  -4 -16    1.36    0.34 
   0  -4 -16    0.29    0.28 
  -1  -4 -16    1.27    0.33 
   2   4  16    4.33    0.49 
   3   4  16    0.39    0.28 
   4   4  16   -0.16    0.26 
   5   4  16   -0.02    0.25 
   6   4  16    0.65    0.31 
   7   4  16    0.20    0.29 
   8   4  16    1.00    0.37 
   9   4  16    0.19    0.31 
  10   4  16    0.43    0.36 
  11   4  16    0.02    0.37 
   5  -5 -16   -0.44    0.41 
   4  -5 -16   -0.56    0.38 
   3  -5 -16    0.16    0.37 
   2  -5 -16    0.01    0.32 
   1  -5 -16   -0.04    0.30 
   0  -5 -16   -0.18    0.26 
  -1  -5 -16    1.15    0.36 
  -2  -5 -16    0.10    0.29 
   3   5  16    0.46    0.28 
   4   5  16    2.46    0.41 
   5   5  16    0.86    0.33 
   6   5  16    0.01    0.28 
   7   5  16    0.44    0.29 
   8   5  16    0.50    0.34 
   9   5  16   -0.12    0.31 
  10   5  16    0.28    0.34 
  11   5  16   -0.02    0.38 
   4  -6 -16    0.04    0.42 
   3  -6 -16    0.24    0.39 
   2  -6 -16    0.42    0.38 
   1  -6 -16    0.53    0.35 
   0  -6 -16    0.49    0.32 
  -1  -6 -16   -0.15    0.28 
  -2  -6 -16    0.83    0.35 
  -3  -6 -16    0.71    0.33 
   4   6  16    0.51    0.29 
   5   6  16    0.74    0.34 
   6   6  16    0.90    0.35 
   7   6  16    0.84    0.33 
   8   6  16    0.82    0.35 
   9   6  16    0.10    0.31 
  10   6  16    0.32    0.34 
  11   6  16    0.50    0.39 
   4  -7 -16   -0.40    0.43 
   3  -7 -16   -0.12    0.41 
   2  -7 -16    0.30    0.38 
   1  -7 -16    0.33    0.38 
   0  -7 -16   -0.08    0.31 
  -1  -7 -16    1.12    0.38 
  -2  -7 -16   -0.26    0.31 
  -3  -7 -16    0.29    0.33 
  -4  -7 -16    0.52    0.34 
   5   7  16   -0.05    0.27 
   6   7  16   -0.16    0.28 
   7   7  16   -0.32    0.29 
   8   7  16    0.18    0.32 
   9   7  16    0.19    0.33 
  10   7  16    0.02    0.34 
  11   7  16    0.22    0.37 
   3  -8 -16    0.65    0.49 
   2  -8 -16   -0.08    0.41 
   1  -8 -16    0.72    0.42 
   0  -8 -16   -0.11    0.36 
  -1  -8 -16    0.13    0.33 
  -2  -8 -16   -0.13    0.31 
  -3  -8 -16    1.46    0.41 
  -4  -8 -16    0.49    0.34 
   5   8  16    0.37    0.32 
   6   8  16   -0.07    0.29 
   7   8  16    0.39    0.32 
   8   8  16    0.39    0.33 
   9   8  16   -0.17    0.32 
  10   8  16    0.08    0.36 
  11   8  16   -0.27    0.33 
   2  -9 -16   -0.66    0.41 
   1  -9 -16    0.06    0.41 
   0  -9 -16   -0.18    0.38 
  -1  -9 -16    0.18    0.37 
  -2  -9 -16   -0.38    0.34 
  -3  -9 -16   -0.23    0.34 
  -4  -9 -16    0.01    0.35 
  -5  -9 -16   -0.13    0.33 
   6   9  16    0.14    0.30 
   7   9  16    0.28    0.32 
   8   9  16    0.00    0.31 
   9   9  16    0.39    0.38 
  10   9  16   -0.34    0.32 
  11   9  16   -0.06    0.36 
   0 -10 -16    0.67    0.46 
  -1 -10 -16   -0.23    0.38 
  -2 -10 -16    0.70    0.41 
  -3 -10 -16    0.29    0.39 
  -4 -10 -16    0.83    0.40 
  -5 -10 -16    0.06    0.38 
  -6 -10 -16   -0.37    0.32 
   7  10  16   -0.10    0.34 
   8  10  16    0.38    0.38 
   9  10  16    0.29    0.34 
  10  10  16   -0.20    0.36 
  -1 -11 -16    0.19    0.43 
  -2 -11 -16    0.33    0.43 
  -3 -11 -16   -0.03    0.35 
  -4 -11 -16   -0.08    0.38 
  -5 -11 -16    0.63    0.42 
  -6 -11 -16    0.51    0.39 
  -7 -11 -16   -0.17    0.32 
   8  11  16    0.22    0.38 
   9  11  16    0.05    0.35 
  -3 -12 -16    0.64    0.44 
  -4 -12 -16    0.13    0.39 
  -5 -12 -16    0.87    0.41 
  -6 -12 -16   -0.30    0.36 
  -7 -12 -16    0.52    0.39 
  -8 -12 -16    0.05    0.37 
   2  11 -17    0.78    0.44 
   5  10 -17    0.11    0.40 
   4  10 -17   -0.24    0.40 
   3  10 -17    0.65    0.46 
   2  10 -17    0.48    0.44 
   1  10 -17    0.00    0.44 
   0  10 -17    0.60    0.45 
  -1  10 -17    0.32    0.48 
   6   9 -17    0.34    0.44 
   5   9 -17    0.31    0.43 
   4   9 -17   -0.22    0.39 
   3   9 -17    0.47    0.40 
   2   9 -17    0.37    0.44 
   1   9 -17   -0.31    0.40 
   0   9 -17    0.51    0.43 
  -1   9 -17    0.21    0.45 
  -2   9 -17    0.25    0.45 
  -3   9 -17    0.58    0.49 
   6   8 -17    0.38    0.44 
   5   8 -17    0.09    0.40 
   4   8 -17   -0.19    0.39 
   3   8 -17   -0.03    0.38 
   2   8 -17    0.27    0.39 
   1   8 -17   -0.29    0.38 
   0   8 -17    0.60    0.42 
  -1   8 -17    0.13    0.40 
  -2   8 -17   -0.18    0.42 
  -3   8 -17   -0.26    0.42 
  -4   8 -17    0.58    0.45 
   7   7 -17   -0.26    0.43 
   6   7 -17    0.04    0.41 
   5   7 -17    0.49    0.42 
   4   7 -17   -0.33    0.37 
   3   7 -17    0.32    0.37 
   2   7 -17   -0.28    0.32 
   1   7 -17    0.33    0.40 
   0   7 -17    0.04    0.37 
  -1   7 -17    0.54    0.41 
  -2   7 -17   -0.35    0.39 
  -3   7 -17    0.24    0.42 
  -4   7 -17   -0.20    0.40 
  -5   7 -17   -0.05    0.43 
   7   6 -17    0.30    0.48 
   6   6 -17   -0.18    0.41 
   5   6 -17   -0.24    0.38 
   4   6 -17    0.45    0.39 
   3   6 -17    0.17    0.35 
   2   6 -17   -0.04    0.36 
   1   6 -17    0.14    0.35 
   0   6 -17    0.23    0.35 
  -1   6 -17    0.24    0.35 
  -2   6 -17    0.26    0.38 
  -3   6 -17   -0.04    0.38 
  -4   6 -17   -0.31    0.37 
  -5   6 -17    1.26    0.46 
  -6   6 -17    0.13    0.45 
   6  -6  17    0.95    0.40 
   7   5 -17    0.82    0.48 
   6   5 -17   -0.04    0.40 
   5   5 -17   -0.41    0.37 
   4   5 -17    0.16    0.36 
   2   5 -17    0.42    0.34 
   1   5 -17    0.06    0.30 
   0   5 -17    0.73    0.34 
  -1   5 -17    0.52    0.37 
  -2   5 -17   -0.17    0.34 
  -3   5 -17    0.07    0.37 
  -4   5 -17    0.22    0.37 
  -5   5 -17    0.31    0.41 
   5  -5  17    0.47    0.34 
  -6   5 -17    0.30    0.44 
   6  -5  17    0.79    0.40 
  -7   5 -17   -0.59    0.41 
   7  -5  17    0.33    0.36 
   7   4 -17    0.49    0.43 
   6   4 -17    0.38    0.42 
   5   4 -17   -0.34    0.36 
   4   4 -17   -0.03    0.35 
   3   4 -17   -0.32    0.31 
   2   4 -17    0.18    0.35 
   1   4 -17   -0.13    0.30 
   0   4 -17   -0.27    0.29 
  -1   4 -17    0.00    0.31 
  -2   4 -17    0.78    0.35 
  -3   4 -17   -0.23    0.32 
  -4   4 -17    0.50    0.37 
   4  -4  17    0.56    0.32 
  -5   4 -17    0.20    0.38 
   5  -4  17   -0.11    0.29 
  -6   4 -17   -0.05    0.37 
   6  -4  17    0.53    0.36 
  -7   4 -17    0.61    0.42 
   7  -4  17    0.91    0.39 
   8  -4  17    0.67    0.40 
   7   3 -17   -0.11    0.43 
   6   3 -17    1.75    0.48 
   5   3 -17    0.45    0.39 
   4   3 -17    0.20    0.36 
   3   3 -17   -0.40    0.30 
   2   3 -17    0.09    0.32 
   1   3 -17    0.05    0.31 
   0   3 -17   -0.18    0.27 
  -1   3 -17    0.01    0.31 
  -2   3 -17    0.27    0.32 
  -3   3 -17    0.50    0.33 
   3  -3  17    0.55    0.29 
  -4   3 -17   -0.17    0.33 
   4  -3  17   -0.06    0.27 
  -5   3 -17   -0.49    0.32 
   5  -3  17   -0.44    0.26 
  -6   3 -17    0.10    0.38 
   6  -3  17   -0.03    0.30 
   7  -3  17    0.18    0.33 
   8  -3  17   -0.01    0.36 
   7   2 -17   -0.31    0.42 
   6   2 -17    1.06    0.46 
   5   2 -17    0.34    0.40 
   4   2 -17    0.25    0.36 
   3   2 -17    0.12    0.32 
   2   2 -17    0.08    0.30 
   1   2 -17    0.23    0.28 
   0   2 -17    0.01    0.29 
  -1   2 -17    0.26    0.30 
  -2   2 -17    0.29    0.31 
   2  -2  17    0.35    0.28 
  -3   2 -17    0.32    0.31 
   3  -2  17    0.34    0.30 
  -4   2 -17    0.20    0.31 
   4  -2  17    0.10    0.28 
  -5   2 -17   -0.34    0.31 
   5  -2  17   -0.28    0.26 
   6  -2  17   -0.18    0.30 
   7  -2  17   -0.16    0.29 
   8  -2  17    0.61    0.37 
   9  -2  17    0.00    0.38 
   7   1 -17    0.34    0.49 
   6   1 -17    1.46    0.50 
   5   1 -17    0.87    0.41 
   4   1 -17    0.64    0.37 
   3   1 -17    0.49    0.35 
   2   1 -17    0.80    0.34 
   1   1 -17    0.27    0.30 
   0   1 -17   -0.35    0.26 
   0   1 -17    0.33    0.30 
  -1   1 -17   -0.09    0.28 
   1  -1  17   -0.08    0.25 
  -2   1 -17    0.16    0.30 
   2  -1  17   -0.16    0.24 
  -3   1 -17    0.23    0.29 
   3  -1  17    0.50    0.29 
  -4   1 -17    0.27    0.31 
   4  -1  17   -0.15    0.26 
   5  -1  17    0.21    0.31 
   6  -1  17   -0.05    0.29 
   7  -1  17    0.31    0.33 
   8  -1  17    0.13    0.34 
   9  -1  17    0.98    0.40 
   7   0 -17    0.21    0.49 
   6   0 -17    0.42    0.45 
   5   0 -17    0.45    0.41 
   4   0 -17    0.04    0.36 
   3   0 -17    0.58    0.35 
   2   0 -17    0.18    0.32 
   1   0 -17    0.00    0.29 
   0   0 -17    0.26    0.26 
   0   0 -17   -0.12    0.28 
  -1   0 -17   -0.09    0.27 
  -1   0 -17   -0.32    0.25 
   1   0  17    0.00    0.24 
  -2   0 -17    0.04    0.26 
   2   0  17    0.16    0.26 
  -3   0 -17    0.27    0.29 
   3   0  17   -0.29    0.24 
   4   0  17    0.01    0.26 
   5   0  17    0.05    0.27 
   6   0  17   -0.02    0.30 
   7   0  17    0.34    0.32 
   8   0  17   -0.10    0.31 
   9   0  17    0.34    0.37 
  10   0  17   -0.18    0.35 
   6  -1 -17    0.62    0.49 
   5  -1 -17    0.39    0.40 
   4  -1 -17    0.99    0.42 
   3  -1 -17    0.58    0.37 
   2  -1 -17    0.10    0.32 
   1  -1 -17    0.17    0.27 
   0  -1 -17    0.63    0.28 
  -1  -1 -17    0.62    0.29 
   1   1  17    0.29    0.27 
   2   1  17    0.26    0.27 
   3   1  17   -0.24    0.25 
   4   1  17   -0.36    0.25 
   5   1  17    1.20    0.36 
   6   1  17    0.01    0.29 
   7   1  17    0.69    0.36 
   8   1  17   -0.24    0.30 
   9   1  17    0.17    0.35 
  10   1  17    0.59    0.39 
   6  -2 -17    0.00    0.44 
   5  -2 -17    0.09    0.42 
   4  -2 -17   -0.19    0.38 
   3  -2 -17    0.15    0.35 
   2  -2 -17    0.09    0.28 
   1  -2 -17   -0.08    0.26 
   0  -2 -17   -0.20    0.27 
  -1  -2 -17    0.09    0.26 
   2   2  17    0.05    0.26 
   3   2  17    0.53    0.30 
   4   2  17   -0.15    0.25 
   5   2  17   -0.44    0.26 
   6   2  17    0.08    0.31 
   7   2  17    0.36    0.33 
   8   2  17   -0.16    0.30 
   9   2  17   -0.26    0.30 
  10   2  17    0.20    0.37 
   5  -3 -17    0.54    0.45 
   4  -3 -17   -0.19    0.38 
   3  -3 -17   -0.12    0.34 
   2  -3 -17    0.42    0.33 
   1  -3 -17   -0.20    0.28 
   0  -3 -17    0.26    0.29 
  -1  -3 -17    0.15    0.29 
   2   3  17   -0.13    0.26 
   3   3  17    0.07    0.27 
   4   3  17    0.51    0.30 
   5   3  17   -0.14    0.28 
   6   3  17   -0.20    0.28 
   7   3  17    0.12    0.31 
   8   3  17    0.13    0.32 
   9   3  17    0.15    0.33 
  10   3  17    0.17    0.35 
   5  -4 -17    0.03    0.42 
   3  -4 -17   -0.19    0.34 
   2  -4 -17    0.29    0.33 
   1  -4 -17    0.83    0.34 
   0  -4 -17    0.38    0.32 
  -1  -4 -17    0.11    0.29 
  -2  -4 -17    0.19    0.30 
   3   4  17    0.25    0.29 
   4   4  17    0.21    0.31 
   5   4  17   -0.09    0.28 
   6   4  17   -0.11    0.29 
   7   4  17   -0.19    0.29 
   8   4  17   -0.17    0.30 
   9   4  17    0.04    0.35 
  10   4  17   -0.06    0.33 
   4  -5 -17    0.10    0.42 
   3  -5 -17    1.48    0.45 
   2  -5 -17    1.06    0.40 
   1  -5 -17    0.52    0.35 
   0  -5 -17   -0.08    0.31 
  -1  -5 -17   -0.35    0.29 
  -2  -5 -17    0.89    0.36 
   3   5  17    0.76    0.34 
   4   5  17    0.07    0.32 
   5   5  17    0.38    0.31 
   6   5  17    0.01    0.31 
   7   5  17    0.42    0.31 
   8   5  17   -0.03    0.31 
   9   5  17    0.52    0.35 
  10   5  17    1.02    0.41 
   3  -6 -17   -0.07    0.42 
   2  -6 -17   -0.22    0.38 
   1  -6 -17   -0.12    0.34 
   0  -6 -17   -0.07    0.31 
  -1  -6 -17   -0.09    0.32 
  -2  -6 -17    0.35    0.33 
  -3  -6 -17   -0.12    0.32 
   4   6  17    0.13    0.32 
   5   6  17    0.50    0.33 
   6   6  17    0.09    0.30 
   7   6  17    0.52    0.33 
   8   6  17   -0.22    0.31 
   9   6  17    0.21    0.32 
  10   6  17    0.32    0.34 
   2  -7 -17    0.06    0.39 
   1  -7 -17   -0.51    0.36 
   0  -7 -17    0.26    0.38 
  -1  -7 -17    0.13    0.36 
  -2  -7 -17    1.38    0.42 
  -3  -7 -17   -0.02    0.34 
  -4  -7 -17    0.73    0.37 
   5   7  17   -0.06    0.30 
   6   7  17   -0.14    0.28 
   7   7  17   -0.14    0.31 
   8   7  17    0.72    0.37 
   9   7  17    0.70    0.36 
  10   7  17   -0.14    0.34 
   1  -8 -17   -0.05    0.43 
   0  -8 -17   -0.33    0.36 
  -1  -8 -17    0.14    0.37 
  -2  -8 -17   -0.14    0.33 
  -3  -8 -17    1.66    0.44 
  -4  -8 -17   -0.08    0.35 
  -5  -8 -17   -0.03    0.35 
   6   8  17   -0.19    0.30 
   7   8  17   -0.56    0.25 
   8   8  17   -0.20    0.29 
   9   8  17    0.11    0.33 
  10   8  17   -0.09    0.37 
   0  -9 -17   -0.03    0.42 
  -1  -9 -17    0.59    0.43 
  -2  -9 -17   -0.18    0.37 
  -3  -9 -17    0.07    0.38 
  -4  -9 -17   -0.57    0.36 
  -5  -9 -17    0.23    0.38 
  -6  -9 -17   -0.03    0.36 
   7   9  17    0.10    0.32 
   8   9  17    0.68    0.36 
   9   9  17    0.01    0.35 
  -1 -10 -17    0.39    0.42 
  -2 -10 -17   -0.21    0.41 
  -3 -10 -17    0.01    0.40 
  -4 -10 -17   -0.04    0.37 
  -5 -10 -17    0.37    0.40 
  -6 -10 -17   -0.34    0.37 
  -7 -10 -17    0.19    0.36 
   8  10  17    0.01    0.37 
   9  10  17    0.14    0.36 
  -3 -11 -17   -0.05    0.40 
  -4 -11 -17   -0.19    0.39 
  -5 -11 -17   -0.01    0.42 
  -6 -11 -17   -0.09    0.39 
  -7 -11 -17    0.27    0.40 
   4   9 -18   -0.21    0.41 
   3   9 -18    0.45    0.42 
   2   9 -18    0.06    0.44 
   1   9 -18    0.02    0.41 
   0   9 -18    0.09    0.43 
  -1   9 -18   -0.15    0.45 
   5   8 -18    0.03    0.39 
   4   8 -18   -0.33    0.39 
   3   8 -18    0.09    0.40 
   2   8 -18    0.41    0.42 
   1   8 -18   -0.07    0.41 
   0   8 -18    0.32    0.42 
  -1   8 -18    0.50    0.44 
  -2   8 -18   -0.07    0.43 
   4   7 -18    0.03    0.40 
   3   7 -18   -0.21    0.39 
   2   7 -18    0.31    0.39 
   1   7 -18   -0.01    0.40 
   0   7 -18   -0.01    0.39 
  -1   7 -18    0.21    0.41 
  -2   7 -18    0.76    0.42 
  -3   7 -18    0.09    0.43 
  -4   7 -18    0.26    0.47 
   6   6 -18   -0.80    0.43 
   5   6 -18    0.65    0.45 
   4   6 -18   -0.01    0.39 
   3   6 -18    0.08    0.38 
   2   6 -18   -0.04    0.37 
   1   6 -18    0.58    0.39 
   0   6 -18   -0.01    0.39 
  -1   6 -18    0.24    0.39 
  -2   6 -18    0.13    0.40 
  -3   6 -18   -0.30    0.40 
  -4   6 -18   -0.39    0.38 
  -5   6 -18   -0.53    0.43 
   6   5 -18    0.25    0.46 
   5   5 -18    0.13    0.41 
   4   5 -18    0.22    0.41 
   3   5 -18   -0.18    0.37 
   2   5 -18    0.15    0.37 
   1   5 -18    0.14    0.35 
   0   5 -18    0.64    0.39 
  -1   5 -18    0.15    0.36 
  -2   5 -18    0.51    0.39 
  -3   5 -18   -0.13    0.38 
  -4   5 -18    0.18    0.41 
  -5   5 -18    0.01    0.42 
  -6   5 -18   -0.42    0.42 
   6  -5  18    0.14    0.37 
   6   4 -18    0.30    0.44 
   5   4 -18    0.65    0.44 
   4   4 -18    0.04    0.36 
   2   4 -18    0.41    0.36 
   1   4 -18    0.03    0.32 
   0   4 -18    0.17    0.34 
  -1   4 -18    0.16    0.36 
  -2   4 -18    0.33    0.36 
  -3   4 -18   -0.43    0.34 
  -4   4 -18    0.15    0.39 
  -5   4 -18    0.29    0.40 
   5  -4  18    0.46    0.34 
  -6   4 -18   -0.20    0.40 
   6  -4  18   -0.24    0.33 
   6   3 -18    0.29    0.44 
   5   3 -18    0.44    0.42 
   4   3 -18   -0.03    0.37 
   3   3 -18   -0.09    0.35 
   1   3 -18    0.32    0.33 
   0   3 -18   -0.04    0.32 
  -1   3 -18    0.02    0.33 
  -2   3 -18   -0.32    0.31 
  -3   3 -18    0.11    0.34 
  -4   3 -18    0.39    0.39 
   4  -3  18   -0.03    0.31 
  -5   3 -18    0.11    0.37 
   5  -3  18   -0.19    0.30 
   6  -3  18    0.14    0.33 
   7  -3  18   -0.02    0.32 
   6   2 -18   -0.15    0.40 
   5   2 -18    0.13    0.41 
   4   2 -18    0.31    0.39 
   3   2 -18    0.17    0.36 
   2   2 -18    0.23    0.34 
   1   2 -18    0.45    0.33 
   0   2 -18   -0.16    0.31 
  -1   2 -18   -0.10    0.31 
  -2   2 -18    0.26    0.33 
  -3   2 -18    0.17    0.33 
   3  -2  18   -0.44    0.27 
  -4   2 -18   -0.06    0.35 
   4  -2  18    0.20    0.32 
   5  -2  18    0.01    0.29 
   6  -2  18   -0.12    0.31 
   7  -2  18   -0.04    0.34 
   8  -2  18    0.33    0.37 
   6   1 -18    0.17    0.43 
   5   1 -18   -0.14    0.39 
   4   1 -18    0.12    0.39 
   3   1 -18   -0.06    0.33 
   2   1 -18    0.10    0.34 
   1   1 -18   -0.42    0.28 
   0   1 -18    0.11    0.31 
  -1   1 -18    0.24    0.31 
  -2   1 -18    0.01    0.31 
   2  -1  18   -0.06    0.27 
   3  -1  18    0.36    0.29 
   4  -1  18    0.02    0.30 
   5  -1  18    0.16    0.32 
   6  -1  18    0.26    0.33 
   7  -1  18    0.67    0.37 
   8  -1  18    0.30    0.37 
   5   0 -18   -0.46    0.38 
   4   0 -18    0.70    0.42 
   3   0 -18   -0.01    0.35 
   2   0 -18    0.44    0.35 
   1   0 -18    1.20    0.38 
   0   0 -18    0.23    0.31 
   0   0 -18    0.65    0.33 
  -1   0 -18    0.23    0.31 
   1   0  18    0.14    0.28 
   2   0  18    0.50    0.30 
   3   0  18    0.19    0.30 
   4   0  18   -0.05    0.28 
   5   0  18   -0.10    0.30 
   6   0  18    0.71    0.35 
   7   0  18   -0.27    0.30 
   8   0  18    0.28    0.34 
   9   0  18    0.54    0.38 
   5  -1 -18    0.06    0.41 
   4  -1 -18    0.19    0.36 
   3  -1 -18    0.29    0.36 
   2  -1 -18   -0.04    0.34 
   1  -1 -18    0.54    0.35 
   0  -1 -18    0.19    0.29 
   1   1  18   -0.01    0.26 
   2   1  18    0.29    0.28 
   3   1  18    0.38    0.31 
   4   1  18   -0.15    0.28 
   5   1  18   -0.22    0.28 
   6   1  18    0.69    0.35 
   7   1  18   -0.10    0.33 
   8   1  18    0.07    0.34 
   9   1  18   -0.02    0.36 
   5  -2 -18   -0.04    0.43 
   4  -2 -18    1.47    0.48 
   3  -2 -18   -0.14    0.36 
   2  -2 -18    0.30    0.37 
   1  -2 -18    0.26    0.31 
   0  -2 -18    0.11    0.30 
  -1  -2 -18    0.06    0.28 
   2   2  18   -0.19    0.26 
   3   2  18    0.08    0.28 
   4   2  18   -0.15    0.28 
   5   2  18    0.49    0.34 
   6   2  18    0.29    0.34 
   7   2  18    0.08    0.35 
   8   2  18   -0.30    0.30 
   9   2  18    0.16    0.36 
   4  -3 -18    0.29    0.42 
   3  -3 -18   -0.01    0.39 
   1  -3 -18    0.12    0.30 
   0  -3 -18   -0.05    0.31 
  -1  -3 -18    0.08    0.30 
   2   3  18   -0.03    0.30 
   3   3  18    0.06    0.28 
   4   3  18    0.30    0.31 
   5   3  18    0.65    0.33 
   6   3  18    0.06    0.31 
   7   3  18    0.86    0.36 
   8   3  18   -0.27    0.30 
   9   3  18   -0.17    0.32 
   2  -4 -18    0.24    0.36 
   1  -4 -18    0.57    0.34 
   0  -4 -18    0.41    0.33 
  -1  -4 -18    0.17    0.31 
  -2  -4 -18    0.47    0.34 
   3   4  18    0.05    0.29 
   4   4  18   -0.03    0.29 
   5   4  18   -0.29    0.30 
   6   4  18    0.23    0.33 
   7   4  18    0.07    0.32 
   8   4  18    0.20    0.33 
   9   4  18    1.48    0.43 
   3  -5 -18    0.27    0.45 
   2  -5 -18    0.39    0.39 
   1  -5 -18   -0.22    0.34 
   0  -5 -18   -0.15    0.33 
  -1  -5 -18    0.25    0.33 
  -2  -5 -18    1.65    0.41 
  -3  -5 -18    0.23    0.34 
   4   5  18    0.23    0.32 
   5   5  18    0.76    0.35 
   6   5  18   -0.20    0.31 
   7   5  18    0.43    0.34 
   8   5  18    0.46    0.35 
   9   5  18    0.02    0.33 
   2  -6 -18    0.22    0.41 
   1  -6 -18    0.11    0.38 
   0  -6 -18    0.03    0.33 
  -1  -6 -18    0.32    0.35 
  -2  -6 -18    1.03    0.39 
  -3  -6 -18   -0.06    0.34 
   4   6  18    0.14    0.33 
   5   6  18    0.49    0.35 
   6   6  18   -0.12    0.29 
   7   6  18   -0.20    0.32 
   8   6  18    0.20    0.35 
   9   6  18    0.61    0.37 
   1  -7 -18    0.48    0.42 
   0  -7 -18    0.11    0.39 
  -1  -7 -18    0.18    0.38 
  -2  -7 -18    0.17    0.37 
  -3  -7 -18   -0.62    0.33 
  -4  -7 -18    0.03    0.35 
   5   7  18    0.00    0.31 
   6   7  18    0.06    0.32 
   7   7  18   -0.06    0.32 
   8   7  18    0.08    0.34 
   9   7  18    0.12    0.33 
   0  -8 -18   -0.40    0.40 
  -1  -8 -18    0.15    0.38 
  -2  -8 -18    0.29    0.40 
  -3  -8 -18   -0.11    0.39 
  -4  -8 -18    0.21    0.39 
  -5  -8 -18    0.02    0.38 
   6   8  18    0.24    0.33 
   7   8  18    0.08    0.34 
   8   8  18   -0.03    0.33 
  -2  -9 -18   -0.02    0.39 
  -3  -9 -18   -0.19    0.36 
  -4  -9 -18   -0.20    0.38 
  -5  -9 -18    0.59    0.42 
  -6  -9 -18    0.54    0.41 
   7   9  18    0.33    0.35 
   8   9  18    0.12    0.34 
  -5 -10 -18   -0.05    0.40 
   3   7 -19   -0.38    0.38 
   2   7 -19    0.35    0.41 
   1   7 -19    0.47    0.43 
   0   7 -19   -0.16    0.38 
  -1   7 -19    0.36    0.42 
   4   6 -19   -0.34    0.40 
   3   6 -19    0.40    0.39 
   2   6 -19    0.42    0.40 
   1   6 -19   -0.41    0.37 
   0   6 -19    0.00    0.39 
  -1   6 -19    1.24    0.46 
  -2   6 -19    0.43    0.44 
  -3   6 -19   -0.10    0.43 
   3   5 -19    0.21    0.40 
   2   5 -19    0.01    0.39 
   1   5 -19    0.47    0.40 
   0   5 -19   -0.11    0.38 
  -1   5 -19   -0.20    0.35 
  -2   5 -19   -0.04    0.38 
  -3   5 -19    0.42    0.44 
  -4   5 -19   -0.45    0.42 
   4   4 -19    0.45    0.44 
   2   4 -19   -0.26    0.34 
   1   4 -19    0.14    0.36 
   0   4 -19    0.06    0.36 
  -1   4 -19    1.78    0.45 
  -2   4 -19   -0.42    0.37 
  -3   4 -19    0.95    0.43 
  -4   4 -19    0.15    0.42 
   4   3 -19    0.08    0.42 
   2   3 -19   -0.02    0.36 
   1   3 -19    0.64    0.38 
   0   3 -19   -0.13    0.35 
  -1   3 -19    0.53    0.37 
  -2   3 -19    0.35    0.38 
  -3   3 -19    0.18    0.37 
   5  -3  19   -0.11    0.35 
   6  -3  19    0.49    0.35 
   4   2 -19    0.83    0.47 
   3   2 -19   -0.02    0.38 
   1   2 -19   -0.02    0.36 
   0   2 -19    0.15    0.34 
  -1   2 -19    0.48    0.35 
  -2   2 -19    0.13    0.36 
   4  -2  19    0.21    0.34 
   5  -2  19   -0.07    0.33 
   6  -2  19   -0.08    0.33 
   4   1 -19    0.08    0.40 
   3   1 -19    0.08    0.38 
   2   1 -19    0.35    0.38 
   1   1 -19    0.49    0.36 
   0   1 -19    0.40    0.34 
  -1   1 -19   -0.31    0.33 
   3  -1  19    0.13    0.32 
   4  -1  19    0.05    0.31 
   5  -1  19   -0.18    0.32 
   6  -1  19    0.43    0.37 
   7  -1  19    0.05    0.36 
   4   0 -19    0.02    0.41 
   3   0 -19   -0.07    0.39 
   2   0 -19    0.35    0.38 
   1   0 -19   -0.10    0.35 
   2   0  19    0.09    0.31 
   3   0  19    0.18    0.33 
   4   0  19    0.48    0.33 
   5   0  19    0.25    0.33 
   6   0  19   -0.15    0.31 
   7   0  19    0.18    0.36 
   4  -1 -19    0.39    0.44 
   3  -1 -19    0.39    0.40 
   2  -1 -19   -0.28    0.36 
   1  -1 -19    0.08    0.36 
   0  -1 -19    0.39    0.37 
  -1  -1 -19    0.09    0.30 
   2   1  19    0.15    0.30 
   3   1  19    0.32    0.32 
   4   1  19   -0.03    0.30 
   5   1  19    0.66    0.36 
   6   1  19    0.47    0.34 
   7   1  19   -0.11    0.35 
   8   1  19    0.33    0.38 
   3  -2 -19    0.43    0.42 
   2  -2 -19    0.52    0.41 
   1  -2 -19   -0.07    0.35 
   0  -2 -19    0.21    0.32 
  -1  -2 -19    0.28    0.32 
   2   2  19   -0.24    0.29 
   3   2  19    0.39    0.32 
   4   2  19    0.58    0.34 
   5   2  19    0.15    0.33 
   6   2  19    0.05    0.34 
   7   2  19    0.26    0.35 
   8   2  19    0.69    0.40 
   3  -3 -19    0.25    0.42 
   0  -3 -19    0.08    0.32 
  -1  -3 -19    0.24    0.33 
  -2  -3 -19    0.77    0.35 
   3   3  19    0.70    0.34 
   4   3  19    0.42    0.33 
   5   3  19    0.03    0.34 
   6   3  19    0.25    0.34 
   7   3  19    0.79    0.39 
   8   3  19    0.02    0.36 
   1  -4 -19   -0.37    0.34 
   0  -4 -19    0.22    0.35 
  -1  -4 -19   -0.31    0.34 
  -2  -4 -19    0.67    0.36 
   3   4  19    0.11    0.34 
   4   4  19    0.19    0.33 
   5   4  19    0.22    0.34 
   6   4  19   -0.09    0.32 
   7   4  19    0.05    0.35 
   8   4  19   -0.30    0.32 
   1  -5 -19   -0.08    0.37 
   0  -5 -19    0.44    0.38 
  -1  -5 -19    0.28    0.36 
  -2  -5 -19    0.22    0.36 
  -3  -5 -19    0.24    0.35 
   4   5  19    0.01    0.34 
   5   5  19   -0.16    0.31 
   6   5  19   -0.04    0.31 
   7   5  19   -0.05    0.32 
   8   5  19   -0.11    0.34 
   0  -6 -19   -0.41    0.37 
  -1  -6 -19   -0.38    0.36 
  -2  -6 -19   -0.08    0.37 
  -3  -6 -19    1.44    0.43 
  -4  -6 -19    0.19    0.36 
   5   6  19    0.81    0.37 
   6   6  19    0.13    0.34 
   7   6  19   -0.11    0.35 
   8   6  19   -0.24    0.33 
  -1  -7 -19    0.21    0.38 
  -2  -7 -19    0.22    0.37 
  -3  -7 -19    0.20    0.39 
  -4  -7 -19    0.11    0.37 
  -5  -7 -19    0.15    0.38 
   6   7  19    0.23    0.34 
   7   7  19   -0.12    0.33 
  -3  -8 -19    0.26    0.41 
  -4  -8 -19    0.16    0.41 
  -5  -8 -19   -0.38    0.36 
   6   8  19    0.34    0.38 
   1   5 -20    0.35    0.41 
   0   5 -20    0.90    0.47 
  -1   5 -20    0.16    0.41 
   2   4 -20   -0.15    0.39 
   1   4 -20    0.89    0.43 
   0   4 -20    0.10    0.40 
  -1   4 -20    1.61    0.47 
  -2   4 -20    0.22    0.43 
  -3   4 -20    0.13    0.44 
   2   3 -20   -0.10    0.40 
   1   3 -20    0.27    0.40 
   0   3 -20   -0.32    0.37 
  -1   3 -20    0.08    0.41 
  -2   3 -20    0.27    0.40 
   2   2 -20    0.55    0.40 
   1   2 -20   -0.29    0.37 
   0   2 -20    0.45    0.39 
  -1   2 -20   -0.57    0.37 
   1   1 -20    0.18    0.39 
   4  -1  20   -0.32    0.34 
   5  -1  20   -0.27    0.33 
   2   0 -20    0.21    0.41 
   3   0  20    0.18    0.37 
   4   0  20    0.40    0.36 
   5   0  20    0.37    0.36 
   2  -1 -20    0.31    0.42 
   1  -1 -20    0.52    0.42 
   3   1  20   -0.19    0.32 
   4   1  20    0.32    0.35 
   5   1  20    0.13    0.36 
   6   1  20   -0.38    0.33 
   1  -2 -20    0.50    0.41 
   0  -2 -20   -0.22    0.36 
  -2  -2 -20    0.22    0.34 
   3   2  20    0.41    0.34 
   4   2  20    0.25    0.34 
   5   2  20    0.20    0.36 
   6   2  20    0.16    0.34 
  -1  -3 -20    0.52    0.40 
  -2  -3 -20   -0.61    0.32 
   3   3  20    0.04    0.33 
   4   3  20    0.19    0.33 
   5   3  20    0.27    0.36 
   6   3  20   -0.12    0.32 
  -1  -4 -20   -0.03    0.35 
  -2  -4 -20   -0.39    0.36 
  -3  -4 -20    0.08    0.36 
   4   4  20    0.38    0.35 
   5   4  20   -0.02    0.35 
   6   4  20   -0.11    0.34 
  -2  -5 -20   -0.24    0.37 
  -3  -5 -20   -0.06    0.35 
   4   5  20    0.42    0.36 
   5   5  20   -0.01    0.33 
   0   0   0    0.00    0.00 
;
_shelx_hkl_checksum              46156
loop_
_space_group_symop_operation_xyz
'x, y, z'
'-x, -y, -z'
loop_
_atom_site_label
_atom_site_type_symbol
_atom_site_fract_x
_atom_site_fract_y
_atom_site_fract_z
_atom_site_U_iso_or_equiv
_atom_site_adp_type
_atom_site_occupancy
_atom_site_site_symmetry_order
_atom_site_calc_flag
_atom_site_refinement_flags_posn
_atom_site_refinement_flags_adp
Br1 Br -0.43743(5) 0.82303(4) 0.16119(4) 0.06462(19) Uani 1 1 d . .
Br2 Br -0.47192(5) 0.85837(5) 0.91326(4) 0.0694(2) Uani 1 1 d . .
Br3 Br -0.44548(5) 0.34405(5) 0.67345(4) 0.0718(2) Uani 1 1 d . .
Br4 Br -0.45539(5) 0.32433(5) 0.41771(4) 0.0778(2) Uani 1 1 d . .
S1 S 0.23570(12) 0.85578(9) 0.06509(9) 0.0473(3) Uani 1 1 d . .
S2 S 0.27598(11) 0.53357(9) 0.88460(9) 0.0465(3) Uani 1 1 d . .
S3 S 0.30603(11) 0.02955(8) 0.56547(9) 0.0462(3) Uani 1 1 d . .
S4 S 0.21014(11) 0.36743(9) 0.38740(9) 0.0440(3) Uani 1 1 d . .
N1 N 0.1083(3) 0.8421(3) 0.0796(2) 0.0444(10) Uani 1 1 d . .
N2 N 0.1334(3) 0.6076(3) 0.8978(2) 0.0431(10) Uani 1 1 d . .
N3 N 0.1598(3) 0.0976(3) 0.5803(3) 0.0446(10) Uani 1 1 d . .
N4 N 0.0865(3) 0.3485(3) 0.3982(3) 0.0455(10) Uani 1 1 d . .
O1 O 0.3385(3) 0.7547(2) 0.0234(2) 0.0512(9) Uani 1 1 d . .
O2 O 0.2647(3) 0.8759(3) 0.1449(2) 0.0624(10) Uani 1 1 d . .
O3 O 0.2227(3) 0.9261(2) -0.0014(2) 0.0609(10) Uani 1 1 d . .
O4 O 0.3542(3) 0.5933(2) 0.9030(2) 0.0522(9) Uani 1 1 d . .
O5 O 0.2959(3) 0.4645(2) 0.9521(2) 0.0653(10) Uani 1 1 d . .
O6 O 0.3073(3) 0.4968(3) 0.7977(2) 0.0682(10) Uani 1 1 d . .
O7 O 0.3731(3) 0.0950(2) 0.5236(2) 0.0456(8) Uani 1 1 d . .
O8 O 0.3444(3) -0.0028(3) 0.6459(2) 0.0641(10) Uani 1 1 d . .
O9 O 0.3260(3) -0.0429(2) 0.4985(2) 0.0621(10) Uani 1 1 d . .
O10 O 0.3201(3) 0.2682(2) 0.4069(2) 0.0471(8) Uani 1 1 d . .
O11 O 0.1964(3) 0.4359(2) 0.4566(2) 0.0600(10) Uani 1 1 d . .
O12 O 0.2320(3) 0.3929(3) 0.3027(2) 0.0621(10) Uani 1 1 d . .
C1 C 0.3965(4) 0.6725(4) 0.0786(4) 0.0564(14) Uani 1 1 d . .
H1A H 0.4235 0.6973 0.1256 0.068 Uiso 1 1 calc R U
H1B H 0.4668 0.6207 0.0460 0.068 Uiso 1 1 calc R U
C2 C 0.3117(4) 0.6299(3) 0.1130(3) 0.0440(12) Uani 1 1 d . .
C3 C 0.3273(4) 0.5296(3) 0.1522(4) 0.0559(14) Uani 1 1 d . .
H3A H 0.3598 0.5192 0.2069 0.067 Uiso 1 1 calc R U
H3B H 0.3705 0.4714 0.1129 0.067 Uiso 1 1 calc R U
C4 C 0.1879(4) 0.5679(3) 0.1607(3) 0.0525(14) Uani 1 1 d . .
H4A H 0.1591 0.5300 0.1255 0.063 Uiso 1 1 calc R U
H4B H 0.1484 0.5777 0.2196 0.063 Uiso 1 1 calc R U
C5 C 0.1906(4) 0.6642(3) 0.1200(3) 0.0387(11) Uani 1 1 d . .
C6 C 0.0952(4) 0.7607(3) 0.1037(3) 0.0363(11) Uani 1 1 d . .
C7 C -0.0327(4) 0.7723(3) 0.1206(3) 0.0380(11) Uani 1 1 d . .
C8 C -0.0667(4) 0.6962(3) 0.0982(3) 0.0449(12) Uani 1 1 d . .
H8 H -0.0082 0.6347 0.0750 0.054 Uiso 1 1 calc R U
C9 C -0.1868(4) 0.7116(3) 0.1103(3) 0.0453(12) Uani 1 1 d . .
H9 H -0.2096 0.6609 0.0947 0.054 Uiso 1 1 calc R U
C10 C -0.2722(4) 0.8013(3) 0.1454(3) 0.0398(11) Uani 1 1 d . .
C11 C -0.2417(4) 0.8783(3) 0.1689(3) 0.0457(12) Uani 1 1 d . .
H11 H -0.3011 0.9390 0.1928 0.055 Uiso 1 1 calc R U
C12 C -0.1217(4) 0.8640(3) 0.1565(3) 0.0481(13) Uani 1 1 d . .
H12 H -0.0999 0.9154 0.1720 0.058 Uiso 1 1 calc R U
C13 C 0.3744(4) 0.6585(4) 0.8347(4) 0.0592(15) Uani 1 1 d . .
H13A H 0.4368 0.6796 0.8477 0.071 Uiso 1 1 calc R U
H13B H 0.4016 0.6209 0.7798 0.071 Uiso 1 1 calc R U
C14 C 0.2616(4) 0.7475(3) 0.8290(3) 0.0457(12) Uani 1 1 d . .
C15 C 0.2378(4) 0.8520(3) 0.7985(3) 0.0489(13) Uani 1 1 d . .
H15A H 0.2610 0.8547 0.7372 0.059 Uiso 1 1 calc R U
H15B H 0.2684 0.8897 0.8323 0.059 Uiso 1 1 calc R U
C16 C 0.1019(4) 0.8758(3) 0.8237(4) 0.0574(15) Uani 1 1 d . .
H16A H 0.0627 0.9252 0.8711 0.069 Uiso 1 1 calc R U
H16B H 0.0549 0.8916 0.7756 0.069 Uiso 1 1 calc R U
C17 C 0.1441(4) 0.7661(3) 0.8503(3) 0.0399(11) Uani 1 1 d . .
C18 C 0.0818(4) 0.7018(3) 0.8797(3) 0.0394(11) Uani 1 1 d . .
C19 C -0.0520(4) 0.7429(3) 0.8868(3) 0.0384(11) Uani 1 1 d . .
C20 C -0.1061(5) 0.6801(4) 0.8650(3) 0.0480(13) Uani 1 1 d . .
H20 H -0.0578 0.6140 0.8453 0.058 Uiso 1 1 calc R U
C21 C -0.2295(5) 0.7142(4) 0.8721(3) 0.0520(13) Uani 1 1 d . .
H21 H -0.2649 0.6721 0.8560 0.062 Uiso 1 1 calc R U
C22 C -0.3008(4) 0.8115(4) 0.9032(3) 0.0461(12) Uani 1 1 d . .
C23 C -0.2495(4) 0.8749(4) 0.9253(3) 0.0495(13) Uani 1 1 d . .
H23 H -0.2982 0.9403 0.9465 0.059 Uiso 1 1 calc R U
C24 C -0.1251(4) 0.8407(3) 0.9157(3) 0.0455(12) Uani 1 1 d . .
H24 H -0.0900 0.8842 0.9289 0.055 Uiso 1 1 calc R U
C25 C 0.3957(4) 0.1616(4) 0.5815(3) 0.0527(13) Uani 1 1 d . .
H25A H 0.4497 0.1884 0.5506 0.063 Uiso 1 1 calc R U
H25B H 0.4347 0.1234 0.6289 0.063 Uiso 1 1 calc R U
C26 C 0.2804(4) 0.2460(3) 0.6157(3) 0.0402(11) Uani 1 1 d . .
C27 C 0.2535(4) 0.3484(3) 0.6525(3) 0.0494(13) Uani 1 1 d . .
H27A H 0.2773 0.3911 0.6129 0.059 Uiso 1 1 calc R U
H27B H 0.2814 0.3481 0.7080 0.059 Uiso 1 1 calc R U
C28 C 0.1171(4) 0.3671(3) 0.6577(3) 0.0444(12) Uani 1 1 d . .
H28A H 0.0748 0.3773 0.7158 0.053 Uiso 1 1 calc R U
H28B H 0.0715 0.4183 0.6199 0.053 Uiso 1 1 calc R U
C29 C 0.1648(4) 0.2592(3) 0.6212(3) 0.0351(11) Uani 1 1 d . .
C30 C 0.1068(4) 0.1922(3) 0.6050(3) 0.0345(10) Uani 1 1 d . .
C31 C -0.0261(4) 0.2307(3) 0.6215(3) 0.0347(10) Uani 1 1 d . .
C32 C -0.0800(4) 0.1676(3) 0.6538(3) 0.0467(13) Uani 1 1 d . .
H32 H -0.0314 0.1012 0.6652 0.056 Uiso 1 1 calc R U
C33 C -0.2038(4) 0.2008(4) 0.6694(3) 0.0505(13) Uani 1 1 d . .
H33 H -0.2387 0.1584 0.6935 0.061 Uiso 1 1 calc R U
C34 C -0.2748(4) 0.2970(4) 0.6489(3) 0.0427(12) Uani 1 1 d . .
C35 C -0.2254(4) 0.3612(3) 0.6154(3) 0.0418(12) Uani 1 1 d . .
H35 H -0.2748 0.4263 0.6015 0.050 Uiso 1 1 calc R U
C36 C -0.1015(4) 0.3280(3) 0.6025(3) 0.0379(11) Uani 1 1 d . .
H36 H -0.0675 0.3719 0.5806 0.045 Uiso 1 1 calc R U
C37 C 0.3748(4) 0.1897(4) 0.3405(3) 0.0516(13) Uani 1 1 d . .
H37A H 0.4506 0.1400 0.3562 0.062 Uiso 1 1 calc R U
H37B H 0.3922 0.2183 0.2868 0.062 Uiso 1 1 calc R U
C38 C 0.2927(4) 0.1404(3) 0.3291(3) 0.0411(11) Uani 1 1 d . .
C39 C 0.3156(4) 0.0368(4) 0.2953(3) 0.0558(14) Uani 1 1 d . .
H39A H 0.3642 -0.0180 0.3290 0.067 Uiso 1 1 calc R U
H39B H 0.3449 0.0246 0.2343 0.067 Uiso 1 1 calc R U
C40 C 0.1777(4) 0.0696(3) 0.3173(4) 0.0561(14) Uani 1 1 d . .
H40A H 0.1356 0.0735 0.2677 0.067 Uiso 1 1 calc R U
H40B H 0.1548 0.0321 0.3627 0.067 Uiso 1 1 calc R U
C41 C 0.1740(4) 0.1700(3) 0.3474(3) 0.0397(11) Uani 1 1 d . .
C42 C 0.0761(4) 0.2656(3) 0.3784(3) 0.0367(11) Uani 1 1 d . .
C43 C -0.0506(4) 0.2755(3) 0.3867(3) 0.0388(11) Uani 1 1 d . .
C44 C -0.0850(5) 0.1996(3) 0.4162(3) 0.0458(12) Uani 1 1 d . .
H44 H -0.0267 0.1380 0.4301 0.055 Uiso 1 1 calc R U
C45 C -0.2046(5) 0.2143(4) 0.4252(3) 0.0515(13) Uani 1 1 d . .
H45 H -0.2264 0.1621 0.4439 0.062 Uiso 1 1 calc R U
C46 C -0.2910(4) 0.3041(4) 0.4070(3) 0.0465(12) Uani 1 1 d . .
C47 C -0.2613(4) 0.3820(4) 0.3796(3) 0.0555(14) Uani 1 1 d . .
H47 H -0.3213 0.4440 0.3685 0.067 Uiso 1 1 calc R U
C48 C -0.1405(4) 0.3675(3) 0.3685(3) 0.0540(14) Uani 1 1 d . .
H48 H -0.1195 0.4198 0.3487 0.065 Uiso 1 1 calc R U
loop_
_atom_site_aniso_label
_atom_site_aniso_U_11
_atom_site_aniso_U_22
_atom_site_aniso_U_33
_atom_site_aniso_U_23
_atom_site_aniso_U_13
_atom_site_aniso_U_12
Br1 0.0366(3) 0.0738(4) 0.0854(5) -0.0049(3) 0.0032(3) -0.0273(3)
Br2 0.0386(3) 0.0858(5) 0.0841(5) 0.0011(3) -0.0014(3) -0.0272(3)
Br3 0.0307(3) 0.0849(4) 0.0962(5) 0.0086(4) 0.0009(3) -0.0226(3)
Br4 0.0448(3) 0.1089(5) 0.0946(5) 0.0114(4) -0.0096(3) -0.0466(4)
S1 0.0493(8) 0.0424(7) 0.0587(9) 0.0000(6) -0.0001(6) -0.0289(7)
S2 0.0426(7) 0.0323(7) 0.0606(9) -0.0033(6) -0.0059(6) -0.0110(6)
S3 0.0354(7) 0.0269(6) 0.0655(9) 0.0013(6) 0.0063(6) -0.0051(5)
S4 0.0413(7) 0.0369(7) 0.0599(9) 0.0091(6) -0.0116(6) -0.0211(6)
N1 0.040(2) 0.038(2) 0.057(3) 0.0055(19) -0.0010(19) -0.018(2)
N2 0.041(2) 0.033(2) 0.055(3) -0.0017(19) -0.0040(19) -0.0157(19)
N3 0.036(2) 0.030(2) 0.062(3) 0.0030(19) 0.001(2) -0.0103(19)
N4 0.032(2) 0.031(2) 0.076(3) 0.006(2) -0.013(2) -0.0136(19)
O1 0.043(2) 0.0431(19) 0.070(2) 0.0017(17) 0.0038(17) -0.0235(17)
O2 0.072(3) 0.074(3) 0.058(2) -0.0098(19) -0.006(2) -0.047(2)
O3 0.071(3) 0.050(2) 0.073(3) 0.0082(19) 0.001(2) -0.039(2)
O4 0.044(2) 0.0439(19) 0.068(2) 0.0012(17) -0.0086(17) -0.0162(17)
O5 0.060(2) 0.041(2) 0.094(3) 0.016(2) -0.022(2) -0.0165(19)
O6 0.057(2) 0.057(2) 0.080(3) -0.020(2) -0.001(2) -0.013(2)
O7 0.0393(19) 0.0386(18) 0.053(2) -0.0013(16) 0.0097(16) -0.0141(16)
O8 0.057(2) 0.061(2) 0.053(2) 0.0246(19) -0.0015(18) -0.0053(19)
O9 0.055(2) 0.039(2) 0.083(3) -0.0133(19) 0.0132(19) -0.0151(18)
O10 0.0342(18) 0.0432(19) 0.065(2) 0.0082(17) -0.0156(17) -0.0149(16)
O11 0.061(2) 0.047(2) 0.084(3) -0.0021(19) -0.020(2) -0.0313(19)
O12 0.068(3) 0.066(2) 0.063(3) 0.023(2) -0.013(2) -0.037(2)
C1 0.042(3) 0.052(3) 0.076(4) 0.002(3) -0.006(3) -0.020(3)
C2 0.036(3) 0.039(3) 0.056(3) -0.005(2) -0.006(2) -0.014(2)
C3 0.044(3) 0.037(3) 0.082(4) 0.007(3) -0.011(3) -0.011(3)
C4 0.039(3) 0.040(3) 0.075(4) 0.014(3) -0.003(3) -0.014(2)
C5 0.040(3) 0.033(3) 0.046(3) 0.003(2) -0.005(2) -0.018(2)
C6 0.037(3) 0.031(3) 0.041(3) -0.002(2) 0.000(2) -0.015(2)
C7 0.033(3) 0.034(3) 0.048(3) 0.004(2) -0.006(2) -0.015(2)
C8 0.041(3) 0.032(3) 0.061(3) -0.002(2) -0.002(2) -0.016(2)
C9 0.046(3) 0.039(3) 0.059(3) 0.004(2) -0.005(3) -0.026(3)
C10 0.036(3) 0.045(3) 0.040(3) 0.007(2) -0.001(2) -0.019(2)
C11 0.039(3) 0.040(3) 0.054(3) -0.007(2) 0.004(2) -0.015(2)
C12 0.042(3) 0.036(3) 0.070(4) -0.004(3) -0.002(3) -0.020(3)
C13 0.041(3) 0.044(3) 0.092(4) 0.006(3) -0.003(3) -0.019(3)
C14 0.038(3) 0.042(3) 0.059(3) 0.000(2) -0.006(2) -0.019(2)
C15 0.052(3) 0.048(3) 0.055(3) 0.011(3) -0.009(3) -0.028(3)
C16 0.047(3) 0.045(3) 0.090(4) 0.022(3) -0.025(3) -0.025(3)
C17 0.042(3) 0.033(3) 0.049(3) 0.003(2) -0.008(2) -0.019(2)
C18 0.043(3) 0.037(3) 0.040(3) -0.004(2) -0.003(2) -0.019(2)
C19 0.035(3) 0.032(3) 0.048(3) 0.006(2) -0.004(2) -0.015(2)
C20 0.054(3) 0.041(3) 0.054(3) -0.006(2) -0.005(3) -0.024(3)
C21 0.050(3) 0.056(3) 0.061(4) -0.006(3) -0.008(3) -0.033(3)
C22 0.035(3) 0.048(3) 0.057(3) 0.003(3) -0.007(2) -0.018(3)
C23 0.039(3) 0.035(3) 0.070(4) -0.002(2) -0.004(3) -0.011(2)
C24 0.050(3) 0.040(3) 0.053(3) 0.001(2) -0.007(3) -0.024(3)
C25 0.030(3) 0.046(3) 0.082(4) -0.006(3) -0.006(3) -0.014(2)
C26 0.029(3) 0.040(3) 0.051(3) 0.006(2) -0.006(2) -0.013(2)
C27 0.044(3) 0.043(3) 0.063(4) -0.004(3) -0.003(3) -0.021(3)
C28 0.037(3) 0.039(3) 0.054(3) -0.009(2) 0.005(2) -0.015(2)
C29 0.034(3) 0.026(2) 0.042(3) 0.004(2) -0.001(2) -0.009(2)
C30 0.035(3) 0.031(3) 0.032(3) 0.003(2) 0.007(2) -0.012(2)
C31 0.037(3) 0.030(2) 0.034(3) 0.001(2) 0.002(2) -0.013(2)
C32 0.038(3) 0.032(3) 0.068(4) 0.008(2) -0.001(2) -0.013(2)
C33 0.043(3) 0.042(3) 0.071(4) 0.002(3) 0.003(3) -0.024(3)
C34 0.020(2) 0.048(3) 0.058(3) -0.004(2) 0.005(2) -0.014(2)
C35 0.034(3) 0.035(3) 0.050(3) 0.002(2) 0.000(2) -0.009(2)
C36 0.038(3) 0.034(3) 0.045(3) 0.002(2) 0.000(2) -0.019(2)
C37 0.036(3) 0.053(3) 0.057(3) 0.002(3) 0.006(2) -0.013(3)
C38 0.037(3) 0.040(3) 0.041(3) 0.005(2) -0.007(2) -0.010(2)
C39 0.047(3) 0.049(3) 0.059(4) -0.003(3) -0.005(3) -0.007(3)
C40 0.047(3) 0.041(3) 0.077(4) -0.011(3) -0.013(3) -0.013(3)
C41 0.035(3) 0.029(2) 0.054(3) 0.004(2) -0.011(2) -0.009(2)
C42 0.032(3) 0.030(2) 0.050(3) 0.007(2) -0.011(2) -0.013(2)
C43 0.036(3) 0.031(3) 0.052(3) 0.000(2) -0.011(2) -0.015(2)
C44 0.054(3) 0.040(3) 0.048(3) 0.005(2) -0.008(3) -0.024(3)
C45 0.061(4) 0.058(3) 0.051(3) 0.003(3) -0.003(3) -0.041(3)
C46 0.040(3) 0.067(4) 0.043(3) 0.005(3) -0.005(2) -0.033(3)
C47 0.034(3) 0.048(3) 0.087(4) 0.014(3) -0.017(3) -0.016(3)
C48 0.043(3) 0.037(3) 0.088(4) 0.010(3) -0.016(3) -0.021(3)
loop_
_atom_type_symbol
_atom_type_description
_atom_type_scat_dispersion_real
_atom_type_scat_dispersion_imag
_atom_type_scat_source
C C 0.0033 0.0016 'International Tables Vol C Tables 4.2.6.8 and 6.1.1.4'
H H 0.0000 0.0000 'International Tables Vol C Tables 4.2.6.8 and 6.1.1.4'
N N 0.0061 0.0033 'International Tables Vol C Tables 4.2.6.8 and 6.1.1.4'
O O 0.0106 0.0060 'International Tables Vol C Tables 4.2.6.8 and 6.1.1.4'
S S 0.1246 0.1234 'International Tables Vol C Tables 4.2.6.8 and 6.1.1.4'
Br Br -0.2901 2.4595 'International Tables Vol C Tables 4.2.6.8 and 6.1.1.4'
loop_
_geom_angle_atom_site_label_1
_geom_angle_atom_site_label_2
_geom_angle_atom_site_label_3
_geom_angle
O2 S1 O3 119.5(2)
O2 S1 O1 109.2(2)
O3 S1 O1 103.8(2)
O2 S1 N1 109.5(2)
O3 S1 N1 105.5(2)
O1 S1 N1 108.68(18)
O5 S2 O6 119.8(2)
O5 S2 O4 102.63(19)
O6 S2 O4 109.0(2)
O5 S2 N2 107.0(2)
O6 S2 N2 107.7(2)
O4 S2 N2 110.47(18)
O8 S3 O9 119.9(2)
O8 S3 O7 109.9(2)
O9 S3 O7 102.73(19)
O8 S3 N3 108.3(2)
O9 S3 N3 105.9(2)
O7 S3 N3 109.82(17)
O12 S4 O11 119.6(2)
O12 S4 O10 108.9(2)
O11 S4 O10 103.67(19)
O12 S4 N4 108.6(2)
O11 S4 N4 105.8(2)
O10 S4 N4 110.01(17)
C6 N1 S1 125.9(3)
C18 N2 S2 128.7(3)
C30 N3 S3 126.0(3)
C42 N4 S4 126.8(3)
C1 O1 S1 119.1(3)
C13 O4 S2 117.3(3)
C25 O7 S3 117.0(3)
C37 O10 S4 118.4(3)
O1 C1 C2 109.7(4)
O1 C1 H1A 109.7
C2 C1 H1A 109.7
O1 C1 H1B 109.7
C2 C1 H1B 109.7
H1A C1 H1B 108.2
C5 C2 C1 133.0(4)
C5 C2 C3 93.7(4)
C1 C2 C3 133.2(4)
C2 C3 C4 86.9(3)
C2 C3 H3A 114.2
C4 C3 H3A 114.2
C2 C3 H3B 114.2
C4 C3 H3B 114.2
H3A C3 H3B 111.3
C5 C4 C3 85.5(3)
C5 C4 H4A 114.4
C3 C4 H4A 114.4
C5 C4 H4B 114.4
C3 C4 H4B 114.4
H4A C4 H4B 111.5
C2 C5 C6 133.4(4)
C2 C5 C4 93.9(4)
C6 C5 C4 132.5(4)
N1 C6 C5 126.9(4)
N1 C6 C7 114.6(4)
C5 C6 C7 118.5(4)
C8 C7 C12 119.2(4)
C8 C7 C6 121.6(4)
C12 C7 C6 119.1(4)
C9 C8 C7 120.1(4)
C9 C8 H8 119.9
C7 C8 H8 119.9
C10 C9 C8 119.9(4)
C10 C9 H9 120.1
C8 C9 H9 120.1
C9 C10 C11 121.6(4)
C9 C10 Br1 119.9(3)
C11 C10 Br1 118.5(4)
C10 C11 C12 119.1(4)
C10 C11 H11 120.4
C12 C11 H11 120.4
C11 C12 C7 120.1(4)
C11 C12 H12 119.9
C7 C12 H12 119.9
C14 C13 O4 109.8(4)
C14 C13 H13A 109.7
O4 C13 H13A 109.7
C14 C13 H13B 109.7
O4 C13 H13B 109.7
H13A C13 H13B 108.2
C17 C14 C13 133.3(4)
C17 C14 C15 94.8(4)
C13 C14 C15 131.9(4)
C14 C15 C16 86.2(3)
C14 C15 H15A 114.3
C16 C15 H15A 114.3
C14 C15 H15B 114.3
C16 C15 H15B 114.3
H15A C15 H15B 111.4
C17 C16 C15 86.1(3)
C17 C16 H16A 114.3
C15 C16 H16A 114.3
C17 C16 H16B 114.3
C15 C16 H16B 114.3
H16A C16 H16B 111.5
C14 C17 C18 132.8(4)
C14 C17 C16 92.9(4)
C18 C17 C16 134.1(4)
N2 C18 C17 125.7(4)
N2 C18 C19 114.7(4)
C17 C18 C19 119.5(4)
C24 C19 C20 118.7(4)
C24 C19 C18 122.5(4)
C20 C19 C18 118.8(4)
C21 C20 C19 120.8(5)
C21 C20 H20 119.6
C19 C20 H20 119.6
C20 C21 C22 119.4(4)
C20 C21 H21 120.3
C22 C21 H21 120.3
C23 C22 C21 120.8(4)
C23 C22 Br2 119.9(4)
C21 C22 Br2 119.3(4)
C22 C23 C24 119.4(5)
C22 C23 H23 120.3
C24 C23 H23 120.3
C19 C24 C23 120.8(4)
C19 C24 H24 119.6
C23 C24 H24 119.6
O7 C25 C26 110.3(4)
O7 C25 H25A 109.6
C26 C25 H25A 109.6
O7 C25 H25B 109.6
C26 C25 H25B 109.6
H25A C25 H25B 108.1
C29 C26 C25 132.9(4)
C29 C26 C27 95.1(4)
C25 C26 C27 131.9(4)
C26 C27 C28 86.1(3)
C26 C27 H27A 114.3
C28 C27 H27A 114.3
C26 C27 H27B 114.3
C28 C27 H27B 114.3
H27A C27 H27B 111.4
C29 C28 C27 85.1(3)
C29 C28 H28A 114.5
C27 C28 H28A 114.5
C29 C28 H28B 114.5
C27 C28 H28B 114.5
H28A C28 H28B 111.6
C26 C29 C30 132.9(4)
C26 C29 C28 93.6(4)
C30 C29 C28 133.3(4)
N3 C30 C29 127.0(4)
N3 C30 C31 113.9(4)
C29 C30 C31 119.0(4)
C32 C31 C36 117.6(4)
C32 C31 C30 119.9(4)
C36 C31 C30 122.5(4)
C33 C32 C31 121.5(4)
C33 C32 H32 119.3
C31 C32 H32 119.3
C34 C33 C32 119.0(4)
C34 C33 H33 120.5
C32 C33 H33 120.5
C35 C34 C33 121.4(4)
C35 C34 Br3 119.5(3)
C33 C34 Br3 119.0(3)
C34 C35 C36 119.0(4)
C34 C35 H35 120.5
C36 C35 H35 120.5
C35 C36 C31 121.5(4)
C35 C36 H36 119.3
C31 C36 H36 119.3
O10 C37 C38 110.1(4)
O10 C37 H37A 109.6
C38 C37 H37A 109.6
O10 C37 H37B 109.6
C38 C37 H37B 109.6
H37A C37 H37B 108.2
C41 C38 C37 132.7(4)
C41 C38 C39 95.1(4)
C37 C38 C39 132.1(4)
C38 C39 C40 85.6(4)
C38 C39 H39A 114.4
C40 C39 H39A 114.4
C38 C39 H39B 114.4
C40 C39 H39B 114.4
H39A C39 H39B 111.5
C41 C40 C39 86.1(4)
C41 C40 H40A 114.3
C39 C40 H40A 114.3
C41 C40 H40B 114.3
C39 C40 H40B 114.3
H40A C40 H40B 111.5
C38 C41 C42 133.3(4)
C38 C41 C40 93.2(4)
C42 C41 C40 133.4(4)
N4 C42 C41 126.6(4)
N4 C42 C43 113.9(4)
C41 C42 C43 119.5(4)
C44 C43 C48 118.2(4)
C44 C43 C42 123.1(4)
C48 C43 C42 118.6(4)
C45 C44 C43 120.6(5)
C45 C44 H44 119.7
C43 C44 H44 119.7
C46 C45 C44 120.6(4)
C46 C45 H45 119.7
C44 C45 H45 119.7
C45 C46 C47 120.8(4)
C45 C46 Br4 120.8(4)
C47 C46 Br4 118.4(4)
C46 C47 C48 119.3(5)
C46 C47 H47 120.4
C48 C47 H47 120.4
C47 C48 C43 120.6(4)
C47 C48 H48 119.7
C43 C48 H48 119.7
loop_
_geom_bond_atom_site_label_1
_geom_bond_atom_site_label_2
_geom_bond_distance
Br1 C10 1.891(4)
Br2 C22 1.898(5)
Br3 C34 1.896(4)
Br4 C46 1.889(5)
S1 O2 1.404(3)
S1 O3 1.421(3)
S1 O1 1.574(3)
S1 N1 1.631(4)
S2 O5 1.417(3)
S2 O6 1.417(4)
S2 O4 1.576(3)
S2 N2 1.617(4)
S3 O8 1.403(3)
S3 O9 1.423(3)
S3 O7 1.573(3)
S3 N3 1.636(4)
S4 O12 1.392(3)
S4 O11 1.428(3)
S4 O10 1.573(3)
S4 N4 1.627(4)
N1 C6 1.297(5)
N2 C18 1.292(5)
N3 C30 1.297(5)
N4 C42 1.303(5)
O1 C1 1.448(5)
O4 C13 1.479(5)
O7 C25 1.460(5)
O10 C37 1.438(5)
C1 C2 1.453(6)
C1 H1A 0.9700
C1 H1B 0.9700
C2 C5 1.343(6)
C2 C3 1.516(6)
C3 C4 1.546(6)
C3 H3A 0.9700
C3 H3B 0.9700
C4 C5 1.533(6)
C4 H4A 0.9700
C4 H4B 0.9700
C5 C6 1.453(6)
C6 C7 1.487(6)
C7 C8 1.389(6)
C7 C12 1.400(6)
C8 C9 1.376(6)
C8 H8 0.9300
C9 C10 1.363(6)
C9 H9 0.9300
C10 C11 1.378(6)
C11 C12 1.379(6)
C11 H11 0.9300
C12 H12 0.9300
C13 C14 1.465(6)
C13 H13A 0.9700
C13 H13B 0.9700
C14 C17 1.344(6)
C14 C15 1.502(6)
C15 C16 1.547(6)
C15 H15A 0.9700
C15 H15B 0.9700
C16 C17 1.527(6)
C16 H16A 0.9700
C16 H16B 0.9700
C17 C18 1.460(6)
C18 C19 1.480(6)
C19 C24 1.379(6)
C19 C20 1.390(6)
C20 C21 1.369(6)
C20 H20 0.9300
C21 C22 1.379(7)
C21 H21 0.9300
C22 C23 1.372(6)
C23 C24 1.380(6)
C23 H23 0.9300
C24 H24 0.9300
C25 C26 1.482(6)
C25 H25A 0.9700
C25 H25B 0.9700
C26 C29 1.334(6)
C26 C27 1.492(6)
C27 C28 1.563(6)
C27 H27A 0.9700
C27 H27B 0.9700
C28 C29 1.522(6)
C28 H28A 0.9700
C28 H28B 0.9700
C29 C30 1.454(6)
C30 C31 1.472(6)
C31 C32 1.383(6)
C31 C36 1.387(6)
C32 C33 1.375(6)
C32 H32 0.9300
C33 C34 1.366(6)
C33 H33 0.9300
C34 C35 1.364(6)
C35 C36 1.374(6)
C35 H35 0.9300
C36 H36 0.9300
C37 C38 1.473(6)
C37 H37A 0.9700
C37 H37B 0.9700
C38 C41 1.324(6)
C38 C39 1.502(6)
C39 C40 1.543(6)
C39 H39A 0.9700
C39 H39B 0.9700
C40 C41 1.518(6)
C40 H40A 0.9700
C40 H40B 0.9700
C41 C42 1.454(6)
C42 C43 1.480(6)
C43 C44 1.382(6)
C43 C48 1.392(6)
C44 C45 1.373(6)
C44 H44 0.9300
C45 C46 1.353(7)
C45 H45 0.9300
C46 C47 1.367(6)
C47 C48 1.388(6)
C47 H47 0.9300
C48 H48 0.9300
loop_
_geom_torsion_atom_site_label_1
_geom_torsion_atom_site_label_2
_geom_torsion_atom_site_label_3
_geom_torsion_atom_site_label_4
_geom_torsion
O2 S1 N1 C6 -81.2(4)
O3 S1 N1 C6 148.9(4)
O1 S1 N1 C6 38.0(5)
O5 S2 N2 C18 147.5(4)
O6 S2 N2 C18 -82.5(4)
O4 S2 N2 C18 36.5(5)
O8 S3 N3 C30 81.4(4)
O9 S3 N3 C30 -148.8(4)
O7 S3 N3 C30 -38.6(5)
O12 S4 N4 C42 83.1(4)
O11 S4 N4 C42 -147.3(4)
O10 S4 N4 C42 -35.9(5)
O2 S1 O1 C1 36.6(4)
O3 S1 O1 C1 165.2(3)
N1 S1 O1 C1 -82.8(3)
O5 S2 O4 C13 168.1(3)
O6 S2 O4 C13 40.1(4)
N2 S2 O4 C13 -78.1(4)
O8 S3 O7 C25 -37.0(3)
O9 S3 O7 C25 -165.6(3)
N3 S3 O7 C25 82.0(3)
O12 S4 O10 C37 -39.1(3)
O11 S4 O10 C37 -167.5(3)
N4 S4 O10 C37 79.8(3)
S1 O1 C1 C2 69.6(5)
O1 C1 C2 C5 -17.9(8)
O1 C1 C2 C3 160.5(5)
C5 C2 C3 C4 0.0(4)
C1 C2 C3 C4 -178.8(6)
C2 C3 C4 C5 0.0(4)
C1 C2 C5 C6 -6.9(10)
C3 C2 C5 C6 174.3(5)
C1 C2 C5 C4 178.8(6)
C3 C2 C5 C4 0.0(4)
C3 C4 C5 C2 0.0(4)
C3 C4 C5 C6 -174.4(5)
S1 N1 C6 C5 -2.3(7)
S1 N1 C6 C7 174.0(3)
C2 C5 C6 N1 -2.7(9)
C4 C5 C6 N1 169.7(5)
C2 C5 C6 C7 -178.9(5)
C4 C5 C6 C7 -6.5(7)
N1 C6 C7 C8 141.9(4)
C5 C6 C7 C8 -41.4(6)
N1 C6 C7 C12 -35.3(6)
C5 C6 C7 C12 141.4(4)
C12 C7 C8 C9 0.8(7)
C6 C7 C8 C9 -176.4(4)
C7 C8 C9 C10 -0.8(7)
C8 C9 C10 C11 0.3(7)
C8 C9 C10 Br1 179.5(3)
C9 C10 C11 C12 0.1(7)
Br1 C10 C11 C12 -179.0(4)
C10 C11 C12 C7 -0.1(7)
C8 C7 C12 C11 -0.4(7)
C6 C7 C12 C11 176.9(4)
S2 O4 C13 C14 71.4(5)
O4 C13 C14 C17 -24.6(8)
O4 C13 C14 C15 153.9(5)
C17 C14 C15 C16 0.8(4)
C13 C14 C15 C16 -178.0(6)
C14 C15 C16 C17 -0.7(4)
C13 C14 C17 C18 -7.1(10)
C15 C14 C17 C18 174.1(5)
C13 C14 C17 C16 178.0(6)
C15 C14 C17 C16 -0.8(4)
C15 C16 C17 C14 0.8(4)
C15 C16 C17 C18 -174.0(5)
S2 N2 C18 C17 -6.5(7)
S2 N2 C18 C19 170.6(3)
C14 C17 C18 N2 5.3(8)
C16 C17 C18 N2 178.2(5)
C14 C17 C18 C19 -171.7(5)
C16 C17 C18 C19 1.2(8)
N2 C18 C19 C24 144.3(4)
C17 C18 C19 C24 -38.4(7)
N2 C18 C19 C20 -34.6(6)
C17 C18 C19 C20 142.7(4)
C24 C19 C20 C21 -0.2(7)
C18 C19 C20 C21 178.8(4)
C19 C20 C21 C22 -1.5(7)
C20 C21 C22 C23 1.4(8)
C20 C21 C22 Br2 -179.8(4)
C21 C22 C23 C24 0.3(7)
Br2 C22 C23 C24 -178.5(4)
C20 C19 C24 C23 1.9(7)
C18 C19 C24 C23 -177.0(4)
C22 C23 C24 C19 -2.0(7)
S3 O7 C25 C26 -69.5(4)
O7 C25 C26 C29 18.8(7)
O7 C25 C26 C27 -157.8(5)
C29 C26 C27 C28 -1.3(4)
C25 C26 C27 C28 176.2(5)
C26 C27 C28 C29 1.1(3)
C25 C26 C29 C30 8.3(9)
C27 C26 C29 C30 -174.3(5)
C25 C26 C29 C28 -176.2(5)
C27 C26 C29 C28 1.3(4)
C27 C28 C29 C26 -1.2(4)
C27 C28 C29 C30 174.3(5)
S3 N3 C30 C29 2.9(7)
S3 N3 C30 C31 -174.0(3)
C26 C29 C30 N3 0.5(8)
C28 C29 C30 N3 -173.4(5)
C26 C29 C30 C31 177.2(5)
C28 C29 C30 C31 3.3(7)
N3 C30 C31 C32 33.3(6)
C29 C30 C31 C32 -143.8(4)
N3 C30 C31 C36 -143.9(4)
C29 C30 C31 C36 38.9(6)
C36 C31 C32 C33 -2.2(7)
C30 C31 C32 C33 -179.6(4)
C31 C32 C33 C34 2.9(8)
C32 C33 C34 C35 -1.6(8)
C32 C33 C34 Br3 -178.3(4)
C33 C34 C35 C36 -0.3(7)
Br3 C34 C35 C36 176.3(3)
C34 C35 C36 C31 1.0(7)
C32 C31 C36 C35 0.2(7)
C30 C31 C36 C35 177.5(4)
S4 O10 C37 C38 -71.1(4)
O10 C37 C38 C41 22.3(7)
O10 C37 C38 C39 -155.0(5)
C41 C38 C39 C40 -0.6(4)
C37 C38 C39 C40 177.3(5)
C38 C39 C40 C41 0.6(4)
C37 C38 C41 C42 6.9(9)
C39 C38 C41 C42 -175.2(5)
C37 C38 C41 C40 -177.3(5)
C39 C38 C41 C40 0.6(4)
C39 C40 C41 C38 -0.6(4)
C39 C40 C41 C42 175.2(5)
S4 N4 C42 C41 4.1(7)
S4 N4 C42 C43 -173.6(3)
C38 C41 C42 N4 -1.9(9)
C40 C41 C42 N4 -176.1(5)
C38 C41 C42 C43 175.6(5)
C40 C41 C42 C43 1.4(8)
N4 C42 C43 C44 -142.9(5)
C41 C42 C43 C44 39.3(7)
N4 C42 C43 C48 33.5(6)
C41 C42 C43 C48 -144.4(5)
C48 C43 C44 C45 1.5(7)
C42 C43 C44 C45 177.9(4)
C43 C44 C45 C46 -1.4(8)
C44 C45 C46 C47 -0.2(8)
C44 C45 C46 Br4 179.1(4)
C45 C46 C47 C48 1.5(8)
Br4 C46 C47 C48 -177.8(4)
C46 C47 C48 C43 -1.3(8)
C44 C43 C48 C47 -0.2(8)
C42 C43 C48 C47 -176.7(5)
