#------------------------------------------------------------------------------
#$Date: 2017-07-25 13:22:07 +0300 (Tue, 25 Jul 2017) $
#$Revision: 199243 $
#$URL: file:///home/coder/svn-repositories/cod/cif/1/54/66/1546649.cif $
#------------------------------------------------------------------------------
#
# This file is available in the Crystallography Open Database (COD),
# http://www.crystallography.net/. The original data for this entry
# were provided by IUCr Journals, http://journals.iucr.org/.
#
# The file may be used within the scientific community so long as
# proper attribution is given to the journal article from which the
# data were obtained.
#
data_1546649
loop_
_publ_author_name
'Archana, K.'
'Saravanan, K.'
'Lakshmithendral, K.'
'Kabilan, S.'
'Selvanayagam, S.'
_publ_section_title
;
 3-(4-Methoxyphenyl)-4-methyl-<i>N</i>-[4-(4-methylphenyl)-1,3-thiazol-2-yl]benzamide
;
_journal_coeditor_code           BT4049
_journal_issue                   5
_journal_name_full               IUCrData
_journal_page_first              x170721
_journal_paper_doi               10.1107/S2414314617007210
_journal_volume                  2
_journal_year                    2017
_chemical_formula_iupac          'C25 H22 N2 O2 S'
_chemical_formula_moiety         'C25 H22 N2 O2 S'
_chemical_formula_sum            'C25 H22 N2 O2 S'
_chemical_formula_weight         414.50
_chemical_name_systematic
3-(4-Methoxyphenyl)-4-methyl-<i>N</i>-[4-(4-methylphenyl)-1,3-thiazol-2-yl]benzamide
_space_group_crystal_system      monoclinic
_space_group_IT_number           14
_space_group_name_Hall           '-P 2ybc'
_space_group_name_H-M_alt        'P 1 21/c 1'
_symmetry_space_group_name_Hall  '-P 2ybc'
_symmetry_space_group_name_H-M   'P 1 21/c 1'
_atom_sites_solution_hydrogens   geom
_audit_creation_method           SHELXL-2014/7
_cell_angle_alpha                90
_cell_angle_beta                 99.528(11)
_cell_angle_gamma                90
_cell_formula_units_Z            4
_cell_length_a                   9.7840(10)
_cell_length_b                   10.2910(10)
_cell_length_c                   21.58(2)
_cell_measurement_reflns_used    5988
_cell_measurement_temperature    296(2)
_cell_measurement_theta_max      26.9
_cell_measurement_theta_min      3.3
_cell_volume                     2143(2)
_computing_cell_refinement
;
SAINT (Bruker, 2002)
;
_computing_data_collection
;
SMART (Bruker, 2002)
;
_computing_data_reduction
;
SAINT (Bruker, 2002)
;
_computing_molecular_graphics
;
ORTEP-3 for Windows (Farrugia, 2012) and PLATON (Spek, 2009)
;
_computing_publication_material
;
SHELXL2014 (Sheldrick, 2015) and PLATON (Spek, 2009)
;
_computing_structure_refinement
;
SHELXL2014 (Sheldrick, 2015)
;
_computing_structure_solution
;
SHELXS97 (Sheldrick, 2008)
;
_diffrn_ambient_temperature      296(2)
_diffrn_measured_fraction_theta_full 0.987
_diffrn_measured_fraction_theta_max 0.970
_diffrn_measurement_device_type  'Bruker SMART APEX CCD area-detector'
_diffrn_measurement_method       '\w and \f scans'
_diffrn_radiation_source         'fine-focus sealed tube'
_diffrn_radiation_type           MoK\a
_diffrn_radiation_wavelength     0.71073
_diffrn_reflns_av_R_equivalents  0.0499
_diffrn_reflns_limit_h_max       12
_diffrn_reflns_limit_h_min       -8
_diffrn_reflns_limit_k_max       7
_diffrn_reflns_limit_k_min       -13
_diffrn_reflns_limit_l_max       27
_diffrn_reflns_limit_l_min       -27
_diffrn_reflns_number            7733
_diffrn_reflns_theta_full        25.242
_diffrn_reflns_theta_max         27.415
_diffrn_reflns_theta_min         3.076
_exptl_absorpt_coefficient_mu    0.175
_exptl_absorpt_correction_type   none
_exptl_crystal_colour            Yellow
_exptl_crystal_density_diffrn    1.285
_exptl_crystal_density_method    'not measured'
_exptl_crystal_description       Block
_exptl_crystal_F_000             872
_exptl_crystal_size_max          0.22
_exptl_crystal_size_mid          0.20
_exptl_crystal_size_min          0.18
_refine_diff_density_max         0.283
_refine_diff_density_min         -0.264
_refine_ls_extinction_method     none
_refine_ls_goodness_of_fit_ref   1.060
_refine_ls_hydrogen_treatment    constr
_refine_ls_matrix_type           full
_refine_ls_number_parameters     273
_refine_ls_number_reflns         4741
_refine_ls_number_restraints     0
_refine_ls_restrained_S_all      1.060
_refine_ls_R_factor_all          0.0789
_refine_ls_R_factor_gt           0.0570
_refine_ls_shift/su_max          0.001
_refine_ls_shift/su_mean         0.000
_refine_ls_structure_factor_coef Fsqd
_refine_ls_weighting_details
'w=1/[\s^2^(Fo^2^)+(0.0938P)^2^+0.3624P] where P=(Fo^2^+2Fc^2^)/3'
_refine_ls_weighting_scheme      calc
_refine_ls_wR_factor_gt          0.1562
_refine_ls_wR_factor_ref         0.1783
_reflns_number_gt                3399
_reflns_number_total             4741
_reflns_threshold_expression     'I > 2\s(I)'
_cod_data_source_file            bt4049sup1.cif
_cod_data_source_block           I
_cod_database_code               1546649
_shelx_space_group_comment
;
The symmetry employed for this shelxl refinement is uniquely defined
by the following loop, which should always be used as a source of
symmetry information in preference to the above space-group names.
They are only intended as comments.
;
_shelx_hkl_file
;
   0   0   4  164.54   34.45   1 0.71086-0.68863-0.70147 0.70147-0.05106 0.18360
   0   0   624960.13  284.85   1 0.71777-0.68443-0.69603 0.69603-0.01815 0.21696
   0   0   815575.78  267.44   1 0.72387-0.67942-0.68977 0.68977 0.01488 0.25019
   0   0  1080125.97  763.52   1 0.72915-0.67358-0.68266 0.68266 0.04806 0.28328
   0   0 -1288969.02  877.23   1-0.74102 0.67411 0.66668-0.66668-0.08007-0.31795
   0   0  12104905.7  964.51   1 0.73317-0.66640-0.67516 0.67516 0.08131 0.31631
   0   0 -13  278.08  115.85   1-0.74284 0.67036 0.66242-0.66242-0.09682-0.33437
   0   0  14 3560.62  249.86   1 0.73677-0.65888-0.66632 0.66632 0.11477 0.34912
   0   0 -15  -46.89   84.59   1-0.74584 0.66221 0.65322-0.65322-0.13042-0.36711
   0   0  15  -53.08  100.36   1 0.73825-0.65479-0.66157 0.66157 0.13156 0.36547
   0   0 -16  160.30   78.98   1-0.74700 0.65779 0.64829-0.64829-0.14728-0.38342
   0   0  16  294.95  159.64   1 0.73950-0.65048-0.65659 0.65659 0.14838 0.38178
   0   0 -17 -135.05  104.25   1-0.74794 0.65315 0.64313-0.64313-0.16417-0.39969
   0   0  17  -92.99  121.46   1 0.74053-0.64594-0.65138 0.65138 0.16525 0.39806
   0   0 -1811811.09  591.03   1-0.74864 0.64828 0.63774-0.63774-0.18111-0.41593
   0   0  1813275.37  468.45   1 0.74133-0.64118-0.64593 0.64593 0.18215 0.41429
   0   0 -19  -60.31  136.61   1-0.74911 0.64318 0.63212-0.63212-0.19808-0.43212
   0   0  19   56.19  140.46   1 0.74190-0.63619-0.64025 0.64025 0.19909 0.43049
   0   0 -2010783.52 1148.46   1-0.74987 0.63788 0.62587-0.62587-0.21441-0.44874
   0   0  2013727.25  513.33   1 0.74224-0.63096-0.63433 0.63433 0.21607 0.44665
   0   0 -21  -33.82  125.22   1-0.74986 0.63228 0.61977-0.61977-0.23146-0.46485
   0   0  21   23.68  134.68   1 0.74208-0.62529-0.62831 0.62831 0.23352 0.46284
   0   0 -22 7792.44 1291.09   1-0.74961 0.62643 0.61343-0.61343-0.24855-0.48091
   0   0  22 9871.11  439.87   1 0.74192-0.61957-0.62189 0.62189 0.25059 0.47893
   0   0 -23   47.17   68.30   1-0.74910 0.62032 0.60683-0.60683-0.26569-0.49693
   0   0  23  107.66  147.09   1 0.74151-0.61360-0.61521 0.61521 0.26771 0.49497
   0   0 -24 5947.27 1118.99   1-0.74833 0.61395 0.59997-0.59997-0.28287-0.51291
   0   0  24 7908.74  452.72   1 0.74084-0.60737-0.60827 0.60827 0.28486 0.51097
   0   0 -25  111.80   60.24   1-0.74730 0.60732 0.59285-0.59285-0.30010-0.52884
   0   0  25   15.55  121.12   1 0.73991-0.60087-0.60106 0.60106 0.30207 0.52693
   0   0 -26  211.64  120.97   1-0.74599 0.60041 0.58546-0.58546-0.31737-0.54473
   0   0 -27  140.64   83.68   1-0.74440 0.59323 0.57778-0.57778-0.33469-0.56057
   0  -1   3106556.8  409.63   1 0.53236-0.51577-0.68760 0.61857-0.49374 0.59274
   0  -1  -431510.77  288.46   1-0.74874 0.72635 0.60341-0.67255-0.27433 0.14170
   0  -1   436657.60  278.73   1 0.59340-0.57116-0.70727 0.63819-0.38422 0.51621
   0   1   436663.84  290.72   1 0.74104-0.71880-0.61018 0.67937 0.28020-0.14756
   0  -1  -516825.88  225.11   1-0.74986 0.72186 0.61976-0.68890-0.23150 0.06571
   0  -1   520260.54  233.62   1 0.63030-0.60250-0.71362 0.64454-0.30570 0.47070
   0   1   519923.47  238.62   1 0.74207-0.71426-0.62707 0.69625 0.23686-0.07106
   0  -1  -6 8153.54  282.81   1-0.74927 0.71581 0.62907-0.69824-0.20702 0.00801
   0  -1   6 9399.85  184.68   1 0.65340-0.61977-0.71596 0.64674-0.24587 0.44452
   0   1   6 9560.66  193.29   1 0.74216-0.70878-0.63616 0.70532 0.21091-0.01209
   0  -1  -7 3852.10  266.27   1-0.74899 0.70996 0.63395-0.70312-0.19262-0.03955
   0  -1   7 4483.16  144.28   1 0.67074-0.63151-0.71489 0.64567-0.19754 0.42929
   0   1   7 4501.66  161.46   1 0.74182-0.70288-0.64124 0.71040 0.19619 0.03575
   0  -1  -8 1812.89  196.35   1-0.74879 0.70418 0.63633-0.70550-0.18544-0.07991
   0  -1   8 2222.24  111.23   1 0.68388-0.63905-0.71255 0.64333-0.15673 0.42158
   0   1   8 1786.61  104.39   1 0.74158-0.69707-0.64375 0.71291 0.18873 0.07635
   0  -1   919220.44  325.48   1 0.69427-0.64383-0.70945 0.64023-0.12105 0.41901
   0  -1 -10 6147.82  255.52   1-0.74876 0.69300 0.63660-0.70576-0.18463-0.14706
   0  -1  10 8278.93  293.68   1 0.70217-0.64661-0.70657 0.63738-0.08772 0.41907
   0  -1 -11212967.6 1510.46   1-0.74888 0.68755 0.63526-0.70443-0.18868-0.17617
   0  -1  1275805.50 1107.40   1 0.71517-0.64850-0.69825 0.62906-0.03100 0.42862
   0  -1 -13 -195.77  130.63   1-0.74920 0.67671 0.63064-0.69980-0.20246-0.22873
   0   1  13  702.63  222.15   1 0.74205-0.66971-0.63826 0.70742 0.20488 0.22588
   0  -1 -1457336.57  955.16   1-0.74983 0.67145 0.62718-0.69632-0.21066-0.25354
   0  -1 -16  451.59   83.54   1-0.74986 0.66028 0.61977-0.68891-0.23147-0.29905
   0  -1  16  574.45  147.97   1 0.73119-0.64217-0.67899 0.60983 0.06572 0.46445
   0   1  16  422.01  139.33   1 0.74208-0.65310-0.62788 0.69707 0.23467 0.29589
   0   1 -1719916.96  486.25   1-0.74190 0.64711 0.66472-0.59555-0.08789-0.47597
   0  -1 -1719857.17  513.38   1-0.74972 0.65453 0.61551-0.68465-0.24301-0.32067
   0  -1  1723027.27  525.61   1 0.73395-0.63936-0.67348 0.60432 0.08791 0.47539
   0   1  1723841.98  543.37   1 0.74198-0.64744-0.62359 0.69277 0.24612 0.31759
   0   1 -18  487.10  118.12   1-0.74408 0.64372 0.65904-0.58987-0.10953-0.48750
   0  -1 -18  326.86  115.22   1-0.74944 0.64866 0.61092-0.68006-0.25515-0.34169
   0   1  18  376.04  179.35   1 0.74177-0.64166-0.61896 0.68814 0.25818 0.33869
   0   1 -1914416.90  758.60   1-0.74586 0.63993 0.65313-0.58396-0.13074-0.49946
   0  -1 -1915845.50 1238.60   1-0.74902 0.64264 0.60600-0.67514-0.26780-0.36220
   0  -1  1918048.74  512.35   1 0.73819-0.63247-0.66178 0.59262 0.13081 0.49876
   0   1  1919738.58  560.23   1 0.74141-0.63574-0.61400 0.68318 0.27076 0.35928
   0   1 -20 7598.41  711.93   1-0.74726 0.63575 0.64699-0.57783-0.15159-0.51178
   0  -1 -20 7255.05  835.01   1-0.74843 0.63645 0.60078-0.66992-0.28089-0.38226
   0  -1  20 9444.43  417.60   1 0.73972-0.62844-0.65558 0.58642 0.15168 0.51103
   0   1  20 9121.20  429.97   1 0.74089-0.62966-0.60872 0.67790 0.28378 0.37942
   0   1 -21  250.41   89.68   1-0.74830 0.63121 0.64062-0.57146-0.17215-0.52440
   0  -1 -21  239.62  120.15   1-0.74767 0.63009 0.59525-0.66439-0.29436-0.40194
   0  -1  21   68.62  138.11   1 0.74089-0.62405-0.64915 0.57999 0.17225 0.52360
   0   1  21   95.78  140.41   1 0.74020-0.62341-0.60313 0.67232 0.29719 0.39917
   0   1 -22 3713.62  525.94   1-0.74898 0.62632 0.63401-0.56484-0.19245-0.53727
   0  -1 -22 3123.69  625.90   1-0.74672 0.62354 0.58942-0.65856-0.30818-0.42129
   0   1  22 4669.09  400.96   1 0.73932-0.61697-0.59724 0.66643 0.31094 0.41857
   0   1 -23 3472.75  440.73   1-0.74985 0.62107 0.62676-0.55762-0.21188-0.55074
   0  -1 -23 3775.41  550.21   1-0.74557 0.61679 0.58330-0.65243-0.32230-0.44032
   0  -1  23 4334.44  361.44   1 0.74219-0.61422-0.63555 0.56639 0.21264 0.54948
   0   1 -24  745.81  169.80   1-0.74986 0.61548 0.61966-0.55052-0.23178-0.56400
   0  -1 -24  475.60   94.17   1-0.74420 0.60982 0.57688-0.64601-0.33669-0.45909
   0  -1  24  606.49  193.39   1 0.74208-0.60861-0.62849 0.55931 0.23303 0.56281
   0   1 -25   75.11   61.12   1-0.74954 0.60956 0.61230-0.54316-0.25154-0.57740
   0  -1 -25  203.87   94.83   1-0.74261 0.60263 0.57016-0.63930-0.35133-0.47761
   0  -1  25 -185.36  119.43   1 0.74188-0.60285-0.62104 0.55186 0.25280 0.57620
   0   1 -26  967.53  221.58   1-0.74888 0.60331 0.60467-0.53554-0.27116-0.59094
   0  -1 -26 1382.77  246.32   1-0.74079 0.59521 0.56314-0.63228-0.36618-0.49591
   0  -1  26 1008.39  222.91   1 0.74135-0.59675-0.61333 0.54414 0.27243 0.58972
   0   1 -27   84.82  104.93   1-0.74789 0.59672 0.59677-0.52764-0.29069-0.60457
   0  -1 -27  105.47   75.22   1-0.73850 0.58778 0.55574-0.62492-0.38176-0.51378
   0  -1  27   -1.12  135.84   1 0.74048-0.59033-0.60533 0.53615 0.29196 0.60336
   0  -2   016489.77  166.48   1-0.28903 0.28903-0.06914-0.06914-0.95481 0.95481
   0  -2  -2694390.5 9125.52   1-0.60942 0.59827 0.31292-0.45125-0.72847 0.66214
   0  -2  -317949.25  209.80   1-0.67436 0.65763 0.41489-0.55323-0.61081 0.51132
   0  -2   319640.14  210.38   1 0.34136-0.32474-0.58920 0.45113-0.73232 0.83127
   0  -2  -4 1847.18  259.87   1-0.70801 0.68569 0.47808-0.61644-0.51975 0.38707
   0  -2   4 2242.26  207.24   1 0.44812-0.42597-0.64957 0.51155-0.61419 0.74623
   0  -2  -5 2850.11  354.94   1-0.72542 0.69751 0.51810-0.65646-0.45312 0.28727
   0  -2   5 3265.45  112.94   1 0.51854-0.49089-0.68233 0.54427-0.51529 0.68028
   0  -2  -6136562.9  780.51   1-0.73484 0.70135 0.54405-0.68241-0.40497 0.20596
   0  -2   6158045.4  714.89   1 0.56678-0.53342-0.70020 0.56203-0.43413 0.63212
   0  -2  -7 8422.37  201.34   1-0.74009 0.70101 0.56124-0.69960-0.37048 0.13830
   0  -2   710086.49  213.41   1 0.60263-0.56371-0.70928 0.57111-0.36571 0.59670
   0  -2  -8  619.45  113.93   1-0.74326 0.69847 0.57284-0.71111-0.34554 0.08028
   0  -2   8  700.96   79.30   1 0.62946-0.58499-0.71353 0.57536-0.30762 0.57161
   0  -2  -926865.42  764.06   1-0.74499 0.69459 0.58048-0.71876-0.32866 0.03024
   0  -2   933514.69  450.30   1 0.64909-0.59865-0.71594 0.57749-0.25711 0.55508
   0  -2 -1031337.59  500.41   1-0.74598 0.68999 0.58540-0.72367-0.31750-0.01407
   0  -2  1038929.80  511.69   1 0.66554-0.60950-0.71543 0.57698-0.21261 0.54368
   0  -2 -11  171.20   54.24   1-0.74652 0.68493 0.58832-0.72659-0.31075-0.05398
   0  -2  11  264.87   85.51   1 0.67893-0.61728-0.71362 0.57517-0.17259 0.53677
   0  -2 -1272896.19 1059.34   1-0.74677 0.67958 0.58972-0.72800-0.30748-0.09041
   0  -2  1294224.76 1267.97   1 0.69002-0.62277-0.71088 0.57243-0.13607 0.53336
   0   2  1291479.69 1255.51   1 0.73924-0.67250-0.59673 0.73510 0.31213 0.08579
   0  -2 -1417476.73  443.69   1-0.74668 0.66829 0.58919-0.72746-0.30873-0.15547
   0  -2  1422181.82  513.61   1 0.70664-0.62885-0.70415 0.56577-0.06943 0.53332
   0   2  1420652.20  492.96   1 0.73917-0.66132-0.59634 0.73470 0.31303 0.15120
   0  -2 -15 7580.32  993.14   1-0.74640 0.66241 0.58764-0.72592-0.31233-0.18504
   0  -2  15 9298.09  335.81   1 0.71335-0.63001-0.69967 0.56130-0.03965 0.53668
   0  -2 -16 5543.80  463.69   1-0.74598 0.65640 0.58542-0.72369-0.31746-0.21306
   0  -2  16 6223.18  276.63   1 0.71910-0.63020-0.69481 0.55643-0.01134 0.54150
   0  -2 -17  881.12  191.33   1-0.74543 0.65024 0.58260-0.72088-0.32388-0.23980
   0  -2  17  897.67  147.03   1 0.72402-0.62956-0.68959 0.55121 0.01575 0.54754
   0  -2 -18 4747.88  703.00   1-0.74473 0.64394 0.57926-0.71754-0.33139-0.26544
   0  -2  18 5148.22  308.29   1 0.72822-0.62821-0.68406 0.54568 0.04183 0.55459
   0  -2 -19 4567.60  841.27   1-0.74388 0.63749 0.57545-0.71372-0.33984-0.29015
   0  -2  19 6162.98  349.55   1 0.73135-0.62564-0.67870 0.54037 0.06694 0.56263
   0   2 -20 3156.08  295.70   1-0.74237 0.63086 0.66358-0.52525-0.09231-0.57106
   0  -2 -20 2770.92  471.97   1-0.74287 0.63088 0.57119-0.70947-0.34910-0.31405
   0  -2  20 3804.89  305.83   1 0.73435-0.62307-0.67257 0.53425 0.09145 0.57126
   0   2 -21  299.34  113.26   1-0.74468 0.62759 0.65723-0.51890-0.11614-0.58040
   0  -2 -21  260.38   82.00   1-0.74169 0.62411 0.56653-0.70480-0.35907-0.33724
   0  -2  21  348.46  143.97   1 0.73682-0.61998-0.66616 0.52784 0.11534 0.58051
   0   2 -22 2084.10  284.01   1-0.74649 0.62383 0.65061-0.51227-0.13946-0.59025
   0  -2 -22 2810.00  441.48   1-0.74013 0.61732 0.56139-0.69975-0.37018-0.35952
   0  -2  22 2919.06  314.87   1 0.73881-0.61640-0.65948 0.52116 0.13870 0.59028
   0   2 -23 1091.89  183.39   1-0.74785 0.61961 0.64371-0.50537-0.16233-0.60056
   0  -2 -23  771.32  149.11   1-0.73857 0.61018 0.55597-0.69432-0.38131-0.38155
   0  -2  23  914.02  177.29   1 0.74033-0.61236-0.65252 0.51420 0.16162 0.60050
   0   2 -24 2794.06  555.58   1-0.74877 0.61495 0.63654-0.49820-0.18481-0.61124
   0  -2 -24 3192.75  507.20   1-0.73681 0.60284 0.55018-0.68854-0.39293-0.40310
   0  -2  24 3464.26  327.29   1 0.74141-0.60788-0.64528 0.50696 0.18414 0.61111
   0   2 -25 1196.28  206.73   1-0.74926 0.60988 0.62909-0.49075-0.20697-0.62225
   0  -2 -25 1616.45  266.30   1-0.73484 0.59528 0.54404-0.68240-0.40499-0.42421
   0  -2  25 1479.40  255.80   1 0.74208-0.60298-0.63776 0.49944 0.20633 0.62206
   0   2 -26  335.70  176.48   1-0.74988 0.60430 0.62095-0.48268-0.22821-0.63389
   0  -2 -26   52.92  143.99   1-0.73264 0.58750 0.53756-0.67591-0.41744-0.44493
   0  -2  26  152.23  132.76   1 0.74208-0.59749-0.63007 0.49170 0.22874 0.63342
   0   2 -27  384.68  116.91   1-0.74958 0.59840 0.61295-0.47467-0.24983-0.64543
   0  -2 -27  469.38  122.86   1-0.73021 0.57949 0.53073-0.66908-0.43024-0.46530
   0  -2  27  544.56  203.50   1 0.74192-0.59177-0.62196 0.48360 0.25039 0.64492
   0  -3  -2  458.65   62.99   1-0.51178 0.50061 0.18149-0.38891-0.83972 0.77338
   0  -3   2  272.87   43.87   1 0.07808-0.06702-0.40121 0.19378-0.91265 0.97875
   0  -3  -373660.80  461.90   1-0.58812 0.57140 0.28252-0.49000-0.75781 0.65831
   0  -3   375367.83  440.26   1 0.21875-0.20214-0.50729 0.29996-0.83354 0.93228
   0  -3  -415247.83  232.48   1-0.63871 0.61642 0.35706-0.56455-0.68157 0.54891
   0  -3   416471.80  230.02   1 0.33184-0.30969-0.58343 0.37633-0.74126 0.87319
   0  -3  -5  761.34  114.79   1-0.67201 0.64412 0.41079-0.61830-0.61615 0.45033
   0  -3   5  863.88  174.64   1 0.41773-0.39004-0.63405 0.42701-0.65074 0.81579
   0  -3  -643801.20  434.04   1-0.69340 0.65994 0.44976-0.65727-0.56293 0.36394
   0  -3   647369.59  429.13   1 0.48197-0.44879-0.66690 0.45981-0.56827 0.76625
   0  -3  -717877.80  405.73   1-0.70790 0.66883 0.47785-0.68538-0.52011 0.28793
   0  -3   720407.98  307.33   1 0.53218-0.49347-0.68753 0.48044-0.49403 0.72502
   0  -3   813562.78  320.10   1 0.56951-0.52503-0.70101 0.49375-0.42922 0.69321
   0  -3  -934267.21  764.77   1-0.72365 0.67341 0.51366-0.72119-0.46093 0.16242
   0  -3   940131.78  512.27   1 0.60017-0.55013-0.70876 0.50151-0.37072 0.66770
   0  -3 -10  384.89   81.57   1-0.72798 0.67216 0.52472-0.73225-0.44125 0.10957
   0  -3  10  319.79   59.65   1 0.62476-0.56916-0.71297 0.50572-0.31831 0.64829
   0  -3 -11 2453.17  447.41   1-0.73092 0.66952 0.53269-0.74022-0.42660 0.06174
   0  -3  11 2883.90  185.58   1 0.64376-0.58211-0.71577 0.50810-0.27062 0.63480
   0  -3 -12 2613.35  515.24   1-0.73289 0.66590 0.53828-0.74581-0.41607 0.01804
   0  -3  12 1600.87  153.13   1 0.66029-0.59304-0.71577 0.50810-0.22731 0.62459
   0  -3 -13 1076.65  223.83   1-0.73416 0.66159 0.54200-0.74953-0.40894-0.02224
   0  -3  13  975.78  146.39   1 0.67414-0.60128-0.71443 0.50676-0.18737 0.61777
   0  -3 -1433390.45  637.41   1-0.73489 0.65674 0.54421-0.75174-0.40466-0.05969
   0  -3  1439762.50  602.63   1 0.68585-0.60739-0.71206 0.50439-0.15022 0.61372
   0  -3  15  847.33  162.70   1 0.69583-0.61176-0.70887 0.50120-0.11538 0.61199
   0  -3 -16 1589.67  291.89   1-0.73519 0.64588 0.54513-0.75266-0.40288-0.12781
   0  -3  16 1935.78  211.91   1 0.70380-0.61490-0.70573 0.49816-0.08115 0.61132
   0  -3 -17 5764.12  800.81   1-0.73488 0.63999 0.54419-0.75172-0.40471-0.15914
   0  -3  17 7289.34  339.90   1 0.71113-0.61667-0.70128 0.49371-0.04985 0.61314
   0  -3 -18 1165.08  192.48   1-0.73432 0.63384 0.54248-0.75001-0.40802-0.18900
   0  -3  18 1147.70  173.82   1 0.71742-0.61741-0.69634 0.48878-0.01992 0.61635
   0  -3 -19  339.05   84.79   1-0.73351 0.62745 0.54010-0.74763-0.41260-0.21759
   0  -3  19  326.63   94.60   1 0.72281-0.61725-0.69098 0.48341 0.00883 0.62073
   0  -3 -20 1249.24  193.33   1-0.73248 0.62084 0.53711-0.74464-0.41829-0.24507
   0  -3  20 1209.77  204.33   1 0.72741-0.61629-0.68521 0.47764 0.03657 0.62612
   0  -3 -21  417.53  122.61   1-0.73123 0.61401 0.53357-0.74110-0.42495-0.27157
   0  -3  21  400.39  181.06   1 0.73087-0.61403-0.67956 0.47208 0.06332 0.63253
   0   3 -22  195.60  156.88   1-0.74225 0.61958 0.66389-0.45639-0.09111-0.63860
   0  -3 -22   10.08   66.97   1-0.72977 0.60696 0.52952-0.73705-0.43247-0.29723
   0  -3  22   73.53  111.27   1 0.73413-0.61172-0.67308 0.46560 0.08945 0.63953
   0   3 -23  452.16  123.09   1-0.74471 0.61647 0.65713-0.44962-0.11652-0.64636
   0  -3 -23  351.71   67.68   1-0.72808 0.59969 0.52499-0.73252-0.44075-0.32212
   0  -3  23  237.84  118.66   1 0.73679-0.60882-0.66627 0.45879 0.11494 0.64718
   0   3 -24   43.35   42.17   1-0.74662 0.61281 0.65004-0.44254-0.14137-0.65468
   0  -3 -24   -9.37  114.16   1-0.72618 0.59220 0.52002-0.72755-0.44970-0.34633
   0  -3  24  243.03  184.67   1 0.73889-0.60536-0.65913 0.45165 0.13987 0.65539
   0   3 -25 4880.72  793.71   1-0.74801 0.60862 0.64265-0.43514-0.16573-0.66348
   0  -3 -25 5771.99  583.68   1-0.72404 0.58448 0.51462-0.72215-0.45926-0.36995
   0  -3  25 7825.22  497.88   1 0.74048-0.60138-0.65167 0.44419 0.16430 0.66409
   0   3 -26    8.38   82.20   1-0.74891 0.60395 0.63493-0.42743-0.18968-0.67271
   0  -3 -26  141.02   74.27   1-0.72167 0.57653 0.50880-0.71633-0.46936-0.39301
   0  -3  26   42.29  118.55   1 0.74157-0.59691-0.64390 0.43642 0.18830 0.67322
   0  -4   0163385.2  704.34   1-0.21994 0.21994-0.13835-0.13835-0.96565 0.96565
   0  -4   134193.02  323.71   1-0.09364 0.09927-0.25758-0.01917-0.96170 0.99487
   0  -4  -2  566.50  119.15   1-0.43226 0.42109 0.08627-0.36282-0.89761 0.83128
   0  -4   2  416.72  101.92   1 0.03543-0.02437-0.36713 0.09057-0.92949 0.99559
   0  -4  -3122212.1  665.48   1-0.50842 0.49166 0.17729-0.45385-0.84265 0.74315
   0  -4   3121781.7  633.33   1 0.15249-0.13588-0.45969 0.18325-0.87488 0.97362
   0  -4  -416135.70  266.09   1-0.56572 0.54337 0.25143-0.52799-0.78532 0.65266
   0  -4   416676.14  261.53   1 0.25582-0.23367-0.53471 0.25856-0.80537 0.93730
   0  -4  -5 1485.24  181.44   1-0.60749 0.57962 0.31011-0.58676-0.73128 0.56545
   0  -4   5 2196.84  136.06   1 0.34340-0.31571-0.59043 0.31428-0.73038 0.89529
   0  -4  -6 6542.95  215.56   1-0.63815 0.60471 0.35618-0.63284-0.68255 0.48356
   0  -4   6 8052.84  258.55   1 0.41341-0.38018-0.63176 0.35571-0.65571 0.85377
   0  -4  -7 9223.73  241.94   1-0.66086 0.62182 0.39183-0.66851-0.64009 0.40794
   0  -4   710328.08  265.88   1 0.47110-0.43234-0.66058 0.38453-0.58454 0.81560
   0  -4  -8  977.22  109.70   1-0.67708 0.63247 0.41969-0.69637-0.60448 0.33917
   0  -4   8 1086.65  125.88   1 0.51606-0.47183-0.68135 0.40522-0.51906 0.78304
   0  -4  -9 1312.58  128.62   1-0.68896 0.63877 0.44133-0.71801-0.57494 0.27645
   0  -4   9 1927.92  181.00   1 0.55397-0.50421-0.69514 0.41901-0.45813 0.75511
   0  -4 -10 5599.99  389.04   1-0.69769 0.64192 0.45810-0.73478-0.55078 0.21913
   0  -4  10 5992.50  239.26   1 0.58357-0.52797-0.70487 0.42853-0.40323 0.73321
   0  -4 -11  574.26  172.83   1-0.70412 0.64278 0.47105-0.74772-0.53133 0.16652
   0  -4  11  653.99  102.56   1 0.60935-0.54819-0.71057 0.43423-0.35180 0.71478
   0  -4 -12  -71.22   80.31   1-0.70924 0.64226 0.48069-0.75740-0.51565 0.11762
   0  -4  12   44.26   74.39   1 0.63090-0.56418-0.71368 0.43734-0.30432 0.70030
   0  -4 -13 2855.71  279.70   1-0.71268 0.64011 0.48813-0.76484-0.50379 0.07260
   0  -4  13 3445.85  214.39   1 0.64802-0.57516-0.71592 0.43902-0.25985 0.69024
   0  -4 -14 6649.28  407.01   1-0.71512 0.63697 0.49356-0.77027-0.49495 0.03059
   0  -4  14 7717.57  315.51   1 0.66339-0.58493-0.71559 0.43870-0.21869 0.68219
   0  -4 -15 1966.03  294.16   1-0.71679 0.63305 0.49734-0.77405-0.48872-0.00879
   0  -4  15 2507.74  188.13   1 0.67654-0.59247-0.71405 0.43715-0.18004 0.67665
   0  -4 -16  982.21  156.33   1-0.71783 0.62851 0.49973-0.77643-0.48475-0.04594
   0  -4  16 1002.89  163.45   1 0.68784-0.59817-0.71152 0.43463-0.14354 0.67326
   0  -4 -17  594.82   86.50   1-0.71834 0.62345 0.50093-0.77764-0.48274-0.08112
   0  -4  17  526.16  146.58   1 0.69701-0.60256-0.70892 0.43217-0.10763 0.67092
   0  -4 -18 1085.83  174.27   1-0.71842 0.61794 0.50111-0.77782-0.48243-0.11459
   0  -4  18 1258.83  174.85   1 0.70541-0.60540-0.70485 0.42810-0.07454 0.67097
   0  -4 -19 1999.93  266.69   1-0.71812 0.61205 0.50040-0.77711-0.48363-0.14657
   0  -4  19 2366.62  236.39   1 0.71267-0.60710-0.70018 0.42343-0.04284 0.67240
   0  -4 -20 4191.78  686.32   1-0.71747 0.60582 0.49889-0.77560-0.48614-0.17722
   0  -4  20 4822.48  347.93   1 0.71891-0.60778-0.69499 0.41823-0.01233 0.67503
   0  -4 -21  988.41  156.71   1-0.71650 0.59927 0.49668-0.77339-0.48982-0.20671
   0  -4  21 1546.61  264.13   1 0.72425-0.60757-0.68931 0.41255 0.01712 0.67870
   0  -4 -22  627.05  126.23   1-0.71524 0.59243 0.49382-0.77053-0.49453-0.23516
   0  -4  22  449.62  178.66   1 0.72879-0.60656-0.68320 0.40644 0.04568 0.68329
   0   4 -23  456.53  162.66   1-0.74051 0.61227 0.66776-0.39108-0.07574-0.68714
   0  -4 -23  735.38  126.33   1-0.71369 0.58530 0.49037-0.76707-0.50017-0.26269
   0  -4  23  841.58  209.03   1 0.73217-0.60420-0.67716 0.40052 0.07327 0.68885
   0   4 -24  413.11  173.14   1-0.74343 0.60962 0.66087-0.38420-0.10269-0.69335
   0  -4 -24  467.18  148.50   1-0.71187 0.57790 0.48636-0.76307-0.50664-0.28940
   0  -4  24  750.13  205.06   1 0.73532-0.60179-0.67024 0.39360 0.10033 0.69492
   0   4 -25  129.48   70.61   1-0.74573 0.60635 0.65361-0.37694-0.12905-0.70017
   0  -4 -25  360.47  133.14   1-0.70978 0.57022 0.48183-0.75854-0.51385-0.31536
   0  -4  25  219.96  115.80   1 0.73785-0.59875-0.66294 0.38630 0.12678 0.70161
   0   4 -26  127.24   81.48   1-0.74745 0.60249 0.64600-0.36933-0.15487-0.70752
   0  -4 -26  464.22  123.52   1-0.70705 0.56206 0.47714-0.75381-0.52192-0.34035
   0  -4  26   34.58  104.10   1 0.73979-0.59512-0.65528 0.37864 0.15269 0.70884
   0  -5   0  512.32  136.32   1-0.18386 0.18386-0.17294-0.17294-0.96761 0.96761
   0  -5  -1  338.41   76.02   1-0.28018 0.27458-0.07814-0.26758-0.95676 0.92358
   0  -5   1  552.90   95.52   1-0.08190 0.08753-0.26797-0.07797-0.95993 0.99310
   0  -5  -331265.00  416.95   1-0.43652 0.41976 0.09117-0.43687-0.89506 0.79557
   0  -5   331201.49  418.10   1 0.12124-0.10463-0.43623 0.09068-0.89162 0.99036
   0  -5  -433132.55  454.64   1-0.49497 0.47262 0.16067-0.50636-0.85392 0.72125
   0  -5   432423.31  415.65   1 0.21369-0.19154-0.50376 0.15821-0.83699 0.96864
   0  -5  -5 8766.31  237.61   1-0.54146 0.51353 0.21933-0.56502-0.81161 0.64577
   0  -5   5 9120.45  261.33   1 0.29390-0.26620-0.55968 0.21450-0.77483 0.93974
   0  -5  -6  371.02   81.91   1-0.57790 0.54438 0.26801-0.61371-0.77084 0.57184
   0  -5   6  552.44   90.10   1 0.36432-0.33109-0.60279 0.25761-0.70986 0.90775
   0  -5  -736349.64  618.56   1-0.60590 0.56688 0.30780-0.65362-0.73357 0.50141
   0  -5   738572.82  634.89   1 0.42257-0.38380-0.63659 0.29153-0.64512 0.87618
   0  -5  -8  -16.48   56.47   1-0.62789 0.58330 0.34040-0.68621-0.69990 0.43458
   0  -5   8   84.87   62.73   1 0.47104-0.42681-0.66192 0.31676-0.58306 0.84704
   0  -5  -9  140.39   62.53   1-0.64494 0.59477 0.36686-0.71267-0.67041 0.37192
   0  -5   9  190.30   83.67   1 0.51323-0.46346-0.68022 0.33506-0.52334 0.82032
   0  -5 -10 7992.43  288.77   1-0.65857 0.60281 0.38803-0.73388-0.64475 0.31310
   0  -5  10 8896.12  302.52   1 0.54868-0.49339-0.69338 0.34822-0.46708 0.79706
   0  -5 -11 5499.98  288.83   1-0.66881 0.60747 0.40527-0.75112-0.62324 0.25843
   0  -5  11 5925.19  262.79   1 0.57709-0.51593-0.70315 0.35772-0.41537 0.77836
   0  -5 -12  297.11  102.75   1-0.67674 0.60982 0.41909-0.76494-0.60529 0.20731
   0  -5  12  482.92  114.15   1 0.60252-0.53580-0.70925 0.36383-0.36595 0.76193
   0  -5 -1315411.50  437.07   1-0.68286 0.61036 0.43006-0.77591-0.59054 0.15940
   0  -5  1316861.47  414.72   1 0.62420-0.55192-0.71290 0.36748-0.31957 0.74855
   0  -5 -14 1146.29  156.06   1-0.68753 0.60946 0.43867-0.78452-0.57866 0.11436
   0  -5  14 1722.84  173.17   1 0.64181-0.56335-0.71567 0.36956-0.27545 0.73895
   0  -5 -15 4757.31  320.25   1-0.69105 0.60740 0.44528-0.79113-0.56935 0.07188
   0  -5  15 5645.55  276.71   1 0.65775-0.57369-0.71587 0.36976-0.23424 0.73085
   0  -5 -16 4525.87  341.20   1-0.69363 0.60440 0.45019-0.79604-0.56231 0.03167
   0  -5  16 4651.77  280.14   1 0.67153-0.58186-0.71479 0.36868-0.19520 0.72491
   0  -5 -17  219.95  172.49   1-0.69542 0.60061 0.45366-0.79950-0.55729-0.00650
   0  -5  17   92.44  139.64   1 0.68347-0.58820-0.71265 0.36653-0.15805 0.72087
   0  -5 -18  877.41  167.74   1-0.69655 0.59617 0.45586-0.80171-0.55408-0.04288
   0  -5  18  684.57  164.63   1 0.69384-0.59297-0.70961 0.36349-0.12258 0.71851
   0  -5 -19 2050.46  373.45   1-0.69711 0.59115 0.45696-0.80281-0.55246-0.07766
   0  -5  19 2355.85  247.67   1 0.70227-0.59671-0.70652 0.36057-0.08731 0.71688
   0  -5 -20 1438.77  262.32   1-0.69717 0.58564 0.45708-0.80293-0.55228-0.11100
   0  -5  20 1282.57  244.94   1 0.71007-0.59895-0.70200 0.35605-0.05456 0.71727
   0  -5 -21  919.59  182.23   1-0.69679 0.57968 0.45633-0.80218-0.55338-0.14307
   0  -5  21  872.33  198.72   1 0.71681-0.60013-0.69688 0.35093-0.02296 0.71880
   0  -5 -22   54.30   57.17   1-0.69600 0.57331 0.45479-0.80064-0.55563-0.17398
   0  -5  22  189.22  177.01   1 0.72260-0.60036-0.69121 0.34527 0.00762 0.72134
   0  -5 -23  293.54  137.99   1-0.69484 0.56658 0.45254-0.79838-0.55892-0.20386
   0  -5  23  334.49  145.63   1 0.72753-0.59974-0.68505 0.33910 0.03731 0.72478
   0  -5 -24 3121.60  357.62   1-0.69333 0.55948 0.44962-0.79546-0.56314-0.23280
   0  -5  24 3483.03  345.73   1 0.73123-0.59770-0.67892 0.33311 0.06602 0.72923
   0   5 -25   65.18  108.24   1-0.74290 0.60351 0.66228-0.31644-0.09735-0.73187
   0  -5 -25  208.44  142.70   1-0.69147 0.55206 0.44608-0.79193-0.56821-0.26090
   0  -5  25  227.68  154.68   1 0.73466-0.59556-0.67184 0.32604 0.09424 0.73415
   0  -6   0 1158.51  126.41   1-0.14685 0.14685-0.20753-0.20753-0.96714 0.96714
   0  -6  -164695.30  884.08   1-0.22962 0.22408-0.12892-0.28615-0.96470 0.93161
   0  -6   163542.67  863.85   1-0.06113 0.06676-0.28616-0.12898-0.95622 0.98939
   0  -6  -2   90.36   44.48   1-0.30517 0.29397-0.05257-0.36229-0.95084 0.88448
   0  -6   2  163.72  100.90   1 0.02747-0.01641-0.36065-0.05419-0.93229 0.99839
   0  -6  -3 2508.11  160.97   1-0.37174 0.35495 0.01801-0.43288-0.92816 0.82862
   0  -6   3 2382.28  137.28   1 0.11417-0.09758-0.42917 0.01433-0.89597 0.99512
   0  -6  -463447.58  945.03   1-0.42820 0.40586 0.08161-0.49645-0.89998 0.76733
   0  -6   463608.38  869.66   1 0.19241-0.17026-0.48872 0.07406-0.85095 0.98261
   0  -6  -5 2723.72  190.96   1-0.47606 0.44813 0.13772-0.55255-0.86855 0.70274
   0  -6   5 2881.16  187.11   1 0.26512-0.23743-0.54091 0.12669-0.79819 0.96310
   0  -6  -610428.60  316.36   1-0.51564 0.48212 0.18633-0.60117-0.83629 0.63729
   0  -6   610650.47  295.99   1 0.33165-0.29842-0.58332 0.16910-0.74144 0.93933
   0  -6  -7 3254.59  194.99   1-0.54799 0.50889 0.22786-0.64270-0.80484 0.57268
   0  -6   7 3196.30  183.19   1 0.38856-0.34980-0.61821 0.20413-0.68324 0.91431
   0  -6  -8  271.73   61.66   1-0.57427 0.52958 0.26304-0.67788-0.77525 0.50991
   0  -6   8  259.32   83.88   1 0.43936-0.39506-0.64521 0.23113-0.62502 0.88909
   0  -6  -9 2052.36  173.41   1-0.59518 0.54502 0.29245-0.70743-0.74848 0.44998
   0  -6   9 2045.57  185.96   1 0.48145-0.43168-0.66667 0.25248-0.56898 0.86596
   0  -6 -10 1901.21  338.92   1-0.61236 0.55663 0.31722-0.73220-0.72413 0.39247
   0  -6  10 2105.86  185.31   1 0.51922-0.46393-0.68260 0.26841-0.51425 0.84422
   0  -6 -1125865.08  510.83   1-0.62622 0.56490 0.33785-0.75283-0.70263 0.33781
   0  -6  1127833.66  507.21   1 0.55173-0.49091-0.69440 0.28021-0.46194 0.82491
   0  -6 -12 9772.14  377.06   1-0.63736 0.57047 0.35494-0.76992-0.68394 0.28595
   0  -6  1210730.38  367.07   1 0.57823-0.51151-0.70346 0.28895-0.41325 0.80923
   0  -6 -13 5215.14  277.62   1-0.64629 0.57383 0.36902-0.78399-0.66792 0.23677
   0  -6  13 6233.89  290.21   1 0.60249-0.53021-0.70925 0.29474-0.36600 0.79498
   0  -6 -14  227.69  152.77   1-0.65342 0.57538 0.38050-0.79548-0.65441 0.19009
   0  -6  14  163.44  138.98   1 0.62351-0.54567-0.71281 0.29830-0.32112 0.78310
   0  -6 -15 5571.29  318.66   1-0.65946 0.57581 0.38951-0.80453-0.64294 0.14547
   0  -6  15 6784.20  317.06   1 0.64082-0.55676-0.71562 0.30028-0.27788 0.77449
   0  -6 -16 1225.22  192.10   1-0.66386 0.57463 0.39685-0.81187-0.63387 0.10323
   0  -6  16 1261.56  191.54   1 0.65665-0.56698-0.71591 0.30057-0.23721 0.76692
   0  -6 -17  -80.52  114.59   1-0.66721 0.57240 0.40253-0.81755-0.62673 0.06293
   0  -6  17   43.04   99.09   1 0.67046-0.57519-0.71493 0.29959-0.19835 0.76118
   0  -6 -18  318.08  201.51   1-0.66967 0.56929 0.40675-0.82177-0.62135 0.02439
   0  -6  18  151.51  112.05   1 0.68253-0.58165-0.71287 0.29753-0.16114 0.75707
   0  -6 -19 2201.37  358.50   1-0.67137 0.56541 0.40968-0.82470-0.61758-0.01254
   0  -6  19 2465.36  278.97   1 0.69306-0.58658-0.70988 0.29454-0.12539 0.75442
   0  -6 -20  575.37  188.24   1-0.67241 0.56087 0.41148-0.82650-0.61525-0.04803
   0  -6  20  626.10  187.69   1 0.70166-0.59054-0.70683 0.29169-0.08974 0.75244
   0  -6 -21  189.27  125.67   1-0.67285 0.55574 0.41226-0.82727-0.61425-0.08220
   0  -6  21  118.80  101.33   1 0.70965-0.59297-0.70228 0.28714-0.05644 0.75228
   0  -6 -22  568.07  168.51   1-0.67276 0.55008 0.41211-0.82712-0.61444-0.11517
   0  -6  22  597.34  215.01   1 0.71656-0.59433-0.69709 0.28195-0.02420 0.75317
   0  -6 -23  358.05  178.22   1-0.67220 0.54393 0.41112-0.82613-0.61573-0.14705
   0  -6  23  218.28  144.67   1 0.72251-0.59472-0.69131 0.27618 0.00710 0.75500
   0  -6 -24  184.54   98.16   1-0.67118 0.53734 0.40935-0.82437-0.61801-0.17794
   0  -6  24  147.29  112.72   1 0.72757-0.59422-0.68500 0.26986 0.03756 0.75767
   0  -7   0    1.36   57.41   1-0.11088 0.11088-0.24216-0.24216-0.96387 0.96387
   0  -7  -1 1851.67  153.66   1-0.18159 0.17605-0.17509-0.30916-0.96765 0.93457
   0  -7   1 1709.74  140.54   1-0.03481 0.04044-0.30883-0.17550-0.95047 0.98364
   0  -7  -2 2989.60  182.65   1-0.24928 0.23819-0.10957-0.37468-0.96221 0.89603
   0  -7   2 3254.27  180.17   1 0.04181-0.03075-0.37230-0.11167-0.92716 0.99326
   0  -7  -3 6233.63  260.68   1-0.31100 0.29421-0.04653-0.43748-0.94926 0.84972
   0  -7   3 6565.32  239.60   1 0.11739-0.10080-0.43163-0.05235-0.89437 0.99352
   0  -7  -4 2527.33  186.93   1-0.36563 0.34325 0.01138-0.49540-0.93068 0.79796
   0  -7   4 2411.43  167.72   1 0.18637-0.16422-0.48439 0.00062-0.85476 0.98642
   0  -7  -5 7766.87  277.78   1-0.41263 0.38470 0.06392-0.54789-0.90865 0.74284
   0  -7   5 7631.44  254.91   1 0.25179-0.22409-0.53200 0.04874-0.80843 0.97334
   0  -7  -6 1079.44  139.92   1-0.45349 0.41997 0.11092-0.59489-0.88432 0.68535
   0  -7   6 1108.23  116.05   1 0.31348-0.28025-0.57209 0.08883-0.75791 0.95580
   0  -7  -7  262.36  108.33   1-0.48818 0.44908 0.15237-0.63635-0.85933 0.62719
   0  -7   7  250.22   72.62   1 0.36746-0.32870-0.60622 0.12313-0.70530 0.93637
   0  -7  -8  224.36  113.12   1-0.51744 0.47275 0.18859-0.67257-0.83467 0.56934
   0  -7   8  223.04   56.36   1 0.41702-0.37272-0.63367 0.15059-0.65156 0.91564
   0  -7  -9 8146.08  298.46   1-0.54192 0.49164 0.21993-0.70390-0.81114 0.51264
   0  -7   9 8460.85  312.21   1 0.46079-0.41095-0.65572 0.17263-0.59808 0.89516
   0  -7 -10 1270.26  141.52   1-0.56233 0.50646 0.24688-0.73085-0.78919 0.45753
   0  -7  10 1465.97  173.72   1 0.49747-0.44218-0.67369 0.19047-0.54649 0.87646
   0  -7 -11   51.10   92.91   1-0.57929 0.51784 0.26993-0.75391-0.76912 0.40428
   0  -7  11  384.78  126.04   1 0.53119-0.47037-0.68717 0.20395-0.49560 0.85857
   0  -7 -12   57.47  100.64   1-0.59299 0.52610 0.28935-0.77349-0.75141 0.35342
   0  -7  12  -55.45   84.21   1 0.56071-0.49436-0.69730 0.21407-0.44651 0.84248
   0  -7 -13 2117.23  244.76   1-0.60461 0.53215 0.30594-0.79008-0.73541 0.30426
   0  -7  13 2182.59  193.02   1 0.58503-0.51275-0.70524 0.22165-0.40045 0.82942
   0  -7 -14  315.43   91.84   1-0.61417 0.53613 0.31987-0.80401-0.72143 0.25711
   0  -7  14  407.37  121.93   1 0.60770-0.52987-0.71027 0.22667-0.35524 0.81722
   0  -7 -15  105.49  117.54   1-0.62198 0.53837 0.33148-0.81562-0.70940 0.21191
   0  -7  15  179.51  123.76   1 0.62759-0.54419-0.71332 0.22972-0.31191 0.80689
   0  -7 -16 3116.94  305.28   1-0.62831 0.53913 0.34103-0.82517-0.69922 0.16856
   0  -7  16 3619.18  290.34   1 0.64411-0.55444-0.71579 0.23122-0.26973 0.79945
   0  -7 -17 1722.05  225.85   1-0.63337 0.53862 0.34878-0.83292-0.69078 0.12696
   0  -7  17 2577.76  272.70   1 0.65937-0.56410-0.71581 0.23125-0.22983 0.79265
   0  -7 -18 1588.16  231.05   1-0.63735 0.53702 0.35493-0.83907-0.68396 0.08697
   0  -7  18 1617.42  225.23   1 0.67278-0.57191-0.71463 0.23006-0.19146 0.78739
   0  -7 -19  -76.14  133.81   1-0.64037 0.53446 0.35965-0.84379-0.67865 0.04850
   0  -7  19   42.99   88.51   1 0.68456-0.57808-0.71239 0.22782-0.15448 0.78352
   0  -7 -20  219.51  134.66   1-0.64256 0.53108 0.36310-0.84724-0.67473 0.01142
   0  -7  20  456.07  162.12   1 0.69489-0.58281-0.70922 0.22466-0.11878 0.78093
   0  -7 -21  -25.94  125.54   1-0.64401 0.52696 0.36539-0.84953-0.67210-0.02437
   0  -7  21   29.37   89.70   1 0.70333-0.58665-0.70598 0.22166-0.08307 0.77891
   0  -7 -22  562.41  239.18   1-0.64480 0.52218 0.36665-0.85079-0.67066-0.05898
   0  -7  22  304.57  157.90   1 0.71120-0.58896-0.70123 0.21691-0.04953 0.77850
   0  -7 -23  103.29  132.96   1-0.64499 0.51679 0.36695-0.85109-0.67031-0.09249
   0  -7  23   62.13  104.79   1 0.71801-0.59022-0.69581 0.21149-0.01693 0.77904
   0  -8   014813.45  349.70   1-0.07191 0.07191-0.27676-0.27676-0.95824 0.95824
   0  -8  -1 1529.39  144.48   1-0.13695 0.13132-0.21849-0.33502-0.96617 0.93301
   0  -8   1 1664.25  158.09   1-0.00483 0.01036-0.33394-0.21917-0.94257 0.97562
   0  -8  -2 1375.63  155.73   1-0.19622 0.18513-0.16119-0.39223-0.96721 0.90103
   0  -8   2 1268.51  167.49   1 0.06287-0.05181-0.38918-0.16393-0.91900 0.98510
   0  -8  -3 2943.11  205.37   1-0.25310 0.23647-0.10578-0.44765-0.96163 0.86236
   0  -8   3 3391.37  202.92   1 0.12677-0.11016-0.44043-0.11244-0.88879 0.98753
   0  -8  -412897.94  383.41   1-0.30526 0.28287-0.05247-0.50068-0.95082 0.81810
   0  -8   413393.33  341.57   1 0.19104-0.16889-0.48774-0.06513-0.85182 0.98347
   0  -8  -518716.45  458.24   1-0.35170 0.32372-0.00363-0.54953-0.93610 0.77020
   0  -8   519133.33  439.86   1 0.24991-0.22222-0.53074-0.02155-0.80984 0.97475
   0  -8  -6 1611.35  170.63   1-0.39212 0.35860 0.04099-0.59410-0.91899 0.72002
   0  -8   6 1525.89  155.89   1 0.30671-0.27348-0.56784 0.01554-0.76386 0.96175
   0  -8  -7  327.12   87.84   1-0.42799 0.38888 0.08137-0.63448-0.90011 0.66797
   0  -8   7  708.53  142.24   1 0.35885-0.32008-0.59959 0.04730-0.71533 0.94620
   0  -8  -822895.25  514.19   1-0.45906 0.41437 0.11747-0.67059-0.88060 0.61530
   0  -8   822354.22  492.92   1 0.40450-0.36020-0.62697 0.07487-0.66579 0.92986
   0  -8  -9  533.15  148.77   1-0.48580 0.43553 0.14948-0.70260-0.86118 0.56272
   0  -8   9  718.74  192.12   1 0.44708-0.39724-0.64906 0.09696-0.61549 0.91257
   0  -8 -1047707.51  764.48   1-0.50873 0.45287 0.17768-0.73080-0.84238 0.51072
   0  -8  1047577.20  937.39   1 0.48332-0.42803-0.66751 0.11526-0.56640 0.89638
   0  -8 -11 1696.03  191.39   1-0.52826 0.46680 0.20231-0.75543-0.82462 0.45979
   0  -8  11 1717.65  183.00   1 0.51721-0.45639-0.68181 0.12955-0.51732 0.88029
   0  -8 -12 1658.44  206.68   1-0.54483 0.47779 0.22373-0.77684-0.80814 0.41014
   0  -8  12 2146.71  212.57   1 0.54728-0.48093-0.69290 0.14064-0.46943 0.86540
   0  -8 -13 1638.88  217.93   1-0.55885 0.48623 0.24223-0.79535-0.79309 0.36193
   0  -8  13 1577.20  197.42   1 0.57236-0.50008-0.70183 0.14915-0.42405 0.85303
   0  -8 -14 1593.06  237.38   1-0.57066 0.49245 0.25813-0.81124-0.77955 0.31522
   0  -8  14 1690.11  195.84   1 0.59598-0.51814-0.70786 0.15517-0.37911 0.84109
   0  -8 -15  156.62  122.25   1-0.58018 0.49658 0.27148-0.82479-0.76790 0.27041
   0  -8  15    3.45   78.94   1 0.61689-0.53349-0.71185 0.15917-0.33571 0.83069
   0  -8 -16  601.11  160.87   1-0.58843 0.49925 0.28295-0.83625-0.75741 0.22676
   0  -8  16 1066.58  200.47   1 0.63538-0.54642-0.71410 0.16142-0.29383 0.82180
   0  -8 -17  157.60  128.58   1-0.59524 0.50048 0.29253-0.84583-0.74840 0.18458
   0  -8  17  211.61  124.77   1 0.65079-0.55552-0.71596 0.16217-0.25271 0.81553
   0  -8 -18    9.36   59.60   1-0.60078 0.50045 0.30043-0.85373-0.74081 0.14382
   0  -8  18    9.93   74.19   1 0.66518-0.56430-0.71546 0.16167-0.21365 0.80958
   0  -8 -19 1035.03  280.93   1-0.60521 0.49930 0.30680-0.86010-0.73456 0.10441
   0  -8  19  594.55  187.22   1 0.67788-0.57140-0.71381 0.16003-0.17587 0.80491
   0  -8 -20  371.57  188.51   1-0.60865 0.49718 0.31180-0.86511-0.72959 0.06627
   0  -8  20  479.69  172.82   1 0.68908-0.57700-0.71116 0.15737-0.13929 0.80143
   0  -8 -21  814.68  187.16   1-0.61123 0.49418 0.31556-0.86886-0.72582 0.02933
   0  -8  21  993.90  200.71   1 0.69831-0.58163-0.70837 0.15486-0.10273 0.79857
   0  -9   0  192.26  115.81   1-0.03185 0.03185-0.31135-0.31135-0.94975 0.94975
   0  -9  -1 5345.75  248.56   1-0.09065 0.08502-0.26024-0.36247-0.96127 0.92810
   0  -9   1 5051.41  456.66   1 0.02824-0.02271-0.36128-0.26097-0.93202 0.96507
   0  -9  -2   -0.62   69.03   1-0.14465 0.13357-0.20956-0.41305-0.96703 0.90085
   0  -9   2   39.60   77.75   1 0.08880-0.07774-0.40960-0.21265-0.90792 0.97402
   0  -9  -3 2317.06  195.64   1-0.19750 0.18088-0.15996-0.46264-0.96716 0.86789
   0  -9   3 2587.92  190.58   1 0.14571-0.12910-0.45465-0.16733-0.87866 0.97741
   0  -9  -4  125.71   84.09   1-0.24646 0.22430-0.11236-0.51025-0.96261 0.83025
   0  -9   4  145.70   67.10   1 0.20359-0.18144-0.49666-0.12532-0.84372 0.97538
   0  -9  -5 6752.11  294.10   1-0.29170 0.26372-0.06640-0.55590-0.95419 0.78830
   0  -9   5 6697.30  277.77   1 0.25670-0.22901-0.53530-0.08602-0.80470 0.96961
   0  -9  -6 3789.12  231.70   1-0.33221 0.29863-0.02434-0.59796-0.94288 0.74381
   0  -9   6 3773.63  225.47   1 0.30890-0.27567-0.56922-0.05210-0.76194 0.95983
   0  -9  -7 1769.59  196.03   1-0.36840 0.32923 0.01438-0.63669-0.92955 0.69729
   0  -9   7 2157.54  176.70   1 0.35745-0.31868-0.59878-0.02254-0.71672 0.94759
   0  -9  -8 1397.55  209.19   1-0.39990 0.35521 0.04963-0.67188-0.91521 0.64991
   0  -9   8 1080.19  215.29   1 0.40037-0.35607-0.62473 0.00362-0.67037 0.93444
   0  -9  -9 3416.96  567.38   1-0.42814 0.37786 0.08154-0.70380-0.90002 0.60156
   0  -9   9 2978.81  581.64   1 0.44115-0.39131-0.64611 0.02499-0.62283 0.91991
   0  -9 -10  855.09  181.29   1-0.45285 0.39698 0.11016-0.73242-0.88475 0.55313
   0  -9  10  799.11  195.31   1 0.47624-0.42094-0.66431 0.04302-0.57608 0.90606
   0  -9 -1111282.90  422.44   1-0.47435 0.41290 0.13566-0.75792-0.86981 0.50503
   0  -9  1111812.46  398.25   1 0.50955-0.44872-0.67873 0.05744-0.52884 0.89181
   0  -9 -12  -28.99   93.19   1-0.49302 0.42598 0.15827-0.78053-0.85549 0.45750
   0  -9  12   30.44   75.34   1 0.53945-0.47309-0.69017 0.06888-0.48234 0.87831
   0  -9 -13   86.72  106.63   1-0.50910 0.43648 0.17814-0.80040-0.84206 0.41090
   0  -9  13  333.26  178.58   1 0.56464-0.49236-0.69956 0.07780-0.43792 0.86690
   0  -9 -14  214.68  113.52   1-0.52292 0.44471 0.19553-0.81778-0.82964 0.36531
   0  -9  14  307.78  136.03   1 0.58860-0.51076-0.70613 0.08436-0.39359 0.85556
   0  -9 -15 1282.92  237.94   1-0.53474 0.45094 0.21063-0.83289-0.81833 0.32084
   0  -9  15 1297.55  177.93   1 0.60998-0.52658-0.71069 0.08892-0.35048 0.84546
   0  -9 -16  -13.97  101.25   1-0.54478 0.45540 0.22366-0.84592-0.80819 0.27753
   0  -9  16  238.83  139.32   1 0.62903-0.54007-0.71348 0.09172-0.30863 0.83660
   0  -9 -17 2303.35  267.84   1-0.55326 0.45829 0.23480-0.85706-0.79922 0.23539
   0  -9  17 2321.49  239.44   1 0.64509-0.54981-0.71583 0.09282-0.26728 0.83011
   0  -9 -18  342.34  127.54   1-0.56034 0.45979 0.24422-0.86647-0.79143 0.19443
   0  -9  18  514.57  191.28   1 0.66008-0.55920-0.71578 0.09277-0.22788 0.82381
   0  -9 -19 1236.79  246.77   1-0.56619 0.46004 0.25207-0.87432-0.78478 0.15462
   0  -9  19 1217.37  227.00   1 0.67339-0.56691-0.71454 0.09153-0.18963 0.81867
   0  -9 -20   42.64  131.87   1-0.57092 0.45919 0.25848-0.88073-0.77924 0.11591
   0  -9  20   41.97  100.62   1 0.68517-0.57309-0.71223 0.08923-0.15247 0.81462
   0 -10   0  274.45  168.64   1 0.00929-0.00929-0.34570-0.34570-0.93829 0.93829
   0 -10  -1  294.61   94.65   1-0.04426 0.03864-0.30074-0.39116-0.95267 0.91950
   0 -10   1  370.79  118.18   1 0.06379-0.05826-0.38991-0.30148-0.91863 0.95168
   0 -10  -2  431.77  112.53   1-0.09607 0.08481-0.25542-0.43648-0.96204 0.89570
   0 -10   2  687.03  148.73   1 0.11853-0.10747-0.43250-0.25890-0.89380 0.95990
   0 -10  -3 8129.17  342.49   1-0.14306 0.12643-0.21103-0.48076-0.96695 0.86768
   0 -10   3 8354.69  319.02   1 0.16966-0.15305-0.47230-0.21879-0.86495 0.96369
   0 -10  -4  816.63  174.53   1-0.18934 0.16718-0.16774-0.52405-0.96747 0.83511
   0 -10   4  767.26  160.05   1 0.22216-0.20001-0.50966-0.18143-0.83119 0.96284
   0 -10  -5  211.13  121.91   1-0.23232 0.20461-0.12628-0.56550-0.96440 0.79895
   0 -10   5  171.05  124.99   1 0.27023-0.24254-0.54429-0.14606-0.79417 0.95908
   0 -10  -612511.89  424.19   1-0.27234 0.23877-0.08606-0.60539-0.95834 0.75926
   0 -10   612249.37  393.35   1 0.31824-0.28501-0.57506-0.11530-0.75367 0.95156
   0 -10  -7  284.89   90.45   1-0.30835 0.26918-0.04927-0.64217-0.94999 0.71773
   0 -10   7  327.91  132.02   1 0.36143-0.32266-0.60271-0.08740-0.71140 0.94246
   0 -10  -8 1338.58  192.42   1-0.34084 0.29607-0.01521-0.67624-0.93999 0.67455
   0 -10   8 1210.87  240.22   1 0.40336-0.35906-0.62636-0.06376-0.66705 0.93113
   0 -10  -9 7800.45  377.34   1-0.36995 0.31958 0.01606-0.70752-0.92891 0.63029
   0 -10   9 7135.60  756.34   1 0.44201-0.39217-0.64654-0.04358-0.62177 0.91885
   0 -10 -10   58.05  125.64   1-0.39530 0.33943 0.04451-0.73590-0.91747 0.58585
   0 -10  10  347.09  101.90   1 0.47552-0.42023-0.66398-0.02633-0.57706 0.90703
   0 -10 -11   72.85   88.26   1-0.41828 0.35683 0.07031-0.76170-0.90559 0.54080
   0 -10  11   69.02   96.89   1 0.50775-0.44693-0.67799-0.01231-0.53150 0.89448
   0 -10 -12  161.52  127.33   1-0.43854 0.37151 0.09351-0.78490-0.89383 0.49588
   0 -10  12  166.84  113.26   1 0.53696-0.47061-0.68928-0.00103-0.48636 0.88233
   0 -10 -13  231.81  128.55   1-0.45632 0.38370 0.11425-0.80564-0.88244 0.45134
   0 -10  13  301.52  135.42   1 0.56177-0.48949-0.69868 0.00783-0.44299 0.87196
   0 -10 -14  625.48  174.56   1-0.47185 0.39365 0.13267-0.82407-0.87163 0.40736
   0 -10  14  409.86  128.97   1 0.58557-0.50773-0.70538 0.01453-0.39941 0.86138
   0 -10 -15   26.79  105.49   1-0.48536 0.40157 0.14894-0.84034-0.86153 0.36410
   0 -10  15    5.59   74.67   1 0.60696-0.52356-0.71013 0.01928-0.35679 0.85176
   0 -10 -16   53.01  158.21   1-0.49706 0.40768 0.16324-0.85463-0.85221 0.32155
   0 -10  16   74.03   85.57   1 0.62615-0.53719-0.71315 0.02230-0.31519 0.84316
   0 -10 -17   24.91  124.62   1-0.50710 0.41213 0.17565-0.86704-0.84379 0.27996
   0 -10 -18   59.75  122.75   1-0.51565 0.41510 0.18635-0.87774-0.83628 0.23928
   0 -11   0  168.08   85.32   1 0.05171-0.05171-0.38027-0.38027-0.92342 0.92342
   0 -11  -1  777.69  167.48   1 0.00262-0.00815-0.34016-0.42037-0.94036 0.90731
   0 -11   1  499.95  123.18   1 0.10153-0.09600-0.41947-0.34107-0.90207 0.93512
   0 -11  -2 3244.14  266.61   1-0.04537 0.03411-0.29979-0.46130-0.95292 0.88658
   0 -11   2 3391.57  253.35   1 0.14862-0.13754-0.45681-0.30339-0.87705 0.94288
   0 -11  -3 2386.62  230.52   1-0.09147 0.07458-0.25951-0.50157-0.96139 0.86189
   0 -11   3 2496.07  242.57   1 0.19767-0.18106-0.49247-0.26774-0.84758 0.94632
   0 -11  -4  104.85   92.53   1-0.13526 0.11275-0.22003-0.54105-0.96606 0.83339
   0 -11   4  308.40  158.65   1 0.24290-0.22075-0.52599-0.23340-0.81506 0.94699
   0 -11  -5 8471.89  388.96   1-0.17401 0.14630-0.18224-0.57873-0.96773 0.80228
   0 -11   5 9130.59  383.15   1 0.28921-0.26152-0.55667-0.20272-0.77875 0.94366
   0 -11  -611713.22  450.18   1-0.21232 0.17907-0.14573-0.61523-0.96627 0.76773
   0 -11   611187.39  407.24   1 0.33342-0.30019-0.58440-0.17499-0.73979 0.93768
   0 -11  -7 4577.18  325.20   1-0.24768 0.20889-0.11115-0.64982-0.96244 0.73081
   0 -11   7 4425.77  312.53   1 0.37323-0.33447-0.60954-0.14959-0.69939 0.93045
   0 -11  -8  -13.01   81.32   1-0.28075 0.23598-0.07756-0.68304-0.95663 0.69120
   0 -11   8  212.60  137.69   1 0.41240-0.36810-0.63122-0.12791-0.65687 0.92094
   0 -11  -9 3001.19  278.32   1-0.31029 0.25992-0.04727-0.71332-0.94946 0.65085
   0 -11   9 3217.68  290.02   1 0.44879-0.39895-0.64990-0.10923-0.61335 0.91044
   0 -11 -10  -24.70   79.84   1-0.33698 0.28101-0.01930-0.74129-0.94131 0.60951
   0 -11 -11   95.02   87.79   1-0.36097 0.29941 0.00634-0.76694-0.93255 0.56757
   0 -11  11  122.05  101.64   1 0.51130-0.45048-0.67944-0.07990-0.52622 0.88920
   0 -11 -12  188.70  159.88   1-0.38244 0.31528 0.02971-0.79031-0.92350 0.52534
   0 -11 -13  262.45  140.68   1-0.40098 0.32836 0.05084-0.81138-0.91467 0.48356
   0 -11 -14   48.39   96.56   1-0.41793 0.33973 0.06991-0.83045-0.90578 0.44151
   0 -11 -15   58.40   97.32   1-0.43288 0.34909 0.08698-0.84751-0.89724 0.39981
   0 -12  -1   -6.38   68.61   1 0.05018-0.05571-0.37904-0.45063-0.92401 0.89096
   0 -12  -2  105.59   75.52   1 0.00577-0.01683-0.34278-0.48689-0.93939 0.87329
   0 -12  -3  790.66  135.27   1-0.03751 0.02063-0.30652-0.52375-0.95112 0.85161
   0 -12  -4   84.49   76.16   1-0.07893 0.05642-0.27059-0.55969-0.95945 0.82677
   0 -12  -6  579.31  153.38   1-0.15283 0.11958-0.20200-0.62815-0.96738 0.76884
   0 -12  -7 6108.45  367.51   1-0.18741 0.14861-0.16958-0.66057-0.96753 0.73590
   0 -12  -8   71.72   93.10   1-0.21947 0.17514-0.13881-0.69134-0.96569 0.70097
   0 -12  -9   15.98   83.89   1-0.24901 0.19913-0.10983-0.72031-0.96225 0.66444
   0 -12 -10  151.62  125.88   1-0.27680 0.22083-0.08156-0.74818-0.95745 0.62566
   0 -12 -11   71.06   90.79   1-0.30146 0.23990-0.05639-0.77335-0.95180 0.58683
   0 -12 -12   15.99   91.72   1-0.32380 0.25664-0.03319-0.79655-0.94554 0.54738
   1   0 -27  -31.48  129.82   1-0.73760 0.66081 0.55275-0.55275-0.38782-0.50772
   1   0 -26 2220.71  465.59   1-0.73974 0.66853 0.56001-0.56001-0.37304-0.48933
   1   0 -25  -86.86  103.81   1-0.74181 0.67583 0.56701-0.56701-0.35805-0.47089
   1   0 -24 1549.19  296.97   1-0.74346 0.68307 0.57365-0.57365-0.34377-0.45202
   1   0 -23  329.01  106.21   1-0.74488 0.69009 0.57999-0.57999-0.32977-0.43286
   1   0 -22 1025.84  194.38   1-0.74610 0.69691 0.58602-0.58602-0.31608-0.41338
   1   0 -21  -16.00  115.91   1-0.74711 0.70352 0.59173-0.59173-0.30275-0.39356
  -1   0  21  -76.88  125.38   1 0.73980-0.69666-0.60038 0.60038 0.30368 0.39268
   1   0 -20  760.85  176.64   1-0.74795 0.70996 0.59713-0.59713-0.28982-0.37333
  -1   0  20 1056.84  211.08   1 0.74055-0.70297-0.60586 0.60586 0.29070 0.37250
   1   0 -19  139.97  114.37   1-0.74861 0.71621 0.60221-0.60221-0.27734-0.35265
  -1   0  19  112.08  156.05   1 0.74113-0.70911-0.61101 0.61101 0.27816 0.35187
   1   0 -1833431.02  795.62   1-0.74911 0.72232 0.60695-0.60695-0.26539-0.33144
  -1   0  1841325.63  846.89   1 0.74155-0.71509-0.61583 0.61583 0.26615 0.33073
   1   0 -17  -54.84  138.43   1-0.74947 0.72828 0.61134-0.61134-0.25406-0.30962
  -1   0  17   75.30  137.37   1 0.74184-0.72094-0.62029 0.62029 0.25474 0.30897
   1   0 -1614103.03  411.69   1-0.74971 0.73411 0.61535-0.61535-0.24345-0.28707
  -1   0  1616751.71  438.53   1 0.74201-0.72667-0.62438 0.62438 0.24405 0.28651
   1   0 -15  -58.75   90.56   1-0.74984 0.73985 0.61895-0.61895-0.23371-0.26365
  -1   0  15 -139.86  112.66   1 0.74208-0.73230-0.62806 0.62806 0.23421 0.26319
   1   0 -1410740.77  359.41   1-0.74989 0.74550 0.62210-0.62210-0.22502-0.23918
  -1   0  1412612.31  381.06   1 0.74207-0.73785-0.63128 0.63128 0.22540 0.23884
   1   0 -13   -2.71   74.56   1-0.74988 0.75109 0.62474-0.62474-0.21762-0.21343
   1   0 -12  239.70   64.80   1-0.74985 0.75665 0.62678-0.62678-0.21182-0.18607
  -1   0  12 -204.41  105.38   1 0.74218-0.74916-0.63581 0.63581 0.21191 0.18571
   1   0 -11   12.47  208.64   1-0.74981 0.76221 0.62808-0.62808-0.20807-0.15666
   1   0 -10183878.5 1434.76   1-0.74927 0.76746 0.62893-0.62893-0.20742-0.12426
   1   0  -9 -230.86  118.21   1-0.74982 0.77342 0.62761-0.62761-0.20944-0.08898
   1   0  -882660.69  587.42   1-0.74988 0.77908 0.62504-0.62504-0.21678-0.04848
  -1   0   896860.39  619.83   1 0.74224-0.77148-0.63435 0.63435 0.21602 0.04906
   1   0  -7   49.33   23.28   1-0.74986 0.78466 0.61991-0.61991-0.23108-0.00102
  -1   0   7  -49.77  114.06   1 0.74208-0.77679-0.62974 0.62974 0.22963 0.00249
   1   0  -6212590.1  803.72   1-0.74942 0.78982 0.61069-0.61069-0.25574 0.05679
  -1   0   6246089.3  837.03   1 0.74186-0.78213-0.62069 0.62069 0.25372-0.05476
   1   0  -5   68.39   18.96   1-0.74752 0.79352 0.59429-0.59429-0.29666 0.13087
   1   0  -4   32.25   20.80   1-0.74099 0.79258 0.56390-0.56390-0.36460 0.23196
  -1   0   3   30.00   12.00   1-0.74155 0.68436 0.56600-0.56600-0.36018 0.45965
   1   0   2452682.0 5959.44   1 0.49563-0.41087-0.67290 0.67290-0.54912 0.61511
   1   0   3   68.96   32.74   1 0.56957-0.47922-0.70102 0.70102-0.42912 0.52811
   1   0   4449805.5 5956.67   1 0.61282-0.51691-0.71118 0.71118-0.34446 0.47645
   1   0   5   -1.30   46.39   1 0.64093-0.53946-0.71450 0.71450-0.28048 0.44548
   1   0   6 9054.62  198.08   1 0.65986-0.55243-0.71579 0.71579-0.22850 0.42714
   1   0   7    0.81   55.31   1 0.67471-0.56167-0.71434 0.71434-0.18565 0.41740
   1   0   857414.55  525.12   1 0.68638-0.56774-0.71192 0.71192-0.14846 0.41331
   1   0  1053470.62  622.99   1 0.70320-0.57386-0.70605 0.70605-0.08358 0.41493
   1   0  11  143.40   94.87   1 0.70986-0.57495-0.70214 0.70214-0.05552 0.42001
   1   0  12  746.15  104.82   1 0.71555-0.57509-0.69794 0.69794-0.02915 0.42677
   1   0  13   67.52   92.99   1 0.72047-0.57445-0.69347 0.69347-0.00409 0.43485
   1   0  14  747.58  120.78   1 0.72472-0.57315-0.68874 0.68874 0.01990 0.44398
   1   0  16145497.2 1268.08   1 0.73117-0.56840-0.67902 0.67902 0.06558 0.46458
   1   0  17  766.02  295.15   1 0.73390-0.56556-0.67359 0.67359 0.08749 0.47582
  -1   0 -1845087.62  781.08   1-0.74383 0.56952 0.65977-0.65977-0.10680-0.49023
   1   0  1851921.05  827.75   1 0.73620-0.56230-0.66793 0.66793 0.10892 0.48752
  -1   0 -19  392.22  154.77   1-0.74565 0.56577 0.65393-0.65393-0.12794-0.50226
   1   0  19  -50.37  139.59   1 0.73812-0.55865-0.66203 0.66203 0.12996 0.49961
  -1   0 -20 1303.10  169.24   1-0.74709 0.56164 0.64785-0.64785-0.14875-0.51462
   1   0  20 1272.13  205.35   1 0.73965-0.55462-0.65589 0.65589 0.15067 0.51204
  -1   0 -21  161.81   86.51   1-0.74818 0.55715 0.64153-0.64153-0.16928-0.52726
   1   0  21  109.76  128.25   1 0.74084-0.55024-0.64951 0.64951 0.17111 0.52474
  -1   0 -22  238.33  126.92   1-0.74891 0.55230 0.63497-0.63497-0.18957-0.54015
   1   0  22  347.23  159.43   1 0.74167-0.54551-0.64289 0.64289 0.19131 0.53767
  -1   0 -23  285.87  149.15   1-0.74982 0.54705 0.62779-0.62779-0.20891-0.55372
   1   0  23  -42.41  117.63   1 0.74217-0.54045-0.63601 0.63601 0.21131 0.55080
  -1   0 -24  352.35  110.49   1-0.74988 0.54151 0.62073-0.62073-0.22882-0.56696
   1   0  24  333.05  118.95   1 0.74208-0.53497-0.62896 0.62896 0.23175 0.56409
  -1   0 -25  -40.10  117.97   1-0.74961 0.53564 0.61341-0.61341-0.24860-0.58034
   1   0  25   -4.39  121.09   1 0.74190-0.52923-0.62156 0.62156 0.25145 0.57755
  -1   0 -26  798.51  179.16   1-0.74900 0.52943 0.60583-0.60583-0.26825-0.59385
   1   0  26  792.59  229.83   1 0.74140-0.52316-0.61389 0.61389 0.27103 0.59112
   1   0  27  -65.88  130.73   1 0.74056-0.51676-0.60593 0.60593 0.29052 0.60480
   1   1 -27 1261.34  258.20   1-0.74329 0.66611 0.57295-0.50381-0.34530-0.54996
   1  -1 -27 1290.50  248.80   1-0.72985 0.65306 0.52973-0.59891-0.43207-0.46347
   1   1 -26  502.88  123.97   1-0.74501 0.67343 0.58061-0.51148-0.32837-0.53373
   1  -1 -26  414.79  149.24   1-0.73227 0.66106 0.53648-0.60566-0.41947-0.44290
   1   1 -25  485.26   94.49   1-0.74646 0.68048 0.58799-0.51885-0.31152-0.51742
   1  -1 -25  411.83  132.98   1-0.73445 0.66882 0.54288-0.61206-0.40725-0.42196
  -1  -1  25  317.95  169.51   1 0.73926-0.67387-0.59685 0.52767 0.31184 0.51715
   1   1 -24  301.91  117.96   1-0.74765 0.68726 0.59509-0.52595-0.29475-0.50103
   1  -1 -24  293.53  156.92   1-0.73641 0.67637 0.54892-0.61809-0.39544-0.40059
  -1  -1  24  174.96  113.80   1 0.74032-0.68049-0.60405 0.53487 0.29501 0.50083
   1   1 -23  651.36  134.02   1-0.74857 0.69378 0.60192-0.53278-0.27807-0.48456
   1  -1 -23  689.25  178.57   1-0.73816 0.68370 0.55459-0.62376-0.38411-0.37876
  -1  -1  23  834.66  237.80   1 0.74113-0.68686-0.61098 0.54180 0.27825 0.48442
   1   1 -22   50.30   55.77   1-0.74925 0.70006 0.60848-0.53934-0.26148-0.46799
   1  -1 -22  222.53  133.58   1-0.73971 0.69083 0.55988-0.62906-0.37329-0.35640
  -1  -1  22  138.35  170.30   1 0.74168-0.69298-0.61763 0.54845 0.26157 0.46794
   1   1 -21  302.08   81.69   1-0.74968 0.70609 0.61478-0.54564-0.24498-0.45133
   1  -1 -21   55.17   73.05   1-0.74124 0.69765 0.56484-0.63398-0.36263-0.33368
  -1  -1  21   10.40  121.17   1 0.74200-0.69885-0.62402 0.55484 0.24498 0.45137
   1   1 -20 4349.44  589.67   1-0.74988 0.71189 0.62082-0.55168-0.22859-0.43456
   1  -1 -20 4122.48  570.50   1-0.74240 0.70441 0.56934-0.63847-0.35309-0.31006
  -1  -1  20 5235.71  352.30   1 0.74208-0.70450-0.63016 0.56098 0.22848 0.43471
   1   1 -19  878.58  190.19   1-0.74985 0.71746 0.62661-0.55747-0.21230-0.41769
   1  -1 -19  706.23  148.50   1-0.74340 0.71101 0.57340-0.64253-0.34433-0.28567
  -1  -1  19  732.48  167.91   1 0.74218-0.71022-0.63582 0.56666 0.21187 0.41770
   1   1 -18 3656.36  478.96   1-0.74908 0.72267 0.63259-0.56343-0.19668-0.40036
   1  -1 -18 4000.45  484.88   1-0.74422 0.71743 0.57699-0.64612-0.33645-0.26038
  -1  -1  18 4578.66  308.43   1 0.74181-0.71541-0.64144 0.57228 0.19560 0.40084
   1   1 -17 8941.97 1157.84   1-0.74863 0.72779 0.63790-0.56873-0.18064-0.38322
   1  -1 -17 8389.38 1133.49   1-0.74490 0.72370 0.58006-0.64919-0.32962-0.23406
  -1  -1  1710102.27  385.18   1 0.74122-0.72039-0.64682 0.57766 0.17945 0.38385
   1  -1 -16 6403.81  264.11   1-0.74541 0.72982 0.58255-0.65169-0.32400-0.20652
  -1  -1  16 8732.26  355.63   1 0.74043-0.72516-0.65195 0.58278 0.16344 0.36673
   1   1 -15 5563.75  490.42   1-0.74711 0.73742 0.64776-0.57859-0.14906-0.34847
   1  -1 -15 5744.36  674.38   1-0.74578 0.73579 0.58438-0.65352-0.31983-0.17753
  -1  -1  15 7264.92  317.24   1 0.73945-0.72974-0.65683 0.58767 0.14758 0.34945
   1   1 -14  403.73   90.53   1-0.74607 0.74196 0.65232-0.58315-0.13357-0.33079
   1  -1 -14  471.81  109.00   1-0.74599 0.74159 0.58544-0.65458-0.31740-0.14680
  -1  -1  14  318.36   95.22   1 0.73828-0.73413-0.66146 0.59230 0.13191 0.33198
   1  -1 -13 5047.62  253.60   1-0.74601 0.74722 0.58559-0.65472-0.31707-0.11397
  -1  -1  13 7383.79  282.44   1 0.73693-0.73835-0.66585 0.59669 0.11646 0.31430
   1  -1 -1239995.30  579.45   1-0.74582 0.75263 0.58460-0.65374-0.31934-0.07855
   1  -1 -11 9003.69 1696.15   1-0.74534 0.75774 0.58219-0.65132-0.32482-0.03990
   1  -1 -10235782.4 1624.70   1-0.74443 0.76243 0.57792-0.64705-0.33439 0.00281
   1  -1  -9 3850.73  428.00   1-0.74285 0.76645 0.57114-0.64028-0.34921 0.05079
   1  -1  -8 2722.00  436.17   1-0.74000 0.76927 0.56091-0.63009-0.37117 0.10582
  -1  -1   8 2514.09  118.28   1 0.72877-0.75811-0.68324 0.61405 0.04551 0.21956
   1  -1  -719012.12  283.44   1-0.73535 0.77020 0.54560-0.61478-0.40196 0.16978
   1  -1  -625151.10  289.49   1-0.72718 0.76761 0.52261-0.59179-0.44505 0.24604
  -1  -1   5 4670.27  104.45   1 0.72421-0.77022-0.68936 0.62017 0.01687 0.14879
   1  -1  -3161336.5  562.00   1-0.63153 0.68875 0.34595-0.41511-0.69388 0.59438
   1   1  -242518.01  162.32   1-0.74500 0.80779 0.65618-0.58701-0.11994 0.05360
   1  -1  -246737.68  286.91   1-0.53292 0.59567 0.20829-0.27743-0.82012 0.75379
  -1  -1   249209.52  174.11   1 0.73424-0.79687-0.67282 0.60366 0.09048-0.02421
   1  -1   1198142.2  568.34   1 0.09368-0.01424-0.41340 0.34426-0.90571 0.93876
  -1  -1  -1207733.2  438.28   1 0.65170-0.73111-0.71596 0.64674-0.25034 0.21723
   1  -1   3114327.8  509.17   1 0.39393-0.30362-0.62119 0.55218-0.67744 0.77647
   1  -1   4102713.0  525.32   1 0.47699-0.38117-0.66466 0.59562-0.57506 0.70705
   1  -1   543800.60  377.09   1 0.53536-0.43401-0.68870 0.61967-0.48895 0.65393
   1  -1   6 3140.99  132.78   1 0.57629-0.46926-0.70293 0.63385-0.41684 0.61483
   1  -1   722782.42  321.84   1 0.60765-0.49506-0.71026 0.64117-0.35535 0.58634
   1   1   722124.60  309.67   1 0.72278-0.61011-0.69101 0.76020 0.00865 0.22328
   1  -1   8   60.10   58.81   1 0.63185-0.51369-0.71378 0.64469-0.30212 0.56610
   1   1   8   35.12   68.61   1 0.72539-0.60716-0.68791 0.75710 0.02393 0.24114
   1  -1   9 4810.07  194.41   1 0.65010-0.52586-0.71595 0.64673-0.25448 0.55245
   1   1   9 4791.75  195.60   1 0.72787-0.60407-0.68457 0.75376 0.03951 0.25870
   1  -1  1012541.97  310.87   1 0.66561-0.53576-0.71542 0.64620-0.21241 0.54348
   1   1  1011661.07  292.62   1 0.73018-0.60083-0.68100 0.75019 0.05530 0.27604
   1  -1  11 6311.65  262.49   1 0.67844-0.54298-0.71371 0.64449-0.17414 0.53832
  -1  -1 -12 1926.41  160.53   1-0.74139 0.60054 0.66588-0.73505-0.08330-0.31472
   1  -1  12 2042.60  143.36   1 0.68920-0.54814-0.71112 0.64190-0.13889 0.53618
  -1  -1 -13 9029.58  331.30   1-0.74314 0.59672 0.66164-0.73081-0.09978-0.33141
   1  -1  13 9985.77  318.65   1 0.69780-0.55178-0.70859 0.63940-0.10467 0.53543
  -1  -1 -1411536.69  386.97   1-0.74469 0.59269 0.65718-0.72635-0.11634-0.34802
   1  -1  1413269.07  413.53   1 0.70560-0.55402-0.70475 0.63556-0.07379 0.53768
  -1  -1 -1523288.81  519.68   1-0.74603 0.58845 0.65249-0.72166-0.13296-0.36457
   1  -1  1527829.72  564.77   1 0.71230-0.55517-0.70045 0.63126-0.04452 0.54155
   1   1  1527709.26  558.94   1 0.73863-0.58142-0.66015 0.72931 0.13642 0.36061
   1  -1  16  154.03  179.77   1 0.71808-0.55539-0.69575 0.62656-0.01659 0.54675
  -1  -1 -17 8552.03  551.99   1-0.74804 0.57932 0.64244-0.71161-0.16639-0.39748
   1  -1  1710665.86  431.99   1 0.72306-0.55482-0.69070 0.62151 0.01022 0.55307
   1   1  1710652.43  440.51   1 0.74075-0.57242-0.65003 0.71919 0.16949 0.39381
  -1  -1 -18 6993.67 1110.52   1-0.74871 0.57441 0.63707-0.70623-0.18319-0.41385
   1  -1  18 8438.43  391.23   1 0.72734-0.55354-0.68532 0.61613 0.03610 0.56032
   1   1  18 8494.85  402.67   1 0.74149-0.56759-0.64462 0.71378 0.18613 0.41030
  -1  -1 -19 2168.29  342.96   1-0.74915 0.56927 0.63146-0.70062-0.20005-0.43016
   1  -1  19 2421.74  250.54   1 0.73058-0.55112-0.68007 0.61091 0.06120 0.56837
   1   1  19 2587.99  265.93   1 0.74200-0.56253-0.63896 0.70812 0.20284 0.42673
  -1   1 -20 3030.34  253.94   1-0.74152 0.55607 0.66557-0.59640-0.08452-0.57885
  -1  -1 -20 3208.78  500.57   1-0.74988 0.56390 0.62526-0.69440-0.21615-0.44700
   1  -1  20 4112.09  331.90   1 0.73368-0.54865-0.67407 0.60491 0.08561 0.57711
   1   1  20 3662.15  331.04   1 0.74228-0.55725-0.63307 0.70223 0.21962 0.44310
  -1  -1 -21   65.48   68.12   1-0.74985 0.55828 0.61917-0.68831-0.23312-0.46319
   1  -1  21   -4.65  116.53   1 0.73625-0.54566-0.66779 0.59863 0.10943 0.58642
   1   1  21  -62.69  134.54   1 0.74207-0.55164-0.62701 0.69619 0.23702 0.45934
  -1   1 -22 3074.56  500.30   1-0.74594 0.54934 0.65284-0.58367-0.13176-0.59795
  -1  -1 -22 3631.58  515.54   1-0.74957 0.55240 0.61283-0.68197-0.25014-0.47933
   1  -1  22 4131.25  338.79   1 0.73834-0.54218-0.66122 0.59206 0.13276 0.59623
   1   1  22 4860.27  385.02   1 0.74186-0.54587-0.62061 0.68979 0.25392 0.47560
  -1   1 -23  -28.89  121.73   1-0.74744 0.54526 0.64605-0.57688-0.15470-0.60818
  -1  -1 -23   41.83   71.20   1-0.74904 0.54627 0.60624-0.67537-0.26721-0.49542
   1  -1  23   95.86  126.85   1 0.73997-0.53825-0.65437 0.58521 0.15565 0.60647
   1   1  23   26.95  123.75   1 0.74140-0.53985-0.61395 0.68313 0.27087 0.49181
  -1   1 -24 2466.87  463.71   1-0.74850 0.54075 0.63898-0.56982-0.17727-0.61878
  -1  -1 -24 2951.67  461.30   1-0.74825 0.53989 0.59938-0.66852-0.28433-0.51146
   1  -1  24 4003.41  372.27   1 0.74117-0.53388-0.64723 0.57807 0.17818 0.61708
   1   1  24 3933.71  369.95   1 0.74069-0.53358-0.60703 0.67621 0.28788 0.50795
  -1   1 -25  386.94  121.08   1-0.74914 0.53581 0.63163-0.56247-0.19952-0.62970
  -1  -1 -25  326.80  109.76   1-0.74720 0.53323 0.59226-0.66140-0.30150-0.52744
   1  -1  25  424.66  173.70   1 0.74194-0.52909-0.63981 0.57065 0.20038 0.62802
   1   1  25  664.35  226.76   1 0.73972-0.52705-0.59983 0.66901 0.30495 0.52404
  -1   1 -26  113.39   65.94   1-0.74989 0.53033 0.62362-0.55448-0.22078-0.64132
  -1  -1 -26   67.09   69.83   1-0.74588 0.52631 0.58487-0.65400-0.31872-0.54338
   1  -1  26   78.68  139.53   1 0.74230-0.52389-0.63210 0.56294 0.22229 0.63923
   1   2 -27  410.83  101.59   1-0.74688 0.66969 0.59032-0.45205-0.30607-0.58919
   1  -2 -27  423.93  103.48   1-0.71957 0.64278 0.50381-0.64216-0.47788-0.41766
  -1  -2  27  363.26  155.34   1 0.73967-0.66316-0.59948 0.46112 0.30576 0.58955
   1   2 -26  115.52   87.69   1-0.74810 0.67652 0.59828-0.46000-0.28703-0.57507
   1  -2 -26  461.85  191.70   1-0.72214 0.65093 0.50994-0.64829-0.46741-0.39496
  -1  -2  26  318.00  181.17   1 0.74075-0.66980-0.60754 0.46918 0.28664 0.57552
   1   2 -25  596.76  140.51   1-0.74901 0.68303 0.60595-0.46768-0.26793-0.56101
   1  -2 -25  662.26  125.78   1-0.72445 0.65883 0.51565-0.65401-0.45744-0.37176
  -1  -2  25  960.04  247.27   1 0.74151-0.67612-0.61532 0.47696 0.26743 0.56156
   1   2 -24  534.12  118.21   1-0.74960 0.68922 0.61336-0.47509-0.24874-0.54704
   1  -2 -24  546.40  120.39   1-0.72653 0.66649 0.52095-0.65930-0.44805-0.34799
  -1  -2  24  649.77  207.00   1 0.74196-0.68213-0.62283 0.48446 0.24813 0.54770
   1   2 -23 1180.55  221.37   1-0.74987 0.69509 0.62051-0.48224-0.22944-0.53319
   1  -2 -23 1388.23  269.02   1-0.72839 0.67393 0.52580-0.66415-0.43928-0.32358
  -1  -2  23 1591.84  227.98   1 0.74208-0.68781-0.63007 0.49171 0.22871 0.53397
   1   2 -22  123.60  113.86   1-0.74983 0.70064 0.62741-0.48913-0.21001-0.51946
   1  -2 -22  158.31  116.05   1-0.73002 0.68114 0.53019-0.66854-0.43123-0.29847
  -1  -2  22   -1.98  118.75   1 0.74213-0.69347-0.63687 0.49855 0.20886 0.52012
   1   2 -21 2685.74  462.87   1-0.74894 0.70580 0.63451-0.49618-0.19094-0.50560
   1  -2 -21 3048.51  418.60   1-0.73142 0.68813 0.53409-0.67244-0.42397-0.27256
  -1  -2  21 3519.16  324.37   1 0.74160-0.69851-0.64362 0.50530 0.18914 0.50670
   1   2 -2018770.53  709.65   1-0.74826 0.71069 0.64094-0.50261-0.17114-0.49223
   1  -2 -2018994.85 1050.93   1-0.73261 0.69489 0.53746-0.67581-0.41762-0.24574
  -1  -2  2023518.97  593.01   1 0.74074-0.70321-0.65012 0.51180 0.16922 0.49350
   1   2 -19  900.55  174.10   1-0.74724 0.71524 0.64714-0.50880-0.15111-0.47909
   1  -2 -19  619.54  162.75   1-0.73356 0.70143 0.54025-0.67860-0.41231-0.21789
  -1  -2  19  759.42  174.39   1 0.73955-0.70758-0.65639 0.51807 0.14904 0.48054
   1   2 -18 3948.98  552.27   1-0.74587 0.71945 0.65311-0.51478-0.13080-0.46624
   1  -2 -18 4209.04  498.42   1-0.73429 0.70774 0.54240-0.68075-0.40817-0.18885
  -1  -2  18 5138.73  297.80   1 0.73800-0.71160-0.66243 0.52411 0.12855 0.46789
   1   2 -17 1705.03  179.64   1-0.74414 0.72330 0.65887-0.52054-0.11014-0.45373
   1  -2 -17 2092.34  278.85   1-0.73476 0.71380 0.54383-0.68218-0.40541-0.15845
  -1  -2  17 2705.96  250.51   1 0.73608-0.71525-0.66826 0.52994 0.10770 0.45560
   1   2 -16  446.99  123.14   1-0.74202 0.72676 0.66442-0.52608-0.08906-0.44164
   1  -2 -16  662.52  110.48   1-0.73496 0.71958 0.54443-0.68279-0.40423-0.12646
  -1  -2  16  499.92  125.27   1 0.73377-0.71850-0.67387 0.53555 0.08640 0.44377
   1  -2 -15  977.25  197.95   1-0.73485 0.72505 0.54408-0.68244-0.40491-0.09260
  -1  -2  15 1161.63  141.12   1 0.73103-0.72133-0.67927 0.54095 0.06454 0.43249
   1  -2 -14  107.90   48.14   1-0.73435 0.73013 0.54260-0.68095-0.40779-0.05655
  -1  -2  14  217.12   97.53   1 0.72829-0.72429-0.68395 0.54557 0.04229 0.42159
   1  -2 -13  326.94   80.90   1-0.73339 0.73475 0.53974-0.67809-0.41329-0.01789
  -1  -2  13  320.45  158.46   1 0.72455-0.72611-0.68895 0.55057 0.01889 0.41185
   1  -2 -1222014.34  558.31   1-0.73181 0.73875 0.53519-0.67354-0.42191 0.02389
  -1  -2  1226001.35  506.10   1 0.72019-0.72730-0.69375 0.55537-0.00560 0.40322
   1  -2 -1112669.21  323.38   1-0.72940 0.74192 0.52851-0.66686-0.43432 0.06947
  -1  -2  1114156.53  314.21   1 0.71506-0.72773-0.69834 0.55996-0.03154 0.39603
  -1  -2  10  148.22   57.57   1 0.70897-0.72720-0.70272 0.56434-0.05940 0.39075
   1  -2  -934481.79  569.75   1-0.72054 0.74423 0.50609-0.64445-0.47400 0.17548
  -1  -2   940035.74  487.78   1 0.70163-0.72541-0.70684 0.56846-0.08988 0.38809
   1  -2  -870481.11  760.30   1-0.71274 0.74201 0.48827-0.62662-0.50357 0.23822
  -1  -2   880378.31  568.29   1 0.69316-0.72213-0.70985 0.57140-0.12503 0.38988
   1  -2  -712375.49  262.38   1-0.70071 0.73562 0.46410-0.60244-0.54185 0.30970
  -1  -2   713741.47  228.03   1 0.68148-0.71605-0.71310 0.57465-0.16452 0.39627
   1  -2  -6  104.77   64.57   1-0.68309 0.72358 0.43048-0.56882-0.58997 0.39098
  -1  -2   6   79.72   37.48   1 0.66564-0.70582-0.71542 0.57697-0.21234 0.41098
   1  -2  -5  915.28   77.73   1-0.65613 0.70219 0.38400-0.52234-0.64964 0.48381
  -1  -2   5 1108.98   67.68   1 0.64244-0.68822-0.71571 0.57726-0.27390 0.43943
   1  -2  -4 5608.43  137.61   1-0.61426 0.66591 0.32001-0.45834-0.72129 0.58862
  -1  -2   4 6068.79  112.29   1 0.60605-0.65748-0.70995 0.57178-0.35869 0.49068
   1  -2  -344847.72  350.03   1-0.55119 0.60835 0.23207-0.37035-0.80145 0.70195
  -1  -2   346116.64  245.53   1 0.53506-0.59217-0.68859 0.55053-0.48943 0.58842
   1  -2  -2426162.5 1017.87   1-0.45767 0.52042 0.11584-0.25412-0.88153 0.81521
   1   2  -2409341.8 5369.28   1 0.02416 0.03868-0.35794 0.49623-0.93342 0.86732
  -1  -2   2435345.5 5708.70   1 0.36233-0.42496-0.60324 0.46522-0.71049 0.77651
   1   2  -118451.93  112.21   1-0.43633 0.50466 0.09095 0.04732-0.89517 0.86201
   1  -2  -119592.10  222.69   1-0.32997 0.39832-0.02671-0.11158-0.94361 0.91043
  -1  -2   118219.35  113.27   1-0.05431-0.01400-0.29208 0.15370-0.95484 0.98801
   1  -2   090030.75  448.76   1-0.17427 0.24817-0.18199 0.04363-0.96773 0.96773
   1  -2   4321729.6 1012.73   1 0.35886-0.26297-0.59960 0.46153-0.71532 0.84724
  -1  -2  -599191.15  581.39   1-0.74988 0.64789 0.62087-0.75914-0.22845 0.06266
   1  -2   5114445.2  637.59   1 0.43355-0.33216-0.64226 0.50424-0.63207 0.79712
   1   2   5118248.3  652.72   1 0.74205-0.64060-0.62591 0.76428 0.23997-0.07417
  -1  -2  -620748.51  347.26   1-0.74980 0.64222 0.62819-0.76646-0.20775 0.00880
   1  -2   624024.21  318.41   1 0.49045-0.38358-0.67066 0.53260-0.55646 0.75445
   1   2   624547.32  425.71   1 0.74226-0.63512-0.63386 0.77218 0.21740-0.01858
  -1  -2  -724320.24  393.60   1-0.74909 0.63612 0.63245-0.77078-0.19712-0.03506
   1  -2   727817.00  361.54   1 0.53574-0.42333-0.68884 0.55077-0.48834 0.71932
   1   2   728972.83  366.60   1 0.74204-0.62934-0.63832 0.77664 0.20471 0.02724
  -1  -2  -8  294.00  132.04   1-0.74896 0.63041 0.63438-0.77272-0.19134-0.07401
   1  -2   8  571.03   93.50   1 0.57035-0.45219-0.70125 0.56308-0.42771 0.69170
  -1  -2  -955335.80  625.58   1-0.74892 0.62479 0.63485-0.77319-0.18991-0.10860
   1  -2   968257.67  706.66   1 0.59913-0.47542-0.70854 0.57037-0.37282 0.66980
  -1  -2 -1019820.90  370.75   1-0.74897 0.61927 0.63426-0.77259-0.19171-0.13997
   1  -2  1026271.73  437.06   1 0.62263-0.49335-0.71269 0.57452-0.32309 0.65308
   1   2  1024602.08  405.33   1 0.74186-0.61247-0.64076 0.77908 0.19760 0.13375
  -1  -2 -1110122.83  315.71   1-0.74907 0.61379 0.63284-0.77118-0.19595-0.16890
   1  -2  1111968.17  354.34   1 0.64120-0.50575-0.71564 0.57719-0.27695 0.64113
   1   2  1111027.00  335.35   1 0.74196-0.60701-0.63945 0.77777 0.20142 0.16306
  -1  -2 -12  313.11  110.65   1-0.74919 0.60834 0.63076-0.76910-0.20208-0.19594
   1  -2  12  358.67  101.08   1 0.65744-0.51638-0.71588 0.57744-0.23509 0.63238
  -1  -2 -1321392.54  501.29   1-0.74981 0.60304 0.62784-0.76611-0.20877-0.22228
   1  -2  1325557.74  552.30   1 0.67119-0.52453-0.71484 0.57639-0.19621 0.62660
  -1  -2 -14 7497.61  423.22   1-0.74988 0.59751 0.62473-0.76301-0.21764-0.24656
   1  -2  14 9196.88  329.72   1 0.68293-0.53066-0.71277 0.57433-0.15982 0.62332
  -1  -2 -15   35.92   48.98   1-0.74988 0.59191 0.62121-0.75948-0.22751-0.26985
   1  -2  15  -44.43  107.70   1 0.69302-0.53515-0.70990 0.57145-0.12552 0.62213
   1   2  15  357.91  186.41   1 0.74208-0.58502-0.62842 0.76678 0.23323 0.26417
  -1  -2 -16 5377.46  538.45   1-0.74979 0.58621 0.61730-0.75557-0.23820-0.29231
   1  -2  16 6088.86  322.94   1 0.70119-0.53850-0.70706 0.56868-0.09161 0.62178
  -1  -2 -17 6338.63  987.47   1-0.74958 0.58041 0.61303-0.75131-0.24960-0.31408
   1  -2  17 7174.19  334.16   1 0.70871-0.54046-0.70289 0.56451-0.06057 0.62387
  -1  -2 -18 5180.40  706.80   1-0.74924 0.57447 0.60844-0.74671-0.26158-0.33525
   1  -2  18 6291.91  335.19   1 0.71521-0.54141-0.69822 0.55984-0.03081 0.62724
   1   2  18 6245.10  346.47   1 0.74154-0.56780-0.61564 0.75401 0.26662 0.33025
  -1  -2 -19  243.66  122.58   1-0.74876 0.56838 0.60351-0.74179-0.27408-0.35591
   1  -2  19   91.81  119.32   1 0.72083-0.54147-0.69310 0.55472-0.00216 0.63172
   1   2  19  437.05  243.09   1 0.74110-0.56179-0.61070 0.74907 0.27893 0.35110
  -1  -2 -20 4060.56  484.74   1-0.74811 0.56213 0.59828-0.73656-0.28702-0.37613
   1  -2  20 5240.25  358.33   1 0.72566-0.54075-0.68757 0.54919 0.02554 0.63715
   1   2  20 4934.76  351.67   1 0.74050-0.55563-0.60544 0.74380 0.29170 0.37150
  -1  -2 -21   34.84   63.32   1-0.74728 0.55571 0.59275-0.73102-0.30035-0.39596
   1  -2  21   83.28  125.80   1 0.72977-0.53931-0.68166 0.54329 0.05242 0.64341
   1   2  21  102.28  129.42   1 0.73973-0.54930-0.59987 0.73823 0.30487 0.39149
  -1   2 -22  275.78   98.97   1-0.74082 0.54422 0.66710-0.52877-0.07839-0.65132
  -1  -2 -22  455.65  128.03   1-0.74626 0.54909 0.58691-0.72518-0.31403-0.41544
   1  -2  22  476.01  170.74   1 0.73284-0.53668-0.67584 0.53752 0.07857 0.65041
  -1   2 -23  629.41  165.40   1-0.74355 0.54137 0.66054-0.52220-0.10394-0.65894
  -1  -2 -23  673.75  138.37   1-0.74505 0.54228 0.58077-0.71905-0.32801-0.43461
   1  -2  23  471.30  150.18   1 0.73572-0.53400-0.66923 0.53091 0.10411 0.65800
  -1   2 -24  495.85  115.04   1-0.74573 0.53797 0.65364-0.51531-0.12895-0.66710
  -1  -2 -24  494.93  143.27   1-0.74362 0.53525 0.57434-0.71261-0.34227-0.45351
   1  -2  24  217.96  120.39   1 0.73804-0.53076-0.66227 0.52395 0.12911 0.66615
  -1   2 -25  427.94  105.07   1-0.74737 0.53404 0.64642-0.50809-0.15348-0.67574
  -1  -2 -25  317.18  116.54   1-0.74197 0.52800 0.56761-0.70588-0.35678-0.47216
   1  -2  25  189.39  135.98   1 0.73985-0.52700-0.65499 0.51667 0.15362 0.67477
  -1   2 -26 1965.86  346.13   1-0.74852 0.52961 0.63888-0.50055-0.17759-0.68480
  -1  -2 -26 2388.56  511.90   1-0.73987 0.52080 0.56047-0.69883-0.37208-0.49029
   1  -2  26 2642.66  369.17   1 0.74115-0.52273-0.64738 0.50906 0.17772 0.68381
   1   3 -27  250.69  109.84   1-0.74892 0.67174 0.60504-0.39763-0.27024-0.62502
   1  -3 -27  392.10  151.35   1-0.70618 0.62956 0.47531-0.68282-0.52476-0.37068
  -1  -3  27  134.34  117.75   1 0.74146-0.66495-0.61464 0.40710 0.26914 0.62618
   1   3 -26  -29.20  132.00   1-0.74959 0.67801 0.61318-0.40577-0.24921-0.61289
   1  -3 -26  -15.90  121.78   1-0.70909 0.63789 0.48038-0.68791-0.51615-0.34622
  -1  -3  26  -46.50  100.20   1 0.74196-0.67101-0.62289 0.41534 0.24797 0.61418
   1   3 -25   94.28   72.33   1-0.74988 0.68390 0.62104-0.41363-0.22796-0.60098
   1  -3 -25  208.34   63.88   1-0.71138 0.64576 0.48530-0.69283-0.50833-0.32088
  -1  -3  25  281.31  156.98   1 0.74207-0.67668-0.63085 0.42330 0.22659 0.60241
   1   3 -24  363.08   94.31   1-0.74926 0.68939 0.62908-0.42158-0.20699-0.58906
   1  -3 -24  209.95  131.73   1-0.71340 0.65336 0.48973-0.69726-0.50120-0.29484
  -1  -3  24  275.81  181.07   1 0.74204-0.68226-0.63835 0.43087 0.20461 0.59064
   1   3 -23  569.03  150.36   1-0.74878 0.69448 0.63641-0.42891-0.18520-0.57768
   1  -3 -23  712.31  131.28   1-0.71515 0.66069 0.49363-0.70116-0.49484-0.26803
  -1  -3  23  655.79  201.39   1 0.74136-0.68714-0.64576 0.43828 0.18269 0.57943
   1   3 -22 3595.75  450.47   1-0.74788 0.69916 0.64348-0.43597-0.16307-0.56664
   1  -3 -22 3331.77  376.82   1-0.71663 0.66775 0.49697-0.70450-0.48933-0.24036
  -1  -3  22 4472.59  347.63   1 0.74026-0.69160-0.65289 0.44541 0.16041 0.56857
   1   3 -21  224.34   76.90   1-0.74657 0.70342 0.65028-0.44278-0.14055-0.55599
   1  -3 -21  150.20   90.10   1-0.71781 0.67452 0.49970-0.70723-0.48479-0.21174
  -1  -3  21  110.78  133.37   1 0.73873-0.69564-0.65977 0.45229 0.13772 0.55813
   1   3 -20 2292.95  381.39   1-0.74480 0.70723 0.65684-0.44934-0.11757-0.54581
   1  -3 -20 2263.76  318.69   1-0.71870 0.68099 0.50177-0.70930-0.48133-0.18203
  -1  -3  20 2341.57  221.43   1 0.73675-0.69922-0.66638 0.45890 0.11455 0.54816
   1   3 -19  126.10   94.54   1-0.74255 0.71056 0.66314-0.45564-0.09403-0.53617
   1  -3 -19  171.56  119.57   1-0.71927 0.68714 0.50310-0.71063-0.47909-0.15110
  -1  -3  19  104.02  105.79   1 0.73428-0.70232-0.67274 0.46526 0.09080 0.53877
   1  -3 -18  730.73  135.16   1-0.71949 0.69294 0.50360-0.71113-0.47823-0.11879
  -1  -3  18  851.88  167.79   1 0.73128-0.70488-0.67883 0.47135 0.06638 0.53006
   1  -3 -17  139.63   92.23   1-0.71931 0.69834 0.50317-0.71071-0.47896-0.08490
  -1  -3  17  340.43  155.56   1 0.72816-0.70749-0.68414 0.47657 0.04145 0.52184
   1  -3 -16 6039.54  605.80   1-0.71866 0.70328 0.50167-0.70920-0.48149-0.04920
  -1  -3  16 6909.94  292.85   1 0.72393-0.70882-0.68969 0.48212 0.01526 0.51489
   1  -3 -15  157.45   61.61   1-0.71747 0.70767 0.49891-0.70644-0.48611-0.01141
  -1  -3  15   36.78   88.59   1 0.71895-0.70939-0.69494 0.48738-0.01210 0.50912
   1  -3 -14 2189.34  384.01   1-0.71561 0.71139 0.49467-0.70220-0.49314 0.02878
  -1  -3  14 2460.47  194.38   1 0.71308-0.70908-0.69988 0.49231-0.04091 0.50480
   1  -3 -1313799.24  866.87   1-0.71291 0.71427 0.48864-0.69617-0.50297 0.07178
  -1  -3  1316062.14  404.26   1 0.70614-0.70770-0.70444 0.49687-0.07150 0.50226
   1  -3 -1233006.33  626.37   1-0.70912 0.71607 0.48044-0.68797-0.51605 0.11802
  -1  -3  1238945.80  664.75   1 0.69788-0.70500-0.70856 0.50099-0.10435 0.50197
   1  -3 -11 3301.53  400.82   1-0.70353 0.71613 0.46983-0.67734-0.53319 0.16838
  -1  -3  11 3635.70  198.16   1 0.68855-0.70071-0.71132 0.50365-0.14113 0.50531
   1  -3 -10 5479.73  683.31   1-0.69641 0.71459 0.45559-0.66309-0.55447 0.22283
  -1  -3  10 5477.54  224.27   1 0.67640-0.69416-0.71407 0.50640-0.18047 0.51154
   1  -3  -9279601.4 1782.23   1-0.68669 0.71045 0.43710-0.64461-0.58085 0.28237
  -1  -3   9321777.4 1911.32   1 0.66124-0.68460-0.71572 0.50805-0.22470 0.52267
  -1  -3   8242775.7 1440.34   1 0.64179-0.67076-0.71567 0.50800-0.27551 0.54037
   1  -3  -7  750.53  107.42   1-0.65509 0.69000 0.38230-0.58981-0.65168 0.41952
  -1  -3   7  897.13   83.26   1 0.61730-0.65206-0.71192 0.50466-0.33481 0.56579
   1  -3  -6 1280.61  108.50   1-0.62947 0.66996 0.34280-0.55028-0.69731 0.49832
  -1  -3   6 1273.15   83.21   1 0.58141-0.62172-0.70431 0.49705-0.40731 0.60530
   1  -3  -5 4229.32  144.79   1-0.59462 0.64069 0.29165-0.49914-0.74923 0.58341
  -1  -3   5 4722.16  128.56   1 0.53132-0.57737-0.68721 0.48012-0.49540 0.66039
   1  -3  -4  236.39   54.01   1-0.54714 0.59872 0.22675-0.43416-0.80573 0.67307
  -1  -3   4  221.91   38.09   1 0.45362-0.50517-0.65226 0.44523-0.60726 0.73930
   1  -3  -3 6325.86  167.93   1-0.48270 0.53987 0.14572-0.35314-0.86357 0.76408
  -1  -3   3 6235.22  116.23   1 0.32835-0.38547-0.58130 0.37419-0.74449 0.84343
  -1  -3   296474.25  374.06   1 0.13285-0.19562-0.44502 0.23769-0.88561 0.95143
   1  -3  -134948.63  333.22   1-0.29550 0.36385-0.06252-0.14491-0.95329 0.92011
  -1  -3   132962.32  218.54   1-0.12267 0.05435-0.23151 0.02394-0.96506 0.99823
  -1  -3   0  879.61   56.65   1-0.36846 0.29452 0.01445-0.22188-0.92952 0.92952
   1  -3   0  790.55   77.22   1-0.17660 0.25049-0.17980-0.02773-0.96771 0.96771
  -1  -3  -3130645.6  593.63   1-0.68443 0.59375 0.43293-0.64044-0.58661 0.48712
   1  -3   3140647.4  701.17   1 0.17830-0.08784-0.47857 0.27124-0.85974 0.95849
  -1  -3  -417898.52  257.26   1-0.71167 0.61541 0.48593-0.69346-0.50733 0.37465
   1  -3   418668.43  287.27   1 0.27283-0.17694-0.54601 0.33890-0.79210 0.92403
  -1  -3  -533860.54  382.52   1-0.72629 0.62445 0.52033-0.72786-0.44915 0.28331
   1  -3   538429.80  403.32   1 0.35256-0.25113-0.59589 0.38878-0.72153 0.88644
  -1  -3  -6 4454.43  405.18   1-0.73455 0.62713 0.54319-0.75072-0.40665 0.20763
   1  -3   6 4632.22  162.40   1 0.41707-0.31014-0.63370 0.42666-0.65151 0.84956
  -1  -3  -7 4164.89  507.52   1-0.73935 0.62635 0.55865-0.76618-0.37583 0.14365
   1  -3   7 5056.53  238.30   1 0.47066-0.35819-0.66037 0.45333-0.58513 0.81619
  -1  -3  -8 6557.42  316.51   1-0.74241 0.62363 0.56936-0.77677-0.35305 0.08778
   1  -3   8 8148.66  270.42   1 0.51322-0.39529-0.68022 0.47312-0.52335 0.78733
  -1  -3  -918731.77  405.91   1-0.74410 0.61972 0.57642-0.78383-0.33769 0.03927
   1  -3   921776.05  392.93   1 0.54946-0.42600-0.69364 0.48654-0.46577 0.76275
  -1  -3 -10 6407.22  779.37   1-0.74510 0.61512 0.58101-0.78842-0.32748-0.00409
   1  -3  10 7594.00  275.23   1 0.57835-0.44908-0.70349 0.49624-0.41302 0.74301
  -1  -3 -11  424.74  106.98   1-0.74565 0.61007 0.58374-0.79115-0.32131-0.04342
   1  -3  11  717.64  125.86   1 0.60365-0.46882-0.70948 0.50223-0.36363 0.72661
  -1  -3 -12 8423.15  619.59   1-0.74591 0.60473 0.58503-0.79244-0.31835-0.07954
   1  -3  12 9722.48  328.43   1 0.62504-0.48465-0.71301 0.50575-0.31768 0.71366
  -1  -3 -13   47.74   51.41   1-0.74594 0.59916 0.58519-0.79260-0.31799-0.11306
   1  -3  13   40.31   95.01   1 0.64241-0.49575-0.71571 0.50804-0.27396 0.70435
  -1  -3 -1417077.63  764.42   1-0.74579 0.59341 0.58441-0.79182-0.31976-0.14444
   1  -3  1422240.87  488.55   1 0.65798-0.50572-0.71587 0.50820-0.23361 0.69712
  -1  -3 -15 1953.64  467.84   1-0.74548 0.58750 0.58286-0.79027-0.32329-0.17407
   1  -3  15 2799.61  236.12   1 0.67142-0.51354-0.71481 0.50714-0.19554 0.69215
  -1  -3 -16 4599.16  498.53   1-0.74502 0.58144 0.58064-0.78805-0.32831-0.20221
   1  -3  16 5305.70  303.40   1 0.68305-0.51957-0.71275 0.50508-0.15943 0.68915
  -1  -3 -17   62.26   58.38   1-0.74441 0.57524 0.57783-0.78524-0.33458-0.22909
   1  -3  17   43.91  105.51   1 0.69316-0.52408-0.70985 0.50218-0.12503 0.68785
  -1  -3 -18   97.87   69.34   1-0.74366 0.56888 0.57450-0.78191-0.34193-0.25491
   1  -3  18   68.55   76.56   1 0.70140-0.52761-0.70695 0.49938-0.09076 0.68719
   1  -3  19  -23.09  108.78   1 0.70904-0.52969-0.70268 0.49511-0.05912 0.68868
  -1  -3 -20   86.18   97.79   1-0.74166 0.55569 0.56644-0.77385-0.35926-0.30389
   1  -3  20  193.63  161.82   1 0.71567-0.53076-0.69785 0.49028-0.02861 0.69131
  -1  -3 -21  577.34  117.15   1-0.74041 0.54884 0.56178-0.76919-0.36903-0.32728
   1  -3  21  415.64  141.72   1 0.72139-0.53092-0.69252 0.48495 0.00090 0.69493
  -1  -3 -22 1290.65  224.88   1-0.73876 0.54202 0.55661-0.76414-0.38000-0.34969
   1  -3  22 1283.37  197.55   1 0.72631-0.53028-0.68673 0.47916 0.02954 0.69942
  -1  -3 -23  -13.29  103.08   1-0.73712 0.53480 0.55118-0.75871-0.39094-0.37192
   1  -3  23  234.33  158.74   1 0.73048-0.52890-0.68051 0.47294 0.05741 0.70468
  -1   3 -24  383.93  163.59   1-0.74160 0.53384 0.66540-0.45790-0.08519-0.71086
  -1  -3 -24  489.86  108.82   1-0.73528 0.52737 0.54539-0.75292-0.40237-0.39366
   1  -3  24 1093.29  249.21   1 0.73356-0.52627-0.67433 0.46685 0.08457 0.71068
  -1   3 -25  954.37  202.32   1-0.74429 0.53096 0.65843-0.45093-0.11177-0.71745
  -1  -3 -25 1538.48  250.39   1-0.73322 0.51973 0.53924-0.74677-0.41424-0.41496
   1  -3  25 1409.88  278.45   1 0.73643-0.52357-0.66731 0.45983 0.11117 0.71722
  -1   3 -26 1741.09  297.47   1-0.74638 0.52747 0.65108-0.44358-0.13782-0.72457
  -1  -3 -26 2312.67  538.66   1-0.73094 0.51187 0.53274-0.74027-0.42651-0.43587
   1  -3  26 2687.35  360.99   1 0.73869-0.52028-0.65991 0.45243 0.13723 0.72429
   1   4 -26  763.26  189.88   1-0.74987 0.67829 0.62550-0.34895-0.21546-0.64664
   1  -4 -26 1183.82  253.69   1-0.69258 0.62153 0.44818-0.72486-0.56520-0.29708
  -1  -4  26 1090.55  250.37   1 0.74220-0.67128-0.63543 0.35879 0.21297 0.64856
   1   4 -25  259.86  100.77   1-0.74899 0.68354 0.63392-0.35725-0.19272-0.63649
   1  -4 -25  228.74  139.48   1-0.69468 0.62921 0.45223-0.72891-0.55936-0.26975
  -1  -4  25  469.09  160.18   1 0.74161-0.67627-0.64347 0.36683 0.18958 0.63881
   1   4 -24  326.90  127.63   1-0.74817 0.68830 0.64159-0.36492-0.16910-0.62695
   1  -4 -24   57.84   73.96   1-0.69646 0.63657 0.45570-0.73238-0.55431-0.24163
  -1  -4  24  -12.03   98.85   1 0.74056-0.68078-0.65121 0.37456 0.16579 0.62947
   1   4 -23  146.93   97.75   1-0.74686 0.69257 0.64896-0.37229-0.14503-0.61785
   1  -4 -23  -13.44  106.12   1-0.69791 0.64360 0.45854-0.73522-0.55013-0.21265
  -1  -4  23  -19.91  122.73   1 0.73902-0.68480-0.65864 0.38200 0.14154 0.62058
   1   4 -22  239.73  143.93   1-0.74504 0.69632 0.65604-0.37937-0.12045-0.60926
   1  -4 -22    1.17  120.26   1-0.69901 0.65027 0.46071-0.73739-0.54691-0.18271
  -1  -4  22   76.20  122.17   1 0.73696-0.68830-0.66576 0.38912 0.11677 0.61221
   1   4 -21  -22.68   99.23   1-0.74268 0.69954 0.66282-0.38615-0.09528-0.60126
   1  -4 -21  -24.70  143.22   1-0.69974 0.65657 0.46216-0.73884-0.54476-0.15169
  -1  -4  21 -106.47  122.57   1 0.73434-0.69125-0.67259 0.39595 0.09138 0.60447
   1  -4 -20 3997.86  338.96   1-0.70006 0.66247 0.46280-0.73948-0.54380-0.11949
  -1  -4  20 4239.75  321.25   1 0.73113-0.69360-0.67910 0.40245 0.06528 0.59743
   1  -4 -19 1582.58  218.70   1-0.69994 0.66793 0.46256-0.73924-0.54416-0.08596
  -1  -4  19 1981.26  239.50   1 0.72774-0.69595-0.68476 0.40800 0.03865 0.59090
   1  -4 -1811130.05  412.42   1-0.69931 0.67288 0.46131-0.73799-0.54602-0.05093
  -1  -4  1812086.56  406.47   1 0.72315-0.69693-0.69059 0.41384 0.01075 0.58568
   1  -4 -17 3096.01  549.57   1-0.69811 0.67725 0.45893-0.73560-0.54956-0.01423
  -1  -4  17 3076.16  232.14   1 0.71774-0.69707-0.69606 0.41930-0.01831 0.58160
   1  -4 -16   76.90   55.40   1-0.69623 0.68095 0.45524-0.73192-0.55499 0.02435
  -1  -4  16  143.67   94.82   1 0.71137-0.69626-0.70111 0.42435-0.04874 0.57890
   1  -4 -15  -94.38  104.26   1-0.69354 0.68384 0.45003-0.72671-0.56254 0.06507
  -1  -4  15   14.74   90.81   1 0.70389-0.69433-0.70569 0.42893-0.08082 0.57785
   1  -4 -14 7062.51  325.35   1-0.68988 0.68575 0.44306-0.71974-0.57249 0.10819
  -1  -4  14 7550.28  274.98   1 0.69565-0.69100-0.70894 0.43205-0.11602 0.57952
   1  -4 -13  885.27  145.30   1-0.68500 0.68645 0.43399-0.71067-0.58516 0.15402
  -1  -4  13 1132.44  153.47   1 0.68518-0.68614-0.71223 0.43534-0.15243 0.58282
   1  -4 -12 3269.14  217.87   1-0.67861 0.68564 0.42241-0.69909-0.60087 0.20290
  -1  -4  12 3715.61  201.03   1 0.67267-0.67923-0.71464 0.43775-0.19179 0.58907
   1  -4 -11 6925.26  276.34   1-0.67029 0.68289 0.40781-0.68449-0.61999 0.25518
  -1  -4  11 7497.53  256.52   1 0.65755-0.66971-0.71588 0.43899-0.23479 0.59897
  -1  -4  10    3.12   78.80   1 0.63901-0.65677-0.71550 0.43861-0.28232 0.61340
   1  -4  -952700.12  809.64   1-0.64512 0.66890 0.36716-0.64381-0.67007 0.37158
  -1  -4   958207.33  804.54   1 0.61708-0.64071-0.71188 0.43554-0.33529 0.63228
   1  -4  -8 2258.09  169.56   1-0.62699 0.65634 0.33903-0.61568-0.70137 0.43604
  -1  -4   8 2485.93  148.67   1 0.58752-0.61671-0.70586 0.42952-0.39568 0.65967
   1  -4  -7 6732.79  238.28   1-0.60350 0.63842 0.30434-0.58099-0.73698 0.50482
  -1  -4   7 6981.07  220.25   1 0.55101-0.58600-0.69416 0.41803-0.46316 0.69414
   1  -4  -6 2327.93  388.67   1-0.57346 0.61386 0.26193-0.53849-0.77622 0.57723
  -1  -4   6 2673.04  137.84   1 0.49988-0.54041-0.67472 0.39859-0.54301 0.74099
   1  -4  -522209.71  340.68   1-0.53441 0.58040 0.21020-0.48676-0.81866 0.65283
  -1  -4   523119.00  275.47   1 0.43271-0.47873-0.64183 0.36578-0.63308 0.79813
   1  -4  -4   67.35   61.43   1-0.48471 0.53629 0.14816-0.42472-0.86202 0.72938
  -1  -4   4   26.78   32.65   1 0.34001-0.39159-0.58839 0.31224-0.73361 0.86553
   1  -4  -328090.89  357.15   1-0.42276 0.47992 0.07540-0.35196-0.90309 0.80361
  -1  -4   327551.70  264.67   1 0.21535-0.27258-0.50492 0.22848-0.83586 0.93460
   1  -4  -2 1940.15  118.30   1-0.34813 0.41088-0.00745-0.26913-0.93741 0.87105
  -1  -4   2 1788.09   82.85   1 0.05997-0.12283-0.38688 0.11031-0.92017 0.98627
   1  -4  -126026.08  336.05   1-0.26060 0.32895-0.09830-0.17841-0.96042 0.92733
  -1  -4   124010.06  231.87   1-0.11870 0.05038-0.23511-0.04164-0.96469 0.99786
  -1  -4   0 4351.48  115.62   1-0.28669 0.21274-0.07152-0.20505-0.95534 0.95534
   1  -4   0 4483.69  157.26   1-0.16366 0.23756-0.19193-0.08478-0.96766 0.96766
  -1  -4  -1 4316.87  127.31   1-0.42573 0.34622 0.07878-0.35534-0.90141 0.86825
   1  -4   1 4316.17  156.84   1-0.06298 0.14255-0.28456 0.00779-0.95658 0.98975
  -1  -4  -233190.41  317.62   1-0.52716 0.44206 0.20092-0.47747-0.82566 0.75933
   1  -4   233376.23  440.97   1 0.03822 0.04674-0.36940 0.09283-0.92848 0.99458
  -1  -4  -310358.51  207.98   1-0.59563 0.50497 0.29308-0.56974-0.74787 0.64838
   1  -4   310951.45  277.50   1 0.13166-0.04120-0.44412 0.16768-0.88623 0.98497
  -1  -4  -4173551.6  892.57   1-0.64117 0.54494 0.36091-0.63756-0.67722 0.54456
   1  -4   4185979.2  912.55   1 0.21872-0.12273-0.50727 0.23083-0.83356 0.96522
  -1  -4  -5 4057.43  256.96   1-0.67166 0.56983 0.41018-0.68686-0.61693 0.45111
   1  -4   5 5497.43  216.75   1 0.29457-0.19314-0.56011 0.28397-0.77426 0.93917
  -1  -4  -629122.72  397.20   1-0.69155 0.58414 0.44623-0.72291-0.56800 0.36901
   1  -4   632872.84  468.17   1 0.36105-0.25408-0.60088 0.32474-0.71314 0.91103
  -1  -4  -7 2391.80  447.88   1-0.70494 0.59195 0.47273-0.74940-0.52875 0.29660
   1  -4   7 3213.54  456.53   1 0.41673-0.30426-0.63352 0.35747-0.65190 0.88296
  -1  -4  -835771.24  495.44   1-0.71448 0.59589 0.49212-0.76882-0.49732 0.23197
   1  -4   839892.81  557.61   1 0.46497-0.34697-0.65771 0.38166-0.59263 0.85670
  -1  -4  -9 5841.62  236.91   1-0.72075 0.59659 0.50661-0.78332-0.47312 0.17460
   1  -4   9 6763.32  254.42   1 0.50447-0.38101-0.67664 0.40051-0.53633 0.83331
  -1  -4 -10  131.98   41.14   1-0.72511 0.59536 0.51730-0.79401-0.45454 0.12285
   1  -4  10  238.94   69.49   1 0.53929-0.41030-0.69012 0.41399-0.48258 0.81256
  -1  -4 -11  -28.81   74.62   1-0.72812 0.59278 0.52508-0.80178-0.44060 0.07574
   1  -4  11  -55.00   84.22   1 0.56772-0.43288-0.70048 0.42414-0.43244 0.79542
  -1  -4 -12 6880.46  931.56   1-0.73016 0.58924 0.53059-0.80729-0.43050 0.03247
   1  -4  12 7776.18  285.89   1 0.59322-0.45283-0.70723 0.43089-0.38457 0.78055
  -1  -4 -13 3613.37  614.99   1-0.73149 0.58499 0.53429-0.81099-0.42360-0.00758
   1  -4  13 4881.32  273.90   1 0.61519-0.46924-0.71158 0.43524-0.33937 0.76835
  -1  -4 -1440204.48  717.93   1-0.73228 0.58020 0.53652-0.81323-0.41940-0.04495
   1  -4  1448547.68  726.20   1 0.63420-0.48269-0.71400 0.43766-0.29661 0.75858
   1  -4  15 1623.39  206.11   1 0.64983-0.49196-0.71595 0.43906-0.25518 0.75179
  -1  -4 -1626659.38  666.07   1-0.73263 0.56938 0.53753-0.81423-0.41750-0.11319
   1  -4  1632190.83  628.89   1 0.66416-0.50068-0.71553 0.43864-0.21654 0.74625
  -1  -4 -17 1607.86  286.90   1-0.73232 0.56349 0.53664-0.81334-0.41918-0.14468
   1  -4  17 3251.41  264.46   1 0.67667-0.50759-0.71403 0.43713-0.17964 0.74246
  -1  -4 -18 4858.92  498.92   1-0.73174 0.55733 0.53498-0.81169-0.42230-0.17472
   1  -4  18 6481.41  355.45   1 0.68761-0.51293-0.71158 0.43469-0.14429 0.74022
  -1  -4 -19 3856.18  726.00   1-0.73091 0.55091 0.53265-0.80936-0.42667-0.20352
   1  -4  19 4630.07  324.87   1 0.69664-0.51729-0.70908 0.43232-0.10901 0.73858
  -1  -4 -20  127.24  114.45   1-0.72984 0.54426 0.52970-0.80641-0.43213-0.23123
   1  -4  20  245.23  161.93   1 0.70501-0.52010-0.70508 0.42832-0.07623 0.73893
  -1  -4 -21  117.62   93.62   1-0.72854 0.53738 0.52620-0.80291-0.43856-0.25797
   1  -4  21  401.96  204.72   1 0.71230-0.52183-0.70046 0.42370-0.04454 0.74038
  -1  -4 -22  959.15  164.12   1-0.72701 0.53027 0.52218-0.79889-0.44584-0.28386
   1  -4  22 1391.11  230.08   1 0.71862-0.52260-0.69526 0.41850-0.01382 0.74279
  -1  -4 -23  -93.24  106.20   1-0.72526 0.52294 0.51768-0.79438-0.45387-0.30900
   1  -4  23   28.16  117.76   1 0.72407-0.52249-0.68953 0.41277 0.01604 0.74606
  -1  -4 -24   80.94  142.10   1-0.72327 0.51537 0.51272-0.78942-0.46258-0.33345
   1  -4  24   70.09  120.90   1 0.72871-0.52158-0.68332 0.40656 0.04513 0.75010
  -1   4 -25  497.19  215.94   1-0.74040 0.52707 0.66797-0.39130-0.07486-0.75436
  -1  -4 -25  904.14  156.88   1-0.72105 0.50757 0.50732-0.78403-0.47190-0.35730
   1  -4  25  943.52  211.31   1 0.73220-0.51935-0.67710 0.40046 0.07348 0.75491
   1   5 -25  -43.75  105.26   1-0.74782 0.68237 0.64389-0.29805-0.16175-0.66747
   1  -5 -25  183.02  140.69   1-0.67494 0.60947 0.41592-0.76176-0.60947-0.21964
  -1  -5  25   19.90  105.99   1 0.74010-0.67475-0.65374 0.30794 0.15767 0.67072
   1   5 -24  152.59  146.40   1-0.74626 0.68639 0.65155-0.30571-0.13621-0.65984
   1  -5 -24  456.58  196.88   1-0.67633 0.61643 0.41836-0.76421-0.60625-0.18969
  -1  -5  24  382.99  145.92   1 0.73828-0.67849-0.66146 0.31566 0.13194 0.66332
   1   5 -23   29.60   90.91   1-0.74414 0.68984 0.65888-0.31304-0.11011-0.65277
   1  -5 -23    0.80  112.60   1-0.67730 0.62299 0.42008-0.76593-0.60397-0.15881
  -1  -5  23    0.59   85.68   1 0.73587-0.68165-0.66882 0.32302 0.10562 0.65650
   1   5 -22  531.70  131.39   1-0.74139 0.69267 0.66586-0.32002-0.08336-0.64635
   1  -5 -22  632.72  159.47   1-0.67784 0.62910 0.42104-0.76688-0.60270-0.12691
  -1  -5  22  546.15  149.95   1 0.73284-0.68419-0.67583 0.33003 0.07863 0.65035
   1  -5 -21 1806.95  239.63   1-0.67790 0.63474 0.42114-0.76699-0.60256-0.09389
  -1  -5  21 2185.08  256.67   1 0.72960-0.68671-0.68194 0.33599 0.05121 0.64461
   1  -5 -20 3498.31  326.90   1-0.67744 0.63985 0.42032-0.76617-0.60365-0.05964
  -1  -5  20 3707.55  303.41   1 0.72517-0.68783-0.68819 0.34224 0.02258 0.64011
   1  -5 -19 1590.76  220.37   1-0.67639 0.64438 0.41847-0.76432-0.60611-0.02402
  -1  -5  19 2100.56  231.81   1 0.71991-0.68813-0.69402 0.34807-0.00707 0.63664
   1  -5 -18 1931.39  265.99   1-0.67468 0.64825 0.41546-0.76131-0.61007 0.01310
  -1  -5  18 2430.18  242.04   1 0.71372-0.68749-0.69940 0.35345-0.03793 0.63436
   1  -5 -17 7805.91  375.13   1-0.67221 0.65135 0.41114-0.75699-0.61570 0.05190
  -1  -5  17 8582.16  344.88   1 0.70646-0.68579-0.70426 0.35831-0.07018 0.63348
   1  -5 -16 3524.77  314.94   1-0.66885 0.65357 0.40533-0.75118-0.62316 0.09253
  -1  -5  16 3882.11  250.46   1 0.69796-0.68285-0.70853 0.36258-0.10406 0.63423
   1  -5 -15 2221.85  231.59   1-0.66443 0.65473 0.39782-0.74367-0.63266 0.13519
  -1  -5  15 2644.86  218.40   1 0.68860-0.67834-0.71130 0.36519-0.14095 0.63755
   1  -5 -14 3829.88  297.62   1-0.65875 0.65463 0.38833-0.73418-0.64438 0.18007
  -1  -5  14 3761.28  221.95   1 0.67689-0.67224-0.71399 0.36787-0.17896 0.64246
   1  -5 -13 2027.67  224.86   1-0.65117 0.65264 0.37685-0.72266-0.65875 0.22759
  -1  -5  13 2089.95  190.99   1 0.66305-0.66400-0.71561 0.36950-0.21965 0.65004
   1  -5 -12   80.39   64.06   1-0.64211 0.64916 0.36238-0.70820-0.67555 0.27756
  -1  -5  12  129.40   73.91   1 0.64657-0.65312-0.71588 0.36976-0.26354 0.66082
   1  -5 -11  147.06   86.07   1-0.63076 0.64339 0.34477-0.69059-0.69516 0.33034
  -1  -5  11   91.50  103.98   1 0.62793-0.64044-0.71336 0.36793-0.31114 0.67413
   1  -5 -1026430.82  570.11   1-0.61661 0.63481 0.32348-0.66929-0.71773 0.38608
  -1  -5  1027806.14  525.56   1 0.60378-0.62185-0.70951 0.36408-0.36336 0.69334
   1  -5  -9   82.21   55.33   1-0.59898 0.62275 0.29786-0.64367-0.74330 0.44480
  -1  -5   9  148.63   62.06   1 0.57410-0.59773-0.70232 0.35690-0.42088 0.71786
   1  -5  -827313.72  531.91   1-0.57742 0.60665 0.26735-0.61305-0.77142 0.50609
  -1  -5   828632.62  507.46   1 0.53916-0.56862-0.69007 0.34491-0.48281 0.74679
   1  -5  -743928.83  716.41   1-0.55030 0.58511 0.23089-0.57659-0.80240 0.57024
  -1  -5   745356.34  656.82   1 0.49287-0.52786-0.67171 0.32655-0.55305 0.78403
   1  -5  -6 3108.89  286.45   1-0.51687 0.55727 0.18787-0.53357-0.83519 0.63619
  -1  -5   6 3423.34  151.82   1 0.43643-0.47691-0.64373 0.29866-0.62859 0.82665
   1  -5  -5 3245.49  174.62   1-0.47598 0.52197 0.13762-0.48332-0.86861 0.70280
  -1  -5   5 3284.19  138.53   1 0.36231-0.40832-0.60323 0.25816-0.71052 0.87556
   1  -5  -423154.85  409.17   1-0.42667 0.47825 0.07986-0.42556-0.90087 0.76822
  -1  -5   422427.98  295.51   1 0.27180-0.32338-0.54532 0.20014-0.79293 0.92485
   1  -5  -366065.96  654.27   1-0.36871 0.42586 0.01471-0.36044-0.92942 0.82988
  -1  -5   365220.52  540.66   1 0.16227-0.21951-0.46690 0.12135-0.86929 0.96803
   1  -5  -2 1411.16  124.77   1-0.30102 0.36377-0.05685-0.28887-0.95192 0.88556
  -1  -5   2 1381.20  101.13   1 0.03817-0.10103-0.36935 0.02365-0.92850 0.99460
   1  -5  -1 2554.64  163.17   1-0.22501 0.29337-0.13342-0.21247-0.96517 0.93208
  -1  -5   1 2861.67  146.26   1-0.09727 0.02895-0.25435-0.09159-0.96220 0.99537
  -1  -5   0 7108.53  195.86   1-0.22587 0.15197-0.13258-0.21331-0.96509 0.96509
   1  -5   0 7694.59  273.87   1-0.14273 0.21662-0.21133-0.13456-0.96693 0.96693
  -1  -5  -1 8011.73  216.35   1-0.34112 0.26157-0.01492-0.33080-0.93990 0.90672
  -1  -5  -2111764.5  849.70   1-0.43487 0.34978 0.08927-0.43497-0.89605 0.82972
   1  -5   2110494.0  897.92   1 0.02788 0.05708-0.36099 0.01528-0.93215 0.99825
  -1  -5  -3242419.8 1440.70   1-0.50805 0.41737 0.17683-0.52253-0.84297 0.74347
   1  -5   3242976.7 1550.36   1 0.11144-0.02094-0.42709 0.08139-0.89731 0.99646
  -1  -5  -4196067.5 1265.42   1-0.56291 0.46664 0.24766-0.59335-0.78853 0.65586
   1  -5   4198633.3 1345.31   1 0.18693-0.09093-0.48479 0.13924-0.85441 0.98607
  -1  -5  -525159.37  397.74   1-0.60300 0.50119 0.30361-0.64943-0.73770 0.57187
   1  -5   526857.58  421.95   1 0.25715-0.15572-0.53560 0.19042-0.80436 0.96927
  -1  -5  -6  704.81  104.29   1-0.63272 0.52534 0.34777-0.69359-0.69189 0.49289
   1  -5   6  778.85  114.04   1 0.32120-0.21423-0.57689 0.23171-0.75100 0.94889
  -1  -5  -7   53.06   64.02   1-0.65504 0.54205 0.38221-0.72806-0.65179 0.41963
   1  -5   7   25.85   67.90   1 0.37660-0.26413-0.61146 0.26640-0.69589 0.92696
  -1  -5  -8 1426.32  216.16   1-0.67112 0.55256 0.40926-0.75510-0.61813 0.35281
   1  -5   8 1572.12  133.29   1 0.42617-0.30817-0.63847 0.29340-0.64087 0.90495
  -1  -5  -9 2051.55  171.49   1-0.68305 0.55891 0.43042-0.77626-0.59006 0.29157
   1  -5   9 2097.12  155.94   1 0.46935-0.34581-0.65976 0.31470-0.58687 0.88395
  -1  -5 -10  178.39   71.06   1-0.69193 0.56221 0.44695-0.79279-0.56697 0.23532
   1  -5  10  268.81  100.01   1 0.50537-0.37638-0.67701 0.33185-0.53501 0.86498
  -1  -5 -11  411.70  108.83   1-0.69855 0.56326 0.45980-0.80565-0.54827 0.18345
   1  -5  11  426.64   89.15   1 0.53800-0.40348-0.68965 0.34449-0.48468 0.84765
  -1  -5 -1212228.54 1082.37   1-0.70347 0.56260 0.46971-0.81556-0.53337 0.13540
   1  -5  1214389.08  413.20   1 0.56507-0.42468-0.69969 0.35426-0.43717 0.83314
  -1  -5 -13 5082.89  390.72   1-0.70709 0.56065 0.47722-0.82307-0.52179 0.09065
   1  -5  13 6477.11  328.70   1 0.58986-0.44391-0.70644 0.36101-0.39114 0.82012
  -1  -5 -14 3945.82  525.06   1-0.71010 0.55802 0.48252-0.82841-0.51275 0.04839
   1  -5  14 4863.18  299.33   1 0.61154-0.46002-0.71096 0.36554-0.34719 0.80916
  -1  -5 -15 7041.16  937.61   1-0.71190 0.55423 0.48642-0.83230-0.50654 0.00901
   1  -5  15 7348.81  334.27   1 0.63053-0.47345-0.71364 0.36822-0.30518 0.80015
  -1  -5 -16  189.44   81.54   1-0.71304 0.54980 0.48893-0.83481-0.50250-0.02819
   1  -5  16  232.07  115.42   1 0.64636-0.48289-0.71587 0.36975-0.26407 0.79378
  -1  -5 -17 1704.93  322.33   1-0.71364 0.54481 0.49026-0.83614-0.50035-0.06351
   1  -5  17 1877.67  189.74   1 0.66095-0.49187-0.71574 0.36962-0.22548 0.78830
  -1  -5 -18 1680.93  334.15   1-0.71378 0.53937 0.49055-0.83644-0.49986-0.09716
   1  -5  18 1799.27  247.78   1 0.67380-0.49911-0.71448 0.36837-0.18840 0.78433
  -1  -5 -19   45.06   77.75   1-0.71350 0.53351 0.48995-0.83583-0.50084-0.12935
   1  -5  19  188.14  154.48   1 0.68511-0.50482-0.71225 0.36613-0.15268 0.78172
  -1  -5 -20   90.37   62.23   1-0.71287 0.52729 0.48854-0.83443-0.50312-0.16024
   1  -5  20  121.46  158.20   1 0.69505-0.50916-0.70916 0.36305-0.11820 0.78034
  -1  -5 -21  902.73  224.61   1-0.71190 0.52074 0.48642-0.83230-0.50655-0.18998
   1  -5  21  821.87  201.84   1 0.70322-0.51275-0.70604 0.36009-0.08352 0.77936
  -1  -5 -22  328.92  116.95   1-0.71061 0.51387 0.48363-0.82951-0.51100-0.21870
   1  -5  22  598.91  211.47   1 0.71085-0.51482-0.70148 0.35553-0.05112 0.78009
  -1  -5 -23 1010.39  216.48   1-0.70903 0.50671 0.48023-0.82612-0.51637-0.24650
   1  -5  23 1718.08  261.85   1 0.71748-0.51590-0.69629 0.35034-0.01961 0.78172
  -1  -5 -24  778.54  256.17   1-0.70678 0.49899 0.47657-0.82242-0.52280-0.27315
   1  -5  24  733.10  190.37   1 0.72321-0.51607-0.69053 0.34458 0.01107 0.78416
   1  -5  25  131.61  155.36   1 0.72810-0.51541-0.68423 0.33829 0.04103 0.78734
   1   6 -24 1979.22  280.30   1-0.74402 0.68415 0.65923-0.24422-0.10882-0.68723
   1  -6 -24 2199.19  348.11   1-0.65222 0.59238 0.37855-0.79353-0.65673-0.13924
  -1  -6  24 2045.13  302.29   1 0.73566-0.67588-0.66938 0.25441 0.10356 0.69170
   1   6 -23  988.70  193.49   1-0.74112 0.68682 0.66647-0.25146-0.08095-0.68193
   1  -6 -23 1142.13  247.69   1-0.65257 0.59831 0.37913-0.79411-0.65604-0.10676
  -1  -6  23  925.94  209.78   1 0.73245-0.67823-0.67662 0.26166 0.07544 0.68668
   1  -6 -22   60.06  116.18   1-0.65240 0.60371 0.37884-0.79382-0.65638-0.07326
  -1  -6  22  326.95  137.21   1 0.72898-0.68053-0.68291 0.26778 0.04694 0.68203
   1  -6 -21  642.81  167.27   1-0.65164 0.60852 0.37761-0.79259-0.65785-0.03862
  -1  -6  21  873.58  206.65   1 0.72426-0.68137-0.68930 0.27416 0.01718 0.67864
   1  -6 -20 1985.05  258.68   1-0.65023 0.61269 0.37533-0.79031-0.66054-0.00277
  -1  -6  20 2598.81  264.39   1 0.71867-0.68133-0.69521 0.28007-0.01356 0.67626
   1  -6 -19 1576.79  238.40   1-0.64810 0.61613 0.37190-0.78688-0.66456 0.03441
  -1  -6  19 1715.18  218.94   1 0.71209-0.68031-0.70060 0.28546-0.04547 0.67503
   1  -6 -18  653.91  211.93   1-0.64515 0.61875 0.36719-0.78217-0.67003 0.07304
  -1  -6  18  824.08  190.91   1 0.70441-0.67818-0.70541 0.29027-0.07869 0.67513
   1  -6 -17 8199.13  451.73   1-0.64126 0.62044 0.36105-0.77603-0.67706 0.11325
  -1  -6  17 7474.07  324.61   1 0.69545-0.67478-0.70955 0.29442-0.11344 0.67674
   1  -6 -16   13.05  150.59   1-0.63629 0.62104 0.35328-0.76826-0.68580 0.15514
  -1  -6  16   39.48   95.73   1 0.68563-0.66976-0.71212 0.29678-0.15096 0.68068
   1  -6 -1510951.72  412.73   1-0.63005 0.62038 0.34368-0.75866-0.69635 0.19886
  -1  -6  1512514.11  389.42   1 0.67346-0.66321-0.71453 0.29919-0.18941 0.68602
   1  -6 -14  163.81  116.48   1-0.62233 0.61823 0.33200-0.74698-0.70885 0.24452
  -1  -6  14   81.66   81.58   1 0.65924-0.65459-0.71582 0.30048-0.23019 0.69369
   1  -6 -13 1614.00  337.16   1-0.61286 0.61433 0.31794-0.73292-0.72340 0.29224
  -1  -6  13 1486.35  167.51   1 0.64254-0.64349-0.71571 0.30037-0.27366 0.70405
   1  -6 -1212498.10  756.65   1-0.60130 0.60835 0.30117-0.71615-0.74008 0.34209
  -1  -6  1212913.24  331.54   1 0.62389-0.63085-0.71286 0.29835-0.32026 0.71624
   1  -6 -11  530.10  135.59   1-0.58725 0.59988 0.28130-0.69628-0.75894 0.39411
  -1  -6  11  309.58   82.30   1 0.60035-0.61287-0.70880 0.29429-0.37035 0.73333
   1  -6 -10  436.04  119.64   1-0.57062 0.58868 0.25806-0.67290-0.77960 0.44794
  -1  -6  10  473.50  106.59   1 0.57218-0.59026-0.70178 0.28727-0.42438 0.75436
   1  -6  -9 5271.53  256.77   1-0.55012 0.57377 0.23066-0.64550-0.80259 0.50409
  -1  -6   9 5349.04  197.76   1 0.54019-0.56413-0.69044 0.27624-0.48112 0.77809
   1  -6  -8 2699.25  193.06   1-0.52548 0.55472 0.19878-0.61362-0.82725 0.56192
  -1  -6   8 2489.22  159.58   1 0.49925-0.52871-0.67445 0.26026-0.54393 0.80791
   1  -6  -737660.28  674.18   1-0.49601 0.53083 0.16195-0.57678-0.85307 0.62091
  -1  -6   738917.28  619.27   1 0.45169-0.48662-0.65132 0.23725-0.60971 0.84077
   1  -6  -6 4300.90  241.92   1-0.46098 0.50138 0.11974-0.53457-0.87929 0.68032
  -1  -6   6 4456.24  185.36   1 0.39159-0.43207-0.61989 0.20582-0.67998 0.87803
   1  -6  -530590.31  557.78   1-0.41976 0.46575 0.07199-0.48683-0.90477 0.73896
  -1  -6   530115.02  480.62   1 0.32154-0.36758-0.57710 0.16288-0.75070 0.91561
   1  -6  -4  294.04   79.61   1-0.37236 0.42392 0.01868-0.43356-0.92789 0.79518
  -1  -6   4  314.35   72.76   1 0.23915-0.29084-0.52134 0.10668-0.81914 0.95080
   1  -6  -3 9352.96  311.73   1-0.31752 0.37468-0.03975-0.37512-0.94741 0.84787
  -1  -6   3 8822.08  247.57   1 0.14263-0.19986-0.45235 0.03769-0.88035 0.97909
   1  -6  -2 6494.73  261.27   1-0.25586 0.31867-0.10303-0.31204-0.96120 0.89502
  -1  -6   2 6213.25  196.34   1 0.04071-0.10357-0.37141-0.04342-0.92757 0.99367
   1  -6  -1 2643.68  172.18   1-0.18863 0.25699-0.16842-0.24665-0.96749 0.93440
  -1  -6   1 2653.70  137.92   1-0.06848 0.00016-0.27975-0.13538-0.95762 0.99079
  -1  -6   0  944.19   98.58   1-0.17283 0.09893-0.18334-0.23173-0.96773 0.96773
   1  -6   0  923.79  126.42   1-0.11852 0.19247-0.23527-0.17987-0.96467 0.96467
  -1  -6  -116953.52  336.57   1-0.27058 0.19103-0.08784-0.32703-0.95868 0.92550
   1  -6   116064.27  364.72   1-0.04391 0.12348-0.30104-0.11409-0.95259 0.98576
  -1  -6  -236968.10  570.82   1-0.35607 0.27093 0.00105-0.41593-0.93445 0.86809
   1  -6   234407.60  578.45   1 0.03087 0.05410-0.36342-0.05141-0.93111 0.99721
  -1  -6  -3111618.0  734.32   1-0.42685 0.33617 0.08007-0.49490-0.90076 0.80128
   1  -6   3108921.1 1376.53   1 0.10436-0.01385-0.42165 0.00681-0.90073 0.99988
  -1  -6  -410089.05  303.92   1-0.48485 0.38858 0.14833-0.56316-0.86192 0.72927
   1  -6   410338.81  320.66   1 0.17173-0.07574-0.47381 0.05915-0.86371 0.99537
  -1  -6  -543108.67  672.66   1-0.53105 0.42920 0.20589-0.62073-0.82193 0.65610
   1  -6   545015.64  718.40   1 0.23718-0.13565-0.52000 0.10534-0.82056 0.98513
  -1  -6  -6 1909.45  173.73   1-0.56739 0.45994 0.25369-0.66852-0.78339 0.58439
   1  -6   6 1869.75  181.80   1 0.29603-0.18906-0.56105 0.14683-0.77303 0.97092
  -1  -6  -7 1828.25  138.10   1-0.59544 0.48248 0.29281-0.70779-0.74813 0.51597
   1  -6   7 2231.45  194.95   1 0.35059-0.23809-0.59472 0.18050-0.72344 0.95432
  -1  -6  -8 5023.22  283.25   1-0.61767 0.49914 0.32505-0.74002-0.71611 0.45078
   1  -6   8 6143.00  557.69   1 0.39826-0.28025-0.62357 0.20950-0.67271 0.93678
  -1  -6  -914694.97  366.90   1-0.63504 0.51094 0.35135-0.76633-0.68794 0.38945
   1  -6   916270.04  391.48   1 0.44185-0.31830-0.64645 0.23238-0.62198 0.91906
  -1  -6 -1043476.32  622.08   1-0.64862 0.51895 0.37275-0.78772-0.66358 0.33192
   1  -6  1046764.48  720.57   1 0.47891-0.34992-0.66553 0.25134-0.57245 0.90242
  -1  -6 -11 2228.05  219.04   1-0.65970 0.52441 0.38990-0.80492-0.64246 0.27765
   1  -6  11 2273.14  205.52   1 0.51308-0.37856-0.68016 0.26597-0.52356 0.88653
  -1  -6 -12 7361.88  344.41   1-0.66799 0.52712 0.40387-0.81889-0.62503 0.22705
   1  -6  12 9043.61  368.66   1 0.54325-0.40320-0.69151 0.27732-0.47610 0.87207
  -1  -6 -1312805.29  419.34   1-0.67444 0.52800 0.41504-0.83006-0.61062 0.17948
   1  -6  1313930.74  400.29   1 0.56855-0.42260-0.70073 0.28622-0.43095 0.85993
  -1  -6 -14 -141.65  114.68   1-0.67942 0.52740 0.42386-0.83888-0.59893 0.13462
   1  -6  14   21.36   99.32   1 0.59212-0.44061-0.70697 0.29246-0.38674 0.84871
  -1  -6 -15 2743.46  222.18   1-0.68320 0.52560 0.43069-0.84571-0.58968 0.09221
   1  -6  15 3036.61  269.57   1 0.61297-0.45590-0.71121 0.29670-0.34414 0.83911
  -1  -6 -16  470.92  194.01   1-0.68600 0.52282 0.43583-0.85085-0.58262 0.05198
   1  -6  16  803.33  178.74   1 0.63142-0.46879-0.71374 0.29923-0.30310 0.83107
  -1  -6 -1715756.39  520.96   1-0.68798 0.51923 0.43950-0.85452-0.57750 0.01370
   1  -6  1716637.84  517.53   1 0.64694-0.47786-0.71589 0.30055-0.26259 0.82541
  -1  -6 -18   51.97  147.96   1-0.68926 0.51493 0.44190-0.85692-0.57413-0.02283
   1  -6  18  426.27  188.26   1 0.66135-0.48667-0.71572 0.30038-0.22438 0.82031
  -1  -6 -19  737.14  176.50   1-0.68994 0.51004 0.44318-0.85820-0.57232-0.05780
   1  -6  19  644.80  163.44   1 0.67411-0.49382-0.71443 0.29910-0.18746 0.81650
  -1  -6 -20  689.66  211.50   1-0.69010 0.50461 0.44347-0.85849-0.57191-0.09137
   1  -6  20  835.62  218.90   1 0.68540-0.49951-0.71218 0.29684-0.15171 0.81386
  -1  -6 -21  390.80  193.32   1-0.68978 0.49872 0.44287-0.85789-0.57277-0.12368
   1  -6  21  251.71  149.47   1 0.69537-0.50387-0.70905 0.29371-0.11705 0.81230
  -1  -6 -22 2266.44  306.80   1-0.68903 0.49239 0.44146-0.85648-0.57475-0.15486
   1  -6  22 2042.33  283.45   1 0.70357-0.50754-0.70586 0.29072-0.08212 0.81109
  -1  -6 -23  257.27  228.42   1-0.68788 0.48567 0.43931-0.85433-0.57776-0.18502
   1  -6  23  348.74  196.41   1 0.71125-0.50967-0.70120 0.28606-0.04931 0.81141
  -1  -6 -24  722.07  201.52   1-0.68636 0.47857 0.43649-0.85150-0.58170-0.21424
   1  -6  24  569.13  164.39   1 0.71794-0.51080-0.69588 0.28075-0.01731 0.81256
   1  -7 -23  156.91  142.90   1-0.62453 0.57026 0.33530-0.81944-0.70535-0.05745
  -1  -7  23  109.91  102.01   1 0.72969-0.67569-0.68179 0.19747 0.05186 0.71024
   1  -7 -22 1443.11  236.53   1-0.62353 0.57484 0.33380-0.81794-0.70695-0.02269
  -1  -7  22 1868.51  272.12   1 0.72497-0.67652-0.68843 0.20411 0.02140 0.70756
   1  -7 -21 2568.00  314.63   1-0.62184 0.57873 0.33127-0.81541-0.70962 0.01314
  -1  -7  21 2773.44  282.97   1 0.71936-0.67646-0.69456 0.21023-0.00999 0.70582
   1  -7 -20  253.89  133.79   1-0.61939 0.58185 0.32760-0.81174-0.71346 0.05014
  -1  -7  20  133.03   78.08   1 0.71275-0.67541-0.70012 0.21580-0.04245 0.70515
   1  -7 -19  269.74  125.08   1-0.61608 0.58411 0.32269-0.80684-0.71854 0.08839
  -1  -7  19  300.46  119.69   1 0.70503-0.67325-0.70507 0.22074-0.07612 0.70568
   1  -7 -18  729.32  116.26   1-0.61181 0.58542 0.31642-0.80056-0.72495 0.12796
  -1  -7  18  662.25  171.39   1 0.69607-0.66984-0.70931 0.22498-0.11116 0.70759
   1  -7 -17 1351.16  221.83   1-0.60646 0.58564 0.30862-0.79276-0.73276 0.16895
  -1  -7  17 1511.46  225.72   1 0.68630-0.66484-0.71194 0.22738-0.14871 0.71153
   1  -7 -16  549.09  121.22   1-0.59987 0.58462 0.29912-0.78326-0.74207 0.21142
  -1  -7  16  676.13  142.26   1 0.67427-0.65841-0.71441 0.22985-0.18698 0.71670
  -1  -7  15  247.60  116.55   1 0.66032-0.65006-0.71577 0.23121-0.22723 0.72384
   1  -7 -14 2851.82  265.59   1-0.58218 0.57809 0.27425-0.75839-0.76540 0.30108
  -1  -7  14 3124.20  226.52   1 0.64412-0.63946-0.71579 0.23122-0.26972 0.73322
   1  -7 -13 4979.00  284.77   1-0.57099 0.57229 0.25857-0.74254-0.77917 0.34800
  -1  -7  13 5325.64  252.68   1 0.62629-0.62769-0.71316 0.22957-0.31486 0.74384
   1  -7 -12 7448.95  351.05   1-0.55723 0.56411 0.24007-0.72404-0.79489 0.39689
  -1  -7  12 7213.65  270.31   1 0.60414-0.61109-0.70958 0.22598-0.36263 0.75861
   1  -7 -11 9253.72  376.57   1-0.54092 0.55339 0.21862-0.70260-0.81216 0.44733
  -1  -7  11 9408.84  312.58   1 0.57815-0.59066-0.70344 0.21984-0.41340 0.77638
   1  -7 -10 2696.58  237.42   1-0.52166 0.53971 0.19392-0.67789-0.83082 0.49915
  -1  -7  10 3303.74  209.46   1 0.54944-0.56785-0.69363 0.21041-0.46580 0.79578
   1  -7  -952328.83  729.60   1-0.49901 0.52265 0.16563-0.64960-0.85061 0.55212
  -1  -7   952361.13  608.03   1 0.51346-0.53740-0.68031 0.19709-0.52299 0.81997
   1  -7  -8 4111.28  271.50   1-0.47248 0.50171 0.13342-0.61740-0.87118 0.60588
  -1  -7   8 3923.40  197.13   1 0.47099-0.50045-0.66189 0.17867-0.58314 0.84712
   1  -7  -717588.06  418.83   1-0.44165 0.47647 0.09711-0.58108-0.89191 0.65977
  -1  -7   717091.76  332.51   1 0.42316-0.45810-0.63690 0.15381-0.64442 0.87548
   1  -7  -6 1717.97  169.15   1-0.40604 0.44645 0.05650-0.54048-0.91210 0.71313
  -1  -7   6 1677.63  129.36   1 0.36479-0.40526-0.60467 0.12158-0.70802 0.90607
   1  -7  -5 3200.82  217.33   1-0.36584 0.41180 0.01159-0.49561-0.93060 0.76470
  -1  -7   5 3315.32  167.43   1 0.29951-0.34556-0.56327 0.08002-0.77006 0.93497
   1  -7  -413160.81  339.53   1-0.31976 0.37132-0.03741-0.44660-0.94675 0.81403
  -1  -7   413523.95  274.51   1 0.22583-0.27752-0.51220 0.02843-0.82864 0.96029
   1  -7  -310233.71  345.16   1-0.26836 0.32552-0.09007-0.39394-0.95909 0.85955
  -1  -7   310004.66  261.92   1 0.14203-0.19926-0.45190-0.03186-0.88068 0.97942
   1  -7  -211009.89  341.48   1-0.21189 0.27470-0.14615-0.33810-0.96630 0.90012
  -1  -7   210954.90  272.39   1 0.05605-0.11891-0.38375-0.10023-0.92173 0.98783
   1  -7  -1 7837.22  282.07   1-0.15138 0.21973-0.20335-0.28090-0.96733 0.93424
  -1  -7   1 6998.40  219.91   1-0.03554-0.03277-0.30821-0.17612-0.95065 0.98382
  -1  -7   014673.43  327.75   1-0.12589 0.05194-0.22859-0.25574-0.96534 0.96534
   1  -7   014970.47  384.87   1-0.08929 0.16324-0.26144-0.22288-0.96107 0.96107
  -1  -7  -1 1668.32  123.45   1-0.20837 0.12893-0.14954-0.33470-0.96654 0.93345
   1  -7   1 1495.32  137.40   1-0.02335 0.10293-0.31857-0.16576-0.94761 0.98077
  -1  -7  -2  365.41   89.42   1-0.28541 0.20027-0.07282-0.41119-0.95563 0.88927
   1  -7   2  322.98   89.50   1 0.04273 0.04224-0.37304-0.11093-0.92682 0.99292
  -1  -7  -3  335.79   85.62   1-0.35308 0.26234-0.00215-0.48186-0.93559 0.83605
   1  -7   3  252.05  120.76   1 0.10812-0.01761-0.42454-0.05943-0.89892 0.99807
  -1  -7  -4  519.36  114.95   1-0.41026 0.31400 0.06125-0.54522-0.90990 0.77725
   1  -7   4  624.43  117.53   1 0.16851-0.07251-0.47146-0.01230-0.86563 0.99729
  -1  -7  -536159.05  503.65   1-0.45883 0.35697 0.11720-0.60117-0.88075 0.71494
   1  -7   535751.94  534.98   1 0.22830-0.12677-0.51391 0.03014-0.82690 0.99147
  -1  -7  -6 2825.14  478.37   1-0.49906 0.39162 0.16570-0.64967-0.85057 0.65157
   1  -7   6 2750.54  203.03   1 0.28274-0.17577-0.55248 0.06922-0.78410 0.98199
  -1  -7  -7 2222.72  400.97   1-0.53207 0.41904 0.20720-0.69118-0.82095 0.58878
   1  -7   7 2819.06  461.23   1 0.33442-0.22191-0.58500 0.10175-0.73887 0.96974
  -1  -7  -8 6469.70  271.74   1-0.55902 0.44040 0.24245-0.72643-0.79291 0.52758
   1  -7   8 7135.16  299.98   1 0.38027-0.26226-0.61355 0.13046-0.69206 0.95613
  -1  -7  -914001.27  397.50   1-0.58055 0.45644 0.27198-0.75612-0.76745 0.46895
   1  -7   915151.77  443.43   1 0.42307-0.29953-0.63685 0.15377-0.64452 0.94161
  -1  -7 -10 5275.92  318.36   1-0.59838 0.46870 0.29700-0.78114-0.74413 0.41247
   1  -7  10 6861.66  309.94   1 0.46164-0.33256-0.65612 0.17304-0.59697 0.92707
  -1  -7 -11 8367.60  683.72   1-0.61284 0.47759 0.31792-0.80206-0.72342 0.35860
   1  -7  11 8651.66  348.75   1 0.49465-0.36013-0.67248 0.18926-0.55052 0.91350
  -1  -7 -1210649.59  388.66   1-0.62455 0.48373 0.33534-0.81948-0.70532 0.30733
   1  -7  1211419.01  412.23   1 0.52563-0.38558-0.68508 0.20185-0.50434 0.90031
  -1  -7 -13 2403.56  220.67   1-0.63400 0.48761 0.34975-0.83389-0.68971 0.25855
   1  -7  13 3499.92  270.18   1 0.55332-0.40774-0.69492 0.21170-0.45924 0.88821
  -1  -7 -14  697.35  169.15   1-0.64160 0.48963 0.36158-0.84572-0.67646 0.21213
   1  -7  14  799.67  162.40   1 0.57668-0.42517-0.70304 0.21944-0.41613 0.87810
  -1  -7 -15 1899.14  231.16   1-0.64765 0.49010 0.37119-0.85533-0.66540 0.16791
   1  -7  15 2139.03  237.52   1 0.59877-0.44170-0.70847 0.22487-0.37354 0.86852
  -1  -7 -16  675.55  176.45   1-0.65241 0.48929 0.37886-0.86301-0.65636 0.12571
   1  -7  16 1042.29  200.80   1 0.61848-0.45585-0.71210 0.22850-0.33225 0.86022
  -1  -7 -17   38.33  130.88   1-0.65651 0.48776 0.38463-0.86882-0.64888 0.08508
   1  -7  17   12.23  120.60   1 0.63606-0.46786-0.71416 0.23056-0.29222 0.85319
  -1  -7 -18 1062.73  230.21   1-0.65924 0.48491 0.38913-0.87332-0.64340 0.04643
   1  -7  18 1340.81  239.36   1 0.65091-0.47623-0.71596 0.23140-0.25239 0.84832
  -1  -7 -19  188.18  174.59   1-0.66116 0.48126 0.39233-0.87652-0.63947 0.00934
   1  -7  19  298.31  171.60   1 0.66480-0.48452-0.71549 0.23092-0.21471 0.84374
  -1  -7 -20   87.78  134.94   1-0.66238 0.47690 0.39437-0.87856-0.63695-0.02633
   1  -7  20  141.02  135.22   1 0.67716-0.49127-0.71394 0.22938-0.17811 0.84025
  -1  -7 -21 3048.05  350.93   1-0.66297 0.47191 0.39536-0.87955-0.63573-0.06072
   1  -7  21 3166.95  315.56   1 0.68814-0.49664-0.71143 0.22687-0.14252 0.83777
  -1  -7 -22 2945.63  357.11   1-0.66299 0.46636 0.39540-0.87959-0.63568-0.09394
   1  -7  22 3447.25  355.61   1 0.69726-0.50124-0.70882 0.22450-0.10670 0.83567
   1  -8 -22  -58.64  129.36   1-0.59098 0.54229 0.28652-0.83983-0.75408 0.02443
   1  -8 -21   -5.02  126.07   1-0.58831 0.54519 0.28277-0.83607-0.75758 0.06109
  -1  -8  21   36.68   87.14   1 0.71538-0.67248-0.69808 0.14457-0.03001 0.72585
   1  -8 -20  137.26  141.78   1-0.58476 0.54722 0.27782-0.83113-0.76214 0.09882
  -1  -8  20   47.15   82.16   1 0.70796-0.67062-0.70336 0.14984-0.06380 0.72650
   1  -8 -19  367.14  239.32   1-0.58025 0.54828 0.27157-0.82488-0.76782 0.13767
  -1  -8  19  211.72  121.88   1 0.69934-0.66756-0.70792 0.15440-0.09880 0.72836
   1  -8 -18  222.30   63.95   1-0.57503 0.54839 0.26408-0.81719-0.77433 0.17734
  -1  -8  18  262.80  108.69   1 0.69002-0.66295-0.71088 0.15709-0.13606 0.73199
   1  -8 -17 1355.07  231.55   1-0.56824 0.54719 0.25484-0.80796-0.78239 0.21857
  -1  -8  17  981.12  202.08   1 0.67853-0.65707-0.71369 0.15991-0.17384 0.73667
   1  -8 -16  -19.82  126.79   1-0.56010 0.54464 0.24389-0.79700-0.79170 0.26104
  -1  -8  16   -5.58   79.75   1 0.66530-0.64943-0.71545 0.16166-0.21331 0.74302
   1  -8 -15  719.99  191.05   1-0.55041 0.54054 0.23105-0.78416-0.80227 0.30478
  -1  -8  15  673.46  147.92   1 0.65005-0.63979-0.71595 0.16217-0.25463 0.75124
   1  -8 -14   80.42  116.72   1-0.53899 0.53471 0.21613-0.76924-0.81410 0.34977
  -1  -8  14  -10.35   62.96   1 0.63351-0.62934-0.71394 0.16126-0.29823 0.76020
   1  -8 -13    4.04   99.70   1-0.52560 0.52690 0.19893-0.75204-0.82714 0.39598
  -1  -8  13  146.64  110.34   1 0.61312-0.61451-0.71124 0.15856-0.34382 0.77280
   1  -8 -12  795.18  157.50   1-0.50997 0.51686 0.17923-0.73234-0.84130 0.44331
  -1  -8  12  633.54  132.35   1 0.58953-0.59649-0.70636 0.15368-0.39179 0.78777
   1  -8 -11 7169.86  702.99   1-0.49181 0.50428 0.15680-0.70992-0.85646 0.49163
  -1  -8  11 6653.48  270.62   1 0.56222-0.57474-0.69882 0.14614-0.44219 0.80517
   1  -8 -10  297.63  152.30   1-0.47079 0.48886 0.13141-0.68452-0.87239 0.54077
  -1  -8  10  303.39  105.20   1 0.53249-0.55090-0.68765 0.13539-0.49353 0.82351
   1  -8  -9  417.51   86.50   1-0.44663 0.47028 0.10290-0.65601-0.88877 0.59032
  -1  -8   9  261.41   99.59   1 0.49595-0.51988-0.67304 0.12078-0.54867 0.84565
   1  -8  -810679.94  377.76   1-0.41896 0.44819 0.07108-0.62419-0.90521 0.63992
  -1  -8   810369.49  298.72   1 0.45586-0.48526-0.65335 0.10125-0.60441 0.86848
   1  -8  -7  297.87  132.36   1-0.38747 0.42229 0.03584-0.58896-0.92118 0.68904
  -1  -8   7  289.81  104.48   1 0.40743-0.44237-0.62856 0.07646-0.66250 0.89356
   1  -8  -621699.38  528.02   1-0.35247 0.39283-0.00281-0.55035-0.93581 0.73674
  -1  -8   621572.06  462.69   1 0.35437-0.39488-0.59696 0.04467-0.71975 0.91764
   1  -8  -5 2727.53  202.95   1-0.31267 0.35864-0.04480-0.50836-0.94880 0.78290
  -1  -8   5 2577.96  177.56   1 0.29248-0.33853-0.55878 0.00648-0.77602 0.94093
   1  -8  -4  213.95  100.40   1-0.26859 0.32015-0.08984-0.46332-0.95905 0.82633
  -1  -8   4  248.98   74.84   1 0.22683-0.27852-0.51289-0.03998-0.82794 0.95959
   1  -8  -327705.97  517.81   1-0.22014 0.27741-0.13816-0.41527-0.96563 0.86636
  -1  -8   325421.64  402.65   1 0.15326-0.21049-0.46025-0.09262-0.87445 0.97319
   1  -8  -2  114.03  114.97   1-0.16827 0.23109-0.18762-0.36581-0.96771 0.90153
  -1  -8   2    9.97   58.82   1 0.07919-0.14205-0.40208-0.15103-0.91216 0.97826
   1  -8  -1  720.12  140.79   1-0.11507 0.18339-0.23839-0.31513-0.96432 0.93115
  -1  -8   1  671.60   92.55   1 0.00003-0.06842-0.33801-0.21510-0.94114 0.97419
  -1  -8   0 3000.19  173.18   1-0.07818 0.00423-0.27125-0.28226-0.95932 0.95932
   1  -8   0 3105.63  201.74   1-0.05743 0.13138-0.28937-0.26414-0.95549 0.95549
  -1  -8  -1 6705.36  230.69   1-0.15075 0.07131-0.20393-0.34950-0.96730 0.93421
   1  -8   1 6692.21  287.14   1 0.00151 0.07793-0.33924-0.21387-0.94069 0.97374
  -1  -8  -2 3828.39  197.16   1-0.22042 0.13544-0.13788-0.41555-0.96560 0.89942
   1  -8   2 4121.60  233.89   1 0.06088 0.02408-0.38760-0.16551-0.91981 0.98591
  -1  -8  -3  477.70  106.50   1-0.28387 0.19313-0.07439-0.47876-0.95597 0.85643
   1  -8   3  492.55  103.24   1 0.11969-0.02918-0.43338-0.11974-0.89322 0.99237
  -1  -8  -4  235.01   87.59   1-0.34002 0.24369-0.01608-0.53708-0.94027 0.80755
   1  -8   4  347.06  106.38   1 0.17412-0.07813-0.47555-0.07733-0.86228 0.99393
  -1  -8  -5 2424.41  188.72   1-0.38829 0.28643 0.03674-0.58986-0.92080 0.75499
   1  -8   5 2589.12  196.18   1 0.22881-0.12728-0.51426-0.03861-0.82654 0.99111
  -1  -8  -610959.26  809.15   1-0.43038 0.32294 0.08411-0.63723-0.89871 0.69974
   1  -8   610732.28  367.19   1 0.27892-0.17195-0.54999-0.00229-0.78721 0.98510
  -1  -8  -723723.23  493.94   1-0.46622 0.35319 0.12595-0.67906-0.87565 0.64352
   1  -8   726090.19  549.96   1 0.32742-0.21492-0.58073 0.02844-0.74534 0.97621
  -1  -8  -8108629.4 1065.18   1-0.49653 0.37791 0.16258-0.71570-0.85265 0.58732
   1  -8   8112828.6 1106.34   1 0.37090-0.25290-0.60820 0.05611-0.70178 0.96586
  -1  -8  -931623.04  579.49   1-0.52200 0.39780 0.19436-0.74747-0.83049 0.53200
   1  -8   932339.41  702.06   1 0.41222-0.28868-0.63112 0.07902-0.65707 0.95415
  -1  -8 -10  180.75  137.59   1-0.54334 0.41355 0.22178-0.77489-0.80968 0.47801
   1  -8  10  165.45  113.96   1 0.44994-0.32086-0.65047 0.09837-0.61190 0.94200
  -1  -8 -11 5536.89  726.41   1-0.56116 0.42579 0.24532-0.79843-0.79051 0.42568
   1  -8  11 6216.55  317.76   1 0.48258-0.34806-0.66718 0.11493-0.56742 0.93039
  -1  -8 -12   -0.84   63.24   1-0.57600 0.43504 0.26541-0.81852-0.77315 0.37515
   1  -8  12   39.55   92.38   1 0.51363-0.37358-0.68038 0.12813-0.52273 0.91870
  -1  -8 -13  759.66  138.77   1-0.58794 0.44154 0.28226-0.83556-0.75805 0.32689
   1  -8  13  713.80  147.98   1 0.54167-0.39609-0.69096 0.13870-0.47870 0.90767
  -1  -8 -14  487.13  125.52   1-0.59814 0.44617 0.29666-0.84997-0.74444 0.28012
   1  -8  14  411.64  152.04   1 0.56556-0.41404-0.69984 0.14716-0.43630 0.89827
  -1  -8 -15  498.60  153.75   1-0.60653 0.44899 0.30872-0.86203-0.73266 0.23517
   1  -8  15  177.03  113.12   1 0.58833-0.43126-0.70606 0.15338-0.39411 0.88909
  -1  -8 -16   46.91   64.49   1-0.61338 0.45026 0.31871-0.87201-0.72262 0.19197
   1  -8  16  158.70  139.69   1 0.60880-0.44617-0.71047 0.15779-0.35295 0.88092
  -1  -8 -17  288.65  108.41   1-0.61889 0.45020 0.32686-0.88016-0.71423 0.15041
   1  -8  17  172.94  137.93   1 0.62719-0.45900-0.71327 0.16059-0.31282 0.87379
  -1  -8 -18  142.18  122.88   1-0.62325 0.44898 0.33338-0.88669-0.70739 0.11040
   1  -8  18  108.40  120.31   1 0.64292-0.46824-0.71573 0.16195-0.27270 0.86863
  -1  -8 -19  731.18  198.91   1-0.62661 0.44677 0.33845-0.89175-0.70199 0.07184
   1  -8  19  758.52  156.36   1 0.65762-0.47733-0.71588 0.16209-0.23460 0.86364
  -1  -8 -20 1559.46  288.50   1-0.62908 0.44367 0.34221-0.89551-0.69795 0.03463
   1  -8  20 1913.34  281.65   1 0.67076-0.48487-0.71489 0.16110-0.19747 0.85961
  -1  -8 -21  155.09  132.49   1-0.63078 0.43979 0.34479-0.89809-0.69514-0.00133
   1  -8  21   19.23  107.52   1 0.68249-0.49099-0.71288 0.15909-0.16126 0.85651
   1  -9 -20  939.76  194.58   1-0.54697 0.50916 0.22652-0.84877-0.80592 0.14259
   1  -9 -19 2060.71  287.79   1-0.54128 0.50906 0.21909-0.84134-0.81179 0.18163
   1  -9 -18  284.00  130.87   1-0.53442 0.50778 0.21022-0.83247-0.81865 0.22166
   1  -9 -17  -67.28  129.96   1-0.52627 0.50522 0.19978-0.82203-0.82651 0.26268
  -1  -9  17  -46.56   66.22   1 0.67326-0.65180-0.71456 0.09155-0.19001 0.75284
   1  -9 -16 1971.16  275.04   1-0.51668 0.50122 0.18764-0.80989-0.83535 0.30469
  -1  -9  16 1619.48  223.28   1 0.65925-0.64339-0.71582 0.09281-0.23017 0.75988
   1  -9 -15 3426.69  328.18   1-0.50550 0.49562 0.17366-0.79591-0.84516 0.34767
  -1  -9  15 3030.06  250.57   1 0.64320-0.63294-0.71574 0.09274-0.27201 0.76862
   1  -9 -14 2099.04  331.10   1-0.49253 0.48824 0.15768-0.77993-0.85589 0.39156
  -1  -9  14 1788.16  208.79   1 0.62580-0.62163-0.71310 0.09134-0.31598 0.77796
   1  -9 -13 1936.45  277.59   1-0.47756 0.47886 0.13951-0.76177-0.86745 0.43634
  -1  -9  13 1773.18  189.12   1 0.60465-0.60605-0.70968 0.08791-0.36157 0.79055
   1  -9 -12  -17.20  101.38   1-0.46041 0.46729 0.11906-0.74132-0.87968 0.48174
  -1  -9  12   -7.79   69.66   1 0.58044-0.58740-0.70405 0.08229-0.40912 0.80509
   1  -9 -11  372.69  158.66   1-0.44082 0.45330 0.09615-0.71840-0.89242 0.52764
  -1  -9  11  425.72  114.64   1 0.55459-0.56746-0.69534 0.07405-0.45708 0.82005
   1  -9 -10  -30.77   89.31   1-0.41856 0.43662 0.07063-0.69288-0.90543 0.57381
  -1  -9  10   98.04   72.24   1 0.52301-0.54141-0.68407 0.06278-0.50843 0.83840
   1  -9  -9 2065.02  245.98   1-0.39339 0.41704 0.04239-0.66464-0.91839 0.61993
  -1  -9   9 1995.22  177.88   1 0.48700-0.51094-0.66915 0.04786-0.56130 0.85828
   1  -9  -8 5728.00  307.89   1-0.36563 0.39481 0.01137-0.63369-0.93068 0.66525
  -1  -9   8 5907.86  282.90   1 0.44828-0.47768-0.64965 0.02854-0.61399 0.87806
   1  -9  -715018.66  458.99   1-0.33401 0.36878-0.02244-0.59986-0.94230 0.71004
  -1  -9   714159.37  407.55   1 0.40226-0.43719-0.62576 0.00464-0.66828 0.89935
   1  -9  -6 4185.07  285.72   1-0.29892 0.33929-0.05901-0.56330-0.95245 0.75337
  -1  -9   6 3635.02  203.71   1 0.35303-0.39353-0.59617-0.02515-0.72107 0.91896
   1  -9  -5 3519.08  272.33   1-0.25987 0.30605-0.09903-0.52358-0.96055 0.79510
  -1  -9   5 3059.67  177.01   1 0.29642-0.34247-0.56130-0.06002-0.77270 0.93760
   1  -9  -4  433.98  106.94   1-0.21792 0.26965-0.14031-0.48230-0.96582 0.83346
  -1  -9   4  527.19  105.79   1 0.23781-0.28950-0.52043-0.10155-0.82011 0.95177
   1  -9  -3 5816.20  290.34   1-0.17272 0.22999-0.18345-0.43916-0.96773 0.86846
  -1  -9   3 5382.10  219.33   1 0.17251-0.22974-0.47438-0.14760-0.86324 0.96199
   1  -9  -2  -36.95   81.77   1-0.12659 0.18929-0.22794-0.39476-0.96540 0.89907
  -1  -9   2   68.23   88.52   1 0.10767-0.17053-0.42420-0.19805-0.89914 0.96524
   1  -9  -1 1291.27  142.74   1-0.07592 0.14424-0.27324-0.34947-0.95894 0.92577
  -1  -9   1 1281.90  126.24   1 0.03806-0.10644-0.36926-0.25299-0.92854 0.96159
   1  -9   0  720.58  114.96   1-0.02340 0.09735-0.31852-0.30418-0.94762 0.94762
  -1  -9   0  670.86   94.18   1-0.03102-0.04292-0.31206-0.31065-0.94955 0.94955
  -1  -9  -1  376.25   85.14   1-0.09821 0.01863-0.25351-0.36919-0.96233 0.92916
   1  -9   1  479.11  121.31   1 0.03000 0.04943-0.36271-0.25954-0.93141 0.96446
  -1  -9  -2  326.47   97.75   1-0.15925 0.07427-0.19604-0.42657-0.96757 0.90139
   1  -9   2  297.44  103.12   1 0.08378 0.00118-0.40568-0.21657-0.91016 0.97626
  -1  -9  -3  704.63  127.21   1-0.21814 0.12762-0.14010-0.48251-0.96580 0.86653
   1  -9   3  434.67  106.89   1 0.13454-0.04408-0.44629-0.17569-0.88471 0.98345
  -1  -9  -4  402.67   96.72   1-0.27216 0.17583-0.08624-0.53606-0.95837 0.82565
   1  -9   4  397.41  105.99   1 0.18647-0.09048-0.48447-0.13751-0.85470 0.98635
  -1  -9  -5 1284.43  158.23   1-0.32035 0.21842-0.03680-0.58550-0.94658 0.78068
   1  -9   5 1208.87  170.36   1 0.23664-0.13511-0.51963-0.10235-0.82095 0.98552
  -1  -9  -613390.71  371.92   1-0.36297 0.25544 0.00849-0.63080-0.93176 0.73268
   1  -9   612409.81  371.75   1 0.28270-0.17573-0.55245-0.06886-0.78413 0.98202
  -1  -9  -7 2962.83  244.81   1-0.39966 0.28663 0.04937-0.67162-0.91533 0.68319
   1  -9   7 2774.39  230.83   1 0.32802-0.21551-0.58109-0.04023-0.74480 0.97567
  -1  -9  -8 2422.89  462.49   1-0.43212 0.31351 0.08611-0.70836-0.89769 0.63239
   1  -9   8 2146.66  185.37   1 0.36891-0.25090-0.60705-0.01405-0.70383 0.96790
  -1  -9  -9 9883.54  368.96   1-0.46015 0.33595 0.11876-0.74101-0.87986 0.58140
   1  -9   9 9849.61  568.38   1 0.40835-0.28480-0.62905 0.00794-0.66146 0.95855
  -1  -9 -10 5366.09  344.10   1-0.48423 0.35444 0.14757-0.76982-0.86240 0.53078
   1  -9  10 5204.69  777.21   1 0.44475-0.31567-0.64790 0.02679-0.61839 0.94849
  -1  -9 -11 1195.03  186.93   1-0.50486 0.36949 0.17287-0.79513-0.84570 0.48087
   1  -9  11 1326.78  311.86   1 0.47649-0.34197-0.66443 0.04314-0.57574 0.93871
  -1  -9 -12  431.19  149.57   1-0.52244 0.38147 0.19491-0.81716-0.83009 0.43210
   1  -9  12  370.27  117.95   1 0.50706-0.36701-0.67771 0.05642-0.53253 0.92850
  -1  -9 -13   88.17   88.65   1-0.53737 0.39082 0.21402-0.83627-0.81573 0.38457
   1  -9  13  314.84  158.02   1 0.53491-0.38933-0.68854 0.06725-0.48966 0.91863
  -1  -9 -14  152.20  124.45   1-0.55000 0.39786 0.23050-0.85275-0.80272 0.33839
   1  -9  14   83.81   90.26   1 0.56022-0.40912-0.69714 0.07586-0.44735 0.90932
  -1  -9 -15 1331.12  235.60   1-0.56063 0.40291 0.24461-0.86686-0.79110 0.29361
   1  -9  15 1163.35  198.75   1 0.58181-0.42473-0.70441 0.08265-0.40656 0.90153
  -1  -9 -16   43.73   97.67   1-0.56953 0.40622 0.25659-0.87884-0.78089 0.25022
   1  -9  16  283.42  138.29   1 0.60261-0.43998-0.70927 0.08751-0.36575 0.89373
  -1  -9 -17  163.34  116.68   1-0.57691 0.40801 0.26665-0.88891-0.77205 0.20822
   1  -9  17  105.24   94.63   1 0.62141-0.45322-0.71252 0.09076-0.32579 0.88676
  -1  -9 -18  214.88  169.80   1-0.58258 0.40831 0.27479-0.89726-0.76490 0.16792
   1  -9  18  428.76  153.69   1 0.63837-0.46462-0.71434 0.09257-0.28668 0.88065
  -1  -9 -19 2375.07  293.52   1-0.58746 0.40762 0.28159-0.90405-0.75867 0.12852
   1  -9  19 2672.78  297.12   1 0.65284-0.47255-0.71596 0.09295-0.24734 0.87638
   1 -10 -18   27.87  122.55   1-0.49059 0.46395 0.15531-0.84670-0.85743 0.26044
   1 -10 -17  349.38  163.09   1-0.48118 0.46013 0.14388-0.83527-0.86473 0.30097
   1 -10 -16  274.38  196.83   1-0.47030 0.45484 0.13082-0.82221-0.87275 0.34216
   1 -10 -15 3750.70  370.49   1-0.45780 0.44793 0.11599-0.80739-0.88145 0.38402
   1 -10 -14  249.01   73.56   1-0.44353 0.43924 0.09929-0.79068-0.89074 0.42647
   1 -10 -13   56.49   98.43   1-0.42730 0.42860 0.08058-0.77198-0.90050 0.46940
   1 -10 -12  202.37  150.70   1-0.40895 0.41584 0.05978-0.75117-0.91059 0.51264
   1 -10 -11  619.22  221.24   1-0.38831 0.40078 0.03676-0.72816-0.92079 0.55601
   1 -10 -10   87.28  111.01   1-0.36573 0.38372 0.01148-0.70294-0.93064 0.59885
   1 -10  -9 1875.82  264.83   1-0.33998 0.36356-0.01612-0.67533-0.94029 0.64167
  -1 -10   9 1530.00  150.32   1 0.48567-0.50961-0.66856-0.02175-0.56314 0.86012
   1 -10  -8   62.05   95.06   1-0.31144 0.34062-0.04607-0.64538-0.94914 0.68371
  -1 -10   8   90.61   92.98   1 0.44892-0.47832-0.64997-0.04015-0.61318 0.87726
   1 -10  -7 2510.29  275.46   1-0.28001 0.31479-0.07830-0.61314-0.95679 0.72453
  -1 -10   7 1682.56  303.81   1 0.40571-0.44064-0.62763-0.06249-0.66443 0.89550
   1 -10  -6  355.56  163.19   1-0.24514 0.28578-0.11367-0.57812-0.96279 0.76426
  -1 -10   6  434.87  120.71   1 0.36037-0.40087-0.60049-0.08987-0.71382 0.91171
   1 -10  -5 1491.64  213.30   1-0.20795 0.25414-0.14994-0.54185-0.96657 0.80112
  -1 -10   5 1318.34  161.25   1 0.30865-0.35469-0.56906-0.12130-0.76217 0.92707
   1 -10  -4 7514.18  355.96   1-0.16797 0.21970-0.18790-0.50389-0.96771 0.83535
  -1 -10   4 7217.06  274.49   1 0.25315-0.30473-0.53292-0.15744-0.80740 0.93933
   1 -10  -3  650.17  164.36   1-0.12750 0.18456-0.22712-0.46477-0.96548 0.86597
  -1 -10   3  845.42  134.90   1 0.19763-0.25486-0.49244-0.19865-0.84760 0.94634
   1 -10  -2 3103.85  256.59   1-0.08255 0.14524-0.26740-0.42449-0.96004 0.89370
  -1 -10   2 3326.95  227.02   1 0.13697-0.19974-0.44812-0.24297-0.88341 0.94924
   1 -10  -1  160.53  146.84   1-0.03570 0.10402-0.30807-0.38383-0.95069 0.91752
  -1 -10   1  301.57  125.39   1 0.07809-0.14648-0.40122-0.29018-0.91264 0.94569
  -1 -10   0    2.97   54.08   1 0.01617-0.09008-0.35138-0.34002-0.93609 0.93609
   1 -10   0  264.85  107.17   1 0.01246 0.06145-0.34832-0.34308-0.93729 0.93729
  -1 -10  -1 3558.65  219.84   1-0.04451-0.03506-0.30053-0.39137-0.95273 0.91956
   1 -10   1 3819.82  252.05   1 0.06134 0.01810-0.38796-0.30343-0.91962 0.95267
  -1 -10  -2 4659.93  256.00   1-0.10282 0.01762-0.24939-0.44251-0.96292 0.89658
   1 -10   2 4965.19  284.58   1 0.11046-0.02548-0.42633-0.26506-0.89779 0.96389
  -1 -10  -3 2370.09  198.17   1-0.15520 0.06468-0.19980-0.49198-0.96746 0.86819
   1 -10   3 2829.25  228.79   1 0.15657-0.06611-0.46270-0.22839-0.87257 0.97131
  -1 -10  -4  156.54  106.84   1-0.20619 0.11012-0.15164-0.54015-0.96668 0.83433
   1 -10   4  185.40  141.43   1 0.20415-0.10816-0.49706-0.19403-0.84335 0.97501
  -1 -10  -5 1050.62  180.51   1-0.25286 0.15126-0.10601-0.58578-0.96167 0.79622
   1 -10   5  712.48  159.30   1 0.24823-0.14680-0.52960-0.16075-0.81110 0.97601
  -1 -10  -6 8877.23  373.01   1-0.29570 0.18818-0.06231-0.62914-0.95324 0.75416
   1 -10   6 9008.68  376.98   1 0.29265-0.18568-0.55888-0.13147-0.77588 0.97377
  -1 -10  -7 6326.07  337.66   1-0.33363 0.22051-0.02285-0.66860-0.94242 0.71016
   1 -10   7 5998.64  315.42   1 0.33491-0.22241-0.58531-0.10505-0.73840 0.96927
  -1 -10  -8  752.78  170.65   1-0.36732 0.24860 0.01320-0.70466-0.93000 0.66456
   1 -10   8  959.61  200.10   1 0.37317-0.25517-0.60950-0.08061-0.69945 0.96352
  -1 -10  -9  120.83  126.77   1-0.39642 0.27222 0.04575-0.73715-0.91692 0.61846
   1 -10   9  238.91  113.77   1 0.41055-0.28701-0.63023-0.05988-0.65896 0.95605
  -1 -10 -10  222.98  120.42   1-0.42252 0.29274 0.07513-0.76652-0.90323 0.57161
   1 -10  10  316.96  118.70   1 0.44535-0.31627-0.64820-0.04191-0.61764 0.94774
  -1 -10 -11  224.76   70.69   1-0.44532 0.30995 0.10137-0.79276-0.88961 0.52482
   1 -10  11  165.32   70.68   1 0.47586-0.34134-0.66414-0.02617-0.57660 0.93957
  -1 -10 -12  -31.49   75.58   1-0.46514 0.32418 0.12467-0.81607-0.87640 0.47846
   1 -10  12  -65.73   74.25   1 0.50556-0.36551-0.67709-0.01322-0.53474 0.93071
  -1 -10 -13  857.72  165.06   1-0.48231 0.33576 0.14525-0.83664-0.86387 0.43276
   1 -10  13  987.37  164.80   1 0.53283-0.38725-0.68777-0.00254-0.49300 0.92196
  -1 -10 -14  350.38  145.36   1-0.49714 0.34500 0.16333-0.85472-0.85215 0.38782
   1 -10  14  215.90  111.29   1 0.55779-0.40668-0.69637 0.00605-0.45158 0.91354
  -1 -10 -15   60.55   91.15   1-0.50985 0.35213 0.17908-0.87047-0.84141 0.34391
   1 -10  15  -35.20   84.07   1 0.57919-0.42211-0.70372 0.01287-0.41147 0.90644
  -1 -10 -16  -14.09   96.97   1-0.52070 0.35739 0.19271-0.88410-0.83170 0.30103
   1 -10  16   17.49   88.77   1 0.59996-0.43733-0.70872 0.01787-0.37115 0.89912
  -1 -10 -17 2671.49  337.93   1-0.52990 0.36100 0.20441-0.89581-0.82305 0.25922
   1 -10  17 2450.67  288.08   1 0.61883-0.45064-0.71215 0.02130-0.33147 0.89244
   1 -11 -15   18.65  115.70   1-0.40765 0.39778 0.05831-0.81884-0.91127 0.41384
   1 -11 -14  141.68  163.28   1-0.39229 0.38801 0.04117-0.80171-0.91891 0.45464
   1 -11 -13  -16.87  111.54   1-0.37560 0.37679 0.02222-0.78282-0.92651 0.49518
   1 -11 -12  -78.17  108.65   1-0.35637 0.36316 0.00137-0.76198-0.93434 0.53618
   1 -11 -11 4471.88  344.41   1-0.33499 0.34737-0.02141-0.73918-0.94197 0.57700
   1 -11 -10  239.12  148.51   1-0.31133 0.32932-0.04618-0.71441-0.94917 0.61738
   1 -11  -9 3040.40  343.77   1-0.28530 0.30888-0.07293-0.68766-0.95565 0.65704
   1 -11  -8 2479.94  298.68   1-0.25619 0.28575-0.10270-0.65827-0.96115 0.69643
   1 -11  -7  119.41  121.48   1-0.22527 0.26038-0.13316-0.62780-0.96515 0.73352
   1 -11  -6  285.87  129.32   1-0.19188 0.23253-0.16533-0.59564-0.96739 0.76885
   1 -11  -5 1514.63  255.23   1-0.15607 0.20226-0.19900-0.56197-0.96749 0.80204
   1 -11  -4  141.87  120.28   1-0.12017 0.17160-0.23378-0.52731-0.96483 0.83215
   1 -11  -3  583.05  172.77   1-0.07992 0.13699-0.26972-0.49137-0.95961 0.86010
   1 -11  -2  711.83  153.71   1-0.03786 0.10055-0.30623-0.45486-0.95120 0.88486
   1 -11  -1 2352.14  250.62   1 0.00570 0.06267-0.34272-0.41781-0.93941 0.90636
   1 -11   0 1011.14  174.49   1 0.05011 0.02379-0.37899-0.38155-0.92404 0.92404
  -1 -11   0  557.49  103.12   1 0.06400-0.13791-0.39008-0.37046-0.91855 0.91855
  -1 -11  -1  112.75   63.85   1 0.00877-0.08822-0.34527-0.41526-0.93846 0.90541
   1 -11   1  358.51  115.97   1 0.09514-0.01569-0.41453-0.34601-0.90504 0.93809
  -1 -11  -2  534.64  127.23   1-0.04498-0.04021-0.30012-0.46097-0.95283 0.88650
   1 -11   2  476.08  127.84   1 0.13782-0.05290-0.44875-0.31145-0.88295 0.94878
  -1 -11  -3  101.03   94.54   1-0.09633 0.00550-0.25519-0.50590-0.96207 0.86257
   1 -11   3  119.10  119.19   1 0.18240-0.09194-0.48154-0.27867-0.85723 0.95597
  -1 -11  -4  137.06  103.86   1-0.14205 0.04599-0.21195-0.54902-0.96689 0.83454
   1 -11   4  307.14  145.77   1 0.22620-0.13021-0.51246-0.24774-0.82837 0.96003
  -1 -11  -5   -5.03   79.40   1-0.18705 0.08544-0.16992-0.59105-0.96754 0.80209
   1 -11   5  249.52  125.48   1 0.26655-0.16513-0.54186-0.21753-0.79707 0.96198
  -1 -11  -6  520.79  140.28   1-0.22848 0.12133-0.13003-0.63093-0.96482 0.76628
   1 -11   6  592.15  160.95   1 0.30774-0.20077-0.56848-0.19091-0.76296 0.96085
  -1 -11  -7  532.89  143.88   1-0.26691 0.15379-0.09152-0.66907-0.95936 0.72710
   1 -11   7  463.77  146.37   1 0.34712-0.23462-0.59266-0.16673-0.72680 0.95767
  -1 -11  -818146.85  524.97   1-0.30118 0.18246-0.05668-0.70391-0.95187 0.68644
   1 -11   819008.50 1022.17   1 0.38279-0.26479-0.61497-0.14415-0.68939 0.95346
  -1 -11  -910581.30  417.68   1-0.33196 0.20765-0.02460-0.73599-0.94296 0.64435
   1 -11   910551.57  825.96   1 0.41806-0.29452-0.63422-0.12490-0.65036 0.94744
  -1 -11 -10   18.59   78.47   1-0.35945 0.22954 0.00469-0.76529-0.93315 0.60135
   1 -11  10  202.38  144.36   1 0.45110-0.32203-0.65104-0.10809-0.61044 0.94053
  -1 -11 -11   48.94   80.68   1-0.38386 0.24835 0.03128-0.79188-0.92285 0.55788
   1 -11  11  173.11   90.51   1 0.48016-0.34564-0.66609-0.09325-0.57074 0.93371
  -1 -11 -12   80.45   84.82   1-0.40485 0.26389 0.05516-0.81570-0.91271 0.51477
   1 -11  12  106.78   88.41   1 0.50873-0.36868-0.67840-0.08094-0.53005 0.92602
  -1 -11 -13   45.42   83.69   1-0.42387 0.27732 0.07666-0.83720-0.90247 0.47136
   1 -11  13  -42.93   78.03   1 0.53513-0.38955-0.68862-0.07072-0.48931 0.91828
  -1 -11 -14 1133.80  229.25   1-0.44054 0.28841 0.09582-0.85635-0.89260 0.42833
  -1 -11 -15  938.18  224.49   1-0.45508 0.29736 0.11279-0.87332-0.88327 0.38584
   1 -12 -12  -14.10   94.53   1-0.30165 0.30844-0.05619-0.77355-0.95175 0.55360
   1 -12 -11   98.46   99.86   1-0.27979 0.29218-0.07853-0.75121-0.95684 0.59186
   1 -12 -10  244.08  107.58   1-0.25516 0.27363-0.10373-0.72642-0.96131 0.63042
   1 -12  -9  273.44  132.00   1-0.22915 0.25317-0.12938-0.70077-0.96475 0.66694
   1 -12  -8    2.72   91.70   1-0.20100 0.23057-0.15661-0.67353-0.96698 0.70227
   1 -12  -7   40.15   90.61   1-0.17071 0.20581-0.18534-0.64481-0.96773 0.73610
   1 -12  -6 1110.82  201.05   1-0.13831 0.17895-0.21539-0.61475-0.96668 0.76814
   1 -12  -5  897.62  170.40   1-0.10616 0.15196-0.24640-0.58387-0.96333 0.79749
   1 -12  -4  332.14  136.49   1-0.06981 0.12124-0.27860-0.55168-0.95786 0.82519
   1 -12  -3  510.65  146.02   1-0.03177 0.08883-0.31142-0.51885-0.94973 0.85023
   1 -12  -2  -42.30   71.26   1 0.00781 0.05504-0.34447-0.48521-0.93876 0.87266
   1 -12  -1  321.43   99.09   1 0.04826 0.02011-0.37750-0.45218-0.92474 0.89169
   1 -12   0   94.17   83.41   1 0.08951-0.01560-0.41016-0.41952-0.90760 0.90760
   1 -12   1 1621.41  215.27   1 0.12885-0.04947-0.44201-0.38731-0.88770 0.92062
   1 -12   2  415.81  136.31   1 0.17034-0.08542-0.47280-0.35651-0.86454 0.93037
   1 -12   3  650.09  184.75   1 0.21150-0.12105-0.50223-0.32708-0.83846 0.93720
   1 -12   4  105.71  111.46   1 0.24944-0.15355-0.53042-0.29801-0.81020 0.94212
   1 -12   5  126.80   84.19   1 0.28897-0.18754-0.55652-0.27191-0.77895 0.94386
   1 -12   6 1832.64  228.07   1 0.32720-0.22024-0.58060-0.24783-0.74554 0.94343
   1 -12   7  213.13  153.11   1 0.36390-0.25139-0.60255-0.22588-0.71028 0.94115
   2   0 -27   41.21   71.62   1-0.72709 0.72423 0.52239-0.52239-0.44545-0.45009
   2   0 -26  388.69  105.01   1-0.72956 0.73229 0.52896-0.52896-0.43349-0.42888
   2   0 -25 -135.92   92.58   1-0.73180 0.74010 0.53516-0.53516-0.42197-0.40723
   2   0 -24  -63.62  105.69   1-0.73381 0.74769 0.54096-0.54096-0.41094-0.38509
   2   0 -23   -2.81  104.96   1-0.73560 0.75506 0.54637-0.54637-0.40045-0.36241
   2   0 -22  232.56   70.90   1-0.73717 0.76223 0.55136-0.55136-0.39059-0.33911
   2   0 -21  180.53  120.57   1-0.73855 0.76919 0.55591-0.55591-0.38142-0.31511
   2   0 -2021370.53  632.85   1-0.73974 0.77595 0.56000-0.56000-0.37305-0.29031
   2   0 -19   -4.48  242.26   1-0.74090 0.78250 0.56357-0.56357-0.36529-0.26470
   2   0 -1824930.32  815.14   1-0.74170 0.78890 0.56659-0.56659-0.35894-0.23790
   2   0 -17 -115.38  174.10   1-0.74232 0.79511 0.56899-0.56899-0.35384-0.20984
   2   0 -1620919.74  546.93   1-0.74274 0.80113 0.57067-0.57067-0.35023-0.18029
   2   0 -15   25.52   52.23   1-0.74295 0.80694 0.57152-0.57152-0.34839-0.14897
   2   0 -1430671.51  672.66   1-0.74291 0.81251 0.57138-0.57138-0.34870-0.11551
   2   0 -13 -125.46   81.41   1-0.74258 0.81777 0.57002-0.57002-0.35162-0.07943
   2   0 -12 8879.08  277.56   1-0.74184 0.82264 0.56714-0.56714-0.35778-0.04011
   2   0 -11   33.76   45.10   1-0.74055 0.82694 0.56227-0.56227-0.36800 0.00326
   2   0 -10162436.5 1270.18   1-0.73825 0.83029 0.55491-0.55491-0.38346 0.05178
   2   0  -9  -21.20   60.63   1-0.73475 0.83237 0.54379-0.54379-0.40549 0.10697
   2   0  -818641.19  433.93   1-0.72900 0.83221 0.52745-0.52745-0.43627 0.17092
   2   0  -650273.42  393.47   1-0.70249 0.81693 0.46772-0.46772-0.53640 0.33741
   2   0  -5   77.37   39.47   1-0.67316 0.79318 0.41280-0.41280-0.61354 0.44772
   2   0  -4 1883.27  149.18   1-0.61994 0.74552 0.32842-0.32842-0.71260 0.57994
   2   0  -3  122.90   44.68   1-0.52497 0.65605 0.19812-0.19812-0.82773 0.72823
   2   0  -266338.78  329.85   1-0.36705 0.50375 0.01291-0.01291-0.93011 0.86375
   2   0   2161647.2  600.85   1 0.38097-0.22249-0.61394 0.61394-0.69131 0.75733
   2   0   3   40.03   22.20   1 0.46761-0.30360-0.65895 0.65895-0.58916 0.68819
   2   0   4 4846.52  138.22   1 0.52708-0.35756-0.68563 0.68563-0.50208 0.63407
   2   0   5  -19.00   51.34   1 0.56955-0.39441-0.70102 0.70102-0.42915 0.59414
   2   0   635252.62  393.11   1 0.60167-0.42096-0.70908 0.70908-0.36768 0.56567
   2   0   7   57.11   65.75   1 0.62643-0.44017-0.71318 0.71318-0.31455 0.54554
   2   0   820665.85  353.36   1 0.64537-0.45292-0.71584 0.71584-0.26658 0.53144
   2   0  10 9159.68  260.42   1 0.67437-0.47072-0.71440 0.71440-0.18666 0.51773
   2   0  11  -40.69   85.00   1 0.68542-0.47616-0.71217 0.71217-0.15164 0.51582
   2   0  1211253.61  366.87   1 0.69482-0.47996-0.70925 0.70925-0.11904 0.51632
   2   0  13  118.99   96.83   1 0.70237-0.48256-0.70648 0.70648-0.08694 0.51769
   2   0  14 7173.34  313.35   1 0.70932-0.48396-0.70250 0.70250-0.05790 0.52179
   2   0  15   50.20  135.97   1 0.71534-0.48443-0.69811 0.69811-0.03019 0.52721
   2   0  1619465.95  555.27   1 0.72056-0.48409-0.69337 0.69337-0.00358 0.53374
   2   0  17  257.63  151.37   1 0.72509-0.48306-0.68829 0.68829 0.02209 0.54119
   2   0  18  604.47  246.36   1 0.72899-0.48140-0.68290 0.68290 0.04699 0.54943
   2   0  19 -188.40  131.41   1 0.73192-0.47871-0.67763 0.67763 0.07133 0.55825
  -2   0 -20 7652.97  418.75   1-0.74235 0.48296 0.66363-0.66363-0.09212-0.57125
   2   0  20 9275.99  456.38   1 0.73475-0.47596-0.67165 0.67165 0.09497 0.56774
  -2   0 -21   45.75  118.67   1-0.74461 0.47964 0.65743-0.65743-0.11541-0.58113
   2   0  21  166.52  188.83   1 0.73708-0.47274-0.66539 0.66539 0.11812 0.57772
  -2   0 -22  589.13  136.27   1-0.74641 0.47586 0.65095-0.65095-0.13827-0.59144
   2   0  22  623.97  202.35   1 0.73897-0.46906-0.65884 0.65884 0.14085 0.58813
  -2   0 -23  -70.24  104.59   1-0.74777 0.47165 0.64419-0.64419-0.16076-0.60212
   2   0  23   13.11  122.12   1 0.74042-0.46495-0.65202 0.65202 0.16322 0.59890
  -2   0 -24  706.78  128.90   1-0.74871 0.46701 0.63715-0.63715-0.18292-0.61313
   2   0  24 1342.15  285.69   1 0.74146-0.46042-0.64491 0.64491 0.18526 0.60999
  -2   0 -25   -4.59  110.50   1-0.74923 0.46196 0.62983-0.62983-0.20481-0.62441
   2   0  25  100.59  134.74   1 0.74209-0.45549-0.63751 0.63751 0.20703 0.62136
  -2   0 -26  679.42  201.00   1-0.74989 0.45633 0.62187-0.62187-0.22568-0.63642
   2   0  26 1421.56  310.53   1 0.74208-0.45021-0.62987 0.62987 0.22926 0.63290
   2   1 -27 -155.66  114.77   1-0.73464 0.73178 0.54346-0.47428-0.40612-0.48942
   2  -1 -27   85.41  102.39   1-0.71733 0.71447 0.49858-0.56775-0.48667-0.40887
   2   1 -26  709.44  178.64   1-0.73694 0.73966 0.55059-0.48141-0.39212-0.47025
   2  -1 -26  831.62  176.24   1-0.71987 0.72259 0.50450-0.57368-0.47671-0.38566
   2   1 -25   -7.06  115.36   1-0.73899 0.74729 0.55738-0.48821-0.37843-0.45077
   2  -1 -25   91.70   60.45   1-0.72216 0.73046 0.50999-0.57917-0.46731-0.36190
   2   1 -24  145.85   90.47   1-0.74098 0.75458 0.56386-0.49472-0.36469-0.43109
   2  -1 -24  156.22  121.07   1-0.72420 0.73809 0.51503-0.58421-0.45853-0.33750
   2   1 -23  345.48  119.84   1-0.74257 0.76177 0.56998-0.50084-0.35171-0.41091
   2  -1 -23  139.26   96.38   1-0.72601 0.74548 0.51959-0.58877-0.45046-0.31240
   2   1 -22  220.24  132.59   1-0.74395 0.76875 0.57576-0.50662-0.33916-0.39031
   2  -1 -22  -67.15  111.39   1-0.72757 0.75263 0.52365-0.59283-0.44318-0.28652
   2   1 -21 2451.87  343.66   1-0.74513 0.77554 0.58119-0.51205-0.32708-0.36923
   2  -1 -21 2949.02  368.23   1-0.72890 0.75953 0.52717-0.59635-0.43679-0.25974
   2   1 -20 3710.43  531.21   1-0.74614 0.78214 0.58625-0.51711-0.31554-0.34761
   2  -1 -20 3860.15  454.33   1-0.72998 0.76620 0.53009-0.59927-0.43141-0.23195
   2   1 -19  128.81  110.03   1-0.74698 0.78858 0.59093-0.52180-0.30464-0.32536
   2  -1 -19  256.67   82.35   1-0.73081 0.77260 0.53237-0.60155-0.42719-0.20300
   2  -1 -18 6246.39  869.53   1-0.73136 0.77874 0.53391-0.60309-0.42430-0.17272
  -2  -1  18 8043.75  358.91   1 0.74044-0.78762-0.60502 0.53583 0.29271 0.30416
   2   1 -1719143.64  765.85   1-0.74821 0.80101 0.59904-0.52991-0.28516-0.27852
   2  -1 -1718959.25  863.98   1-0.73161 0.78457 0.53463-0.60380-0.42297-0.14089
  -2  -1  1725594.97  541.00   1 0.74092-0.79366-0.60898 0.53979 0.28315 0.28056
   2   1 -1622360.65  561.02   1-0.74863 0.80702 0.60239-0.53326-0.27688-0.25364
   2  -1 -1623276.20  628.24   1-0.73152 0.79007 0.53438-0.60355-0.42344-0.10725
   2   1 -15 1835.15  278.93   1-0.74894 0.81293 0.60520-0.53606-0.26984-0.22752
   2   1 -14 4185.97  534.97   1-0.74915 0.81874 0.60737-0.53823-0.26432-0.19988
   2  -1 -14 4208.47  665.91   1-0.73003 0.79974 0.53024-0.59941-0.43114-0.03321
  -2  -1  14 4587.40  217.45   1 0.74169-0.81111-0.61773 0.54855 0.26132 0.20291
   2   1 -13  331.55   95.88   1-0.74927 0.82447 0.60878-0.53965-0.26069-0.17036
   2  -1 -13  334.22   75.35   1-0.72839 0.80368 0.52581-0.59499-0.43926 0.00807
  -2  -1  13  369.29  133.07   1 0.74179-0.81677-0.61932 0.55014 0.25725 0.17382
   2   1 -1212286.81  318.28   1-0.74931 0.83011 0.60927-0.54013-0.25944-0.13845
   2  -1 -1213710.64  367.78   1-0.72589 0.80677 0.51930-0.58848-0.45098 0.05296
  -2  -1  1214417.09  340.16   1 0.74183-0.82237-0.62000 0.55082 0.25549 0.14242
   2   1 -1133861.68  463.09   1-0.74925 0.83565 0.60856-0.53942-0.26126-0.10346
   2  -1 -1135435.37  517.14   1-0.72221 0.80867 0.51012-0.57930-0.46708 0.10223
  -2  -1  1140779.46  511.22   1 0.74180-0.82791-0.61953 0.55035 0.25671 0.10804
   2   1 -10 3214.95  547.42   1-0.74904 0.84103 0.60626-0.53712-0.26715-0.06442
   2  -1 -10 3474.78  516.69   1-0.71685 0.80889 0.49748-0.56666-0.48849 0.15681
  -2  -1  10 2739.93  146.99   1 0.74167-0.83334-0.61751 0.54833 0.26189 0.06971
   2   1  -951995.74  479.84   1-0.74855 0.84614 0.60172-0.53258-0.27856-0.01985
   2  -1  -955051.07  539.84   1-0.70902 0.80664 0.48023-0.54940-0.51638 0.21786
   2   1  -830488.20  400.09   1-0.74746 0.85065 0.59386-0.52472-0.29769 0.03243
   2  -1  -832070.58  392.59   1-0.69716 0.80044 0.45705-0.52622-0.55232 0.28701
   2   1  -711254.96  198.97   1-0.74504 0.85383 0.58075-0.51162-0.32805 0.09595
   2  -1  -711923.40  235.89   1-0.68005 0.78891 0.42499-0.49416-0.59741 0.36526
   2   1  -649429.12  372.91   1-0.73947 0.85383 0.55905-0.48987-0.37501 0.17600
   2  -1  -653127.70  431.09   1-0.65433 0.76876 0.38105-0.45022-0.65318 0.45419
   2   1  -516240.01  291.85   1-0.72633 0.84628 0.52043-0.45125-0.44897 0.28313
   2  -1  -516975.30  234.02   1-0.61515 0.73516 0.32133-0.39049-0.71994 0.55412
   2   1  -4 1290.74   56.53   1-0.69235 0.81795 0.44776-0.37859-0.56581 0.43315
   2  -1  -4 1231.56   77.19   1-0.55684 0.68234 0.23955-0.30869-0.79532 0.66265
  -2  -1   3  177.73   31.96   1-0.72959 0.59848 0.52903-0.59820-0.43337 0.53288
   2   1  -3  223.88   26.05   1-0.59931 0.73047 0.29833-0.22917-0.74284 0.64334
  -2  -1   295076.36  288.22   1-0.61374 0.47701 0.31924-0.38841-0.72207 0.78840
   2  -1  -2105320.4  495.99   1-0.35321 0.48991-0.00201-0.06713-0.93553 0.86918
   2   1  -2105437.0  304.54   1-0.35002 0.48672-0.00542 0.07457-0.93672 0.87036
   2   1   0209880.8  479.10   1 0.37596-0.22856-0.61110 0.68011-0.69655 0.69655
   2  -1   1416022.3 5525.23   1 0.10124 0.05211-0.41925 0.35011-0.90220 0.93525
   2   1   1435427.5  812.18   1 0.51528-0.36235-0.68104 0.75007-0.52025 0.55324
   2  -1   2106201.7  538.31   1 0.22762-0.06886-0.51344 0.44433-0.82738 0.89321
   2   1   2110632.8  463.24   1 0.58339-0.42492-0.70482 0.77391-0.40357 0.46957
   2  -1   311691.51  196.85   1 0.32967-0.16559-0.58211 0.51307-0.74327 0.84221
   2   1   312091.76  179.42   1 0.62218-0.45816-0.71263 0.78172-0.32409 0.42308
   2  -1   432218.35  392.55   1 0.40880-0.23924-0.62929 0.56028-0.66095 0.79299
   2  -1   5168052.5  804.00   1 0.47047-0.29538-0.66028 0.59127-0.58538 0.75042
   2   1   5174087.8  774.43   1 0.66454-0.48890-0.71551 0.78473-0.21546 0.38099
   2  -1   675862.19  578.28   1 0.51769-0.33712-0.68200 0.61296-0.51659 0.71457
   2   1   678840.92  575.98   1 0.67793-0.49669-0.71380 0.78303-0.17573 0.37437
   2  -1   7 3714.22  181.66   1 0.55582-0.36971-0.69574 0.62671-0.45497 0.68596
   2   1   7 3570.58  167.72   1 0.68855-0.50170-0.71132 0.78054-0.14112 0.37288
   2  -1   8 5896.74  228.03   1 0.58559-0.39376-0.70538 0.63630-0.39939 0.66337
   2   1   8 5918.19  216.62   1 0.69677-0.50475-0.70903 0.77821-0.10855 0.37363
   2  -1   9  -13.54   66.76   1 0.61064-0.41326-0.71081 0.64172-0.34908 0.64606
   2   1   9  142.19   74.90   1 0.70405-0.50647-0.70560 0.77479-0.08016 0.37838
   2  -1  10 6563.85  250.24   1 0.63141-0.42847-0.71374 0.64465-0.30313 0.63311
   2   1  10 6181.39  235.19   1 0.71027-0.50713-0.70187 0.77106-0.05370 0.38505
   2  -1  11 1076.64  143.46   1 0.64808-0.43882-0.71592 0.64669-0.25969 0.62386
   2   1  11 1049.64  141.55   1 0.71564-0.50695-0.69787 0.76705-0.02872 0.39320
   2  -1  12 5814.22  265.62   1 0.66279-0.44793-0.71563 0.64641-0.22037 0.61766
   2   1  12 6262.22  286.53   1 0.72032-0.50608-0.69361 0.76280-0.00488 0.40250
   2  -1  13  970.98  143.69   1 0.67538-0.45491-0.71424 0.64502-0.18361 0.61400
   2   1  13  959.18  152.54   1 0.72441-0.50461-0.68912 0.75831 0.01805 0.41270
   2  -1  14 6609.46  294.61   1 0.68622-0.46015-0.71196 0.64274-0.14898 0.61248
   2   1  14 6880.38  283.48   1 0.72798-0.50262-0.68440 0.75359 0.04026 0.42362
   2  -1  15 2503.80  235.38   1 0.69561-0.46393-0.70895 0.63973-0.11617 0.61278
   2   1  15 3085.29  268.92   1 0.73070-0.49974-0.67986 0.74902 0.06205 0.43498
  -2  -1 -16 3683.72  312.97   1-0.74086 0.50377 0.66701-0.73618-0.07877-0.45193
   2  -1  16 4677.45  368.52   1 0.70323-0.46676-0.70603 0.63684-0.08347 0.61364
  -2  -1 -17 6846.91  356.81   1-0.74314 0.50047 0.66165-0.73082-0.09974-0.46413
   2  -1  17 7246.95  365.80   1 0.71031-0.46828-0.70184 0.63265-0.05351 0.61680
   2   1  17 7771.21  413.92   1 0.73570-0.49361-0.66928 0.73844 0.10391 0.45939
  -2  -1 -1818802.27  591.34   1-0.74504 0.49679 0.65606-0.72523-0.12036-0.47668
   2  -1  1821480.95  585.07   1 0.71647-0.46888-0.69717 0.62798-0.02467 0.62110
   2   1  1821678.02  572.41   1 0.73764-0.48998-0.66364 0.73280 0.12432 0.47212
  -2  -1 -19 1779.20  331.00   1-0.74658 0.49275 0.65024-0.71941-0.14069-0.48951
   2  -1  19 1516.60  248.96   1 0.72181-0.46867-0.69208 0.62289 0.00318 0.62637
   2   1  19 2233.55  287.45   1 0.73923-0.48601-0.65777 0.72693 0.14445 0.48513
  -2  -1 -20 6728.85  482.74   1-0.74777 0.48837 0.64419-0.71335-0.16078-0.50259
   2  -1  20 8197.06  400.14   1 0.72641-0.46771-0.68659 0.61740 0.03020 0.63249
   2   1  20 8503.74  422.72   1 0.74048-0.48170-0.65166 0.72082 0.16435 0.49836
  -2  -1 -21   59.05  100.86   1-0.74863 0.48366 0.63789-0.70706-0.18066-0.51588
   2  -1  21   45.44  131.82   1 0.73035-0.46610-0.68073 0.61154 0.05648 0.63935
   2   1  21  135.47  139.45   1 0.74141-0.47706-0.64531 0.71447 0.18405 0.51179
  -2   1 -22  520.72  179.48   1-0.74105 0.47050 0.66662-0.59745-0.08035-0.64936
  -2  -1 -22  762.83  180.04   1-0.74916 0.47861 0.63134-0.70051-0.20037-0.52934
   2  -1  22  482.23  124.51   1 0.73328-0.46337-0.67493 0.60577 0.08221 0.64677
   2   1  22  692.42  236.55   1 0.74202-0.47211-0.63870 0.70786 0.20360 0.52538
  -2   1 -23  670.13  185.98   1-0.74370 0.46758 0.66012-0.59095-0.10552-0.65737
  -2  -1 -23  479.56  148.90   1-0.74989 0.47313 0.62421-0.69335-0.21912-0.54351
   2  -1  23  594.54  176.73   1 0.73604-0.46057-0.66837 0.59921 0.10728 0.65483
   2   1  23  721.49  214.64   1 0.74231-0.46683-0.63185 0.70101 0.22301 0.53911
  -2   1 -24  383.96  120.91   1-0.74582 0.46412 0.65329-0.58412-0.13019-0.66586
  -2  -1 -24  162.42   87.65   1-0.74979 0.46743 0.61716-0.68630-0.23857-0.55721
   2  -1  24  160.40  129.20   1 0.73827-0.45723-0.66148 0.59232 0.13187 0.66339
   2   1  24  387.59  224.00   1 0.74202-0.46127-0.62478 0.69396 0.24299 0.55284
  -2   1 -25  623.60  126.40   1-0.74743 0.46015 0.64614-0.57697-0.15442-0.67480
  -2  -1 -25  761.81  163.99   1-0.74936 0.46140 0.60985-0.67899-0.25792-0.57102
   2  -1  25  932.34  232.77   1 0.74000-0.45339-0.65425 0.58509 0.15602 0.67237
   2   1  25  546.21  198.25   1 0.74167-0.45535-0.61739 0.68657 0.26220 0.56680
  -2   1 -26   60.98   88.20   1-0.74854 0.45569 0.63866-0.56949-0.17828-0.68411
  -2  -1 -26  126.89   61.36   1-0.74861 0.45506 0.60227-0.67141-0.27719-0.58491
   2  -1  26   78.71  137.12   1 0.74124-0.44907-0.64671 0.57755 0.17979 0.68173
   2   1  26   53.94  127.08   1 0.74100-0.44912-0.60972 0.67891 0.28133 0.58083
   2   2 -27   46.14   77.02   1-0.74025 0.73739 0.56181-0.42346-0.36930-0.52624
   2  -2 -27   66.22  109.06   1-0.70477 0.70210 0.47238-0.61072-0.52928-0.36615
   2   2 -26  820.12  194.98   1-0.74243 0.74484 0.56944-0.43116-0.35288-0.50922
   2  -2 -26  958.93  231.94   1-0.70726 0.71016 0.47757-0.61591-0.52124-0.34103
   2   2 -25  407.91  146.25   1-0.74417 0.75217 0.57673-0.43845-0.33703-0.49191
   2  -2 -25  201.29   98.10   1-0.70982 0.71812 0.48192-0.62028-0.51370-0.31550
   2   2 -24  517.77  131.89   1-0.74565 0.75925 0.58372-0.44545-0.32134-0.47444
   2  -2 -24   -2.49  123.78   1-0.71175 0.72563 0.48609-0.62445-0.50706-0.28897
   2   2 -23 2026.94  314.74   1-0.74689 0.76609 0.59042-0.45215-0.30585-0.45678
   2  -2 -23 2752.43  526.63   1-0.71339 0.73286 0.48970-0.62806-0.50125-0.26162
  -2  -2  23 3084.57  321.36   1 0.73978-0.75916-0.60022 0.46186 0.30404 0.45864
   2   2 -22  118.29   68.52   1-0.74790 0.77270 0.59683-0.45855-0.29056-0.43891
   2  -2 -22  -12.62  128.56   1-0.71474 0.73979 0.49271-0.63106-0.49635-0.23335
  -2  -2  22  121.21  135.03   1 0.74066-0.76559-0.60675 0.46839 0.28854 0.44097
   2   2 -21  150.84   86.78   1-0.74869 0.77909 0.60295-0.46467-0.27550-0.42081
   2  -2 -21  494.18  128.30   1-0.71579 0.74642 0.49506-0.63341-0.49249-0.20404
  -2  -2  21  214.21  165.99   1 0.74132-0.77181-0.61299 0.47463 0.27326 0.42310
   2   2 -20  129.98   80.86   1-0.74927 0.78527 0.60877-0.47050-0.26071-0.40244
   2  -2 -20  -61.92  111.06   1-0.71650 0.75272 0.49669-0.63504-0.48980-0.17356
  -2  -2  20  220.29  149.11   1 0.74177-0.77782-0.61895 0.48058 0.25821 0.40499
   2   2 -19 1529.55  191.83   1-0.74966 0.79126 0.61431-0.47604-0.24621-0.38378
   2  -2 -19 1395.25  280.26   1-0.71686 0.75866 0.49751-0.63587-0.48844-0.14175
  -2  -2  19 1349.31  182.39   1 0.74202-0.78363-0.62461 0.48625 0.24343 0.38661
   2   2 -18 4572.20  566.28   1-0.74986 0.79705 0.61955-0.48128-0.23206-0.36477
   2  -2 -18 4023.65  472.11   1-0.71683 0.76421 0.49743-0.63578-0.48858-0.10844
  -2  -2  18 5251.10  303.15   1 0.74208-0.78926-0.62998 0.49162 0.22896 0.36792
   2   2 -17  423.25   81.72   1-0.74989 0.80268 0.62449-0.48622-0.21832-0.34536
  -2  -2  17  590.03  131.12   1 0.74223-0.79514-0.63472 0.49640 0.21499 0.34832
   2   2 -16 2938.50  390.87   1-0.74924 0.80792 0.62965-0.49132-0.20533-0.32537
   2  -2 -16 2958.80  476.48   1-0.71530 0.77384 0.49396-0.63232-0.49430-0.03639
  -2  -2  16 3349.59  200.57   1 0.74196-0.80044-0.63948 0.50116 0.20135 0.32881
   2   2 -15  336.89   72.31   1-0.74899 0.81324 0.63396-0.49563-0.19260-0.30493
   2  -2 -15  409.05   94.04   1-0.71362 0.77775 0.49021-0.62856-0.50043 0.00290
  -2  -2  15  389.11  123.31   1 0.74157-0.80561-0.64392 0.50560 0.18824 0.30879
   2   2 -14 3287.18  409.34   1-0.74862 0.81845 0.63792-0.49958-0.18057-0.28379
   2  -2 -14 3333.48  520.66   1-0.71113 0.78084 0.48475-0.62311-0.50920 0.04484
  -2  -2  14 3822.13  221.98   1 0.74106-0.81067-0.64801 0.50969 0.17577 0.28813
   2   2 -13  -48.95   67.92   1-0.74818 0.82358 0.64149-0.50315-0.16941-0.26178
   2  -2 -13   25.67  114.70   1-0.70725 0.78265 0.47755-0.61589-0.52127 0.09013
  -2  -2  13   64.54  103.64   1 0.74047-0.81564-0.65174 0.51342 0.16408 0.26667
   2   2 -1224088.91  614.02   1-0.74770 0.82867 0.64462-0.50629-0.15936-0.23866
   2  -2 -1226363.41  553.29   1-0.70240 0.78337 0.46752-0.60586-0.53670 0.13872
  -2  -2  1230525.52  550.59   1 0.73983-0.82057-0.65506 0.51673 0.15341 0.24421
   2   2 -11  513.42  126.23   1-0.74722 0.83377 0.64724-0.50891-0.15077-0.21408
   2  -2 -11  647.90  119.99   1-0.69578 0.78233 0.45435-0.59269-0.55627 0.19146
  -2  -2  11  540.25  104.24   1 0.73920-0.82550-0.65789 0.51957 0.14406 0.22042
   2   2 -10 3573.31  384.58   1-0.74680 0.83893 0.64922-0.51089-0.14414-0.18754
   2  -2 -10 4442.76  206.93   1-0.68677 0.77890 0.43725-0.57559-0.58064 0.24899
  -2  -2  10 4507.96  184.45   1 0.73864-0.83050-0.66013 0.52181 0.13649 0.19486
  -2  -2   9 5751.48  184.97   1 0.73823-0.83566-0.66161 0.52329 0.13141 0.16681
   2   2  -831648.57  331.29   1-0.74655 0.84983 0.65034-0.51200-0.14036-0.12498
   2  -2  -837650.62  446.92   1-0.65772 0.76101 0.38662-0.52496-0.64646 0.38114
  -2  -2   838581.27  369.09   1 0.73812-0.84111-0.66203 0.52371 0.12996 0.13512
   2   2  -738391.87  360.92   1-0.74696 0.85582 0.64848-0.51014-0.14665-0.08552
   2  -2  -741834.23  445.50   1-0.63440 0.74326 0.35037-0.48869-0.68903 0.45687
  -2  -2   746034.45  367.38   1 0.73845-0.84701-0.66081 0.52249 0.13415 0.09779
   2   2  -6 1273.83  203.92   1-0.74789 0.86233 0.64341-0.50508-0.16327-0.03573
   2  -2  -6 1302.52  105.43   1-0.60280 0.71723 0.30333-0.44166-0.73797 0.53898
  -2  -2   6 1236.99   73.48   1 0.73946-0.85358-0.65677 0.51844 0.14779 0.05102
   2   2  -514855.37  257.26   1-0.74969 0.86968 0.63066-0.49238-0.20056 0.03477
   2  -2  -515999.59  268.58   1-0.55989 0.67981 0.24362-0.38190-0.79193 0.62610
  -2  -2   516679.00  177.19   1 0.74121-0.86089-0.64692 0.50860 0.17914-0.01346
   2   2  -433106.98  214.05   1-0.74849 0.87407 0.60123-0.46296-0.27976 0.14713
   2  -2  -437567.93  368.17   1-0.50167 0.62717 0.16891-0.30719-0.84840 0.71573
  -2  -2   438614.37  217.58   1 0.74198-0.86702-0.62344 0.48508 0.24652-0.11388
   2   2  -3 5088.34   64.58   1-0.71855 0.84966 0.50140-0.36304-0.48195 0.38245
   2  -2  -3 5632.18  184.81   1-0.42536 0.55645 0.07837-0.21664-0.90162 0.80213
   2   2  -3 5635.84   66.35   1 0.53423-0.40356-0.68939 0.82756-0.48921 0.39022
   2  -2  -222497.33  274.26   1-0.33028 0.46699-0.02637-0.11191-0.94351 0.87715
  -2  -2   051084.17  199.69   1-0.74664 0.59875 0.64996-0.78830-0.14164 0.14164
   2  -2   057116.35  424.35   1-0.09838 0.24627-0.25336 0.11498-0.96235 0.96235
  -2  -2   059657.31  213.74   1 0.48939-0.63679-0.67020 0.53214-0.55795 0.55795
   2   2   060645.23  216.07   1 0.74156-0.59427-0.64178 0.78015 0.19543-0.19543
   2   2   170139.23  307.26   1 0.73358-0.58052-0.67428 0.81260 0.08478-0.05165
   2   2   378116.42  425.63   1 0.72713-0.56289-0.68561 0.82399 0.03473 0.06467
   2  -2   543101.06  439.29   1 0.38361-0.20852-0.61543 0.47741-0.68853 0.85357
   2   2   543607.96  387.35   1 0.72733-0.55198-0.68533 0.82371 0.03602 0.12964
   2  -2   660255.56  544.27   1 0.44103-0.26040-0.64605 0.50802-0.62297 0.82103
   2  -2   7  775.63   93.03   1 0.48728-0.30117-0.66927 0.53120-0.56091 0.79190
   2   2   7  638.24   95.86   1 0.72975-0.54328-0.68171 0.82008 0.05224 0.17969
   2  -2   814390.60  337.60   1 0.52648-0.33485-0.68540 0.54734-0.50301 0.76699
   2   2   814205.68  302.76   1 0.73087-0.53886-0.67956 0.81788 0.06335 0.20173
   2  -2   9  -13.07   75.35   1 0.55918-0.36202-0.69682 0.55875-0.44916 0.74614
   2   2   9   47.55  134.71   1 0.73242-0.53484-0.67667 0.81499 0.07524 0.22297
  -2  -2 -10 1384.92  129.86   1-0.74104 0.53740 0.66664-0.80497-0.08027-0.25141
   2  -2  10 1750.94  152.35   1 0.58566-0.38272-0.70540 0.56723-0.39923 0.72922
   2   2  10 1810.54  145.26   1 0.73396-0.53081-0.67346 0.81178 0.08798 0.24337
  -2  -2 -11  816.70  118.75   1-0.74258 0.53336 0.66309-0.80142-0.09424-0.27061
   2  -2  11  969.14  133.32   1 0.60897-0.40047-0.71050 0.57233-0.35259 0.71557
   2   2  11 1127.73  141.08   1 0.73543-0.52673-0.66996 0.80828 0.10138 0.26311
  -2  -2 -12  730.06  196.80   1-0.74400 0.52921 0.65928-0.79761-0.10865-0.28937
   2  -2  12  770.22  130.78   1 0.62888-0.41481-0.71347 0.57530-0.30896 0.70494
   2   2  12  692.52  114.58   1 0.73682-0.52255-0.66618 0.80450 0.11529 0.28233
  -2  -2 -13 4144.95  715.18   1-0.74529 0.52492 0.65521-0.79355-0.12341-0.30778
   2  -2  13 4467.57  252.88   1 0.64525-0.42478-0.71583 0.57739-0.26686 0.69726
   2  -2  1443402.07  677.56   1 0.65999-0.43391-0.71579 0.57734-0.22815 0.69165
   2  -2  15 1975.10  236.29   1 0.67279-0.44111-0.71463 0.57618-0.19145 0.68806
  -2  -2 -16 4257.03  668.82   1-0.74818 0.51108 0.64152-0.77986-0.16931-0.36139
   2  -2  16 4709.61  298.09   1 0.68395-0.44666-0.71254 0.57409-0.15650 0.68622
   2   2  16 4864.70  310.00   1 0.74100-0.50447-0.64843 0.78675 0.17448 0.35569
  -2  -2 -17 5627.25  471.22   1-0.74877 0.50610 0.63647-0.77480-0.18502-0.37884
   2  -2  17 5977.00  329.07   1 0.69370-0.45081-0.70966 0.57121-0.12308 0.68591
   2   2  17 6040.95  368.34   1 0.74162-0.49953-0.64336 0.78168 0.18991 0.37340
  -2  -2 -18 7402.99 1182.75   1-0.74917 0.50092 0.63117-0.76950-0.20090-0.39614
   2  -2  18 7970.82  400.59   1 0.70169-0.45411-0.70681 0.56843-0.08961 0.68604
   2   2  18 8743.47  426.59   1 0.74206-0.49441-0.63804 0.77636 0.20552 0.39092
  -2  -2 -19  966.47  191.59   1-0.74988 0.49551 0.62531-0.76358-0.21600-0.41399
   2  -2  19  868.46  222.72   1 0.70914-0.45600-0.70261 0.56423-0.05868 0.68825
   2   2  19  964.99  180.92   1 0.74229-0.48908-0.63246 0.77078 0.22131 0.40827
  -2  -2 -20  151.63   91.98   1-0.74985 0.48989 0.61952-0.75779-0.23217-0.43098
   2  -2  20   75.88  120.51   1 0.71563-0.45693-0.69788 0.55950-0.02879 0.69149
  -2  -2 -21  238.24   93.26   1-0.74961 0.48405 0.61347-0.75174-0.24846-0.44785
   2  -2  21  347.63  178.43   1 0.72126-0.45701-0.69265 0.55427 0.00019 0.69563
   2   2  21  357.78  189.52   1 0.74186-0.47779-0.62059 0.75895 0.25398 0.44238
  -2  -2 -22  231.61   84.91   1-0.74913 0.47797 0.60716-0.74543-0.26486-0.46461
   2  -2  22  306.15  169.08   1 0.72612-0.45631-0.68697 0.54859 0.02838 0.70058
   2   2  22   24.60  137.32   1 0.74143-0.47180-0.61423 0.75259 0.27017 0.45934
  -2  -2 -23  186.56   87.97   1-0.74841 0.47165 0.60059-0.73886-0.28136-0.48126
   2  -2  23  235.20  160.69   1 0.73026-0.45490-0.68087 0.54249 0.05587 0.70623
   2   2  23  100.51  135.76   1 0.74076-0.46557-0.60761 0.74597 0.28648 0.47619
  -2   2 -24  208.43  114.98   1-0.74122 0.45952 0.66625-0.52791-0.08181-0.71424
  -2  -2 -24  208.98   72.79   1-0.74744 0.46508 0.59375-0.73202-0.29796-0.49782
   2  -2  24  238.65  132.78   1 0.73335-0.45231-0.67478 0.53646 0.08279 0.71247
   2   2  24  185.85  144.48   1 0.73985-0.45910-0.60071 0.73907 0.30290 0.49293
  -2   2 -25 3998.80  365.53   1-0.74396 0.45668 0.65940-0.52107-0.10817-0.72105
  -2  -2 -25 3871.38  701.74   1-0.74621 0.45826 0.58664-0.72491-0.31465-0.51429
   2  -2  25 5075.63  462.67   1 0.73622-0.44962-0.66788 0.52956 0.10909 0.71930
  -2   2 -26 1126.70  319.93   1-0.74611 0.45326 0.65218-0.51385-0.13403-0.72836
  -2  -2 -26 1324.14  378.11   1-0.74472 0.45116 0.57924-0.71752-0.33144-0.53066
   2  -2  26 1325.40  298.39   1 0.73851-0.44635-0.66059 0.52227 0.13490 0.72663
   2   3 -27 1161.52  252.38   1-0.74435 0.74116 0.57755-0.37014-0.33520-0.56006
   2  -3 -27 1569.96  297.60   1-0.68991 0.68724 0.44313-0.65064-0.57240-0.32304
   2   3 -26  219.66   55.68   1-0.74600 0.74841 0.58552-0.37811-0.31722-0.54488
   2  -3 -26  391.51  162.70   1-0.69223 0.69514 0.44753-0.65504-0.56614-0.29613
   2   3 -25  230.58  129.75   1-0.74735 0.75536 0.59321-0.38580-0.29925-0.52969
   2  -3 -25  -60.96  133.81   1-0.69423 0.70271 0.45136-0.65886-0.56063-0.26848
  -2  -3  25   60.91  103.43   1 0.74022-0.74847-0.60328 0.39573 0.29685 0.53214
   2   3 -24 5128.17  743.98   1-0.74841 0.76202 0.60062-0.39321-0.28129-0.51449
   2  -3 -24 8392.75  484.79   1-0.69589 0.70995 0.45458-0.66209-0.55595-0.24000
  -2  -3  24 7649.11  460.63   1 0.74111-0.75492-0.61081 0.40326 0.27867 0.51716
   2   3 -23 1395.67  305.90   1-0.74918 0.76839 0.60775-0.40034-0.26333-0.49929
   2  -3 -23 1676.57  378.40   1-0.69721 0.71684 0.45715-0.66466-0.55218-0.21060
  -2  -3  23 1726.45  287.52   1 0.74171-0.76108-0.61806 0.41052 0.26047 0.50220
   2   3 -22 7054.57  833.04   1-0.74967 0.77447 0.61463-0.40722-0.24537-0.48409
   2  -3 -22 8425.62  450.80   1-0.69815 0.72336 0.45902-0.66653-0.54942-0.18019
  -2  -3  2210553.55  480.82   1 0.74203-0.76696-0.62506 0.41751 0.24224 0.48727
   2   3 -21   99.53   72.23   1-0.74988 0.78029 0.62125-0.41384-0.22740-0.46891
   2  -3 -21  354.26  145.98   1-0.69871 0.72950 0.46012-0.66763-0.54780-0.14865
  -2  -3  21  268.89  127.04   1 0.74206-0.77256-0.63180 0.42425 0.22397 0.47239
   2   3 -20  100.04   62.70   1-0.74982 0.78582 0.62762-0.42021-0.20940-0.45375
   2  -3 -20   92.47  130.54   1-0.69883 0.73520 0.46036-0.66787-0.54743-0.11585
  -2  -3  20   73.15  105.70   1 0.74206-0.77829-0.63800 0.43052 0.20564 0.45707
   2   3 -19 2709.98  379.88   1-0.74896 0.79091 0.63427-0.42677-0.19167-0.43853
   2  -3 -19 3251.69  292.89   1-0.69847 0.74042 0.45965-0.66716-0.54848-0.08164
  -2  -3  19 3330.63  256.91   1 0.74153-0.78332-0.64424 0.43676 0.18727 0.44231
   2   3 -18  857.86  160.41   1-0.74836 0.79588 0.64018-0.43268-0.17354-0.42349
   2  -3 -18  992.23  205.54   1-0.69757 0.74509 0.45787-0.66538-0.55112-0.04584
  -2  -3  18  819.34  148.28   1 0.74072-0.78807-0.65025 0.44277 0.16879 0.42765
   2   3 -17  108.42   56.12   1-0.74748 0.80058 0.64586-0.43836-0.15533-0.40854
   2  -3 -17  336.08   88.81   1-0.69603 0.74913 0.45486-0.66236-0.55554-0.00825
  -2  -3  17  510.54  134.85   1 0.73962-0.79254-0.65604 0.44856 0.15019 0.41311
   2   3 -16 1507.47  273.93   1-0.74632 0.80500 0.65132-0.44382-0.13701-0.39369
   2  -3 -16 1654.06  201.67   1-0.69375 0.75242 0.45042-0.65793-0.56198 0.03134
  -2  -3  16 2105.62  206.95   1 0.73824-0.79671-0.66161 0.45413 0.13142 0.39875
   2   3 -15  465.78  112.98   1-0.74488 0.80913 0.65657-0.44906-0.11855-0.37898
   2  -3 -15  365.60   91.94   1-0.69055 0.75480 0.44433-0.65184-0.57069 0.07322
  -2  -3  15  640.96  130.59   1 0.73655-0.80059-0.66696 0.45948 0.11244 0.38459
   2   3 -14  191.61   92.52   1-0.74316 0.81298 0.66161-0.45411-0.09990-0.36446
   2  -3 -14  264.99  122.43   1-0.68626 0.75608 0.43630-0.64381-0.58196 0.11766
  -2  -3  14  248.73  147.94   1 0.73455-0.80415-0.67212 0.46464 0.09318 0.37072
   2   3 -1315569.71  383.59   1-0.74112 0.81653 0.66645-0.45895-0.08100-0.35019
   2  -3 -1316551.00  450.37   1-0.68058 0.75598 0.42594-0.63345-0.59613 0.16499
  -2  -3  1317889.48  420.92   1 0.73221-0.80738-0.67709 0.46960 0.07356 0.35720
   2  -3 -12 2029.68  190.55   1-0.67317 0.75414 0.41280-0.62031-0.61353 0.21556
  -2  -3  12 2022.50  159.98   1 0.73001-0.81091-0.68128 0.47371 0.05409 0.34352
   2  -3 -11 1799.79  153.86   1-0.66353 0.75009 0.39631-0.60382-0.63454 0.26973
  -2  -3  11 1943.60  126.35   1 0.72692-0.81337-0.68590 0.47833 0.03341 0.33107
   2  -3 -10 7519.87  281.94   1-0.65072 0.74285 0.37612-0.58361-0.65961 0.32795
  -2  -3  10 8266.66  248.76   1 0.72334-0.81535-0.69038 0.48281 0.01184 0.31950
   2  -3  -9 1448.43  146.50   1-0.63455 0.73226 0.35059-0.55808-0.68878 0.39028
  -2  -3   9 1649.35  132.68   1 0.71917-0.81674-0.69474 0.48717-0.01096 0.30918
   2  -3  -8126220.9 1028.32   1-0.61361 0.71690 0.31906-0.52655-0.72226 0.45694
  -2  -3   8135584.9  906.56   1 0.71420-0.81732-0.69902 0.49145-0.03565 0.30073
   2  -3  -7 6760.46  250.37   1-0.58654 0.69540 0.28030-0.48779-0.75986 0.52770
  -2  -3   7 6590.94  251.33   1 0.70808-0.81676-0.70328 0.49571-0.06328 0.29523
   2  -3  -697969.76  690.44   1-0.55200 0.66633 0.23314-0.44056-0.80058 0.60158
  -2  -3   6102446.8  483.73   1 0.70009-0.81433-0.70757 0.50001-0.09590 0.29471
   2  -3  -5  229.25   60.13   1-0.50755 0.62746 0.17621-0.38363-0.84340 0.67757
   2  -3  -427814.23  361.59   1-0.45173 0.57723 0.10886-0.31628-0.88548 0.75283
  -2  -3   428354.00  192.34   1 0.67008-0.79528-0.71497 0.50730-0.19947 0.33190
   2  -3  -327377.22  342.60   1-0.38343 0.51452 0.03140-0.23881-0.92303 0.82354
  -2  -3   327839.83  150.46   1 0.62343-0.75423-0.71392 0.50625-0.31881 0.41813
   2   3  -2 1859.78   88.15   1-0.65416 0.79089 0.38172-0.17423-0.65295 0.58662
   2  -3  -2 2202.07  119.30   1-0.30306 0.43976-0.05474-0.15269-0.95139 0.88503
   2  -3  -122468.85  305.34   1-0.21178 0.35403-0.14625-0.06128-0.96631 0.93322
  -2  -3   087832.01  295.47   1-0.55840 0.41055 0.24162-0.44904-0.79360 0.79360
   2  -3   093539.92  598.13   1-0.11502 0.26292-0.23843 0.03085-0.96432 0.96432
  -2  -3  -1 3118.12   80.30   1-0.68698 0.53351 0.43765-0.64515-0.58009 0.54693
   2  -3   1 3261.82  141.25   1-0.01515 0.16867-0.32549 0.11792-0.94542 0.97859
  -2  -3  -222601.09  239.37   1-0.72764 0.56862 0.52383-0.73136-0.44285 0.37651
   2  -3   224789.78  336.58   1 0.08099 0.07789-0.40349 0.19607-0.91139 0.97749
  -2  -3  -3 3983.20  353.01   1-0.74196 0.57718 0.56758-0.77499-0.35683 0.25736
   2  -3   3 4354.01  175.70   1 0.16825-0.00395-0.47127 0.26394-0.86578 0.96452
  -2  -3  -4182151.5  749.91   1-0.74708 0.57670 0.59152-0.79893-0.30325 0.17062
   2  -3   4207289.6 1029.71   1 0.24828-0.07844-0.52754 0.32021-0.81243 0.94409
  -2  -3  -5 2041.87  139.23   1-0.74898 0.57301 0.60565-0.81305-0.26871 0.10292
   2  -3   5 1792.31  121.44   1 0.31786-0.14269-0.57482 0.36771-0.75401 0.91892
   2   3   5 2046.02  132.64   1 0.74085-0.56577-0.60842 0.81597 0.28450-0.11870
  -2  -3  -6 7479.77  331.09   1-0.74965 0.56807 0.61418-0.82159-0.24656 0.04761
   2  -3   610115.87  306.23   1 0.37771-0.19708-0.61210 0.40506-0.69473 0.89279
   2   3   6 9133.43  223.07   1 0.74170-0.56105-0.61791 0.82545 0.26087-0.06191
  -2  -3  -718098.39  370.20   1-0.74985 0.56267 0.61926-0.82667-0.23287 0.00076
   2  -3   722644.56  409.65   1 0.42972-0.24355-0.64030 0.43326-0.63666 0.86773
  -2  -3  -837972.02  605.76   1-0.74989 0.55712 0.62205-0.82946-0.22518-0.04008
   2  -3   845289.03  581.67   1 0.47294-0.28131-0.66280 0.45570-0.58052 0.84450
   2   3   844866.85  532.34   1 0.74206-0.55029-0.62695 0.83449 0.23720 0.02807
  -2  -3  -9 4858.62  296.95   1-0.74989 0.55152 0.62323-0.83063-0.22189-0.07653
   2  -3   9 7210.34  280.04   1 0.51094-0.31378-0.67929 0.47220-0.52677 0.82375
   2   3   9 6743.69  269.33   1 0.74208-0.54475-0.62849 0.83604 0.23302 0.06541
  -2  -3 -1042288.34  695.72   1-0.74989 0.54592 0.62321-0.83062-0.22192-0.10965
   2  -3  1051999.30  828.48   1 0.54351-0.34081-0.69160 0.48450-0.47568 0.80566
   2   3  1050503.77  784.00   1 0.74208-0.53919-0.62876 0.83630 0.23230 0.09929
  -2  -3 -1129399.41  653.84   1-0.74989 0.54032 0.62228-0.82969-0.22453-0.14020
   2  -3  1137956.21  700.12   1 0.57044-0.36193-0.70128 0.49402-0.42755 0.79053
   2   3  1134994.03  638.93   1 0.74208-0.53362-0.62804 0.83559 0.23425 0.13050
  -2  -3 -1213268.65  373.31   1-0.74988 0.53471 0.62061-0.82802-0.22917-0.16872
   2  -3  1217337.55  461.67   1 0.59467-0.38060-0.70756 0.50030-0.38172 0.77770
   2   3  1216190.16  413.28   1 0.74206-0.52804-0.62653 0.83408 0.23831 0.15960
  -2  -3 -1312819.24  899.91   1-0.74982 0.52905 0.61832-0.82573-0.23544-0.19560
   2  -3  1314481.29  405.56   1 0.61570-0.39608-0.71166 0.50441-0.33828 0.76726
   2   3  1315299.16  410.46   1 0.74201-0.52243-0.62437 0.83192 0.24407 0.18700
  -2  -3 -14    8.46   74.88   1-0.74972 0.52335 0.61550-0.82291-0.24304-0.22116
   2   3  14  588.54  215.85   1 0.74191-0.51677-0.62165 0.82919 0.25122 0.21301
  -2  -3 -1529718.04 1444.26   1-0.74953 0.51756 0.61222-0.81963-0.25175-0.24561
   2  -3  1533289.39  729.04   1 0.64931-0.41763-0.71594 0.50827-0.25654 0.75315
   2   3  1533888.92  728.96   1 0.74173-0.51103-0.61844 0.82598 0.25952 0.23787
   2  -3  16  386.69  102.75   1 0.66330-0.42602-0.71560 0.50793-0.21895 0.74867
   2   3  16  410.14  226.04   1 0.74147-0.50521-0.61478 0.82233 0.26879 0.26177
  -2  -3 -17 5669.30  802.37   1-0.74886 0.50569 0.60442-0.81183-0.27180-0.29188
   2  -3  17 7125.55  372.15   1 0.67559-0.43271-0.71420 0.50653-0.18295 0.74577
   2   3  17 7558.73  398.06   1 0.74110-0.49928-0.61073 0.81827 0.27887 0.28485
  -2  -3 -18  989.14  256.20   1-0.74833 0.49957 0.59997-0.80738-0.28289-0.31395
   2  -3  18 1277.66  196.85   1 0.68641-0.43792-0.71191 0.50424-0.14835 0.74428
   2   3  18 1179.81  222.43   1 0.74060-0.49322-0.60629 0.81384 0.28965 0.30722
  -2  -3 -19 3595.22  417.20   1-0.74766 0.49329 0.59517-0.80258-0.29456-0.33543
   2  -3  19 3739.53  330.81   1 0.69593-0.44183-0.70883 0.50116-0.11501 0.74405
   2   3  19 4303.55  351.40   1 0.73997-0.48702-0.60150 0.80905 0.30104 0.32899
  -2  -3 -20 1482.14  279.86   1-0.74683 0.48686 0.59004-0.79745-0.30674-0.35641
   2  -3  20 1240.34  212.36   1 0.70374-0.44504-0.70577 0.49820-0.08142 0.74412
   2   3  20 1421.88  229.94   1 0.73918-0.48067-0.59637 0.80391 0.31296 0.35023
  -2  -3 -21   45.87   56.10   1-0.74582 0.48026 0.58458-0.79199-0.31937-0.37694
   2  -3  21  141.55  159.30   1 0.71105-0.44680-0.70133 0.49377-0.05018 0.74602
  -2  -3 -22  709.59  136.56   1-0.74463 0.47347 0.57881-0.78622-0.33240-0.39707
   2  -3  22  611.29  195.84   1 0.71744-0.44763-0.69633 0.48876-0.01984 0.74881
  -2  -3 -23  271.23   98.53   1-0.74324 0.46648 0.57273-0.78014-0.34578-0.41685
   2  -3  23   34.51  113.10   1 0.72297-0.44760-0.69080 0.48324 0.00969 0.75241
  -2  -3 -24 1445.28  276.88   1-0.74164 0.45928 0.56634-0.77375-0.35948-0.43631
   2  -3  24 1586.11  273.96   1 0.72771-0.44679-0.68479 0.47722 0.03851 0.75672
  -2  -3 -25  187.05   83.77   1-0.73960 0.45219 0.55951-0.76704-0.37406-0.45514
   2  -3  25  364.96  208.94   1 0.73133-0.44472-0.67874 0.47126 0.06674 0.76165
   2   4 -26   67.24   44.98   1-0.74820 0.75060 0.59896-0.32241-0.28536-0.57674
   2  -4 -26 -126.84  121.71   1-0.67432 0.67722 0.41482-0.69150-0.61090-0.25137
  -2  -4  26   62.67  104.87   1 0.74096-0.74365-0.60936 0.33263 0.28222 0.57994
   2   4 -25  684.71  169.22   1-0.74911 0.75711 0.60695-0.33040-0.26539-0.56355
   2  -4 -25  953.71  198.94   1-0.67597 0.68445 0.41773-0.69441-0.60708-0.22203
  -2  -4  25 1128.61  243.64   1 0.74167-0.74992-0.61747 0.34074 0.26199 0.56701
   2   4 -24  367.38  107.42   1-0.74967 0.76328 0.61467-0.33812-0.24527-0.55051
   2  -4 -24 1053.08  271.98   1-0.67723 0.69129 0.41996-0.69664-0.60413-0.19182
  -2  -4  24  752.31  178.62   1 0.74203-0.75585-0.62530 0.34857 0.24160 0.55424
   2   4 -23  -42.20  107.72   1-0.74989 0.76909 0.62212-0.34557-0.22498-0.53764
   2  -4 -23  -10.37  121.83   1-0.67807 0.69771 0.42145-0.69813-0.60215-0.16063
  -2  -4  23  -14.49  117.44   1 0.74229-0.76182-0.63260 0.35596 0.22091 0.54120
   2   4 -22 1522.90  299.19   1-0.74923 0.77446 0.62982-0.35315-0.20484-0.52487
   2  -4 -22 2457.34  285.17   1-0.67846 0.70367 0.42214-0.69882-0.60123-0.12839
  -2  -4  22 2777.89  318.81   1 0.74193-0.76703-0.63990 0.36326 0.20012 0.52886
   2   4 -21   -4.71   90.54   1-0.74874 0.77954 0.63678-0.36011-0.18407-0.51247
   2  -4 -21 -174.81  128.96   1-0.67835 0.70914 0.42195-0.69863-0.60148-0.09497
  -2  -4  21   60.98  120.64   1 0.74120-0.77186-0.64695 0.37031 0.17905 0.51680
   2   4 -20 7067.11  908.66   1-0.74788 0.78425 0.64350-0.36682-0.16301-0.50037
   2  -4 -20 9480.80  439.85   1-0.67770 0.71406 0.42079-0.69747-0.60302-0.06026
  -2  -4  2010706.85  420.84   1 0.74009-0.77632-0.65375 0.37711 0.15764 0.50507
   2   4 -19   77.79   77.99   1-0.74663 0.78858 0.64998-0.37331-0.14158-0.48863
   2  -4 -19  -20.45  146.91   1-0.67644 0.71838 0.41855-0.69523-0.60600-0.02412
  -2  -4  19   52.20  110.26   1 0.73859-0.78037-0.66032 0.38368 0.13582 0.49375
   2   4 -1816388.58  777.80   1-0.74498 0.79251 0.65624-0.37957-0.11971-0.47733
   2  -4 -1819324.45  540.24   1-0.67447 0.72199 0.41508-0.69176-0.61056 0.01359
  -2  -4  1822169.51  511.92   1 0.73665-0.78400-0.66666 0.39002 0.11353 0.48291
   2   4 -17  701.72  148.58   1-0.74289 0.79599 0.66229-0.38562-0.09731-0.46656
   2  -4 -17  928.66  158.41   1-0.67169 0.72478 0.41024-0.68692-0.61686 0.05306
  -2  -4  17  821.16  138.42   1 0.73426-0.78718-0.67278 0.39614 0.09064 0.47267
   2  -4 -16 1059.32  187.01   1-0.66796 0.72663 0.40381-0.68049-0.62510 0.09446
  -2  -4  16 1253.70  166.59   1 0.73136-0.78984-0.67868 0.40203 0.06703 0.46314
   2  -4 -15   -8.36   96.54   1-0.66309 0.72734 0.39557-0.67225-0.63546 0.13799
  -2  -4  15  -80.40   78.55   1 0.72841-0.79264-0.68378 0.40702 0.04309 0.45392
   2  -4 -14 1123.13  159.61   1-0.65687 0.72669 0.38521-0.66189-0.64817 0.18386
  -2  -4  14 1339.29  155.06   1 0.72432-0.79410-0.68923 0.41248 0.01751 0.44637
   2  -4 -1318138.32  434.06   1-0.64863 0.72404 0.37276-0.64941-0.66356 0.23241
  -2  -4  1319190.54  388.67   1 0.71945-0.79480-0.69447 0.41771-0.00948 0.44023
   2  -4 -12  175.90  129.46   1-0.63872 0.71970 0.35706-0.63372-0.68157 0.28358
  -2  -4  12   83.96  105.69   1 0.71364-0.79454-0.69945 0.42270-0.03829 0.43591
   2  -4 -1111018.33  347.61   1-0.62631 0.71287 0.33799-0.61464-0.70248 0.33766
  -2  -4  1111490.09  337.32   1 0.70662-0.79307-0.70416 0.42740-0.06950 0.43399
   2  -4 -1093823.41 1303.69   1-0.61082 0.70295 0.31496-0.59161-0.72642 0.39476
  -2  -4  10101736.3 1253.47   1 0.69800-0.79001-0.70851 0.43175-0.10392 0.43527
   2  -4  -9 1911.00  178.93   1-0.59153 0.68924 0.28729-0.56395-0.75335 0.45486
  -2  -4   9 1837.07  134.16   1 0.68789-0.78507-0.71150 0.43461-0.14336 0.44133
   2  -4  -822449.94  413.21   1-0.56791 0.67106 0.25439-0.53094-0.78279 0.51746
  -2  -4   823797.41  320.17   1 0.67381-0.77659-0.71448 0.43759-0.18836 0.45321
   2  -4  -7 5705.76  253.27   1-0.53830 0.64705 0.21524-0.49179-0.81479 0.58263
  -2  -4   7 5446.94  161.96   1 0.65463-0.76301-0.71595 0.43905-0.24262 0.47437
   2  -4  -6   95.10   65.12   1-0.50196 0.61629 0.16928-0.44583-0.84815 0.64916
  -2  -4   6   14.39   31.91   1 0.62881-0.74280-0.71346 0.43712-0.30913 0.50712
   2  -4  -5 1300.92  132.85   1-0.45780 0.57771 0.11599-0.39254-0.88145 0.71564
  -2  -4   5 1295.34   74.69   1 0.58525-0.70480-0.70530 0.42896-0.40002 0.56501
   2  -4  -4 2887.25  156.81   1-0.40502 0.53052 0.05536-0.33192-0.91262 0.77997
  -2  -4   4 3029.43  134.84   1 0.51447-0.63975-0.68072 0.40459-0.52147 0.65346
   2  -4  -3 3306.90  147.12   1-0.34365 0.47475-0.01223-0.26435-0.93901 0.83947
  -2  -4   3 2828.75  117.26   1 0.38379-0.51458-0.61553 0.33948-0.68834 0.78737
   2  -4  -2  892.47  106.41   1-0.27322 0.40992-0.08518-0.19139-0.95817 0.89181
   2  -4  -1 4469.97  178.87   1-0.19560 0.33785-0.16179-0.11492-0.96724 0.93415
  -2  -4   1 3974.02   82.18   1-0.12756-0.01470-0.22707-0.04969-0.96548 0.99865
  -2  -4   0 5290.66  104.59   1-0.37700 0.22911 0.02376-0.30034-0.92590 0.92590
   2  -4   0 5287.79  183.02   1-0.11437 0.26227-0.23901-0.03774-0.96425 0.96425
  -2  -4  -1 3466.55   92.07   1-0.53632 0.38289 0.21267-0.48923-0.81677 0.78360
   2  -4   1 3936.90  172.09   1-0.02970 0.18322-0.31318 0.03642-0.94922 0.98239
  -2  -4  -2  445.55   70.86   1-0.62515 0.46613 0.33624-0.61289-0.70436 0.63802
   2  -4   2  495.50  116.30   1 0.05344 0.10544-0.38166 0.10509-0.92275 0.98885
  -2  -4  -312482.31  217.70   1-0.67476 0.51013 0.41560-0.69228-0.60988 0.51039
   2  -4   314053.41  310.42   1 0.13091 0.03337-0.44356 0.16712-0.88662 0.98537
  -2  -4  -417670.81  277.03   1-0.70219 0.53199 0.46711-0.74378-0.53733 0.40467
   2  -4   420272.46  381.83   1 0.20471-0.03487-0.49745 0.22101-0.84299 0.97464
  -2  -4  -5 5515.13  517.36   1-0.71855 0.54278 0.50141-0.77811-0.48194 0.31609
   2  -4   5 5770.29  255.96   1 0.27103-0.09587-0.54482 0.26867-0.79353 0.95844
  -2  -4  -691674.84  843.64   1-0.72805 0.54670 0.52491-0.80162-0.44089 0.24188
   2  -4   6100622.7  903.48   1 0.33117-0.15047-0.58303 0.30688-0.74188 0.93977
  -2  -4  -724214.11  463.01   1-0.73390 0.54697 0.54125-0.81796-0.41039 0.17821
   2  -4   728321.22  557.46   1 0.38346-0.19729-0.61535 0.33930-0.68868 0.91975
  -2  -4  -8 1342.56  244.18   1-0.73758 0.54506 0.55267-0.82937-0.38798 0.12263
   2  -4   8 1420.60  141.31   1 0.43024-0.23853-0.64056 0.36451-0.63605 0.90012
  -2  -4  -9 2555.23  257.48   1-0.73990 0.54180 0.56058-0.83729-0.37185 0.07333
   2  -4   9 2799.92  193.78   1 0.47119-0.27395-0.66062 0.38457-0.58442 0.88150
  -2  -4 -10  627.84  106.36   1-0.74159 0.53762 0.56616-0.84271-0.35985 0.02827
   2  -4  10  537.15  116.66   1 0.50571-0.30302-0.67715 0.40102-0.53452 0.86449
  -2  -4 -11 4812.38  264.40   1-0.74246 0.53289 0.56955-0.84609-0.35264-0.01208
   2  -4  11 5595.73  260.71   1 0.53705-0.32883-0.68931 0.41318-0.48623 0.84920
  -2  -4 -12 6356.38  488.14   1-0.74292 0.52775 0.57142-0.84796-0.34862-0.04926
   2  -4  12 7956.49  325.84   1 0.56450-0.35075-0.69847 0.42234-0.43984 0.83581
  -2  -4 -1334843.85  665.17   1-0.74308 0.52231 0.57207-0.84862-0.34721-0.08384
   2  -4  1343744.55  681.88   1 0.58748-0.36785-0.70585 0.42951-0.39576 0.82473
  -2  -4 -1421860.80  544.07   1-0.74300 0.51663 0.57173-0.84827-0.34795-0.11625
   2  -4  1429214.22  714.23   1 0.60870-0.38352-0.71045 0.43411-0.35316 0.81513
  -2  -4 -15 1542.72  337.85   1-0.74271 0.51074 0.57054-0.84709-0.35050-0.14686
   2  -4  15 2189.31  220.40   1 0.62742-0.39667-0.71330 0.43696-0.31231 0.80728
  -2  -4 -16 5172.25  825.90   1-0.74223 0.50466 0.56864-0.84519-0.35458-0.17594
   2  -4  16 5840.70  343.69   1 0.64324-0.40596-0.71575 0.43885-0.27190 0.80162
  -2  -4 -17  264.46  113.51   1-0.74158 0.49841 0.56611-0.84266-0.35996-0.20372
   2  -4  17  170.39  168.02   1 0.65779-0.41491-0.71587 0.43898-0.23413 0.79695
  -2  -4 -18  781.46  124.93   1-0.74075 0.49199 0.56301-0.83956-0.36645-0.23038
   2  -4  18  814.63  186.97   1 0.67068-0.42218-0.71490 0.43801-0.19773 0.79366
  -2  -4 -19  292.72  117.80   1-0.73953 0.48561 0.55926-0.83596-0.37459-0.25561
   2  -4  19  259.27  178.65   1 0.68208-0.42798-0.71297 0.43607-0.16258 0.79162
  -2  -4 -20 2310.19  280.52   1-0.73834 0.47883 0.55518-0.83189-0.38290-0.28046
   2  -4  20 2849.04  328.48   1 0.69216-0.43246-0.71019 0.43329-0.12856 0.79071
  -2  -4 -21 1485.26  196.62   1-0.73696 0.47188 0.55067-0.82738-0.39196-0.30457
   2  -4  21 2215.54  269.36   1 0.70052-0.43626-0.70738 0.43062-0.09424 0.79008
  -2  -4 -22   58.88   92.16   1-0.73539 0.46472 0.54574-0.82245-0.40168-0.32801
   2  -4  22  243.27  209.42   1 0.70834-0.43853-0.70312 0.42636-0.06216 0.79113
  -2  -4 -23 1433.07  276.57   1-0.73362 0.45737 0.54041-0.81712-0.41199-0.35087
   2  -4  23 1639.27  278.26   1 0.71519-0.43982-0.69824 0.42148-0.03092 0.79303
  -2  -4 -24 6099.29  700.76   1-0.73164 0.44981 0.53470-0.81141-0.42283-0.37320
   2  -4  24 8228.58  484.47   1 0.72114-0.44022-0.69277 0.41602-0.00045 0.79569
  -2  -4 -25  266.09  101.18   1-0.72943 0.44202 0.52861-0.80532-0.43415-0.39506
   2  -4  25  333.58  202.00   1 0.72627-0.43979-0.68677 0.41001 0.02933 0.79903
   2   5 -25  812.95  171.58   1-0.74982 0.75782 0.61808-0.27240-0.23608-0.59286
   2  -5 -25 1447.25  280.00   1-0.65463 0.66311 0.38155-0.72740-0.65258-0.17653
  -2  -5  25  997.90  239.22   1 0.74208-0.75033-0.62900 0.28309 0.23163 0.59736
   2   5 -24 2420.21  366.77   1-0.74986 0.76347 0.62603-0.28034-0.21397-0.58182
   2  -5 -24 3901.25  384.78   1-0.65537 0.66943 0.38276-0.72861-0.65112-0.14482
  -2  -5  24 4232.21  374.10   1 0.74213-0.75610-0.63680 0.29100 0.20907 0.58619
   2   5 -23  642.46  158.23   1-0.74897 0.76862 0.63421-0.28837-0.19187-0.57101
   2  -5 -23  615.61  206.73   1-0.65561 0.67525 0.38316-0.72901-0.65065-0.11213
  -2  -5  23  714.19  177.44   1 0.74150-0.76103-0.64456 0.29876 0.18630 0.57582
   2   5 -22  827.37  202.86   1-0.74816 0.77339 0.64161-0.29577-0.16902-0.56069
   2  -5 -22 1557.55  257.94   1-0.65531 0.68052 0.38266-0.72851-0.65124-0.07837
  -2  -5  22 1173.30  178.35   1 0.74041-0.76551-0.65204 0.30624 0.16313 0.56586
   2   5 -21  115.67   65.94   1-0.74690 0.77770 0.64876-0.30292-0.14572-0.55082
   2  -5 -21   79.96  137.87   1-0.65441 0.68520 0.38120-0.72705-0.65300-0.04345
  -2  -5  21  122.21  125.21   1 0.73886-0.76952-0.65925 0.31345 0.13946 0.55639
   2   5 -20   72.00   60.46   1-0.74516 0.78154 0.65564-0.30980-0.12189-0.54149
  -2  -5  20   46.74  113.04   1 0.73681-0.77304-0.66619 0.32039 0.11522 0.54749
   2   5 -19  837.91  172.11   1-0.74290 0.78485 0.66226-0.31642-0.09741-0.53279
   2  -5 -19  648.87  173.88   1-0.65019 0.69216 0.37527-0.72109-0.66061 0.03046
  -2  -5  19  889.01  191.60   1 0.73422-0.77601-0.67287 0.32707 0.09030 0.53928
   2  -5 -18 3378.79  303.52   1-0.64704 0.69459 0.37021-0.71603-0.66653 0.06954
  -2  -5  18 3866.07  275.48   1 0.73104-0.77839-0.67927 0.33347 0.06456 0.53188
   2  -5 -17  248.08  156.10   1-0.64292 0.69604 0.36366-0.70948-0.67408 0.11026
  -2  -5  17  289.44  143.34   1 0.72770-0.78082-0.68481 0.33886 0.03842 0.52486
   2  -5 -1613972.63  477.36   1-0.63767 0.69636 0.35542-0.70124-0.68340 0.15275
  -2  -5  1616007.80  411.62   1 0.72312-0.78179-0.69063 0.34468 0.01056 0.51959
   2  -5 -15 4159.16  301.24   1-0.63109 0.69536 0.34527-0.69109-0.69462 0.19713
  -2  -5  15 4240.78  246.17   1 0.71766-0.78189-0.69614 0.35019-0.01873 0.51576
   2  -5 -14  410.72  123.16   1-0.62296 0.69280 0.33294-0.67875-0.70786 0.24353
  -2  -5  14  420.62   90.49   1 0.71114-0.78092-0.70128 0.35533-0.04981 0.51370
   2  -5 -13 2316.85  369.40   1-0.61297 0.68839 0.31812-0.66393-0.72322 0.29207
  -2  -5  13 2024.92  153.18   1 0.70333-0.77867-0.70598 0.36004-0.08309 0.51384
   2  -5 -12 4266.95  354.78   1-0.60079 0.68178 0.30044-0.64626-0.74079 0.34280
  -2  -5  12 4185.20  198.52   1 0.69457-0.77494-0.70934 0.36323-0.11994 0.51723
   2  -5 -11 9426.97  333.69   1-0.58598 0.67254 0.27952-0.62534-0.76058 0.39575
  -2  -5  11 9556.37  257.30   1 0.68305-0.76901-0.71275 0.36663-0.15945 0.52363
   2  -5 -10 1607.01  172.59   1-0.56839 0.66037 0.25504-0.60074-0.78222 0.45056
  -2  -5  10 1614.80  113.08   1 0.66869-0.76026-0.71513 0.36901-0.20355 0.53462
   2  -5  -9 2910.61  213.14   1-0.54677 0.64433 0.22626-0.57195-0.80613 0.50763
  -2  -5   9 3145.10  147.61   1 0.65041-0.74759-0.71595 0.36984-0.25368 0.55164
   2  -5  -8  664.38  114.14   1-0.52079 0.62394 0.19282-0.53852-0.83162 0.56628
  -2  -5   8  596.45   75.02   1 0.62814-0.73100-0.71338 0.36796-0.31067 0.57466
   2  -5  -715270.28  422.39   1-0.48976 0.59851 0.15430-0.50000-0.85808 0.62592
  -2  -5   715995.12  300.56   1 0.59574-0.70416-0.70780 0.36238-0.37960 0.61059
   2  -5  -663441.97  930.98   1-0.45300 0.56733 0.11034-0.45604-0.88465 0.68568
  -2  -5   663703.37  785.46   1 0.55319-0.66741-0.69488 0.34972-0.45946 0.65745
   2  -5  -5 5117.44  230.31   1-0.40994 0.52986 0.06089-0.40659-0.91007 0.74426
  -2  -5   5 5089.07  147.02   1 0.48819-0.60794-0.66967 0.32451-0.55964 0.72462
   2  -5  -410519.34  292.15   1-0.36065 0.48616 0.00599-0.35171-0.93268 0.79996
  -2  -5   4 9998.57  176.90   1 0.39648-0.52173-0.62260 0.27753-0.67466 0.80669
   2  -5  -3 7521.68  262.86   1-0.30420 0.43530-0.05357-0.29215-0.95110 0.85156
  -2  -5   3 6936.44  158.50   1 0.26506-0.39591-0.54087 0.19569-0.79824 0.89719
  -2  -5   2  340.75   47.12   1 0.10024-0.23701-0.41847 0.07277-0.90267 0.96877
   2  -5  -1157369.7 1173.70   1-0.17362 0.31587-0.18260-0.16329-0.96773 0.93464
  -2  -5   1148906.9  848.44   1-0.09379-0.04847-0.25745-0.08849-0.96172 0.99489
  -2  -5   0138430.1  822.17   1-0.26951 0.12172-0.08936-0.25653-0.95884 0.95884
   2  -5   0143038.6 1101.82   1-0.10346 0.25136-0.24882-0.09713-0.96300 0.96300
  -2  -5  -1 1346.82   87.72   1-0.40977 0.25633 0.06069-0.40639-0.91016 0.87700
   2  -5   1 1263.44  160.41   1-0.02998 0.18350-0.31295-0.03300-0.94929 0.98246
  -2  -5  -216063.46  243.72   1-0.51102 0.35200 0.18054-0.52623-0.84039 0.77406
   2  -5   216642.93  357.28   1 0.04289 0.11599-0.37317 0.02747-0.92676 0.99286
  -2  -5  -327208.55  342.35   1-0.58002 0.41541 0.27094-0.61663-0.76821 0.66872
   2  -5   327545.55  439.34   1 0.11392 0.05049-0.42898 0.08328-0.89609 0.99524
  -2  -5  -475435.38  983.81   1-0.62599 0.45582 0.33750-0.68332-0.70300 0.57034
   2  -5   480611.53 1100.42   1 0.17895-0.00912-0.47905 0.13350-0.85935 0.99100
  -2  -5  -577116.44 1012.78   1-0.65785 0.48207 0.38684-0.73269-0.64619 0.48037
   2  -5   586579.59 1190.05   1 0.24167-0.06629-0.52306 0.17751-0.81731 0.98188
  -2  -5  -695725.57 1216.82   1-0.67916 0.49780 0.42339-0.76923-0.59956 0.40058
   2  -5   6112293.7  918.45   1 0.29831-0.11761-0.56250 0.21732-0.77109 0.96898
  -2  -5  -720392.85  425.75   1-0.69388 0.50694 0.45067-0.79652-0.56162 0.32946
   2  -5   723477.43  504.52   1 0.35060-0.16436-0.59473 0.24955-0.72343 0.95430
  -2  -5  -8 5410.32  374.58   1-0.70418 0.51167 0.47117-0.81702-0.53114 0.26583
   2  -5   8 6321.31  269.11   1 0.39662-0.20491-0.62267 0.27761-0.67451 0.93858
  -2  -5  -927884.04  545.71   1-0.71190 0.51380 0.48642-0.83230-0.50655 0.20803
   2  -5   932978.25  648.53   1 0.43868-0.24144-0.64486 0.29980-0.62585 0.92294
  -2  -5 -10 5116.60  297.62   1-0.71706 0.51338 0.49797-0.84385-0.48768 0.15599
   2  -5  10 5656.24  265.04   1 0.47477-0.27208-0.66364 0.31848-0.57806 0.90803
  -2  -5 -11 9941.78  530.81   1-0.72073 0.51147 0.50655-0.85243-0.47322 0.10837
   2  -5  1111704.15  381.11   1 0.50809-0.29987-0.67813 0.33297-0.53100 0.89398
  -2  -5 -1229980.43  575.87   1-0.72330 0.50845 0.51278-0.85867-0.46247 0.06445
   2  -5  1234861.71  615.88   1 0.53768-0.32393-0.68954 0.34438-0.48520 0.88117
  -2  -5 -1310010.16 1254.89   1-0.72504 0.50461 0.51713-0.86301-0.45484 0.02365
   2  -5  1313008.15  470.02   1 0.56397-0.34469-0.69831 0.35315-0.44078 0.86975
  -2  -5 -14 1503.60  322.46   1-0.72614 0.50013 0.51994-0.86582-0.44985-0.01450
   2  -5  14 1666.52  210.31   1 0.58618-0.36099-0.70553 0.36011-0.39825 0.86023
  -2  -5 -15  405.15   74.12   1-0.72673 0.49514 0.52146-0.86734-0.44713-0.05039
   2  -5  15  391.27  151.88   1 0.60699-0.37624-0.71013 0.36471-0.35674 0.85171
  -2  -5 -16  384.65   71.44   1-0.72690 0.48973 0.52190-0.86778-0.44634-0.08434
   2  -5  16  374.32  167.99   1 0.62551-0.38921-0.71307 0.36764-0.31662 0.84459
  -2  -5 -17  158.37  161.68   1-0.72671 0.48395 0.52140-0.86728-0.44724-0.11662
   2  -5  17   69.60  124.74   1 0.64134-0.39845-0.71565 0.36953-0.27662 0.83945
  -2  -5 -18 1763.07  362.32   1-0.72620 0.47786 0.52008-0.86597-0.44959-0.14743
   2  -5  18 1836.61  253.57   1 0.65597-0.40748-0.71592 0.36981-0.23905 0.83498
  -2  -5 -19  108.33   97.94   1-0.72540 0.47148 0.51804-0.86393-0.45322-0.17697
   2  -5  19   69.57  110.33   1 0.66900-0.41490-0.71509 0.36898-0.20265 0.83168
  -2  -5 -20  611.42  164.60   1-0.72433 0.46483 0.51535-0.86124-0.45797-0.20539
   2  -5  20  873.78  219.89   1 0.68060-0.42090-0.71328 0.36717-0.16732 0.82947
  -2  -5 -21  113.51   63.82   1-0.72301 0.45792 0.51207-0.85795-0.46371-0.23282
   2  -5  21   33.21  118.48   1 0.69090-0.42559-0.71060 0.36448-0.13300 0.82825
  -2  -5 -22  505.05  153.05   1-0.72143 0.45077 0.50824-0.85412-0.47033-0.25937
   2  -5  22  102.60  124.32   1 0.69947-0.42966-0.70786 0.36191-0.09831 0.82728
  -2  -5 -23   59.03   71.17   1-0.71961 0.44336 0.50389-0.84978-0.47774-0.28512
   2  -5  23   33.16  125.85   1 0.70751-0.43215-0.70363 0.35768-0.06572 0.82783
  -2  -5 -24 1531.44  346.27   1-0.71754 0.43571 0.49906-0.84495-0.48586-0.31018
   2  -5  24 1672.14  282.50   1 0.71457-0.43365-0.69873 0.35279-0.03390 0.82914
   2   6 -24 1862.08  319.09   1-0.74887 0.76294 0.63538-0.22037-0.18832-0.60773
   2  -6 -24 3085.79  378.94   1-0.62994 0.64404 0.34351-0.75849-0.69653-0.09944
  -2  -6  24 3756.10  348.11   1 0.74133-0.75529-0.64600 0.23104 0.18195 0.61330
   2   6 -23 3698.99  552.20   1-0.74793 0.76757 0.64321-0.22820-0.16393-0.59895
   2  -6 -23 5775.05  444.54   1-0.62949 0.64917 0.34283-0.75781-0.69727-0.06553
  -2  -6  23 6461.04  409.50   1 0.74007-0.75960-0.65388 0.23892 0.15722 0.60490
   2   6 -22 1098.70  166.93   1-0.74646 0.77168 0.65073-0.23573-0.13902-0.59070
   2  -6 -22 1044.31  224.71   1-0.62841 0.65366 0.34118-0.75616-0.69906-0.03058
  -2  -6  22 1377.79  235.85   1 0.73828-0.76337-0.66146 0.24650 0.13192 0.59706
   2   6 -21  331.27   67.10   1-0.74444 0.77524 0.65796-0.24296-0.11348-0.58306
   2  -6 -21  393.54  159.02   1-0.62663 0.65746 0.33848-0.75346-0.70196 0.00547
  -2  -6  21  256.53  116.54   1 0.73591-0.76657-0.66873 0.25377 0.10596 0.58988
   2   6 -20  107.18   92.74   1-0.74182 0.77820 0.66489-0.24988-0.08722-0.57615
  -2  -6  20   -0.89   78.12   1 0.73292-0.76914-0.67568 0.26071 0.07924 0.58347
   2  -6 -19 2713.29  402.36   1-0.62067 0.66264 0.32952-0.74450-0.71145 0.08130
  -2  -6  19 2638.25  246.37   1 0.72975-0.77175-0.68171 0.26658 0.05221 0.57734
   2  -6 -18  -54.12  144.62   1-0.61629 0.66383 0.32300-0.73798-0.71822 0.12124
  -2  -6  18   48.19   74.24   1 0.72533-0.77289-0.68799 0.27285 0.02355 0.57287
   2  -6 -17 4019.22  448.78   1-0.61079 0.66391 0.31492-0.72990-0.72646 0.16264
  -2  -6  17 3918.84  248.97   1 0.72005-0.77316-0.69389 0.27875-0.00636 0.56965
   2  -6 -16 5870.60  352.49   1-0.60403 0.66272 0.30510-0.72008-0.73623 0.20558
  -2  -6  16 6494.48  297.95   1 0.71375-0.77242-0.69937 0.28423-0.03778 0.56794
   2  -6 -15  511.32  127.03   1-0.59581 0.66007 0.29334-0.70832-0.74763 0.25014
  -2  -6  15  332.78   93.12   1 0.70626-0.77049-0.70437 0.28924-0.07102 0.56805
   2  -6 -14   -9.27  115.60   1-0.58589 0.65573 0.27940-0.69438-0.76069 0.29637
  -2  -6  14  123.36   94.81   1 0.69733-0.76711-0.70879 0.29366-0.10645 0.57034
   2  -6 -13 6712.66  902.39   1-0.57437 0.64959 0.26318-0.67801-0.77512 0.34396
  -2  -6  13 6840.10  258.99   1 0.68732-0.76208-0.71166 0.29633-0.14529 0.57568
   2  -6 -1215754.17  478.79   1-0.56024 0.64104 0.24408-0.65891-0.79155 0.39355
  -2  -6  1215929.90  387.89   1 0.67441-0.75477-0.71439 0.29905-0.18656 0.58384
   2  -6 -11 6519.73  315.13   1-0.54346 0.62986 0.22194-0.63678-0.80955 0.44472
  -2  -6  11 6098.34  232.61   1 0.65863-0.74460-0.71584 0.30050-0.23185 0.59603
   2  -6 -10  396.86  150.91   1-0.52365 0.61563 0.19645-0.61129-0.82896 0.49730
  -2  -6  10  176.19   81.55   1 0.63909-0.73066-0.71551 0.30017-0.28214 0.61321
   2  -6  -9   56.08   99.18   1-0.50035 0.59792 0.16729-0.58213-0.84950 0.55100
  -2  -6   9   14.02   51.36   1 0.61591-0.71321-0.71170 0.29719-0.33783 0.63482
   2  -6  -818343.23  423.95   1-0.47308 0.57624 0.13414-0.54897-0.87074 0.60544
  -2  -6   818074.43  294.47   1 0.58425-0.68711-0.70504 0.29053-0.40193 0.66592
   2  -6  -764598.19 1026.95   1-0.44142 0.55016 0.09684-0.51168-0.89205 0.65992
  -2  -6   761722.49  832.91   1 0.54556-0.65426-0.69231 0.27812-0.47228 0.70327
   2  -6  -624412.65  581.78   1-0.40493 0.51926 0.05526-0.47010-0.91267 0.71370
  -2  -6   622921.08  390.94   1 0.49135-0.60557-0.67105 0.25686-0.55520 0.75319
   2  -6  -5 9204.68  314.99   1-0.36378 0.48369 0.00937-0.42425-0.93143 0.76553
  -2  -6   5 8770.19  207.78   1 0.42250-0.54221-0.63655 0.22248-0.64520 0.81024
   2  -6  -4  152.44   57.41   1-0.31691 0.44242-0.04038-0.37448-0.94759 0.81487
  -2  -6   4  247.14   52.63   1 0.33205-0.45737-0.58356 0.16934-0.74107 0.87300
   2  -6  -3 6042.10  251.50   1-0.26490 0.39600-0.09354-0.32133-0.95972 0.86018
  -2  -6   3 5898.39  169.60   1 0.21902-0.35009-0.50748 0.09282-0.83336 0.93210
   2  -6  -211195.65  336.55   1-0.20813 0.34484-0.14977-0.26530-0.96656 0.90038
  -2  -6   210295.80  233.44   1 0.08798-0.22475-0.40896-0.00587-0.90829 0.97439
   2  -6  -138233.45  651.43   1-0.14770 0.28995-0.20675-0.20832-0.96717 0.93409
  -2  -6   135451.67  487.89   1-0.05641-0.08585-0.29026-0.12487-0.95528 0.98845
  -2  -6   0 4341.46  151.13   1-0.19155 0.04376-0.16564-0.24943-0.96740 0.96740
   2  -6   0 4431.72  226.12   1-0.08584 0.23374-0.26449-0.15064-0.96055 0.96055
  -2  -6  -1 9845.67  287.56   1-0.31152 0.15803-0.04599-0.36887-0.94912 0.91594
   2  -6   110106.46  316.61   1-0.02088 0.17440-0.32066-0.09447-0.94696 0.98013
  -2  -6  -2 1626.46  113.99   1-0.40819 0.24918 0.05892-0.47376-0.91098 0.84466
   2  -6   2 1557.12  129.11   1 0.04383 0.11505-0.37393-0.04090-0.92641 0.99251
  -2  -6  -3  199.68   59.74   1-0.48361 0.31901 0.14682-0.56166-0.86287 0.76339
   2  -6   3  199.51   63.94   1 0.10757 0.05684-0.42412 0.00928-0.89919 0.99834
  -2  -6  -444376.56  665.25   1-0.54049 0.37030 0.21807-0.63290-0.81259 0.67992
   2  -6   445457.60  760.23   1 0.16653 0.00330-0.47001 0.05535-0.86680 0.99846
  -2  -6  -5 3967.62  181.76   1-0.58241 0.40667 0.27456-0.68954-0.76511 0.59928
   2  -6   5 4183.78  229.41   1 0.22455-0.04918-0.51132 0.09666-0.82953 0.99410
  -2  -6  -6 7053.13  243.36   1-0.61395 0.43263 0.31955-0.73453-0.72176 0.52277
   2  -6   6 7389.22  320.29   1 0.27770-0.09700-0.54920 0.13498-0.78819 0.98608
  -2  -6  -7 3979.35  205.48   1-0.63746 0.45057 0.35511-0.77008-0.68376 0.45160
   2  -6   7 4131.64  218.89   1 0.32793-0.14169-0.58104 0.16682-0.74488 0.97575
  -2  -6  -8  403.09  102.64   1-0.65559 0.46308 0.38312-0.79814-0.65069 0.38538
   2  -6   8  359.24   83.81   1 0.37282-0.18112-0.60931 0.19523-0.69981 0.96388
  -2  -6  -9 5815.30  408.29   1-0.66884 0.47075 0.40532-0.82033-0.62319 0.32470
   2  -6   9 7667.78  610.75   1 0.41469-0.21745-0.63244 0.21837-0.65424 0.95132
  -2  -6 -1034561.21  592.61   1-0.67885 0.47519 0.42284-0.83786-0.60029 0.26864
   2  -6  1041149.21  664.71   1 0.45258-0.24980-0.65176 0.23769-0.60857 0.93866
  -2  -6 -1161315.11 1231.45   1-0.68644 0.47720 0.43664-0.85166-0.58149 0.21668
   2  -6  1173463.70 1223.38   1 0.48533-0.27711-0.66841 0.25422-0.56362 0.92659
  -2  -6 -1263601.84  835.13   1-0.69217 0.47735 0.44741-0.86243-0.56631 0.16833
   2  -6  1276988.34  994.52   1 0.51609-0.30234-0.68136 0.26717-0.51901 0.91498
  -2  -6 -13  970.29  196.36   1-0.69647 0.47608 0.45571-0.87073-0.55429 0.12315
   2  -6  13 1359.92  209.22   1 0.54373-0.32445-0.69168 0.27749-0.47531 0.90428
  -2  -6 -14 1738.02  187.41   1-0.69964 0.47367 0.46197-0.87699-0.54504 0.08074
   2  -6  14 2215.18  231.42   1 0.56734-0.34215-0.70037 0.28586-0.43312 0.89510
  -2  -6 -15  -39.60  101.03   1-0.70190 0.47035 0.46651-0.88153-0.53823 0.04075
   2  -6  15  298.22  118.01   1 0.58963-0.35889-0.70638 0.29187-0.39159 0.88656
  -2  -6 -16  463.70   75.35   1-0.70342 0.46629 0.46960-0.88462-0.53354 0.00290
   2  -6  16  801.83  190.23   1 0.60964-0.37334-0.71063 0.29611-0.35119 0.87916
  -2  -6 -17   87.23  127.70   1-0.70431 0.46161 0.47144-0.88646-0.53073-0.03306
   2  -6  17  301.72  142.81   1 0.62759-0.38573-0.71332 0.29881-0.31190 0.87288
  -2  -6 -18 4806.51  821.08   1-0.70468 0.45640 0.47219-0.88721-0.52957-0.06739
   2  -6  18 5722.57  363.86   1 0.64302-0.39453-0.71574 0.30040-0.27246 0.86839
  -2  -6 -19    7.06   69.41   1-0.70458 0.45073 0.47199-0.88701-0.52988-0.10024
   2  -6  19  122.62  197.67   1 0.65737-0.40328-0.71589 0.30055-0.23527 0.86431
  -2  -6 -20  279.56  114.13   1-0.70407 0.44464 0.47094-0.88595-0.53150-0.13179
   2  -6  20  435.56  154.70   1 0.67022-0.41052-0.71495 0.29962-0.19907 0.86121
  -2  -6 -21 1749.41  331.73   1-0.70318 0.43817 0.46911-0.88413-0.53428-0.16217
   2  -6  21 2045.91  319.90   1 0.68170-0.41639-0.71305 0.29771-0.16380 0.85905
  -2  -6 -22  375.02  187.95   1-0.70194 0.43136 0.46659-0.88161-0.53810-0.19151
   2  -6  22  337.69  199.41   1 0.69193-0.42102-0.71027 0.29493-0.12940 0.85776
  -2  -6 -23 1163.72  249.86   1-0.70037 0.42421 0.46343-0.87845-0.54286-0.21992
   2  -6  23 1149.68  236.60   1 0.70043-0.42507-0.70741 0.29228-0.09456 0.85666
   2  -7 -23  -25.28  134.81   1-0.60049 0.62017 0.30002-0.78416-0.74120-0.02160
   2   7 -22   63.30   51.31   1-0.74462 0.76984 0.65742-0.17325-0.11545-0.61426
   2  -7 -22  299.60  175.29   1-0.59858 0.62383 0.29728-0.78142-0.74385 0.01420
  -2  -7  22  126.10  122.50   1 0.73602-0.76112-0.66842 0.18429 0.10712 0.62187
   2   7 -21   43.34   77.77   1-0.74191 0.77271 0.66469-0.18051-0.08800-0.60854
   2  -7 -21   86.17   68.00   1-0.59588 0.62670 0.29344-0.77758-0.74754 0.05105
  -2  -7  21  350.00  141.83   1 0.73291-0.76357-0.67569 0.19156 0.07921 0.61664
   2  -7 -20   53.18  117.56   1-0.59230 0.62870 0.28839-0.77253-0.75233 0.08901
  -2  -7  20   95.65   68.89   1 0.72958-0.76602-0.68198 0.19766 0.05103 0.61166
   2  -7 -19  449.32  155.66   1-0.58777 0.62974 0.28202-0.76616-0.75827 0.12812
  -2  -7  19  639.10  149.84   1 0.72494-0.76694-0.68848 0.20415 0.02119 0.60836
   2  -7 -18 8876.59  456.17   1-0.58215 0.62970 0.27421-0.75835-0.76544 0.16845
  -2  -7  18 8025.19  369.31   1 0.71938-0.76694-0.69454 0.21021-0.00987 0.60630
   2  -7 -17 4154.44  340.49   1-0.57568 0.62856 0.26497-0.74895-0.77354 0.20971
  -2  -7  17 4065.90  276.96   1 0.71276-0.76588-0.70011 0.21579-0.04238 0.60568
   2  -7 -16  188.34  171.51   1-0.56749 0.62596 0.25383-0.73780-0.78327 0.25260
  -2  -7  16  119.29  107.03   1 0.70492-0.76359-0.70513 0.22081-0.07660 0.60676
   2  -7 -15 6490.41  347.30   1-0.55775 0.62180 0.24076-0.72474-0.79431 0.29681
  -2  -7  15 6993.54  305.33   1 0.69561-0.75984-0.70949 0.22516-0.11283 0.60986
   2  -7 -14 3540.67  306.98   1-0.54625 0.61589 0.22558-0.70956-0.80666 0.34233
  -2  -7  14 3246.44  232.44   1 0.68528-0.75443-0.71221 0.22765-0.15213 0.61563
   2  -7 -13  165.74  117.75   1-0.53275 0.60798 0.20808-0.69205-0.82028 0.38912
  -2  -7  13   54.04   59.35   1 0.67211-0.74687-0.71472 0.23015-0.19346 0.62386
   2  -7 -1216769.49  476.92   1-0.51699 0.59780 0.18802-0.67200-0.83508 0.43708
  -2  -7  1217022.40  369.23   1 0.65630-0.73666-0.71592 0.23135-0.23816 0.63544
   2  -7 -1115419.50  464.90   1-0.49866 0.58505 0.16520-0.64918-0.85090 0.48607
  -2  -7  1115648.56  351.84   1 0.63715-0.72311-0.71537 0.23081-0.28684 0.65101
   2  -7 -10 8516.26  406.84   1-0.47743 0.56941 0.13936-0.62333-0.86754 0.53592
  -2  -7  10 8153.40  271.19   1 0.61504-0.70679-0.71156 0.22796-0.33969 0.66968
   2  -7  -9  728.73  163.28   1-0.45301 0.55058 0.11036-0.59433-0.88464 0.58618
  -2  -7   9  506.84   90.69   1 0.58599-0.68329-0.70548 0.22189-0.39862 0.69560
   2  -7  -8 7893.91  357.35   1-0.42506 0.52822 0.07803-0.56200-0.90179 0.63649
  -2  -7   8 7269.07  215.82   1 0.55218-0.65535-0.69455 0.21133-0.46117 0.72515
   2  -7  -712876.30  387.36   1-0.39328 0.50203 0.04228-0.52625-0.91844 0.68630
  -2  -7   711876.44  253.14   1 0.50699-0.61568-0.67768 0.19446-0.53263 0.76361
   2  -7  -618486.99  444.61   1-0.35793 0.47225 0.00306-0.48708-0.93374 0.73466
  -2  -7   617298.77  319.94   1 0.45303-0.56721-0.65198 0.16889-0.60801 0.80606
   2  -7  -525317.84  530.39   1-0.31790 0.43781-0.03936-0.44465-0.94730 0.78140
  -2  -7   523040.57  367.19   1 0.38277-0.50249-0.61496 0.13187-0.68941 0.85446
   2  -7  -4  884.41  151.21   1-0.27366 0.39917-0.08473-0.39928-0.95808 0.82536
  -2  -7   4  761.18   80.95   1 0.30034-0.42566-0.56380 0.08054-0.76936 0.90128
   2  -7  -3 1408.03  164.93   1-0.22522 0.35639-0.13322-0.35103-0.96515 0.86588
  -2  -7   3 1139.15   84.22   1 0.20434-0.33542-0.49719 0.01342-0.84322 0.94197
   2  -7  -221817.59  441.32   1-0.17353 0.31024-0.18268-0.30157-0.96773 0.90155
  -2  -7   219728.14  282.52   1 0.09836-0.23513-0.41703-0.06695-0.90355 0.96965
   2  -7  -1 3773.94  222.57   1-0.12047 0.26274-0.23350-0.25082-0.96486 0.93169
  -2  -7   1 3540.19  137.31   1-0.01715-0.12514-0.32359-0.16038-0.94603 0.97908
  -2  -7   0 2678.30  129.80   1-0.12966-0.01822-0.22515-0.25918-0.96565 0.96565
   2  -7   0 3000.94  200.20   1-0.06347 0.21137-0.28413-0.20020-0.95668 0.95668
  -2  -7  -1 6276.63  182.57   1-0.22965 0.07631-0.12890-0.35535-0.96469 0.93160
   2  -7   1 6976.34  270.41   1-0.00537 0.15873-0.33349-0.15048-0.94273 0.97578
  -2  -7  -2 1650.74  111.85   1-0.31925 0.16016-0.03795-0.44606-0.94690 0.88055
   2  -7   2 2073.45  287.52   1 0.05294 0.10594-0.38125-0.10272-0.92295 0.98905
  -2  -7  -3 3863.60  171.48   1-0.39337 0.22876 0.04237-0.52634-0.91840 0.81891
   2  -7   3 4236.67  234.12   1 0.11057 0.05384-0.42642-0.05755-0.89773 0.99688
  -2  -7  -4  441.38   84.54   1-0.45432 0.28413 0.11190-0.59587-0.88377 0.75112
   2  -7   4  454.94  111.93   1 0.16414 0.00569-0.46826-0.01550-0.86820 0.99986
  -2  -7  -5  230.38  103.14   1-0.50311 0.32733 0.17069-0.65467-0.84719 0.68136
   2  -7   5  235.15  144.73   1 0.21768-0.04231-0.50655 0.02278-0.83427 0.99884
  -2  -7  -657162.94  647.16   1-0.54176 0.36040 0.21972-0.70370-0.81129 0.61230
   2  -7   661128.70  759.10   1 0.26713-0.08643-0.54224 0.05899-0.79661 0.99450
  -2  -7  -755411.39  653.66   1-0.57227 0.38532 0.26032-0.74429-0.77764 0.54547
   2  -7   765180.21  842.05   1 0.31477-0.12852-0.57289 0.08964-0.75677 0.98764
  -2  -7  -831054.50  709.30   1-0.59593 0.40346 0.29351-0.77765-0.74747 0.48214
   2  -7   836702.25  768.44   1 0.35902-0.16724-0.59970 0.11644-0.71516 0.97901
  -2  -7  -921373.05  539.94   1-0.61495 0.41691 0.32102-0.80516-0.72025 0.42176
   2  -7   925426.45  725.18   1 0.39867-0.20142-0.62379 0.14071-0.67226 0.96934
  -2  -7 -10 8204.63  319.25   1-0.62998 0.42637 0.34357-0.82771-0.69647 0.36481
   2  -7  10 8802.76  400.12   1 0.43613-0.23335-0.64357 0.16048-0.62896 0.95905
  -2  -7 -11 4501.50  279.98   1-0.64186 0.43268 0.36200-0.84614-0.67598 0.31116
   2  -7  11 4834.89  406.60   1 0.47033-0.26201-0.66022 0.17713-0.58556 0.94866
  -2  -7 -1214779.28  442.73   1-0.65126 0.43649 0.37699-0.86113-0.65858 0.26059
   2  -7  1216680.60  475.33   1 0.50000-0.28625-0.67477 0.19154-0.54284 0.93881
  -2  -7 -13 7847.97  335.79   1-0.65912 0.43873 0.38894-0.87313-0.64364 0.21250
   2  -7  13 8721.03  376.72   1 0.52828-0.30900-0.68608 0.20286-0.50020 0.92917
  -2  -7 -14   63.18  114.28   1-0.66489 0.43892 0.39860-0.88279-0.63168 0.16737
   2  -7  14   69.64  106.32   1 0.55391-0.32910-0.69512 0.21189-0.45824 0.92021
  -2  -7 -15 6668.85  373.00   1-0.66935 0.43780 0.40620-0.89039-0.62206 0.12458
   2  -7  15 7487.87  387.96   1 0.57588-0.34513-0.70282 0.21922-0.41761 0.91259
  -2  -7 -16 3364.79  296.48   1-0.67272 0.43559 0.41203-0.89622-0.61454 0.08391
   2  -7  16 4114.87  345.48   1 0.59687-0.36057-0.70805 0.22446-0.37734 0.90532
  -2  -7 -17  501.21  180.54   1-0.67517 0.43247 0.41632-0.90051-0.60893 0.04513
   2  -7  17  397.89  153.03   1 0.61584-0.37398-0.71169 0.22809-0.33797 0.89894
  -2  -7 -18 1333.79  195.70   1-0.67685 0.42857 0.41928-0.90347-0.60504 0.00807
   2  -7  18 1604.55  261.29   1 0.63296-0.38554-0.71389 0.23029-0.29952 0.89348
  -2  -7 -19 1518.94  256.69   1-0.67785 0.42399 0.42105-0.90524-0.60268-0.02744
   2  -7  19 1199.53  260.60   1 0.64771-0.39361-0.71591 0.23135-0.26065 0.88968
  -2  -7 -20   16.14  110.88   1-0.67826 0.41882 0.42178-0.90597-0.60171-0.06158
   2  -7  20   -1.74  101.05   1 0.66152-0.40182-0.71571 0.23115-0.22391 0.88606
  -2  -7 -21 -114.18  118.62   1-0.67814 0.41313 0.42157-0.90575-0.60199-0.09446
   2  -7  21  118.86  106.27   1 0.67393-0.40862-0.71446 0.22990-0.18801 0.88327
  -2  -7 -22 3566.82  385.97   1-0.67753 0.40695 0.42050-0.90468-0.60342-0.12620
   2  -7  22 3430.22  321.65   1 0.68504-0.41413-0.71227 0.22770-0.15291 0.88127
   2  -8 -22  229.91  161.84   1-0.56594 0.59088 0.25173-0.80484-0.78507 0.05541
   2  -8 -21  205.29  145.85   1-0.56230 0.59283 0.24685-0.79996-0.78922 0.09272
   2  -8 -20   81.44  128.70   1-0.55772 0.59384 0.24072-0.79384-0.79434 0.13102
   2  -8 -19 1373.06  287.44   1-0.55209 0.59380 0.23326-0.78637-0.80048 0.17032
  -2  -8  19 1155.89  201.27   1 0.72092-0.76292-0.69301 0.13950-0.00169 0.63125
   2  -8 -18   17.29  131.59   1-0.54531 0.59260 0.22434-0.77746-0.80765 0.21065
  -2  -8  18   91.86  112.74   1 0.71441-0.76197-0.69886 0.14534-0.03465 0.63108
   2  -8 -17 8210.15  420.52   1-0.53723 0.59011 0.21385-0.76696-0.81586 0.25203
  -2  -8  17 7193.17  333.94   1 0.70670-0.75982-0.70411 0.15060-0.06914 0.63244
   2  -8 -16  -18.67  121.27   1-0.52773 0.58619 0.20164-0.75476-0.82512 0.29446
  -2  -8  16   34.64   62.08   1 0.69760-0.75627-0.70868 0.15516-0.10542 0.63558
   2  -8 -15  119.12  132.78   1-0.51663 0.58068 0.18757-0.74069-0.83540 0.33791
  -2  -8  15    2.45   53.81   1 0.68759-0.75114-0.71159 0.15781-0.14439 0.64100
   2  -8 -14   87.47  115.19   1-0.50375 0.57338 0.17149-0.72460-0.84665 0.38232
  -2  -8  14   76.77  100.89   1 0.67492-0.74407-0.71431 0.16053-0.18502 0.64852
   2  -8 -13 5203.30  791.78   1-0.48888 0.56410 0.15323-0.70634-0.85878 0.42762
  -2  -8  13 5614.87  260.47   1 0.65989-0.73465-0.71579 0.16201-0.22842 0.65881
   2  -8 -12  517.25  154.58   1-0.47179 0.55260 0.13259-0.68571-0.87168 0.47373
  -2  -8  12  658.53   96.19   1 0.64199-0.72235-0.71568 0.16190-0.27501 0.67230
   2  -8 -11  354.85  148.59   1-0.45228 0.53868 0.10950-0.66261-0.88512 0.52034
  -2  -8  11   18.17   62.61   1 0.62183-0.70802-0.71258 0.15990-0.32486 0.68784
   2  -8 -1021570.28 1604.13   1-0.43009 0.52208 0.08378-0.63689-0.89888 0.56726
  -2  -8  1020477.06  387.17   1 0.59590-0.68765-0.70784 0.15516-0.37928 0.70926
   2  -8  -9 1454.68  211.08   1-0.40499 0.50256 0.05532-0.60844-0.91264 0.61418
  -2  -8   9 1383.08  140.75   1 0.56452-0.66182-0.69952 0.14684-0.43814 0.73513
   2  -8  -813785.83  427.94   1-0.37725 0.48037 0.02403-0.57719-0.92579 0.66036
  -2  -8   813022.74  293.80   1 0.52887-0.63204-0.68630 0.13405-0.49927 0.76325
   2  -8  -7 4409.27  297.95   1-0.34572 0.45444-0.01001-0.54314-0.93828 0.70602
  -2  -8   7 4638.87  198.71   1 0.48289-0.59158-0.66732 0.11506-0.56700 0.79798
   2  -8  -617584.43  493.93   1-0.31076 0.42507-0.04678-0.50638-0.94933 0.75025
  -2  -8   617427.70  372.07   1 0.43018-0.54436-0.64054 0.08844-0.63611 0.83417
   2  -8  -516306.54  457.51   1-0.27233 0.39224-0.08607-0.46708-0.95834 0.79244
  -2  -8   515728.88  341.92   1 0.36446-0.48417-0.60448 0.05238-0.70835 0.87340
   2  -8  -4 1130.34  184.92   1-0.23020 0.35583-0.12835-0.42507-0.96463 0.83228
  -2  -8   4  763.09   98.41   1 0.29098-0.41630-0.55781 0.00552-0.77727 0.90920
   2  -8  -3  923.56  161.28   1-0.18534 0.31651-0.17154-0.38189-0.96758 0.86831
  -2  -8   3  857.59   98.95   1 0.20885-0.33993-0.50037-0.05250-0.84024 0.93898
   2  -8  -2  319.20  103.43   1-0.13767 0.27438-0.21597-0.33745-0.96664 0.90046
  -2  -8   2  337.65   83.48   1 0.11622-0.25284-0.43241-0.12046-0.89415 0.95997
   2  -8  -117388.72  426.20   1-0.08933 0.23160-0.26141-0.29211-0.96108 0.92791
  -2  -8   114910.85  372.02   1 0.02398-0.16628-0.35780-0.19532-0.93348 0.96653
  -2  -8   019852.40  403.39   1-0.07102-0.07687-0.27754-0.27598-0.95808 0.95808
   2  -8   021363.82  468.97   1-0.03750 0.18539-0.30654-0.24698-0.95111 0.95111
  -2  -8  -1 4777.24  178.90   1-0.15782 0.00449-0.19737-0.35606-0.96754 0.93445
   2  -8   1 4833.87  244.09   1 0.01516 0.13819-0.35055-0.20256-0.93641 0.96946
  -2  -8  -2  294.89   79.86   1-0.23912 0.08024-0.11960-0.43382-0.96359 0.89741
   2  -8   2  256.02   92.31   1 0.06810 0.09078-0.39333-0.15978-0.91686 0.98296
  -2  -8  -3  487.73   91.46   1-0.31086 0.14617-0.04668-0.50648-0.94930 0.84976
   2  -8   3  450.06  113.62   1 0.12059 0.04382-0.43407-0.11905-0.89277 0.99192
  -2  -8  -4 1747.39  162.93   1-0.37219 0.20191 0.01850-0.57166-0.92797 0.79525
   2  -8   4 2153.16  209.92   1 0.16944 0.00038-0.47214-0.08073-0.86507 0.99673
  -2  -8  -538232.78  672.24   1-0.42310 0.24732 0.07578-0.62890-0.90290 0.73709
   2  -8   541605.04  802.26   1 0.21889-0.04352-0.50739-0.04548-0.83344 0.99801
  -2  -8  -6 6530.57  290.77   1-0.46607 0.28471 0.12578-0.67889-0.87575 0.67678
   2  -8   6 5853.64  307.93   1 0.26472-0.08402-0.54065-0.01163-0.79850 0.99639
  -2  -8  -7 2401.51  188.53   1-0.50157 0.31462 0.16880-0.72191-0.84848 0.61632
   2  -8   7 2591.27  238.45   1 0.30960-0.12335-0.56965 0.01736-0.76133 0.99221
  -2  -8  -8 6388.81  277.28   1-0.53073 0.33819 0.20547-0.75859-0.82225 0.55692
   2  -8   8 5968.65  338.39   1 0.35174-0.15996-0.59541 0.04312-0.72232 0.98617
  -2  -8  -9 2181.18  209.33   1-0.55462 0.35649 0.23660-0.78971-0.79775 0.49925
   2  -8   9 1917.51  265.14   1 0.38979-0.19255-0.61889 0.06679-0.68192 0.97901
  -2  -8 -1026763.09  577.09   1-0.57416 0.37045 0.26290-0.81601-0.77537 0.44371
   2  -8  1029007.05  622.33   1 0.42626-0.22348-0.63851 0.08641-0.64077 0.97086
  -2  -8 -1112803.67  420.37   1-0.58974 0.38055 0.28477-0.83808-0.75571 0.39089
   2  -8  1114361.21  467.20   1 0.45991-0.25159-0.65530 0.10320-0.59921 0.96231
  -2  -8 -12  564.71  133.70   1-0.60280 0.38804 0.30333-0.85663-0.73798 0.33999
   2  -8  12  586.35  172.77   1 0.48933-0.27558-0.67017 0.11792-0.55804 0.95401
  -2  -8 -13 2021.07  359.22   1-0.61344 0.39310 0.31880-0.87210-0.72253 0.29137
   2  -8  13 2068.76  238.60   1 0.51768-0.29840-0.68199 0.12974-0.51661 0.94558
  -2  -8 -14  471.73  141.93   1-0.62206 0.39615 0.33160-0.88490-0.70927 0.24495
   2  -8  14  318.33  139.50   1 0.54358-0.31878-0.69163 0.13937-0.47556 0.93752
  -2  -8 -15  532.96  174.12   1-0.62900 0.39752 0.34209-0.89539-0.69808 0.20059
   2  -8  15  753.71  222.74   1 0.56596-0.33522-0.69996 0.14728-0.43558 0.93055
  -2  -8 -16   16.93  106.47   1-0.63453 0.39748 0.35057-0.90387-0.68880 0.15815
   2  -8  16    5.26  111.76   1 0.58750-0.35120-0.70586 0.15318-0.39571 0.92368
  -2  -8 -17 2211.36  265.08   1-0.63886 0.39623 0.35729-0.91059-0.68131 0.11749
   2  -8  17 2390.00  251.84   1 0.60709-0.36522-0.71015 0.15747-0.35653 0.91750
  -2  -8 -18  524.71  188.27   1-0.64216 0.39395 0.36246-0.91577-0.67545 0.07847
   2  -8  18  452.65  149.58   1 0.62487-0.37744-0.71299 0.16031-0.31807 0.91204
  -2  -8 -19  162.00  114.56   1-0.64456 0.39078 0.36626-0.91957-0.67110 0.04095
   2  -8  19  333.33  153.61   1 0.64035-0.38625-0.71559 0.16180-0.27905 0.90808
  -2  -8 -20 3058.30  350.01   1-0.64617 0.38682 0.36883-0.92213-0.66814 0.00482
   2  -8  20 2904.16  328.53   1 0.65485-0.39515-0.71594 0.16216-0.24204 0.90418
   2  -9 -20  -54.49  127.85   1-0.51980 0.55592 0.19157-0.81383-0.83252 0.16919
   2  -9 -19   89.78  140.78   1-0.51313 0.55484 0.18318-0.80544-0.83852 0.20836
   2  -9 -18   61.96  135.78   1-0.50525 0.55254 0.17335-0.79561-0.84537 0.24838
   2  -9 -17  925.25  225.13   1-0.49604 0.54892 0.16198-0.78424-0.85305 0.28922
   2  -9 -16  741.68  225.52   1-0.48535 0.54382 0.14893-0.77118-0.86153 0.33094
   2  -9 -15  261.44  134.94   1-0.47307 0.53713 0.13413-0.75638-0.87075 0.37331
   2  -9 -14 1095.20  249.59   1-0.45903 0.52867 0.11744-0.73969-0.88062 0.41635
   2  -9 -13  662.39  180.79   1-0.44306 0.51828 0.09874-0.72100-0.89103 0.45992
   2  -9 -12 2044.28  348.09   1-0.42498 0.50579 0.07793-0.70018-0.90184 0.50389
   2  -9 -11  345.60  144.03   1-0.40461 0.49101 0.05490-0.67715-0.91283 0.54805
   2  -9 -10 2562.67  269.60   1-0.38228 0.47421 0.02954-0.65185-0.92357 0.59177
   2  -9  -9 3613.37  293.99   1-0.35684 0.45437 0.00188-0.62420-0.93416 0.63554
   2  -9  -8  565.89  112.12   1-0.32864 0.43176-0.02810-0.59420-0.94403 0.67859
  -2  -9   8  417.95   93.16   1 0.51626-0.61943-0.68143 0.06014-0.51876 0.78274
   2  -9  -7  347.19  116.63   1-0.29758 0.40630-0.06038-0.56192-0.95278 0.72052
  -2  -9   7  258.40   59.05   1 0.47148-0.58018-0.66213 0.04084-0.58247 0.81346
   2  -9  -6   71.28  100.01   1-0.26361 0.37793-0.09483-0.52747-0.95995 0.76087
  -2  -9   6    9.36   51.35   1 0.42176-0.53594-0.63617 0.01505-0.64606 0.84412
   2  -9  -5 3439.46  276.07   1-0.22638 0.34646-0.13209-0.49052-0.96504 0.79959
  -2  -9   5 3069.35  161.44   1 0.36143-0.48115-0.60272-0.01838-0.71139 0.87644
   2  -9  -4   17.86   91.33   1-0.18689 0.31251-0.17007-0.45254-0.96754 0.83518
  -2  -9   4   45.63   49.87   1 0.29619-0.42151-0.56115-0.06016-0.77289 0.90482
   2  -9  -3 4645.17  282.67   1-0.14486 0.27603-0.20937-0.41324-0.96704 0.86777
  -2  -9   3 4176.40  183.25   1 0.22511-0.35619-0.51171-0.11027-0.82914 0.92788
   2  -9  -2 4146.37  241.24   1-0.10240 0.23904-0.24977-0.37293-0.96287 0.89653
  -2  -9   2 4164.61  185.35   1 0.14541-0.28202-0.45443-0.16756-0.87883 0.94466
   2  -9  -1 1499.22  210.07   1-0.05619 0.19846-0.29045-0.33226-0.95523 0.92206
  -2  -9   1 1440.43  255.93   1 0.06676-0.20906-0.39227-0.22999-0.91742 0.95047
   2  -9   0 3249.80  236.14   1-0.00863 0.15652-0.33097-0.29174-0.94360 0.94360
  -2  -9   0 3097.98  163.44   1-0.01547-0.13235-0.32501-0.29724-0.94558 0.94558
  -2  -9  -1 5762.17  222.26   1-0.09479-0.05872-0.25656-0.36615-0.96186 0.92869
   2  -9   1 6025.27  294.53   1 0.03952 0.11383-0.37045-0.25181-0.92800 0.96105
  -2  -9  -2   80.05   63.44   1-0.16581 0.00693-0.18992-0.43269-0.96769 0.90151
   2  -9   2  -21.48   99.60   1 0.08796 0.07092-0.40895-0.21331-0.90830 0.97440
  -2  -9  -3 1050.34  127.42   1-0.23296 0.06854-0.12566-0.49695-0.96433 0.86506
   2  -9   3 1512.85  186.78   1 0.13377 0.03052-0.44571-0.17627-0.88512 0.98386
  -2  -9  -4 2107.96  364.91   1-0.29311 0.12283-0.06497-0.55733-0.95386 0.82115
   2  -9   4 2397.08  241.63   1 0.18082-0.01098-0.48039-0.14159-0.85820 0.98986
  -2  -9  -5 3485.41  198.75   1-0.34542 0.16955-0.01034-0.61197-0.93838 0.77249
   2  -9   5 4021.31  262.38   1 0.22657-0.05119-0.51271-0.10927-0.82812 0.99269
  -2  -9  -6 1028.72  153.81   1-0.38983 0.20847 0.03845-0.66071-0.92007 0.72110
   2  -9   6  789.84  158.70   1 0.26899-0.08828-0.54347-0.07785-0.79515 0.99304
  -2  -9  -7  113.16   97.62   1-0.42845 0.24150 0.08190-0.70415-0.89984 0.66770
   2  -9   7  262.84  146.01   1 0.31112-0.12487-0.57061-0.05071-0.76000 0.99087
  -2  -9  -817605.38  434.60   1-0.46124 0.26871 0.12005-0.74231-0.87911 0.61381
   2  -9   819561.87  519.44   1 0.35102-0.15924-0.59498-0.02634-0.72303 0.98688
  -2  -9  -9 9557.94  378.87   1-0.48895 0.29083 0.15331-0.77557-0.85872 0.56026
   2  -9   9 9517.01  421.72   1 0.38721-0.18996-0.61745-0.00365-0.68470 0.98178
  -2  -9 -10  140.44  126.11   1-0.51233 0.30862 0.18218-0.80443-0.83923 0.50757
   2  -9  10  206.96  165.00   1 0.42234-0.21956-0.63647 0.01536-0.64538 0.97547
  -2  -9 -1134814.35  939.48   1-0.53195 0.32265 0.20704-0.82930-0.82107 0.45624
   2  -9  1139368.43  760.97   1 0.45504-0.24672-0.65295 0.03184-0.60546 0.96856
  -2  -9 -12  374.53  136.37   1-0.54839 0.33350 0.22838-0.85063-0.80442 0.40643
   2  -9  12 1120.49  240.45   1 0.48379-0.27004-0.66772 0.04644-0.56575 0.96172
  -2  -9 -13 6687.62  711.87   1-0.56212 0.34165 0.24660-0.86885-0.78942 0.35826
   2  -9  13 7511.78  423.10   1 0.51178-0.29250-0.67964 0.05835-0.52551 0.95448
  -2  -9 -14  165.19   94.09   1-0.57356 0.34750 0.26207-0.88432-0.77610 0.31177
   2  -9  14  178.06  151.87   1 0.53755-0.31274-0.68949 0.06820-0.48541 0.94738
  -2  -9 -15    0.57   71.84   1-0.58263 0.35115 0.27487-0.89733-0.76484 0.26735
   2  -9  15   49.54   94.33   1 0.56121-0.33088-0.69745 0.07617-0.44563 0.94059
  -2  -9 -16   47.14   95.13   1-0.59044 0.35338 0.28576-0.90822-0.75479 0.22414
   2  -9  16   72.00   98.45   1 0.58165-0.34534-0.70437 0.08260-0.40685 0.93483
  -2  -9 -17   55.85  100.76   1-0.59679 0.35416 0.29474-0.91720-0.74630 0.18248
   2  -9  17   79.88  110.08   1 0.60150-0.35963-0.70904 0.08728-0.36803 0.92900
  -2  -9 -18  -39.57  106.60   1-0.60188 0.35368 0.30201-0.92448-0.73927 0.14228
   2  -9  18   52.06  117.80   1 0.61961-0.37219-0.71227 0.09050-0.32976 0.92373
  -2  -9 -19   13.14  110.57   1-0.60587 0.35209 0.30776-0.93022-0.73362 0.10347
   2  -9  19  155.27  104.05   1 0.63611-0.38313-0.71416 0.09240-0.29209 0.91906
   2 -10 -17 2922.24  341.02   1-0.45232 0.50520 0.10954-0.80094-0.88510 0.32134
   2 -10 -16  136.64  124.62   1-0.44063 0.49910 0.09593-0.78732-0.89254 0.36195
   2 -10 -15  -16.99  126.29   1-0.42736 0.49142 0.08065-0.77205-0.90047 0.40304
   2 -10 -14   21.11  128.96   1-0.41237 0.48201 0.06363-0.75502-0.90878 0.44451
   2 -10 -13  583.79  190.45   1-0.39553 0.47076 0.04477-0.73616-0.91735 0.48625
   2 -10 -12 1120.36  216.76   1-0.37721 0.45794 0.02398-0.71544-0.92581 0.52766
   2 -10 -11 1495.73  268.66   1-0.35627 0.44260 0.00127-0.69273-0.93438 0.56940
   2 -10 -10  -47.53  110.07   1-0.33309 0.42502-0.02342-0.66803-0.94260 0.61080
   2 -10  -9  293.13  163.98   1-0.30755 0.40508-0.05010-0.64135-0.95020 0.65159
   2 -10  -8  -14.83  107.16   1-0.27959 0.38271-0.07873-0.61272-0.95688 0.69144
   2 -10  -7 2837.95  305.39   1-0.24861 0.35761-0.11023-0.58156-0.96230 0.73068
   2 -10  -6  141.27  140.07   1-0.21580 0.33034-0.14237-0.54942-0.96600 0.76746
   2 -10  -5  -69.96   90.85   1-0.18060 0.30068-0.17602-0.51576-0.96767 0.80222
   2 -10  -4  761.30  174.75   1-0.14314 0.26876-0.21095-0.48084-0.96695 0.83459
   2 -10  -3  157.14  131.64   1-0.10554 0.23655-0.24696-0.44494-0.96325 0.86375
   2 -10  -2 3237.85  278.78   1-0.06413 0.20077-0.28355-0.40835-0.95680 0.89047
   2 -10  -1 4961.84  291.05   1-0.02126 0.16352-0.32034-0.37156-0.94706 0.91389
   2 -10   0  897.74  178.19   1 0.02260 0.12521-0.35667-0.33473-0.93395 0.93395
   2 -10   1 7636.86  373.67   1 0.06702 0.08633-0.39248-0.29892-0.91731 0.95036
  -2 -10  -2  303.88   91.90   1-0.09965-0.05949-0.25223-0.43967-0.96252 0.89618
   2 -10   2  455.37  151.22   1 0.11163 0.04725-0.42723-0.26416-0.89721 0.96331
  -2 -10  -3 2758.85  205.39   1-0.15951-0.00490-0.19580-0.49599-0.96758 0.86831
   2 -10   3 2990.84  262.10   1 0.15362 0.01067-0.46052-0.23057-0.87425 0.97299
  -2 -10  -4  189.27   99.41   1-0.21685 0.04688-0.14135-0.55043-0.96591 0.83355
   2 -10   4  133.16  135.47   1 0.19709-0.02726-0.49206-0.19904-0.84795 0.97961
  -2 -10  -5 1305.51  149.24   1-0.26892 0.09304-0.08951-0.60194-0.95899 0.79309
   2 -10   5 1571.87  219.28   1 0.23953-0.06415-0.52160-0.16949-0.81887 0.98344
  -2 -10  -6  261.76   66.28   1-0.31480 0.13333-0.04258-0.64887-0.94819 0.74912
   2 -10   6  684.48  190.01   1 0.27878-0.09808-0.54990-0.14045-0.78732 0.98521
  -2 -10  -711632.98  375.15   1-0.35512 0.16805 0.00003-0.69149-0.93481 0.70256
   2 -10   712626.28  433.67   1 0.31827-0.13203-0.57508-0.11528-0.75364 0.98451
  -2 -10  -8  252.66  159.27   1-0.38958 0.19704 0.03817-0.72957-0.92019 0.65490
   2 -10   8  140.22  145.72   1 0.35591-0.16413-0.59787-0.09248-0.71823 0.98209
  -2 -10  -9 2675.48  254.73   1-0.42009 0.22197 0.07236-0.76376-0.90458 0.60613
   2 -10   9 3030.59  324.53   1 0.39013-0.19289-0.61908-0.07103-0.68156 0.97864
  -2 -10 -10  493.72  131.36   1-0.44642 0.24271 0.10265-0.79404-0.88891 0.55729
   2 -10  10  702.37  180.18   1 0.42373-0.22095-0.63720-0.05292-0.64375 0.97384
  -2 -10 -11   -6.84   75.55   1-0.46905 0.25975 0.12932-0.82071-0.87364 0.50886
   2 -10  11   49.48   95.45   1 0.45522-0.24690-0.65304-0.03707-0.60522 0.96832
  -2 -10 -12  121.37   80.78   1-0.48843 0.27355 0.15268-0.84407-0.85913 0.46119
   2 -10  12  108.63  122.68   1 0.48302-0.26927-0.66738-0.02293-0.56681 0.96278
  -2 -10 -13   93.45  112.37   1-0.50502 0.28455 0.17306-0.86446-0.84557 0.41441
   2 -10  13  -17.80   83.40   1 0.51034-0.29106-0.67905-0.01126-0.52767 0.95663
  -2 -10 -14  175.67  149.29   1-0.51910 0.29305 0.19069-0.88209-0.83316 0.36883
   2 -10  14  192.42  134.55   1 0.53564-0.31083-0.68880-0.00151-0.48849 0.95046
  -2 -10 -15  165.48  125.02   1-0.53103 0.29939 0.20587-0.89726-0.82195 0.32446
   2 -10  15   -2.96   92.51   1 0.55902-0.32868-0.69676 0.00644-0.44945 0.94441
  -2 -10 -16  281.51  106.85   1-0.54108 0.30385 0.21884-0.91023-0.81199 0.28133
   2 -10  16   50.44   97.89   1 0.57929-0.34299-0.70375 0.01290-0.41127 0.93924
   2 -11 -15  -70.40  123.42   1-0.38013 0.44407 0.02718-0.78778-0.92453 0.42684
   2 -11 -14   96.43  123.94   1-0.36440 0.43395 0.01004-0.77065-0.93118 0.46667
   2 -11 -13   85.68  110.38   1-0.34692 0.42206-0.00873-0.75186-0.93785 0.50651
   2 -11 -12  335.74  162.43   1-0.32758 0.40832-0.02922-0.73138-0.94436 0.54621
   2 -11 -11  294.33  140.33   1-0.30629 0.39262-0.05141-0.70918-0.95054 0.58557
   2 -11 -10    0.38   96.19   1-0.28296 0.37489-0.07532-0.68528-0.95616 0.62437
   2 -11  -9  860.70  164.66   1-0.25688 0.35480-0.10201-0.65896-0.96104 0.66323
   2 -11  -8  -32.44  101.97   1-0.22938 0.33284-0.12915-0.63182-0.96472 0.70001
   2 -11  -7   18.73  100.08   1-0.19976 0.30876-0.15780-0.60316-0.96705 0.73542
   2 -11  -6  478.74  157.91   1-0.16805 0.28260-0.18782-0.57314-0.96771 0.76917
   2 -11  -5  928.95  221.52   1-0.13642 0.25617-0.21898-0.54211-0.96614 0.80030
   2 -11  -4 2635.02  284.36   1-0.10077 0.22615-0.25122-0.50986-0.96266 0.82999
   2 -11  -3 2144.76  254.93   1-0.06342 0.19444-0.28417-0.47692-0.95667 0.85716
   2 -11  -2 2115.50  234.88   1-0.02462 0.16125-0.31750-0.44359-0.94793 0.88160
   2 -11  -1 3061.64  284.67   1 0.01538 0.12691-0.35073-0.40981-0.93634 0.90329
   2 -11   0  412.92  158.44   1 0.05604 0.09177-0.38374-0.37680-0.92173 0.92173
   2 -11   1   42.28   94.50   1 0.09721 0.05614-0.41613-0.34440-0.90409 0.93713
   2 -11   2   74.86   92.75   1 0.13628 0.02247-0.44760-0.31261-0.88378 0.94961
   2 -11   3   58.08   90.55   1 0.17715-0.01285-0.47774-0.28246-0.86044 0.95919
   2 -11   4  228.80  131.25   1 0.21747-0.04763-0.50640-0.25380-0.83442 0.96608
   2 -11   5   16.92   88.54   1 0.25486-0.07970-0.53407-0.22533-0.80610 0.97101
   2 -11   6  245.00  127.32   1 0.29323-0.11253-0.55926-0.20013-0.77539 0.97328
   2 -11   7   76.56  123.44   1 0.33023-0.14399-0.58245-0.17694-0.74275 0.97363
   2 -11   8   53.10   90.68   1 0.36411-0.17241-0.60428-0.15485-0.70870 0.97277
   2 -11   9 1425.84  282.62   1 0.39788-0.20063-0.62336-0.13576-0.67312 0.97021
   2 -11  10  193.02  100.06   1 0.42985-0.22707-0.64036-0.11876-0.63651 0.96660
   2 -11  11  214.57  140.21   1 0.45997-0.25165-0.65533-0.10380-0.59913 0.96223
   2 -11  12  -43.00   91.67   1 0.48663-0.27288-0.66898-0.09036-0.56182 0.95779
   2 -11  13  726.27  206.71   1 0.51304-0.29376-0.68014-0.07920-0.52362 0.95259
   2 -11  14  143.15  136.09   1 0.53764-0.31283-0.68952-0.06982-0.48527 0.94723
   2 -12 -11  192.08  171.68   1-0.25441 0.34124-0.10448-0.72567-0.96143 0.59744
   2 -12 -10   38.77  104.01   1-0.23115 0.32353-0.12742-0.70272-0.96453 0.63363
   2 -12  -8  943.07  243.70   1-0.17907 0.28253-0.17747-0.65268-0.96769 0.70297
   2 -12  -7 1411.68  255.84   1-0.15026 0.25926-0.20438-0.62576-0.96728 0.73566
   2 -12  -6   -5.59   95.08   1-0.12182 0.23595-0.23228-0.59800-0.96498 0.76597
   2 -12  -5   10.88   89.51   1-0.08948 0.20924-0.26127-0.56901-0.96110 0.79526
   2 -12  -4  401.65  166.04   1-0.05558 0.18096-0.29098-0.53930-0.95511 0.82243
   2 -12  -3  121.26   92.12   1-0.02028 0.15129-0.32117-0.50911-0.94680 0.84729
   2 -12  -2  863.86  201.55   1 0.01630 0.12046-0.35148-0.47819-0.93605 0.86995
   2 -12  -1   -2.02   80.46   1 0.05357 0.08872-0.38176-0.44792-0.92270 0.88965
   2 -12   0  -26.11   85.60   1 0.09150 0.05632-0.41170-0.41797-0.90670 0.90670
   2 -12   1    4.24   83.95   1 0.12769 0.02552-0.44113-0.38819-0.88831 0.92122
   2 -12   2  202.84  107.65   1 0.16588-0.00712-0.46954-0.35977-0.86718 0.93301
   2 -12   3  -94.78   83.68   1 0.20387-0.03957-0.49685-0.33246-0.84354 0.94228
   2 -12   4   79.84   87.54   1 0.24136-0.07153-0.52285-0.30646-0.81753 0.94919
   2 -12   5  467.84  158.25   1 0.27588-0.10071-0.54800-0.28042-0.78966 0.95457
   2 -12   6 1805.12  236.48   1 0.31171-0.13101-0.57098-0.25745-0.75947 0.95736
   2 -12   7   37.72   90.53   1 0.34636-0.16012-0.59220-0.23622-0.72754 0.95841
   2 -12   8 4531.09  373.65   1 0.37803-0.18632-0.61228-0.21586-0.69440 0.95847
   2 -12   9  592.12  173.87   1 0.40989-0.21265-0.62988-0.19826-0.65971 0.95680
   2 -12  10  -24.77   90.40   1 0.44019-0.23741-0.64562-0.18252-0.62401 0.95410
   2 -13  -5  416.29  177.73   1-0.04163 0.16139-0.30300-0.59647-0.95208 0.78623
   2 -13  -4  194.92  102.72   1-0.00936 0.13474-0.33035-0.56912-0.94381 0.81113
   2 -13  -3   -8.81   91.33   1 0.02418 0.10705-0.35796-0.54086-0.93342 0.83427
   2 -13  -2  704.48  182.57   1 0.05842 0.07834-0.38564-0.51318-0.92079 0.85469
   2 -13  -1  107.99   84.27   1 0.09341 0.04888-0.41318-0.48563-0.90584 0.87279
   2 -13   0  138.34   94.66   1 0.12686 0.02082-0.44050-0.45793-0.88874 0.88874
   2 -13   1  156.34  126.79   1 0.16244-0.00922-0.46702-0.43140-0.86919 0.90210
   3   0 -27  152.85  133.42   1-0.71174 0.78281 0.48609-0.48609-0.50707-0.38847
   3   0 -26  104.35  107.16   1-0.71427 0.79092 0.49165-0.49165-0.49808-0.36429
   3   0 -25   79.42   66.59   1-0.71652 0.79875 0.49673-0.49673-0.48974-0.33946
   3   0 -24  245.36  110.82   1-0.71850 0.80632 0.50129-0.50129-0.48212-0.31391
   3   0 -23   31.30   59.08   1-0.72021 0.81361 0.50532-0.50532-0.47533-0.28754
   3   0 -22 3599.78  386.23   1-0.72165 0.82063 0.50875-0.50875-0.46945-0.26025
   3   0 -21   -6.46  121.25   1-0.72280 0.82736 0.51155-0.51155-0.46462-0.23191
   3   0 -2017574.40 1721.89   1-0.72364 0.83379 0.51364-0.51364-0.46098-0.20238
   3   0 -19 -173.51  128.90   1-0.72417 0.83989 0.51493-0.51493-0.45870-0.17149
   3   0 -18 3847.93  566.40   1-0.72432 0.84563 0.51533-0.51533-0.45801-0.13901
   3   0 -17 -200.76  138.15   1-0.72406 0.85096 0.51468-0.51468-0.45915-0.10471
   3   0 -16 6480.19  831.78   1-0.72331 0.85578 0.51280-0.51280-0.46243-0.06825
   3   0 -15  -67.65   97.10   1-0.72194 0.85999 0.50945-0.50945-0.46824-0.02928
   3   0 -1412563.38  702.09   1-0.71979 0.86342 0.50431-0.50431-0.47704 0.01268
   3   0 -13   -7.03   72.64   1-0.71661 0.86583 0.49693-0.49693-0.48941 0.05822
   3   0 -12 2554.99  385.91   1-0.71204 0.86684 0.48673-0.48673-0.50604 0.10802
   3   0 -11  -15.24   52.04   1-0.70518 0.86569 0.47324-0.47324-0.52796 0.16315
   3   0 -1020162.82  356.32   1-0.69591 0.86199 0.45461-0.45461-0.55590 0.22425
   3   0  -9   58.41   52.92   1-0.68260 0.85426 0.42961-0.42961-0.59116 0.29268
   3   0  -8   52.75   46.82   1-0.66333 0.84057 0.39597-0.39597-0.63496 0.36964
   3   0  -6305328.1 1009.31   1-0.59362 0.78199 0.29024-0.29024-0.75057 0.55158
   3   0  -5   -5.92   37.62   1-0.53338 0.72722 0.20889-0.20889-0.81967 0.65383
   3   0  -454405.57  396.87   1-0.44713 0.64655 0.10348-0.10348-0.88846 0.75581
   3   0  -3   18.00   15.99   1-0.33118 0.53623-0.02543 0.02543-0.94322 0.84368
   3   0  -2204119.4  694.00   1-0.18832 0.39892-0.16872 0.16872-0.96750 0.90132
   3   0  -1  237.27   51.89   1-0.03517 0.25138-0.30853 0.30853-0.95056 0.91739
   3   0   0563561.0 7443.08   1 0.11087 0.11087-0.42665 0.42665-0.89759 0.89759
   3   0   1  108.03   37.52   1 0.23508-0.00801-0.51856 0.51856-0.82208 0.85499
   3   0   2999998.613155.07   1 0.33513-0.10285-0.58544 0.58544-0.73819 0.80416
   3   0   449512.91  444.74   1 0.47266-0.22945-0.66267 0.66267-0.58089 0.71288
   3   0   5  373.82  108.80   1 0.51970-0.27095-0.68278 0.68278-0.51352 0.67851
   3   0   6353628.5 1313.97   1 0.55695-0.30268-0.69610 0.69610-0.45302 0.65101
   3   0   7  428.41  115.71   1 0.58630-0.32636-0.70556 0.70556-0.39803 0.62901
   3   0   8 1320.17  128.97   1 0.61078-0.34529-0.71083 0.71083-0.34878 0.61277
   3   0   9   -7.63   73.38   1 0.63111-0.36005-0.71371 0.71371-0.30382 0.60081
   3   0  10  257.21   82.28   1 0.64759-0.37013-0.71590 0.71590-0.26093 0.59200
   3   0  11   80.26  113.84   1 0.66204-0.37897-0.71568 0.71568-0.22248 0.58666
   3   0  12 6230.39  285.44   1 0.67442-0.38575-0.71439 0.71439-0.18652 0.58381
   3   0  13  -21.27  100.47   1 0.68512-0.39084-0.71225 0.71225-0.15264 0.58304
   3   0  1411285.24  395.22   1 0.69441-0.39453-0.70940 0.70940-0.12052 0.58402
   3   0  15 -122.23  129.87   1 0.70199-0.39729-0.70666 0.70666-0.08844 0.58547
   3   0  16  670.79  222.72   1 0.70905-0.39879-0.70267 0.70267-0.05908 0.58924
   3   0  17   84.92  151.11   1 0.71521-0.39940-0.69822 0.69822-0.03081 0.59410
   3   0  18  170.84  152.22   1 0.72059-0.39921-0.69335 0.69335-0.00347 0.59990
   3   0  19  114.40  124.82   1 0.72525-0.39832-0.68809 0.68809 0.02305 0.60651
   3   0  20 1898.21  265.62   1 0.72926-0.39678-0.68248 0.68248 0.04887 0.61382
   3   0  21 -109.80  137.65   1 0.73230-0.39420-0.67691 0.67691 0.07425 0.62159
  -3   0 -22  819.22  168.37   1-0.74271 0.39822 0.66275-0.66275-0.09554-0.63417
   3   0  22  846.42  220.61   1 0.73517-0.39151-0.67061 0.67061 0.09892 0.63006
  -3   0 -23   71.61   72.25   1-0.74500 0.39493 0.65619-0.65619-0.11990-0.64298
   3   0  23  -22.10  122.99   1 0.73753-0.38831-0.66398 0.66398 0.12311 0.63900
  -3   0 -24  716.68  200.81   1-0.74678 0.39114 0.64931-0.64931-0.14384-0.65221
   3   0  24  991.26  230.15   1 0.73940-0.38461-0.65703 0.65703 0.14690 0.64836
  -3   0 -25   60.68   80.64   1-0.74809 0.38687 0.64212-0.64212-0.16741-0.66181
   3   0  25   28.90  122.68   1 0.74080-0.38044-0.64976 0.64976 0.17032 0.65807
   3   1 -27  -22.72  120.98   1-0.72120 0.79227 0.50768-0.43851-0.47128-0.42426
   3  -1 -27   98.31  141.51   1-0.69978 0.77105 0.46224-0.53141-0.54464-0.35080
   3   1 -26  525.24  114.14   1-0.72376 0.80041 0.51393-0.44475-0.46047-0.40190
   3  -1 -26  529.31  204.74   1-0.70217 0.77903 0.46707-0.53624-0.53739-0.32489
   3   1 -25 -125.06  112.15   1-0.72606 0.80830 0.51973-0.45056-0.45021-0.37899
   3  -1 -25  -92.07  102.03   1-0.70427 0.78670 0.47134-0.54051-0.53088-0.29823
   3   1 -24  559.06  116.26   1-0.72812 0.81594 0.52510-0.45592-0.44056-0.35548
   3  -1 -24  352.46   60.75   1-0.70605 0.79405 0.47503-0.54420-0.52519-0.27075
   3   1 -23  179.18   71.89   1-0.72994 0.82334 0.52999-0.46082-0.43159-0.33127
   3  -1 -23  130.81   75.07   1-0.70785 0.80125 0.47775-0.54692-0.52027-0.24259
   3   1 -22 1172.87  179.55   1-0.73153 0.83051 0.53439-0.46522-0.42341-0.30629
   3  -1 -22 1100.06  191.36   1-0.70898 0.80796 0.48013-0.54931-0.51653-0.21317
   3   1 -21 1397.89  226.98   1-0.73288 0.83744 0.53826-0.46908-0.41611-0.28042
   3  -1 -21 1787.93  249.37   1-0.70975 0.81431 0.48177-0.55095-0.51394-0.18259
   3   1 -20 6270.59  997.70   1-0.73400 0.84415 0.54154-0.47236-0.40983-0.25353
   3  -1 -20 6424.51  922.63   1-0.71012 0.82027 0.48258-0.55176-0.51266-0.15070
   3   1 -1913571.93  467.79   1-0.73488 0.85061 0.54417-0.47500-0.40473-0.22546
   3  -1 -1913461.94  511.64   1-0.71006 0.82579 0.48245-0.55163-0.51287-0.11732
   3   1 -1841241.13 1168.86   1-0.73550 0.85681 0.54608-0.47691-0.40102-0.19601
   3  -1 -1841850.53 1156.06   1-0.70950 0.83081 0.48125-0.55043-0.51477-0.08225
   3   1 -1721107.55  527.25   1-0.73585 0.86274 0.54715-0.47798-0.39892-0.16494
   3  -1 -1721586.00  764.08   1-0.70836 0.83525 0.47881-0.54799-0.51860-0.04525
   3   1 -16 3793.99  380.51   1-0.73588 0.86835 0.54724-0.47806-0.39874-0.13194
   3  -1 -16 4902.53  746.60   1-0.70616 0.83878 0.47526-0.54443-0.52483-0.00579
   3   1 -1514206.35  496.85   1-0.73552 0.87358 0.54615-0.47697-0.40088-0.09664
   3  -1 -1515168.91  705.94   1-0.70344 0.84164 0.46965-0.53882-0.53345 0.03598
   3   1 -14 9659.17  357.25   1-0.73469 0.87833 0.54362-0.47444-0.40582-0.05853
   3  -1 -1411469.27  392.35   1-0.69964 0.84342 0.46198-0.53115-0.54503 0.08072
   3   1 -13 2731.80  407.45   1-0.73323 0.88245 0.53926-0.47009-0.41419-0.01699
   3  -1 -13 2965.05  354.46   1-0.69445 0.84380 0.45177-0.52094-0.56002 0.12888
   3   1 -1210967.99  360.17   1-0.73088 0.88568 0.53257-0.46339-0.42682 0.02880
   3  -1 -1212702.55  323.75   1-0.68742 0.84235 0.43846-0.50763-0.57896 0.18098
   3   1 -11  713.24  143.09   1-0.72723 0.88762 0.52275-0.45358-0.44480 0.07995
   3  -1 -11  541.96  110.02   1-0.67796 0.83846 0.42125-0.49042-0.60241 0.23760
   3   1 -1066923.58  661.43   1-0.72162 0.88759 0.50868-0.43951-0.46956 0.13788
   3  -1 -1071006.65  721.02   1-0.66522 0.83130 0.39915-0.46832-0.63099 0.29934
   3   1  -924628.55  369.29   1-0.71290 0.88444 0.48861-0.41943-0.50302 0.20450
   3  -1  -925232.53  398.20   1-0.64777 0.81942 0.37139-0.44055-0.66516 0.36667
   3   1  -851859.33  519.44   1-0.69876 0.87599 0.46021-0.39104-0.54766 0.28234
   3  -1  -855307.87  579.48   1-0.62450 0.80173 0.33527-0.40443-0.70539 0.44006
   3   1  -7 4460.86  135.79   1-0.67632 0.85913 0.41834-0.34917-0.60628 0.37413
   3  -1  -7 4631.47  165.40   1-0.59298 0.77577 0.28934-0.35850-0.75143 0.51927
   3   1  -615746.43  213.64   1-0.63890 0.82726 0.35734-0.28818-0.68125 0.48226
   3  -1  -616737.46  348.83   1-0.55072 0.73897 0.23145-0.30059-0.80195 0.60295
   3   1  -5  520.09   86.43   1-0.57595 0.76979 0.26534-0.19620-0.77321 0.60738
   3  -1  -5  595.40   87.69   1-0.49407 0.68790 0.15956-0.22870-0.85465 0.68882
   3   1  -4  952.47   65.58   1-0.47007 0.66949 0.13053-0.06140-0.87292 0.74027
   3  -1  -4 1135.51   93.13   1-0.42048 0.61991 0.07281-0.14195-0.90437 0.77172
   3  -1  -349810.22  460.94   1-0.32914 0.53419-0.02758-0.04156-0.94387 0.84433
   3   1  -348756.74  290.77   1-0.30559 0.51064-0.05213 0.12128-0.95073 0.85119
   3  -1  -120655.25  267.84   1-0.10517 0.32139-0.24729 0.17810-0.96321 0.93004
   3   1  -120519.03  192.28   1 0.12717 0.08881-0.44073 0.50984-0.88858 0.85566
   3  -1   0 4296.65  139.39   1 0.01292 0.20881-0.34870 0.27956-0.93714 0.93714
   3   1   0 4439.53  110.92   1 0.29658-0.07537-0.56140 0.63044-0.77256 0.77256
   3  -1   112661.20  676.32   1 0.12345 0.10381-0.43624 0.36710-0.89131 0.92436
   3   1   113594.12  193.07   1 0.41410-0.18745-0.63212 0.70114-0.65493 0.68793
   3  -1   2102867.4  612.67   1 0.22039 0.01220-0.50843 0.43932-0.83241 0.89824
   3   1   2107126.9  531.31   1 0.49271-0.26055-0.67165 0.74068-0.55327 0.61927
   3  -1   3    8.29   75.10   1 0.30397-0.06614-0.56610 0.49706-0.76624 0.86518
   3   1   3   79.76   50.66   1 0.54662-0.30893-0.69267 0.76171-0.47052 0.56951
   3  -1   4 8718.09  222.01   1 0.37364-0.13039-0.60978 0.54076-0.69896 0.83100
   3   1   4 9084.92  201.58   1 0.58492-0.34166-0.70522 0.77430-0.40065 0.53264
   3  -1   5 2636.75  165.23   1 0.43165-0.18285-0.64129 0.57228-0.63436 0.79941
   3   1   5 3143.55  143.18   1 0.61356-0.36474-0.71131 0.78040-0.34288 0.50787
   3  -1   6  478.33  174.49   1 0.47878-0.22451-0.66547 0.59644-0.57263 0.77061
   3   1   6  593.43   76.86   1 0.63569-0.38131-0.71413 0.78322-0.29309 0.49108
   3  -1   7 1603.26  157.50   1 0.51856-0.25875-0.68234 0.61330-0.51527 0.74625
   3   1   7 1250.67  127.32   1 0.65277-0.39212-0.71596 0.78519-0.24753 0.47928
   3  -1   835205.06  507.62   1 0.55179-0.28645-0.69442 0.62538-0.46185 0.72583
   3   1   836009.56  495.66   1 0.66704-0.40079-0.71529 0.78451-0.20831 0.47317
   3  -1   9  697.47  100.39   1 0.57896-0.30791-0.70366 0.63457-0.41188 0.70887
   3   1   9  839.71  109.05   1 0.67893-0.40707-0.71362 0.78284-0.17261 0.47058
   3  -1  1021800.47  477.57   1 0.60270-0.32609-0.70929 0.64020-0.36557 0.69555
   3   1  1021117.09  457.67   1 0.68897-0.41151-0.71119 0.78041-0.13967 0.47074
   3  -1  11 5001.37  259.21   1 0.62301-0.34084-0.71274 0.64366-0.32223 0.68521
   3   1  11 5141.90  256.26   1 0.69708-0.41460-0.70890 0.77809-0.10739 0.47188
   3  -1  12 1833.15  172.57   1 0.64051-0.35277-0.71448 0.64539-0.28152 0.67750
   3   1  12 1695.08  168.98   1 0.70447-0.41644-0.70537 0.77456-0.07842 0.47604
   3  -1  1326140.27  524.05   1 0.65500-0.36072-0.71594 0.64672-0.24163 0.67203
   3   1  1327370.01  546.11   1 0.71090-0.41731-0.70144 0.77063-0.05087 0.48163
   3   1  14 7147.62  310.53   1 0.71650-0.41736-0.69714 0.76633-0.02450 0.48839
   3  -1  1586616.67 1382.91   1 0.67962-0.37413-0.71348 0.64426-0.17043 0.66704
   3   1  1585349.94 1375.59   1 0.72139-0.41669-0.69252 0.76171 0.00088 0.49614
   3  -1  16112706.4 1314.01   1 0.68969-0.37859-0.71098 0.64175-0.13722 0.66693
   3  -1  1771602.92 1099.86   1 0.69800-0.38218-0.70851 0.63932-0.10393 0.66723
   3   1  1769970.03 1144.44   1 0.72933-0.41352-0.68237 0.75156 0.04933 0.51395
   3  -1  18 8362.28  460.07   1 0.70574-0.38437-0.70467 0.63548-0.07320 0.66963
  -3  -1 -1910673.06  467.77   1-0.74223 0.41447 0.66393-0.73310-0.09097-0.53923
   3  -1  1911888.12  472.63   1 0.71252-0.38560-0.70029 0.63110-0.04349 0.67306
   3   1  1913259.71  532.16   1 0.73482-0.40785-0.67148 0.74064 0.09563 0.53395
  -3  -1 -20 3459.31  576.43   1-0.74445 0.41111 0.65794-0.72711-0.11357-0.54981
   3  -1  20 5026.33  388.48   1 0.71845-0.38597-0.69541 0.62622-0.01469 0.67739
   3   1  20 3827.37  368.83   1 0.73707-0.40454-0.66542 0.73458 0.11799 0.54472
  -3  -1 -21  -39.91  114.61   1-0.74623 0.40732 0.65168-0.72085-0.13578-0.56076
   3  -1  21  122.38  177.10   1 0.72360-0.38556-0.69008 0.62089 0.01332 0.68251
   3   1  21   -6.54  137.92   1 0.73890-0.40081-0.65910 0.72826 0.13999 0.55586
  -3  -1 -22   85.36   84.03   1-0.74761 0.40312 0.64515-0.71431-0.15766-0.57205
   3  -1  22  446.44  218.34   1 0.72804-0.38444-0.68432 0.61513 0.04063 0.68833
   3   1  22  -26.25  134.29   1 0.74033-0.39667-0.65250 0.72166 0.16167 0.56731
  -3  -1 -23  244.10   77.62   1-0.74858 0.39851 0.63834-0.70751-0.17927-0.58361
   3  -1  23  210.02  131.94   1 0.73142-0.38220-0.67857 0.60941 0.06747 0.69465
   3   1  23  205.68  117.49   1 0.74137-0.39215-0.64563 0.71479 0.18308 0.57904
  -3   1 -24  885.12  181.72   1-0.74225 0.38661 0.66388-0.59471-0.09118-0.70487
  -3  -1 -24 1082.47  177.99   1-0.74916 0.39352 0.63126-0.70043-0.20063-0.59542
   3  -1  24  946.41  190.41   1 0.73459-0.37981-0.67201 0.60285 0.09361 0.70165
   3   1  24 1315.98  288.44   1 0.74203-0.38724-0.63848 0.70764 0.20426 0.59100
  -3   1 -25  129.19   57.37   1-0.74475 0.38353 0.65701-0.58784-0.11695-0.71227
  -3  -1 -25  136.41   92.98   1-0.74989 0.38794 0.62356-0.69270-0.22095-0.60799
   3  -1  25  171.94  131.82   1 0.73719-0.37683-0.66507 0.59591 0.11926 0.70913
   3   1  25   79.03  131.54   1 0.74207-0.38212-0.63107 0.70025 0.22599 0.60301
   3   2 -27   79.71   82.22   1-0.72870 0.79977 0.52664-0.38829-0.43774-0.45780
   3  -2 -27    8.06  138.07   1-0.68581 0.75708 0.43547-0.57381-0.58311-0.31233
   3   2 -26 2023.69  373.14   1-0.73121 0.80786 0.53349-0.39514-0.42509-0.43728
   3  -2 -26 2500.59  330.14   1-0.68798 0.76484 0.43951-0.57785-0.57749-0.28478
   3   2 -25 1311.61  254.50   1-0.73346 0.81570 0.53996-0.40160-0.41287-0.41633
   3  -2 -25 1297.12  221.83   1-0.68981 0.77224 0.44293-0.58127-0.57268-0.25643
   3   2 -24  150.14   75.21   1-0.73549 0.82330 0.54603-0.40768-0.40112-0.39492
   3  -2 -24  139.63  159.33   1-0.69127 0.77928 0.44569-0.58403-0.56876-0.22719
   3   2 -23  119.34   85.60   1-0.73728 0.83068 0.55170-0.41335-0.38990-0.37296
   3  -2 -23  174.56  128.97   1-0.69235 0.78593 0.44775-0.58609-0.56582-0.19696
   3   2 -22 3247.83  464.35   1-0.73886 0.83784 0.55696-0.41860-0.37930-0.35040
   3  -2 -22 3611.51  331.71   1-0.69302 0.79218 0.44903-0.58737-0.56398-0.16563
   3   2 -21   39.49   47.57   1-0.74024 0.84480 0.56177-0.42342-0.36939-0.32714
   3  -2 -21  153.19  138.73   1-0.69324 0.79798 0.44946-0.58780-0.56337-0.13308
   3   2 -20 1557.63  189.76   1-0.74156 0.85155 0.56605-0.42778-0.36008-0.30307
   3  -2 -20 1380.78  247.05   1-0.69297 0.80328 0.44893-0.58727-0.56412-0.09916
   3   2 -19  412.81   92.25   1-0.74254 0.85813 0.56988-0.43160-0.35194-0.27806
   3  -2 -19  309.44  185.27   1-0.69214 0.80803 0.44734-0.58568-0.56641-0.06371
   3   2 -18  106.24   70.24   1-0.74333 0.86452 0.57314-0.43486-0.34489-0.25194
   3  -2 -18  -11.52  121.57   1-0.69066 0.81212 0.44453-0.58287-0.57041-0.02654
   3   2 -17   53.37   43.48   1-0.74395 0.87074 0.57576-0.43749-0.33916-0.22452
   3  -2 -17  127.48  107.25   1-0.68842 0.81546 0.44032-0.57866-0.57635 0.01255
   3   2 -16 4010.87  672.74   1-0.74437 0.87676 0.57765-0.43937-0.33499-0.19553
   3  -2 -16 4349.12  280.80   1-0.68528 0.81790 0.43449-0.57283-0.58446 0.05383
   3   2 -15  823.90  176.34   1-0.74459 0.88258 0.57866-0.44038-0.33274-0.16462
   3  -2 -15 1162.45  198.14   1-0.68103 0.81923 0.42676-0.56510-0.59503 0.09756
   3   2 -14 6054.03  243.75   1-0.74458 0.88817 0.57860-0.44033-0.33286-0.13134
   3  -2 -14 6775.85  276.66   1-0.67543 0.81920 0.41677-0.55511-0.60834 0.14404
   3   2 -13 3696.07  374.15   1-0.74428 0.89346 0.57722-0.43894-0.33595-0.09510
   3  -2 -13 4571.87  245.54   1-0.66813 0.81748 0.40410-0.54244-0.62474 0.19359
   3   2 -12 8803.00  365.28   1-0.74356 0.89834 0.57409-0.43581-0.34282-0.05506
   3  -2 -12 9868.39  334.29   1-0.65868 0.81360 0.38820-0.52654-0.64454 0.24656
   3   2 -11 2131.04  339.03   1-0.74222 0.90260 0.56861-0.43034-0.35464-0.01008
   3  -2 -11 2110.25  165.20   1-0.64620 0.80670 0.36887-0.50720-0.66809 0.30326
   3   2 -10 1603.01  259.35   1-0.73978 0.90575 0.56016-0.42180-0.37273 0.04105
   3  -2 -10 1633.09  213.48   1-0.63050 0.79658 0.34437-0.48270-0.69560 0.36394
   3   2  -983670.30  767.29   1-0.73566 0.90721 0.54657-0.40822-0.40005 0.10153
   3  -2  -991468.05  857.00   1-0.61029 0.78194 0.31419-0.45251-0.72720 0.42870
   3   2  -895768.35  741.33   1-0.72823 0.90536 0.52538-0.38702-0.44005 0.17470
   3  -2  -8104369.6  877.73   1-0.58431 0.76153 0.27720-0.41553-0.76271 0.49738
   3   2  -713619.58  224.06   1-0.71419 0.89690 0.49147-0.35312-0.49837 0.26619
   3  -2  -714374.39  303.19   1-0.55135 0.73402 0.23228-0.37056-0.80127 0.56911
   3   2  -6 6212.43  126.40   1-0.68573 0.87412 0.43533-0.29699-0.58330 0.38431
   3  -2  -6 6486.79  212.15   1-0.50913 0.69738 0.17818-0.31646-0.84204 0.64304
   3   2  -5 2039.06   71.31   1-0.62494 0.81888 0.33592-0.19760-0.70469 0.53886
   3  -2  -5 2108.57  144.48   1-0.45626 0.65010 0.11418-0.25246-0.88248 0.71667
   3   2  -4111967.5  365.12   1-0.48416 0.68359 0.14749-0.00921-0.86245 0.72980
   3  -2  -4117309.6  701.28   1-0.39162 0.59105 0.04043-0.17871-0.91923 0.78658
   3  -2  -319261.67  292.32   1-0.31528 0.52033-0.04208-0.09620-0.94806 0.84852
   3   2  -319607.69  133.15   1-0.16851 0.37347-0.18926 0.32764-0.96735 0.86785
   3  -2  -113582.29  250.53   1-0.13452 0.35073-0.22072 0.08233-0.96601 0.93284
   3   2  -114639.65  126.19   1 0.50704-0.29148-0.67770 0.81577-0.53255 0.49955
   3  -2   072688.94  539.90   1-0.03726 0.25910-0.30674 0.16836-0.95106 0.95106
   3   2   078517.75  328.57   1 0.59625-0.37523-0.70792 0.84609-0.37858 0.37858
   3  -2   161558.71  591.81   1 0.05774 0.16953-0.38509 0.24681-0.92106 0.95411
   3   2   165244.11  352.50   1 0.63644-0.40941-0.71531 0.85376-0.28854 0.32165
   3  -2   2  223.19   64.41   1 0.14538 0.08722-0.45440 0.31618-0.87885 0.94467
   3  -2   339511.58  430.33   1 0.22590 0.01224-0.51225 0.37403-0.82859 0.92733
   3  -2   410858.06  277.60   1 0.29675-0.05339-0.56151 0.42344-0.77242 0.90434
   3   2   411651.02  232.49   1 0.68490-0.44106-0.71230 0.85075-0.15336 0.28579
   3  -2   517800.83  347.05   1 0.35877-0.10987-0.59955 0.46148-0.71541 0.88031
   3   2   519060.95  312.74   1 0.69368-0.44424-0.70966 0.84811-0.12316 0.28870
   3  -2   6 7652.17  422.97   1 0.41161-0.15728-0.63080 0.49278-0.65776 0.85582
   3   2   6 6570.19  277.79   1 0.70049-0.44580-0.70739 0.84577-0.09433 0.29314
   3  -2   7 3372.42  194.37   1 0.45747-0.19760-0.65413 0.51610-0.60235 0.83341
   3  -2   856107.21  674.49   1 0.49580-0.23047-0.67298 0.53491-0.54888 0.81286
   3  -2   932270.58  631.81   1 0.52960-0.25874-0.68657 0.54851-0.49812 0.79509
   3  -2  10   96.27   58.50   1 0.55876-0.28237-0.69668 0.55862-0.44990 0.77987
   3  -2  11 4764.77  258.39   1 0.58311-0.30093-0.70475 0.56658-0.40410 0.76708
   3   2  11 4794.17  245.32   1 0.72443-0.44195-0.68910 0.82748 0.01815 0.34632
   3  -2  12 3125.20  215.43   1 0.60507-0.31734-0.70976 0.57159-0.36070 0.75668
   3   2  12 3389.58  208.44   1 0.72770-0.43966-0.68481 0.82319 0.03840 0.35921
   3  -2  13  347.61  212.78   1 0.62426-0.33097-0.71291 0.57474-0.31943 0.74841
   3   2  13  131.67  155.07   1 0.73022-0.43663-0.68069 0.81901 0.05853 0.37223
   3  -2  14 5946.04  293.50   1 0.64109-0.34223-0.71451 0.57634-0.28011 0.74209
   3   2  14 5706.43  300.29   1 0.73277-0.43362-0.67598 0.81430 0.07805 0.38585
  -3  -2 -15 6366.64  350.01   1-0.74220 0.43674 0.66400-0.80233-0.09071-0.40682
   3  -2  15 8723.46  414.14   1 0.65521-0.34972-0.71594 0.57749-0.24108 0.73769
   3   2  15 8987.43  446.52   1 0.73500-0.43029-0.67104 0.80936 0.09731 0.39972
  -3  -2 -16 7051.08  526.63   1-0.74414 0.43310 0.65887-0.79721-0.11014-0.42056
   3  -2  16 7406.79  360.39   1 0.66818-0.35709-0.71518 0.57673-0.20503 0.73474
   3   2  16 7318.40  399.43   1 0.73692-0.42664-0.66588 0.80420 0.11637 0.41380
  -3  -2 -17 3843.45  486.89   1-0.74576 0.42915 0.65352-0.79186-0.12938-0.43449
   3  -2  17 3881.82  272.46   1 0.67963-0.36294-0.71348 0.57503-0.17039 0.73321
   3   2  17 4677.12  345.80   1 0.73854-0.42270-0.66049 0.79881 0.13527 0.42804
  -3  -2 -18 8773.14 1311.24   1-0.74708 0.42489 0.64794-0.78627-0.14845-0.44858
   3  -2  1811135.63  463.68   1 0.68975-0.36745-0.71096 0.57251-0.13701 0.73294
   3   2  1811764.53  516.06   1 0.73987-0.41847-0.65487 0.79319 0.15403 0.44241
  -3  -2 -19  471.32  163.86   1-0.74809 0.42033 0.64212-0.78046-0.16740-0.46281
   3  -2  19  638.19  205.76   1 0.69814-0.37121-0.70845 0.57007-0.10338 0.73294
   3   2  19  757.90  221.91   1 0.74091-0.41394-0.64901 0.78733 0.17269 0.45689
  -3  -2 -20   65.02   82.08   1-0.74881 0.41547 0.63607-0.77441-0.18623-0.47714
   3  -2  20  -23.46  132.63   1 0.70600-0.37352-0.70452 0.56614-0.07211 0.73481
   3   2  20 -161.90  114.91   1 0.74167-0.40914-0.64291 0.78123 0.19125 0.47146
  -3  -2 -21  695.21  127.02   1-0.74924 0.41032 0.62977-0.76811-0.20498-0.49156
   3  -2  21  877.60  198.70   1 0.71290-0.37486-0.70001 0.56163-0.04175 0.73758
   3   2  21  885.88  180.94   1 0.74214-0.40405-0.63656 0.77488 0.20975 0.48609
  -3  -2 -22  633.96  166.96   1-0.74989 0.40474 0.62292-0.76119-0.22275-0.50671
   3  -2  22  840.79  188.27   1 0.71893-0.37534-0.69496 0.55658-0.01219 0.74116
   3   2  22  750.12  222.50   1 0.74208-0.39881-0.62999 0.76835 0.22895 0.50057
  -3  -2 -23  -23.67  100.26   1-0.74974 0.39899 0.61612-0.75439-0.24139-0.52123
   3  -2  23   55.23  120.55   1 0.72417-0.37502-0.68941 0.55103 0.01664 0.74546
   3   2  23  173.56  193.42   1 0.74197-0.39313-0.62313 0.76149 0.24735 0.51533
  -3  -2 -24    6.75   77.12   1-0.74930 0.39295 0.60905-0.74733-0.25999-0.53580
   3  -2  24 -125.27  123.49   1 0.72867-0.37396-0.68339 0.54501 0.04483 0.75040
   3   2  24  151.45  139.31   1 0.74157-0.38717-0.61600 0.75436 0.26572 0.53011
  -3  -2 -25  535.64  127.51   1-0.74855 0.38660 0.60172-0.74000-0.27855-0.55039
   3  -2  25  650.22  209.19   1 0.73208-0.37173-0.67733 0.53901 0.07257 0.75582
   3   2  25  839.48  205.90   1 0.74087-0.38092-0.60860 0.74696 0.28408 0.54492
   3   3 -27  357.54  108.51   1-0.73447 0.80554 0.54295-0.33542-0.40710-0.48844
   3  -3 -27  505.11  204.36   1-0.66937 0.74064 0.40623-0.61374-0.62202-0.27342
   3   3 -26  787.16  156.80   1-0.73686 0.81351 0.55034-0.34281-0.39262-0.46975
   3  -3 -26  958.97  194.93   1-0.67123 0.74808 0.40944-0.61695-0.61789-0.24438
   3   3 -25  672.81  121.08   1-0.73898 0.82122 0.55738-0.34985-0.37844-0.45077
   3  -3 -25  183.14  136.00   1-0.67269 0.75512 0.41198-0.61949-0.61461-0.21450
   3   3 -24  -48.04   89.84   1-0.74103 0.82862 0.56404-0.35663-0.36430-0.43148
   3  -3 -24  -84.57  121.10   1-0.67373 0.76173 0.41378-0.62129-0.61226-0.18369
   3   3 -23  733.97  126.91   1-0.74267 0.83586 0.57039-0.36298-0.35084-0.41179
   3  -3 -23  624.02  207.95   1-0.67431 0.76789 0.41480-0.62231-0.61093-0.15185
   3   3 -22 3923.68  492.17   1-0.74409 0.84288 0.57638-0.36897-0.33780-0.39167
   3  -3 -22 3555.58  339.69   1-0.67440 0.77355 0.41496-0.62247-0.61073-0.11889
   3   3 -21 8672.18 1040.88   1-0.74530 0.84969 0.58200-0.37459-0.32525-0.37106
   3  -3 -21 9784.15  460.93   1-0.67394 0.77868 0.41416-0.62167-0.61176-0.08469
   3   3 -2012740.17 1388.86   1-0.74633 0.85632 0.58724-0.37983-0.31325-0.34990
   3  -3 -2015959.11  542.01   1-0.67288 0.78320 0.41231-0.61982-0.61417-0.04911
  -3  -3  2017347.14  520.93   1 0.73951-0.84921-0.59844 0.39089 0.30819 0.35501
   3   3 -19 3753.75  555.40   1-0.74717 0.86276 0.59209-0.38468-0.30190-0.32809
   3  -3 -19 3859.38  648.40   1-0.67114 0.78703 0.40928-0.61679-0.61810-0.01202
  -3  -3  19 5052.02  331.29   1 0.74024-0.85550-0.60348 0.39593 0.29637 0.33367
   3   3 -18 1589.06  243.68   1-0.74786 0.86905 0.59651-0.38910-0.29132-0.30552
   3  -3 -18 1535.06  225.78   1-0.66860 0.79007 0.40491-0.61242-0.62370 0.02673
  -3  -3  18 1707.10  186.81   1 0.74082-0.86164-0.60811 0.40057 0.28525 0.31162
   3   3 -17  320.39   95.71   1-0.74839 0.87518 0.60047-0.39306-0.28164-0.28203
   3  -3 -17  225.54  113.91   1-0.66515 0.79219 0.39903-0.60654-0.63114 0.06734
  -3  -3  17  254.94   89.32   1 0.74125-0.86764-0.61230 0.40475 0.27498 0.28873
   3   3 -16  -32.75   78.63   1-0.74880 0.88119 0.60391-0.39650-0.27307-0.25744
   3  -3 -16  174.84  154.71   1-0.66060 0.79322 0.39140-0.59891-0.64062 0.10999
  -3  -3  16  -47.72   91.05   1 0.74157-0.87351-0.61600 0.40845 0.26573 0.26483
   3   3 -1511698.82  434.60   1-0.74909 0.88708 0.60676-0.39936-0.26586-0.23150
   3  -3 -1513897.25  431.77   1-0.65475 0.79295 0.38175-0.58926-0.65234 0.15487
  -3  -3  1513971.70  345.74   1 0.74178-0.87928-0.61914 0.41159 0.25772 0.23967
   3   3 -14 5263.32  578.34   1-0.74928 0.89287 0.60892-0.40151-0.26034-0.20386
   3  -3 -14 6179.78  275.30   1-0.64703 0.79080 0.37019-0.57768-0.66656 0.20224
  -3  -3  14 6450.83  237.19   1 0.74191-0.88497-0.62162 0.41408 0.25128 0.21295
   3   3 -13 2283.54  281.43   1-0.74939 0.89857 0.61022-0.40281-0.25698-0.17407
   3  -3 -13 2803.78  206.90   1-0.63770 0.78705 0.35548-0.56297-0.68334 0.25218
  -3  -3  13 2428.11  152.14   1 0.74197-0.89060-0.62332 0.41578 0.24683 0.18424
   3   3 -12 4474.59  504.63   1-0.74940 0.90419 0.61042-0.40302-0.25643-0.14145
   3  -3 -12 5312.54  250.31   1-0.62603 0.78096 0.33758-0.54507-0.70293 0.30494
  -3  -3  12 4823.45  192.41   1 0.74200-0.89619-0.62402 0.41647 0.24499 0.15292
   3   3 -1112201.13  352.97   1-0.74931 0.90969 0.60918-0.40177-0.25967-0.10506
   3  -3 -1115091.60  411.52   1-0.61149 0.77199 0.31594-0.52343-0.72543 0.36060
  -3  -3  1114735.79  318.50   1 0.74198-0.90173-0.62339 0.41585 0.24665 0.11810
   3   3 -10 3526.37  341.18   1-0.74900 0.91499 0.60586-0.39845-0.26815-0.06342
   3  -3 -10 4212.85  248.75   1-0.59341 0.75948 0.28995-0.49744-0.75085 0.41919
  -3  -3  10 3911.08  162.95   1 0.74187-0.90718-0.62090 0.41335 0.25318 0.07841
   3   3  -9  313.11   50.74   1-0.74826 0.91984 0.59943-0.39202-0.28421-0.01420
   3  -3  -9  471.92   97.60   1-0.57131 0.74280 0.25901-0.46642-0.77878 0.48028
  -3  -3   9  347.21   70.37   1 0.74153-0.91241-0.61559 0.40804 0.26676 0.03167
   3   3  -868732.81  549.08   1-0.74644 0.92362 0.58787-0.38046-0.31181 0.04655
   3  -3  -882394.45  817.90   1-0.54366 0.72074 0.22219-0.42961-0.80935 0.54402
  -3  -3   885234.54  622.01   1 0.74053-0.91696-0.60567 0.39812 0.29115-0.02587
   3   3  -7   53.85   19.06   1-0.74180 0.92451 0.56759-0.36006-0.35715 0.12497
   3  -3  -7  124.28   68.02   1-0.50973 0.69240 0.17893-0.38635-0.84151 0.60935
   3   3  -6   65.20   13.18   1-0.72893 0.91722 0.52724-0.31971-0.43666 0.23765
   3  -3  -6  111.20   73.68   1-0.46850 0.65675 0.12866-0.33608-0.87404 0.67507
   3   3  -5 5464.35  111.87   1-0.68558 0.87955 0.43506-0.22755-0.58368 0.41786
   3  -3  -5 5954.01  223.00   1-0.41914 0.61298 0.07128-0.27870-0.90511 0.73930
   3  -3  -4  671.63   92.87   1-0.36148 0.56093 0.00688-0.21432-0.93235 0.79963
   3  -3  -3   58.02   64.58   1-0.29499 0.50004-0.06304-0.14438-0.95341 0.85387
   3  -3  -2 4927.98  179.20   1-0.22089 0.43149-0.13743-0.07010-0.96556 0.89938
   3  -3  -1   97.51   54.25   1-0.14164 0.35779-0.21233 0.00479-0.96687 0.93378
  -3  -3   0  111.38   17.37   1-0.74280 0.52101 0.57156-0.77909-0.34864 0.34864
   3  -3   0   90.71   53.40   1-0.06035 0.28220-0.28684 0.07927-0.95607 0.95607
  -3  -3  -155710.35  337.51   1-0.74987 0.52230 0.62585-0.83326-0.21448 0.18132
   3  -3   162503.46  558.85   1 0.02170 0.20556-0.35593 0.14851-0.93425 0.96730
   3   3   165845.25  333.97   1 0.74184-0.51535-0.62025 0.82780 0.25484-0.22168
  -3  -3  -290021.82  570.26   1-0.74764 0.51467 0.64492-0.85243-0.15839 0.09205
   3  -3   2104296.7  738.46   1 0.10100 0.13179-0.41906 0.21164-0.90231 0.96841
  -3  -3  -393080.85  772.58   1-0.74566 0.50710 0.65390-0.86141-0.12804 0.02853
   3  -3   3112024.4  931.60   1 0.17368 0.06445-0.47523 0.26790-0.86254 0.96128
   3   3   3112586.7  764.58   1 0.73961-0.50166-0.65609 0.86357 0.15001-0.05061
  -3  -3  -449089.88  513.88   1-0.74438 0.50025 0.65814-0.86564-0.11283-0.01984
   3  -3   460223.02  669.04   1 0.24191 0.00176-0.52322 0.31589-0.81713 0.94879
   3   3   459801.75  519.41   1 0.73825-0.49474-0.66155 0.86903 0.13161 0.00093
  -3  -3  -5 7247.74  203.94   1-0.74379 0.49409 0.65987-0.86737-0.10644-0.05939
   3  -3   5 9635.90  293.11   1 0.30296-0.05406-0.56546 0.35835-0.76710 0.93201
   3   3   5 8668.46  229.51   1 0.73751-0.48843-0.66406 0.87154 0.12284 0.04283
  -3  -3  -6  -27.56   48.81   1-0.74372 0.48844 0.66008-0.86758-0.10566-0.09335
   3  -3   6  173.73   66.18   1 0.35791-0.10347-0.59905 0.39194-0.71626 0.91415
   3   3   6  335.42   76.10   1 0.73727-0.48264-0.66480 0.87228 0.12022 0.07858
  -3  -3  -7 4142.58  191.71   1-0.74400 0.48315 0.65927-0.86678-0.10866-0.12351
   3  -3   7 4890.19  342.56   1 0.40578-0.14591-0.62767 0.42063-0.66435 0.89541
   3   3   7 4849.78  184.25   1 0.73741-0.47721-0.66437 0.87185 0.12176 0.11018
  -3  -3  -813569.48  338.68   1-0.74452 0.47809 0.65772-0.86523-0.11435-0.15099
   3  -3   815824.82  414.20   1 0.44854-0.18313-0.64978 0.44274-0.61367 0.87774
   3   3   816455.13  359.82   1 0.73780-0.47204-0.66309 0.87057 0.12626 0.13882
  -3  -3  -9 6943.63  700.18   1-0.74517 0.47317 0.65560-0.86310-0.12202-0.17649
   3  -3   9 7195.47  305.01   1 0.48498-0.21412-0.66825 0.46115-0.56411 0.86109
   3   3   9 6913.80  253.93   1 0.73836-0.46703-0.66117 0.86865 0.13293 0.16529
  -3  -3 -10 3275.92  480.81   1-0.74590 0.46831 0.65300-0.86051-0.13119-0.20049
   3  -3  10 3931.39  217.36   1 0.51794-0.24155-0.68210 0.47500-0.51620 0.84617
   3   3  10 3744.53  216.61   1 0.73900-0.46210-0.65872 0.86620 0.14125 0.19010
  -3  -3 -11 6872.04  451.08   1-0.74663 0.46347 0.65000-0.85750-0.14153-0.22332
   3  -3  11 8946.85  322.10   1 0.54692-0.26500-0.69278 0.48568-0.47002 0.83299
  -3  -3 -12 5612.39  467.64   1-0.74733 0.45860 0.64663-0.85413-0.15280-0.24522
   3  -3  12 6428.34  310.67   1 0.57146-0.28373-0.70157 0.49432-0.42569 0.82167
  -3  -3 -1315676.26  572.48   1-0.74797 0.45366 0.64293-0.85043-0.16483-0.26636
   3  -3  1319110.20  468.23   1 0.59399-0.30069-0.70740 0.50015-0.38307 0.81205
  -3  -3 -1461151.98 1219.38   1-0.74851 0.44863 0.63891-0.84642-0.17749-0.28687
   3  -3  1473996.82 1234.51   1 0.61391-0.31505-0.71137 0.50411-0.34214 0.80411
   3  -3  15 7307.00  398.52   1 0.63156-0.32714-0.71375 0.50650-0.30279 0.79776
  -3  -3 -16 2495.20  415.04   1-0.74923 0.43819 0.63001-0.83751-0.20428-0.32641
   3  -3  16 3058.51  277.07   1 0.64660-0.33551-0.71588 0.50821-0.26347 0.79319
   3   3  16 3059.28  269.48   1 0.74217-0.43189-0.63610 0.84358 0.21107 0.31910
  -3  -3 -17 2468.61  486.65   1-0.74988 0.43273 0.62488-0.83229-0.21723-0.34645
   3  -3  17 2919.03  295.33   1 0.66044-0.34375-0.71576 0.50809-0.22690 0.78972
   3   3  17 2553.29  271.66   1 0.74207-0.42660-0.63125 0.83880 0.22547 0.33824
  -3  -3 -18 5840.97 1065.74   1-0.74986 0.42710 0.61973-0.82714-0.23158-0.36525
   3  -3  18 7792.69  428.81   1 0.67275-0.35045-0.71463 0.50696-0.19157 0.78750
   3   3  18 8099.55  417.00   1 0.74205-0.42102-0.62610 0.83365 0.23945 0.35742
  -3  -3 -19 3112.44  344.69   1-0.74966 0.42130 0.61431-0.82172-0.24623-0.38376
   3  -3  19 3800.74  369.67   1 0.68368-0.35578-0.71260 0.50493-0.15738 0.78642
   3   3  19 3986.91  350.83   1 0.74186-0.41527-0.62067 0.82822 0.25376 0.37628
  -3  -3 -20 2565.40  406.21   1-0.74926 0.41531 0.60861-0.81602-0.26113-0.40202
   3  -3  20 3611.68  329.32   1 0.69339-0.35988-0.70977 0.50210-0.12422 0.78636
   3   3  20 3975.71  320.26   1 0.74149-0.40934-0.61496 0.82251 0.26834 0.39485
  -3  -3 -21  126.08   87.28   1-0.74866 0.40910 0.60264-0.81005-0.27626-0.42004
   3  -3  21  118.37  125.82   1 0.70143-0.36339-0.70694 0.49937-0.09065 0.78649
   3   3  21   72.66  116.19   1 0.74091-0.40320-0.60897 0.81651 0.28318 0.41318
  -3  -3 -22  750.48  148.52   1-0.74784 0.40269 0.59639-0.80380-0.29160-0.43786
   3  -3  22  749.95  206.41   1 0.70901-0.36541-0.70270 0.49513-0.05926 0.78823
   3   3  22  701.27  192.55   1 0.74014-0.39686-0.60269 0.81024 0.29824 0.43128
  -3  -3 -23  152.13   72.74   1-0.74680 0.39605 0.58987-0.79728-0.30713-0.45549
   3  -3  23  180.52  175.33   1 0.71566-0.36651-0.69785 0.49028-0.02864 0.79075
  -3  -3 -24  253.97   98.01   1-0.74552 0.38917 0.58306-0.79047-0.32283-0.47295
   3  -3  24   83.69  137.50   1 0.72146-0.36675-0.69244 0.48488 0.00127 0.79396
   3  -4 -26  -35.91  122.23   1-0.65149 0.72838 0.37738-0.65403-0.65812-0.20418
   3   4 -25   -9.77   95.07   1-0.74307 0.82506 0.57202-0.29547-0.34732-0.48162
   3  -4 -25    0.97  125.48   1-0.65250 0.73497 0.37901-0.65566-0.65618-0.17295
   3   4 -24   87.15   65.52   1-0.74472 0.83232 0.57924-0.30269-0.33144-0.46434
   3  -4 -24  113.93  123.12   1-0.65302 0.74106 0.37985-0.65650-0.65518-0.14079
   3   4 -23  -51.48   85.93   1-0.74612 0.83932 0.58615-0.30961-0.31577-0.44685
   3  -4 -23  -36.56  115.70   1-0.65300 0.74662 0.37983-0.65648-0.65521-0.10760
   3   4 -22  -29.31   82.03   1-0.74728 0.84607 0.59275-0.31621-0.30033-0.42914
  -3  -4  22  -14.56   93.43   1 0.74033-0.83891-0.60415 0.32743 0.29477 0.43475
   3   4 -21 3891.66  601.18   1-0.74821 0.85260 0.59905-0.32250-0.28515-0.41116
   3  -4 -21 4685.63  365.74   1-0.65119 0.75595 0.37688-0.65353-0.65871-0.03776
  -3  -4  21 5289.46  399.05   1 0.74109-0.84523-0.61063 0.33390 0.27912 0.41724
   3   4 -20 7763.74 1228.77   1-0.74892 0.85891 0.60503-0.32848-0.27027-0.39288
   3  -4 -20 9856.68  438.25   1-0.64925 0.75958 0.37375-0.65040-0.66240-0.00091
  -3  -4  2010147.00  400.23   1 0.74162-0.85132-0.61679 0.34007 0.26371 0.39949
   3   4 -19  633.04  110.73   1-0.74942 0.86501 0.61070-0.33415-0.25572-0.37427
   3  -4 -19  999.13  187.12   1-0.64650 0.76241 0.36935-0.64600-0.66753 0.03738
  -3  -4  19 1084.97  197.07   1 0.74195-0.85721-0.62266 0.34593 0.24858 0.38146
   3   4 -18  126.95   64.17   1-0.74974 0.87093 0.61605-0.33950-0.24158-0.35525
   3  -4 -18  170.20  134.58   1-0.64284 0.76432 0.36353-0.64018-0.67423 0.07725
  -3  -4  18  131.72   96.81   1 0.74208-0.86290-0.62822 0.35149 0.23377 0.36311
   3   4 -17 4432.68  652.92   1-0.74988 0.87667 0.62106-0.34452-0.22791-0.33577
   3  -4 -17 5313.00  344.48   1-0.63811 0.76516 0.35611-0.63277-0.68263 0.11881
  -3  -4  17 5487.74  271.58   1 0.74203-0.86841-0.63346 0.35673 0.21934 0.34438
   3   4 -16 5840.97  599.85   1-0.74987 0.88226 0.62573-0.34919-0.21480-0.31572
   3  -4 -16 6555.13  365.80   1-0.63214 0.76477 0.34688-0.62354-0.69286 0.16220
  -3  -4  16 6614.11  274.65   1 0.74207-0.87430-0.63788 0.36124 0.20599 0.32418
   3   4 -15   19.66   57.04   1-0.74919 0.88739 0.63071-0.35403-0.20225-0.29528
   3  -4 -15  250.91  169.05   1-0.62472 0.76293 0.33560-0.61225-0.70504 0.20755
  -3  -4  15  -47.74   69.69   1 0.74172-0.87951-0.64244 0.36579 0.19266 0.30437
   3   4 -14 1394.97  227.07   1-0.74894 0.89271 0.63462-0.35795-0.19062-0.27374
   3  -4 -14 1820.15  201.90   1-0.61559 0.75936 0.32196-0.59862-0.71929 0.25497
  -3  -4  14 1790.31  164.90   1 0.74125-0.88461-0.64662 0.36998 0.18004 0.28385
   3   4 -13 6938.00  591.98   1-0.74861 0.89795 0.63808-0.36140-0.18008-0.25110
   3  -4 -13 7537.16  305.08   1-0.60441 0.75376 0.30565-0.58231-0.73569 0.30454
  -3  -4  13 8370.32  251.92   1 0.74069-0.88962-0.65040 0.37376 0.16833 0.26243
   3   4 -12  276.94   67.72   1-0.74825 0.90317 0.64099-0.36432-0.17100-0.22702
   3  -4 -12  530.63  132.52   1-0.59081 0.74574 0.28629-0.56294-0.75430 0.35631
  -3  -4  12  309.32   61.10   1 0.74010-0.89459-0.65370 0.37706 0.15780 0.23982
   3   4 -11 2366.61  204.86   1-0.74792 0.90842 0.64323-0.36656-0.16387-0.20099
   3  -4 -11 3989.10  577.32   1-0.57466 0.73498 0.26357-0.54012-0.77478 0.40995
  -3  -4  11 2861.30  132.81   1 0.73953-0.89958-0.65644 0.37980 0.14888 0.21561
   3   4 -1019884.55  381.57   1-0.74770 0.91377 0.64458-0.36791-0.15950-0.17218
   3  -4 -1026990.39  588.62   1-0.55477 0.72067 0.23680-0.51335-0.79759 0.46592
  -3  -4  1025320.34  430.63   1 0.73907-0.90468-0.65843 0.38179 0.14222 0.18913
   3   4  -955199.83  759.52   1-0.74769 0.91934 0.64466-0.36798-0.15926-0.13926
   3  -4  -968012.38 1065.95   1-0.53085 0.70234 0.20563-0.48219-0.82213 0.52363
  -3  -4   966704.59  837.03   1 0.73882-0.91000-0.65941 0.38277 0.13894 0.15928
   3   4  -8  492.95   89.81   1-0.74800 0.92523 0.64271-0.36603-0.16554-0.09980
   3  -4  -8  973.27  147.66   1-0.50226 0.67933 0.16964-0.44620-0.84791 0.58258
  -3  -4   8  487.60   97.68   1 0.73898-0.91572-0.65880 0.38216 0.14099 0.12408
   3   4  -7 4561.67  242.14   1-0.74872 0.93151 0.63705-0.36038-0.18324-0.04894
   3  -4  -7 5711.14  264.21   1-0.46829 0.65096 0.12842-0.40498-0.87418 0.64205
  -3  -4   7 4467.64  127.24   1 0.73977-0.92207-0.65537 0.37873 0.15237 0.07957
   3   4  -665102.95  434.31   1-0.74988 0.93826 0.62129-0.34474-0.22728 0.02833
   3  -4  -678864.54  797.41   1-0.42842 0.61667 0.08186-0.35842-0.89986 0.70089
  -3  -4   676945.07  483.98   1 0.74135-0.92922-0.64579 0.36915 0.18259 0.01622
   3   4  -5  464.93   51.04   1-0.74476 0.93864 0.58005-0.30334-0.32993 0.16409
   3  -4  -5 1166.17  161.56   1-0.38215 0.57599 0.02998-0.30654-0.92361 0.75780
   3  -4  -442902.22  562.52   1-0.32971 0.52916-0.02698-0.24959-0.94369 0.81097
   3  -4  -3  590.42   86.12   1-0.27060 0.47565-0.08781-0.18876-0.95867 0.85913
   3  -4  -245357.28  558.23   1-0.20589 0.41650-0.15192-0.12479-0.96670 0.90052
   3  -4  -148619.03  584.51   1-0.13724 0.35339-0.21637-0.06034-0.96661 0.93352
  -3  -4   019769.11  197.95   1-0.51556 0.29379 0.18623-0.46279-0.83636 0.83636
  -3  -4  -1 6470.03  142.27   1-0.65461 0.42722 0.38245-0.65910-0.65208 0.61891
  -3  -4  -239372.62  377.16   1-0.70657 0.47357 0.47613-0.75281-0.52349 0.45716
   3  -4   243602.40  584.53   1 0.07539 0.15740-0.39909 0.12253-0.91380 0.97990
  -3  -4  -342109.93  436.58   1-0.72867 0.49014 0.52656-0.80327-0.43789 0.33838
   3  -4   345475.97  592.89   1 0.14133 0.09680-0.45138 0.17494-0.88106 0.97980
  -3  -4  -435553.90  439.40   1-0.73867 0.49456 0.55632-0.83303-0.38059 0.24792
   3  -4   438201.21  536.16   1 0.20499 0.03868-0.49765 0.22121-0.84280 0.97445
  -3  -4  -5 1118.79  234.46   1-0.74385 0.49388 0.57532-0.85187-0.34012 0.17433
   3  -4   5 1209.14  134.45   1 0.26328-0.01438-0.53969 0.26354-0.79963 0.96453
  -3  -4  -616353.00  352.44   1-0.74632 0.49075 0.58720-0.86375-0.31335 0.11440
   3  -4   619417.85  448.91   1 0.31732-0.06288-0.57449 0.29834-0.75449 0.95238
  -3  -4  -720486.31  422.46   1-0.74761 0.48645 0.59487-0.87142-0.29528 0.06317
   3  -4   723665.34  503.69   1 0.36628-0.10631-0.60393 0.32779-0.70787 0.93874
  -3  -4  -8 3438.99  244.84   1-0.74829 0.48153 0.59969-0.87623-0.28358 0.01832
   3  -4   8 3922.78  232.05   1 0.40952-0.14411-0.62968 0.35363-0.66014 0.92421
   3   4   8 4240.97  209.57   1 0.74015-0.47473-0.60278 0.87951 0.29802-0.03274
  -3  -4  -9  953.16  164.11   1-0.74864 0.47627 0.60247-0.87902-0.27668-0.02173
   3  -4   9 1019.97  200.11   1 0.44898-0.17804-0.64999 0.37394-0.61311 0.91019
   3   4   9  936.30  115.87   1 0.74058-0.46961-0.60610 0.88283 0.29011 0.00832
  -3  -4 -10  909.08  216.55   1-0.74878 0.47082 0.60376-0.88031-0.27346-0.05811
   3  -4  10 1074.96  153.87   1 0.48303-0.20664-0.66738 0.39126-0.56680 0.89677
   3   4  10 1157.41  131.55   1 0.74078-0.46425-0.60780 0.88452 0.28602 0.04557
  -3  -4 -11 3701.12  637.72   1-0.74880 0.46523 0.60388-0.88043-0.27315-0.09158
   3  -4  11 3814.69  239.77   1 0.51448-0.23256-0.68072 0.40459-0.52145 0.88442
   3   4  11 4218.40  253.55   1 0.74083-0.45874-0.60824 0.88497 0.28493 0.07982
  -3  -4 -12    3.13   41.97   1-0.74871 0.45955 0.60308-0.87963-0.27517-0.12272
   3  -4  12   84.35  147.99   1 0.54253-0.25508-0.69126 0.41513-0.47729 0.87326
   3   4  12   36.33  107.62   1 0.74077-0.45311-0.60770 0.88443 0.28626 0.11165
  -3  -4 -13 4655.07  420.47   1-0.74852 0.45376 0.60151-0.87806-0.27907-0.15198
   3   4  13 6450.89  306.67   1 0.74061-0.44739-0.60633 0.88306 0.28955 0.14152
  -3  -4 -1452426.00  916.23   1-0.74824 0.44788 0.59930-0.87584-0.28453-0.17967
   3  -4  1464652.75  929.65   1 0.58887-0.29001-0.70620 0.42986-0.39307 0.85505
   3   4  1465341.12  870.67   1 0.74035-0.44157-0.60428 0.88101 0.29446 0.16977
  -3  -4 -1522953.83  570.72   1-0.74786 0.44190 0.59652-0.87307-0.29130-0.20606
   3  -4  1528920.33  657.20   1 0.60884-0.30442-0.71048 0.43414-0.35287 0.84784
   3   4  1527359.39  619.33   1 0.73999-0.43565-0.60163 0.87836 0.30073 0.19667
  -3  -4 -16 8377.46  620.13   1-0.74736 0.43580 0.59324-0.86979-0.29916-0.23136
   3  -4  1610115.87  455.37   1 0.62670-0.31672-0.71321 0.43687-0.31394 0.84191
   3   4  1610180.69  447.74   1 0.73951-0.42961-0.59846 0.87519 0.30814 0.22241
  -3  -4 -17 3670.55  682.41   1-0.74673 0.42958 0.58951-0.86606-0.30797-0.25571
   3  -4  17 4736.56  373.66   1 0.64209-0.32539-0.71569 0.43880-0.27477 0.83759
  -3  -4 -18  650.88  144.98   1-0.74597 0.42322 0.58536-0.86191-0.31758-0.27925
   3  -4  18  840.29  225.32   1 0.65630-0.33400-0.71592 0.43902-0.23815 0.83408
  -3  -4 -19  435.22   81.79   1-0.74506 0.41670 0.58082-0.85737-0.32790-0.30209
   3  -4  19  590.48  167.70   1 0.66902-0.34111-0.71509 0.43820-0.20259 0.83163
  -3  -4 -20 3314.70  549.88   1-0.74398 0.41003 0.57591-0.85245-0.33883-0.32432
   3  -4  20 3695.02  312.18   1 0.68038-0.34687-0.71333 0.43644-0.16803 0.83017
  -3  -4 -21  -13.29  126.75   1-0.74273 0.40318 0.57063-0.84718-0.35031-0.34600
   3  -4  21   55.82  116.59   1 0.69050-0.35139-0.71073 0.43383-0.13439 0.82964
  -3  -4 -22 1221.43  315.95   1-0.74129 0.39614 0.56501-0.84156-0.36226-0.36720
   3  -4  22 1201.68  273.43   1 0.69895-0.35536-0.70809 0.43133-0.10028 0.82925
  -3  -4 -23   57.92   79.10   1-0.73943 0.38925 0.55891-0.83562-0.37530-0.38757
   3  -4  23   18.34  130.13   1 0.70692-0.35777-0.70398 0.42723-0.06823 0.83034
  -3  -4 -24  147.51   87.48   1-0.73756 0.38180 0.55262-0.82932-0.38807-0.40796
   3  -4  24  109.05  140.41   1 0.71394-0.35923-0.69923 0.42247-0.03690 0.83214
   3   5 -25  -77.54   93.95   1-0.74569 0.82769 0.58393-0.23825-0.32085-0.50809
   3  -5 -25   88.74  134.11   1-0.62987 0.71233 0.34340-0.68922-0.69666-0.13248
   3   5 -24  101.34   40.16   1-0.74709 0.83469 0.59161-0.24593-0.30304-0.49275
   3  -5 -24   30.08  127.52   1-0.62979 0.71783 0.34329-0.68910-0.69678-0.09919
  -3  -5  24  151.08  131.34   1 0.74020-0.82766-0.60319 0.25728 0.29706 0.49877
   3   5 -23 1600.49  328.51   1-0.74820 0.84140 0.59900-0.25331-0.28527-0.47736
   3  -5 -23 1602.79  250.00   1-0.62911 0.72273 0.34225-0.68807-0.69790-0.06491
  -3  -5  23 1842.29  237.95   1 0.74110-0.83412-0.61074 0.26483 0.27884 0.48384
   3   5 -22  194.02   71.30   1-0.74903 0.84782 0.60610-0.26042-0.26755-0.46192
   3  -5 -22  278.96  129.97   1-0.62777 0.72696 0.34022-0.68603-0.70010-0.02954
  -3  -5  22  262.41  120.15   1 0.74171-0.84028-0.61801 0.27210 0.26061 0.46890
   3   5 -21  133.83   69.17   1-0.74958 0.85397 0.61293-0.26725-0.24988-0.44643
   3  -5 -21  -76.29  117.73   1-0.62571 0.73047 0.33708-0.68290-0.70345 0.00697
  -3  -5  21   -5.07   80.00   1 0.74203-0.84616-0.62501 0.27910 0.24238 0.45398
   3   5 -20 1023.91  176.87   1-0.74985 0.85985 0.61949-0.27381-0.23224-0.43091
   3  -5 -20 1805.53  263.51   1-0.62283 0.73317 0.33275-0.67857-0.70805 0.04474
  -3  -5  20 1445.99  230.36   1 0.74206-0.85176-0.63174 0.28583 0.22412 0.43908
   3   5 -19   -6.61  100.08   1-0.74987 0.86546 0.62579-0.28010-0.21465-0.41534
   3  -5 -19  202.97  136.96   1-0.61904 0.73495 0.32709-0.67291-0.71399 0.08384
  -3  -5  19  -19.65   74.54   1 0.74207-0.85761-0.63779 0.29199 0.20623 0.42335
   3   5 -18 7904.87 1088.80   1-0.74909 0.87056 0.63246-0.28662-0.19708-0.39995
   3  -5 -1810715.14  437.65   1-0.61423 0.73571 0.31996-0.66577-0.72134 0.12436
  -3  -5  1810464.97  389.59   1 0.74156-0.86266-0.64402 0.29822 0.18794 0.40850
   3   5 -17 3740.96  568.88   1-0.74859 0.87563 0.63827-0.29243-0.17949-0.38437
   3  -5 -17 4816.88  611.00   1-0.60823 0.73529 0.31119-0.65700-0.73021 0.16639
  -3  -5  17 5030.03  283.52   1 0.74076-0.86743-0.65000 0.30420 0.16958 0.39372
   3   5 -16 1434.47  253.92   1-0.74783 0.88045 0.64383-0.29800-0.16191-0.36878
   3  -5 -16 1940.67  335.55   1-0.60089 0.73352 0.30059-0.64640-0.74065 0.21000
  -3  -5  16 1826.52  181.84   1 0.73968-0.87191-0.65576 0.30996 0.15112 0.37905
   3   5 -15 2696.97  477.29   1-0.74682 0.88501 0.64916-0.30332-0.14435-0.35318
   3  -5 -15 3496.65  277.37   1-0.59199 0.73019 0.28794-0.63376-0.75274 0.25526
  -3  -5  15 3736.59  212.40   1 0.73832-0.87612-0.66129 0.31549 0.13252 0.36451
   3   5 -14   50.83   54.57   1-0.74556 0.88933 0.65426-0.30842-0.12678-0.33758
   3  -5 -14  -45.65  109.32   1-0.58129 0.72506 0.27301-0.61882-0.76652 0.30220
  -3  -5  14   71.37   84.74   1 0.73667-0.88003-0.66661 0.32081 0.11373 0.35016
   3   5 -13  759.83  138.40   1-0.74405 0.89340 0.65913-0.31329-0.10920-0.32199
   3  -5 -13 1052.94  176.81   1-0.56883 0.71798 0.25564-0.60134-0.78170 0.35054
  -3  -5  13  847.16  119.50   1 0.73471-0.88364-0.67173 0.32592 0.09469 0.33607
   3   5 -12 1588.39  127.96   1-0.74230 0.89722 0.66377-0.31793-0.09158-0.30644
   3  -5 -12 1782.36  195.60   1-0.55363 0.70836 0.23529-0.58099-0.79882 0.40083
  -3  -5  12 2053.38  152.20   1 0.73243-0.88691-0.67666 0.33086 0.07528 0.32234
   3  -5 -11   14.14   91.58   1-0.53562 0.69594 0.21177-0.55747-0.81746 0.45263
  -3  -5  11  -54.55   48.83   1 0.72978-0.88983-0.68143 0.33563 0.05538 0.30911
   3  -5 -10  790.30  129.62   1-0.51440 0.68031 0.18477-0.53047-0.83740 0.50573
  -3  -5  10  780.64   93.03   1 0.72736-0.89315-0.68529 0.33935 0.03620 0.29514
   3  -5  -9 4487.27  679.35   1-0.48951 0.66101 0.15400-0.49970-0.85828 0.55978
  -3  -5   9 3820.56  145.08   1 0.72384-0.89519-0.68981 0.34386 0.01468 0.28352
   3  -5  -8  165.52   65.54   1-0.46049 0.63757 0.11916-0.46486-0.87962 0.61433
  -3  -5   8   89.63   34.13   1 0.71964-0.89655-0.69429 0.34834-0.00850 0.27358
   3  -5  -7  568.26  130.17   1-0.42694 0.60961 0.08017-0.42587-0.90071 0.66857
  -3  -5   7  674.15   56.85   1 0.71443-0.89689-0.69885 0.35290-0.03458 0.26652
   3  -5  -6  197.84   82.12   1-0.38851 0.57676 0.03699-0.38268-0.92070 0.72172
  -3  -5   6  101.01   29.85   1 0.70741-0.89543-0.70369 0.35775-0.06617 0.26498
   3  -5  -5 1765.18  175.45   1-0.34538 0.53923-0.01038-0.33534-0.93840 0.77250
  -3  -5   5 1376.40   53.83   1 0.69633-0.88991-0.70920 0.36326-0.11017 0.27585
   3  -5  -410046.33  337.43   1-0.29675 0.49620-0.06124-0.28448-0.95298 0.82027
   3  -5  -3 4758.09  245.14   1-0.24308 0.44815-0.11570-0.23019-0.96307 0.86381
   3  -5  -215683.91  393.53   1-0.18561 0.39622-0.17128-0.17461-0.96757 0.90139
   3  -5  -111120.45  361.43   1-0.12610 0.34232-0.22839-0.11755-0.96536 0.93219
  -3  -5   1 9253.86  169.64   1-0.02464-0.19157-0.31726-0.02843-0.94801 0.98106
  -3  -5   0  139.50   21.26   1-0.31617 0.09433-0.04115-0.30456-0.94780 0.94780
   3  -5   0  305.24  128.33   1-0.06302 0.28487-0.28452-0.06143-0.95659 0.95659
  -3  -5  -139166.46  497.75   1-0.49120 0.26384 0.15605-0.50175-0.85695 0.82379
   3  -5   141988.50  702.01   1 0.00074 0.22652-0.33860-0.00709-0.94092 0.97397
  -3  -5  -2101074.5  516.79   1-0.58945 0.35649 0.28438-0.63019-0.75608 0.68975
   3  -5   2110056.1 1424.55   1 0.06400 0.16879-0.39008 0.04438-0.91855 0.98465
  -3  -5  -3  280.11   53.13   1-0.64592 0.40738 0.36842-0.71423-0.66861 0.56912
   3  -5   3  223.47   79.38   1 0.12565 0.11267-0.43790 0.09220-0.89019 0.98934
  -3  -5  -424140.58  399.54   1-0.67990 0.43575 0.42472-0.77057-0.59777 0.46511
   3  -5   426876.37  540.60   1 0.18253 0.06114-0.48163 0.13608-0.85715 0.98880
  -3  -5  -5  240.03   56.58   1-0.70027 0.45054 0.46324-0.80909-0.54315 0.37733
   3  -5   5  406.22  122.34   1 0.23808 0.01113-0.52061 0.17506-0.81992 0.98449
  -3  -5  -6 5101.60  453.85   1-0.71362 0.45834 0.49022-0.83610-0.50041 0.30140
   3  -5   6 5808.66  279.12   1 0.28904-0.03460-0.55656 0.21138-0.77890 0.97679
  -3  -5  -7 1044.96  191.99   1-0.72196 0.46110 0.50951-0.85539-0.46814 0.23596
   3  -5   7 1314.76  253.79   1 0.33694-0.07696-0.58653 0.24135-0.73650 0.96738
  -3  -5  -811017.37  732.64   1-0.72748 0.46103 0.52340-0.86928-0.44364 0.17829
   3  -5   811385.93  355.81   1 0.37991-0.11450-0.61334 0.26828-0.69243 0.95650
  -3  -5  -9 1992.78  397.60   1-0.73117 0.45914 0.53338-0.87926-0.42531 0.12679
   3  -5   9 2086.69  400.56   1 0.41989-0.14895-0.63519 0.29013-0.64824 0.94532
  -3  -5 -10 7382.92  466.70   1-0.73363 0.45602 0.54045-0.88634-0.41192 0.08023
   3  -5  10 8826.84  326.43   1 0.45616-0.17968-0.65350 0.30843-0.60402 0.93411
  -3  -5 -11  408.06   70.88   1-0.73525 0.45206 0.54530-0.89119-0.40254 0.03769
   3  -5  11  467.47   95.78   1 0.48770-0.20578-0.66946 0.32430-0.56032 0.92329
  -3  -5 -12  216.02   68.50   1-0.73625 0.44747 0.54841-0.89429-0.39645-0.00156
   3  -5  12  931.78  187.60   1 0.51732-0.22987-0.68185 0.33669-0.51715 0.91312
  -3  -5 -1316381.96  663.54   1-0.73678 0.44243 0.55010-0.89599-0.39309-0.03809
   3  -5  1318612.51  513.39   1 0.54404-0.25106-0.69178 0.34663-0.47481 0.90377
  -3  -5 -14    4.37   48.46   1-0.73695 0.43701 0.55065-0.89653-0.39200-0.07234
   3  -5  14  174.76  135.68   1 0.56704-0.26819-0.70028 0.35486-0.43365 0.89562
  -3  -5 -15  -83.47   96.68   1-0.73682 0.43130 0.55023-0.89611-0.39285-0.10467
   3  -5  15  230.93  139.19   1 0.58876-0.28434-0.70617 0.36074-0.39328 0.88826
  -3  -5 -16 5118.44  994.27   1-0.73643 0.42532 0.54897-0.89485-0.39533-0.13535
   3  -5  16 6469.81  384.09   1 0.60833-0.29835-0.71038 0.36496-0.35395 0.88192
  -3  -5 -17 7136.64  819.32   1-0.73580 0.41911 0.54699-0.89288-0.39923-0.16463
   3  -5  1710595.60  498.52   1 0.62595-0.31042-0.71312 0.36770-0.31563 0.87660
  -3  -5 -18 5028.12  431.70   1-0.73494 0.41268 0.54437-0.89026-0.40435-0.19268
   3  -5  18 6453.14  392.66   1 0.64125-0.31895-0.71564 0.36953-0.27683 0.87276
  -3  -5 -19 1697.30  404.90   1-0.73388 0.40603 0.54118-0.88706-0.41053-0.21966
   3  -5  19 2366.98  296.54   1 0.65546-0.32756-0.71593 0.36982-0.24040 0.86944
  -3  -5 -20  220.44  113.24   1-0.73260 0.39917 0.53745-0.88333-0.41765-0.24571
  -3  -5 -21  135.10  102.77   1-0.73111 0.39210 0.53323-0.87911-0.42559-0.27094
   3  -5  21   62.60  121.47   1 0.67968-0.34057-0.71347 0.36735-0.17022 0.86548
  -3  -5 -22  836.33  216.93   1-0.72941 0.38481 0.52854-0.87443-0.43426-0.29543
   3  -5  22  950.08  199.23   1 0.68993-0.34522-0.71090 0.36479-0.13636 0.86472
  -3  -5 -23  142.51  102.76   1-0.72749 0.37731 0.52342-0.86930-0.44360-0.31927
   3  -5  23  114.66  130.97   1 0.69851-0.34936-0.70829 0.36234-0.10198 0.86409
   3  -6 -24   25.05  131.41   1-0.60374 0.69178 0.30468-0.71966-0.73665-0.05932
   3  -6 -23 1486.78  258.17   1-0.60235 0.69596 0.30268-0.71766-0.73861-0.02420
  -3  -6  23 1398.66  213.45   1 0.74189-0.83490-0.62122 0.20612 0.25235 0.51033
   3   6 -22  -26.62   85.68   1-0.74976 0.84855 0.61651-0.20169-0.24032-0.48914
   3  -6 -22 -141.17  131.48   1-0.60022 0.69941 0.29963-0.71461-0.74158 0.01193
  -3  -6  22  105.06  111.90   1 0.74208-0.84066-0.62889 0.21380 0.23195 0.49757
   3   6 -21 2350.21  429.95   1-0.74989 0.85428 0.62377-0.20895-0.22036-0.47595
   3  -6 -21 4039.73  595.28   1-0.59729 0.70205 0.29544-0.71042-0.74562 0.04913
  -3  -6  21 4211.55  302.63   1 0.74218-0.84659-0.63590 0.22094 0.21163 0.48421
   3   6 -20  629.11  159.59   1-0.74916 0.85947 0.63138-0.21638-0.20026-0.46311
   3  -6 -20 1016.26  229.38   1-0.59346 0.70379 0.29001-0.70499-0.75079 0.08747
  -3  -6  20  893.24  178.91   1 0.74166-0.85163-0.64306 0.22809 0.19082 0.47189
   3   6 -19   39.66   65.14   1-0.74860 0.86449 0.63816-0.22315-0.17982-0.45038
   3  -6 -19  142.74  151.05   1-0.58863 0.70454 0.28322-0.69820-0.75716 0.12701
  -3  -6  19  127.09  113.04   1 0.74076-0.85630-0.64997 0.23501 0.16968 0.45989
   3   6 -18 2227.92  461.08   1-0.74768 0.86915 0.64471-0.22970-0.15908-0.43795
   3  -6 -18 4074.96  342.83   1-0.58268 0.70416 0.27494-0.68992-0.76477 0.16779
  -3  -6  18 3585.09  236.17   1 0.73949-0.86059-0.65665 0.24169 0.14816 0.44828
   3  -6 -17   -3.75  120.39   1-0.57582 0.70262 0.26516-0.68000-0.77337 0.20954
  -3  -6  17    8.61   74.53   1 0.73779-0.86446-0.66312 0.24816 0.12614 0.43716
   3   6 -16 2499.73  439.63   1-0.74470 0.87731 0.65717-0.24216-0.11637-0.41432
   3  -6 -16 3318.49  276.70   1-0.56720 0.69959 0.25343-0.66827-0.78361 0.25295
  -3  -6  16 3128.00  231.90   1 0.73566-0.86789-0.66938 0.25442 0.10352 0.42664
   3   6 -15 1690.19  173.87   1-0.74257 0.88076 0.66310-0.24809-0.09418-0.40335
   3  -6 -15 2022.80  247.60   1-0.55696 0.69493 0.23971-0.65455-0.79518 0.29769
  -3  -6  15 2093.90  184.86   1 0.73303-0.87082-0.67545 0.26049 0.08014 0.41689
   3  -6 -14 1580.30  229.85   1-0.54489 0.68845 0.22380-0.63864-0.80808 0.34375
  -3  -6  14 1640.23  165.05   1 0.72983-0.87319-0.68134 0.26638 0.05577 0.40813
   3  -6 -13   97.69  104.11   1-0.53074 0.67988 0.20549-0.62032-0.82224 0.39108
  -3  -6  13   51.93   71.46   1 0.72659-0.87571-0.68635 0.27121 0.03131 0.39944
   3  -6 -12  482.29  158.51   1-0.51423 0.66896 0.18455-0.59939-0.83755 0.43956
  -3  -6  12  704.45   98.88   1 0.72197-0.87665-0.69190 0.27677 0.00408 0.39353
   3  -6 -11 5688.10  306.25   1-0.49506 0.65538 0.16078-0.57561-0.85385 0.48902
  -3  -6  11 5200.37  185.38   1 0.71632-0.87656-0.69730 0.28216-0.02540 0.38989
   3  -6 -10  536.41  140.96   1-0.47289 0.63880 0.13391-0.54875-0.87088 0.53926
  -3  -6  10  509.46   68.84   1 0.70928-0.87508-0.70252 0.28738-0.05805 0.38940
   3  -6  -921814.75  497.87   1-0.44745 0.61894 0.10385-0.51869-0.88825 0.58979
  -3  -6   920977.64  298.19   1 0.70026-0.87161-0.70750 0.29236-0.09523 0.39345
   3  -6  -8  860.26  152.15   1-0.41840 0.59548 0.07045-0.48528-0.90552 0.64022
  -3  -6   8  879.08   83.01   1 0.68928-0.86587-0.71110 0.29576-0.13860 0.40346
   3  -6  -714787.31  405.52   1-0.38549 0.56815 0.03365-0.44849-0.92209 0.68996
  -3  -6   713914.77  208.24   1 0.67243-0.85462-0.71467 0.29934-0.19253 0.42428
   3  -6  -6 5747.51  290.50   1-0.34894 0.53720-0.00658-0.40829-0.93711 0.73804
  -3  -6   6 5572.50  148.07   1 0.64674-0.83454-0.71588 0.30054-0.26309 0.46174
   3  -6  -5 9975.52  365.98   1-0.30784 0.50170-0.04981-0.36506-0.95013 0.78423
   3  -6  -420038.58  488.99   1-0.26269 0.46214-0.09576-0.31911-0.96011 0.82739
   3  -6  -3 6817.25  290.28   1-0.21358 0.41865-0.14451-0.27056-0.96617 0.86690
   3  -6  -2 1837.61  185.75   1-0.16153 0.37213-0.19392-0.22115-0.96762 0.90144
  -3  -6   2 1601.44   65.27   1 0.21809-0.42822-0.50891 0.09469-0.83273 0.89869
   3  -6  -1 9624.53  323.46   1-0.10820 0.32442-0.24457-0.17057-0.96357 0.93040
  -3  -6   1 8447.38  185.79   1 0.00621-0.22242-0.34315-0.07169-0.93926 0.97230
  -3  -6   0  863.83   59.38   1-0.19445-0.02723-0.16288-0.25219-0.96729 0.96729
   3  -6   0 1110.53  149.80   1-0.05160 0.27344-0.29442-0.12072-0.95428 0.95428
  -3  -6  -114884.57  267.10   1-0.35206 0.12462-0.00324-0.41162-0.93597 0.90279
   3  -6   115269.61  401.50   1 0.00569 0.22158-0.34271-0.07212-0.93942 0.97247
  -3  -6  -223943.27  385.88   1-0.46312 0.23018 0.12228-0.53711-0.87781 0.81149
   3  -6   224018.27  521.43   1 0.06285 0.16994-0.38917-0.02567-0.91901 0.98511
  -3  -6  -362931.94  836.87   1-0.54016 0.30163 0.21765-0.63248-0.81292 0.71342
   3  -6   369144.38 1072.14   1 0.11905 0.11928-0.43289 0.01805-0.89354 0.99269
  -3  -6  -4 1708.63  110.40   1-0.59234 0.34824 0.28844-0.70342-0.75227 0.61961
   3  -6   4 2411.54  214.41   1 0.17128 0.07239-0.47348 0.05882-0.86398 0.99563
  -3  -6  -5 4432.49  341.57   1-0.62875 0.37906 0.34169-0.75667-0.69850 0.53267
   3  -6   5 4818.83  265.49   1 0.22316 0.02605-0.51036 0.09569-0.83049 0.99506
  -3  -6  -6   70.11   65.35   1-0.65420 0.39894 0.38177-0.79675-0.65289 0.45389
   3  -6   6   89.30  100.73   1 0.27123-0.01679-0.54495 0.13073-0.79338 0.99127
  -3  -6  -7  172.37   41.59   1-0.67279 0.41191 0.41216-0.82718-0.61438 0.38222
   3  -6   7  197.52   99.68   1 0.31727-0.05729-0.57445 0.16023-0.75454 0.98541
  -3  -6  -8  842.89  127.56   1-0.68573 0.41927 0.43532-0.85034-0.58332 0.31800
   3  -6   8  833.51  162.02   1 0.36007-0.09455-0.60031 0.18609-0.71411 0.97797
  -3  -6  -9 1055.75  183.89   1-0.69511 0.42307 0.45306-0.86808-0.55816 0.25967
   3  -6   9  881.28  205.07   1 0.39862-0.12768-0.62377 0.20970-0.67231 0.96939
   3  -6  10   94.81  115.54   1 0.43497-0.15849-0.64298 0.22891-0.63036 0.96045
  -3  -6 -11 1985.14  488.39   1-0.70697 0.42378 0.47696-0.89198-0.52219 0.15738
   3  -6  11 2443.53  392.56   1 0.46825-0.18623-0.65925 0.24517-0.58832 0.95142
  -3  -6 -12 2032.54  355.71   1-0.71102 0.42225 0.48452-0.89958-0.50958 0.11155
   3  -6  12 2354.44  248.13   1 0.49732-0.20987-0.67363 0.25944-0.54670 0.94267
  -3  -6 -1317429.67  551.44   1-0.71360 0.41924 0.49016-0.90522-0.50051 0.06932
   3  -6  1320697.07  532.33   1 0.52500-0.23203-0.68484 0.27065-0.50532 0.93429
  -3  -6 -14 7287.32  680.84   1-0.71535 0.41541 0.49408-0.90914-0.49411 0.02975
   3  -6  14 8932.40  409.51   1 0.55019-0.25168-0.69388 0.27969-0.46454 0.92651
  -3  -6 -15 9313.86  729.64   1-0.71645 0.41093 0.49657-0.91163-0.49000-0.00752
   3  -6  1512045.00  474.98   1 0.57197-0.26755-0.70172 0.28721-0.42476 0.91973
  -3  -6 -16 3117.84  542.57   1-0.71701 0.40590 0.49785-0.91291-0.48789-0.04280
   3  -6  16 4139.91  341.89   1 0.59276-0.28278-0.70712 0.29261-0.38548 0.91345
  -3  -6 -17  435.04  116.48   1-0.71711 0.40042 0.49808-0.91314-0.48750-0.07635
   3  -6  17  275.04  142.48   1 0.61162-0.29608-0.71098 0.29647-0.34701 0.90798
  -3  -6 -18  178.92   85.57   1-0.71681 0.39454 0.49739-0.91245-0.48863-0.10839
   3  -6  18  304.57  141.42   1 0.62871-0.30761-0.71345 0.29894-0.30936 0.90333
  -3  -6 -19 1738.17  284.90   1-0.71616 0.38831 0.49590-0.91097-0.49110-0.13909
   3  -6  19 2249.14  296.50   1 0.64360-0.31570-0.71576 0.30043-0.27100 0.90004
  -3  -6 -20 1094.34  195.74   1-0.71518 0.38174 0.49369-0.90875-0.49475-0.16861
   3  -6  20 1305.06  242.57   1 0.65751-0.32400-0.71588 0.30054-0.23490 0.89704
  -3  -6 -21 1846.18  295.25   1-0.71389 0.37488 0.49081-0.90587-0.49944-0.19709
   3  -6  21 2282.22  309.72   1 0.67006-0.33094-0.71497 0.29963-0.19956 0.89481
  -3  -6 -22 2087.23  373.38   1-0.71231 0.36772 0.48733-0.90239-0.50507-0.22462
   3  -6  22 2563.13  313.17   1 0.68134-0.33663-0.71313 0.29779-0.16494 0.89330
   3  -7 -23 2094.46  348.73   1-0.57313 0.66641 0.26148-0.74545-0.77662 0.01379
   3  -7 -22    3.14  147.27   1-0.57020 0.66907 0.25750-0.74148-0.78009 0.05043
   3  -7 -21  683.91  147.99   1-0.56640 0.67086 0.25236-0.73633-0.78453 0.08804
   3  -7 -20  242.42  174.51   1-0.56164 0.67168 0.24595-0.72993-0.78997 0.12664
  -3  -7  20  -15.21   75.05   1 0.74047-0.85044-0.65175 0.16762 0.16408 0.49863
   3   7 -19   38.28   44.70   1-0.74730 0.86319 0.64679-0.16262-0.15225-0.47795
   3  -7 -19  108.95  114.13   1-0.55581 0.67144 0.23818-0.72215-0.79645 0.16629
  -3  -7  19   37.66   73.93   1 0.73893-0.85447-0.65897 0.17485 0.14040 0.48917
   3   7 -18   14.56   49.52   1-0.74572 0.86718 0.65369-0.16951-0.12880-0.46824
   3  -7 -18   36.38  113.45   1-0.54880 0.67001 0.22892-0.71290-0.80399 0.20699
  -3  -7  18  134.55  109.53   1 0.73689-0.85799-0.66596 0.18184 0.11606 0.48038
   3   7 -17  228.53   98.92   1-0.74362 0.87066 0.66035-0.17618-0.10464-0.45923
   3  -7 -17  427.01  164.97   1-0.54048 0.66727 0.21805-0.70202-0.81260 0.24878
  -3  -7  17  446.92  116.18   1 0.73429-0.86096-0.67271 0.18859 0.09089 0.47241
   3  -7 -16  866.40  161.63   1-0.53069 0.66307 0.20543-0.68940-0.82229 0.29162
  -3  -7  16  669.30  123.26   1 0.73106-0.86329-0.67923 0.19511 0.06471 0.46546
   3  -7 -15  567.77  173.10   1-0.51927 0.65724 0.19090-0.67487-0.83301 0.33551
  -3  -7  15  276.63  101.21   1 0.72770-0.86571-0.68481 0.20049 0.03839 0.45862
   3  -7 -14 1662.10  271.68   1-0.50602 0.64958 0.17431-0.65828-0.84472 0.38039
  -3  -7  14 1253.11  138.85   1 0.72292-0.86649-0.69085 0.20653 0.00944 0.45444
   3  -7 -13  720.68  174.12   1-0.49074 0.63989 0.15550-0.63947-0.85731 0.42614
  -3  -7  13  449.10   85.38   1 0.71710-0.86623-0.69663 0.21230-0.02153 0.45229
   3  -7 -12 3199.49  272.65   1-0.47319 0.62793 0.13427-0.61825-0.87066 0.47271
  -3  -7  12 2684.53  161.26   1 0.70995-0.86463-0.70208 0.21776-0.05513 0.45275
   3  -7 -11 6769.85  352.48   1-0.45318 0.61350 0.11055-0.59453-0.88453 0.51975
  -3  -7  11 6074.55  217.78   1 0.70105-0.86129-0.70712 0.22280-0.09217 0.45665
   3  -7 -10 5316.09  699.19   1-0.43044 0.59635 0.08418-0.56815-0.89868 0.56706
  -3  -7  10 4846.31  185.90   1 0.69071-0.85609-0.71066 0.22610-0.13366 0.46473
   3  -7  -9 7555.93  385.86   1-0.40475 0.57625 0.05506-0.53903-0.91276 0.61430
  -3  -7   9 6723.76  212.75   1 0.67613-0.84712-0.71412 0.22955-0.18129 0.47925
   3  -7  -811844.84  415.69   1-0.37636 0.55343 0.02305-0.50707-0.92618 0.66075
   3  -7  -7 2893.29  269.89   1-0.34422 0.52688-0.01162-0.47239-0.93881 0.70655
   3  -7  -6  246.47  162.50   1-0.30869 0.49695-0.04893-0.43508-0.94990 0.75082
   3  -7  -511945.40  392.86   1-0.26976 0.46361-0.08866-0.39535-0.95883 0.79293
   3  -7  -4 5878.32  288.30   1-0.22727 0.42679-0.13122-0.35303-0.96494 0.83259
   3  -7  -3 2166.73  210.57   1-0.18220 0.38726-0.17451-0.30974-0.96764 0.86838
   3  -7  -2 1734.17  179.02   1-0.13605 0.34663-0.21932-0.26501-0.96612 0.89978
   3  -7  -1 8213.75  327.11   1-0.08614 0.30236-0.26423-0.22009-0.96060 0.92743
  -3  -7   1 7163.94  153.24   1 0.04468-0.26089-0.37461-0.10936-0.92610 0.95915
  -3  -7   0 6789.31  162.73   1-0.11084-0.11099-0.24220-0.24213-0.96387 0.96387
   3  -7   0 7328.62  301.72   1-0.03475 0.25659-0.30889-0.17544-0.95046 0.95046
  -3  -7  -116541.23  249.30   1-0.24119 0.01396-0.11757-0.36668-0.96332 0.93023
   3  -7   117336.66  419.95   1 0.01725 0.21001-0.35227-0.13170-0.93573 0.96878
  -3  -7  -2  646.18   83.60   1-0.34958 0.11655-0.00590-0.47811-0.93688 0.87052
   3  -7   2  734.05  146.81   1 0.06932 0.16348-0.39430-0.08968-0.91636 0.98246
  -3  -7  -3 1239.87  218.37   1-0.43263 0.19410 0.08670-0.57067-0.89738 0.79790
   3  -7   3 1157.09  160.23   1 0.12079 0.11754-0.43422-0.04976-0.89267 0.99182
  -3  -7  -4    6.66   27.88   1-0.49638 0.25226 0.16239-0.64637-0.85277 0.72011
   3  -7   4  261.38  147.15   1 0.16880 0.07487-0.47167-0.01209-0.86546 0.99711
  -3  -7  -511684.32  266.18   1-0.54437 0.29466 0.22312-0.70709-0.80862 0.64279
   3  -7   512931.89  399.79   1 0.21711 0.03209-0.50615 0.02238-0.83466 0.99923
  -3  -7  -6  953.90  119.78   1-0.58050 0.32521 0.27160-0.75558-0.76761 0.56862
   3  -7   6  893.20  172.15   1 0.26212-0.00768-0.53892 0.05566-0.80053 0.99841
  -3  -7  -7 4079.84  212.56   1-0.60740 0.34657 0.30997-0.79412-0.73141 0.49925
   3  -7   7 5138.97  321.72   1 0.30595-0.04597-0.56735 0.08410-0.76452 0.99539
  -3  -7  -855982.42  666.31   1-0.62822 0.36182 0.34089-0.82503-0.69937 0.43404
   3  -7   867519.15  941.60   1 0.34715-0.08163-0.59267 0.10942-0.72678 0.99063
  -3  -7  -9   45.24   55.42   1-0.64415 0.37217 0.36561-0.84975-0.67185 0.37336
   3  -7   9  212.84  110.34   1 0.38457-0.11362-0.61597 0.13289-0.68751 0.98459
  -3  -7 -1014805.14  402.47   1-0.65691 0.37930 0.38529-0.86948-0.64808 0.31643
   3  -7  1016434.65  511.86   1 0.42035-0.14387-0.63543 0.15234-0.64770 0.97779
  -3  -7 -1111440.72  374.95   1-0.66632 0.38313 0.40102-0.88521-0.62864 0.26382
   3  -7  1113428.82  445.95   1 0.45346-0.17144-0.65218 0.16910-0.60747 0.97057
  -3  -7 -12   76.60   95.13   1-0.67356 0.38480 0.41350-0.89769-0.61263 0.21465
   3  -7  12  540.98  180.48   1 0.48261-0.19516-0.66719 0.18397-0.56739 0.96336
  -3  -7 -13 3933.57  273.35   1-0.67911 0.38476 0.42330-0.90749-0.59968 0.16853
   3  -7  13 4642.27  337.89   1 0.51067-0.21769-0.67919 0.19596-0.52717 0.95614
  -3  -7 -14  514.09  142.30   1-0.68330 0.38338 0.43088-0.91507-0.58943 0.12512
   3  -7  14  704.53  201.76   1 0.53641-0.23790-0.68908 0.20586-0.48725 0.94922
  -3  -7 -15  455.09  162.04   1-0.68641 0.38091 0.43658-0.92077-0.58157 0.08410
   3  -7  15  478.92  153.09   1 0.55998-0.25595-0.69707 0.21384-0.44777 0.94273
  -3  -7 -16  267.36  117.30   1-0.68862 0.37754 0.44069-0.92488-0.57583 0.04519
   3  -7  16  201.53  121.18   1 0.58041-0.27043-0.70404 0.22045-0.40918 0.93715
  -3  -7 -17  626.87  159.87   1-0.69007 0.37342 0.44343-0.92762-0.57197 0.00817
   3  -7  17  915.55  245.85   1 0.60010-0.28456-0.70875 0.22515-0.37087 0.93184
  -3  -7 -18  369.39  146.76   1-0.69089 0.36866 0.44497-0.92916-0.56979-0.02717
   3  -7  18  141.72  113.58   1 0.61804-0.29695-0.71203 0.22844-0.33319 0.92716
  -3  -7 -19    8.96  108.79   1-0.69115 0.36334 0.44546-0.92965-0.56909-0.06103
   3  -7  19   50.87  116.64   1 0.63438-0.30772-0.71402 0.23042-0.29618 0.92315
  -3  -7 -20  292.28  156.26   1-0.69091 0.35753 0.44501-0.92920-0.56973-0.09355
   3  -7  20  365.13  177.42   1 0.64864-0.31513-0.71593 0.23137-0.25826 0.92041
  -3  -7 -21   41.99  116.63   1-0.69022 0.35127 0.44371-0.92790-0.57157-0.12488
   3  -7  21  252.77  151.91   1 0.66202-0.32291-0.71568 0.23112-0.22252 0.91777
   3  -8 -22  738.76  273.48   1-0.53714 0.63600 0.21372-0.76684-0.81596 0.08630
   3  -8 -21    1.09  151.09   1-0.53249 0.63695 0.20774-0.76085-0.82054 0.12404
   3  -8 -20 1264.31  262.68   1-0.52683 0.63687 0.20049-0.75361-0.82598 0.16265
   3  -8 -19  989.10  242.12   1-0.52006 0.63568 0.19189-0.74501-0.83229 0.20213
   3  -8 -18  336.97  149.49   1-0.51206 0.63327 0.18184-0.73495-0.83947 0.24248
   3  -8 -17  -37.86  109.35   1-0.50272 0.62952 0.17022-0.72333-0.84751 0.28369
   3  -8 -16  272.25  137.50   1-0.49191 0.62429 0.15692-0.71003-0.85638 0.32572
   3  -8 -15  -41.73  109.72   1-0.47945 0.61743 0.14180-0.69491-0.86603 0.36860
   3  -8 -14 1015.15  235.14   1-0.46524 0.60880 0.12478-0.67790-0.87634 0.41207
   3  -8 -13  959.70  220.05   1-0.44907 0.59822 0.10574-0.65885-0.88721 0.45610
   3  -8 -12  654.86  159.23   1-0.43077 0.58551 0.08456-0.63767-0.89848 0.50054
   3  -8 -11  151.80   86.48   1-0.41017 0.57049 0.06114-0.61426-0.90995 0.54517
   3  -8 -10 1833.78  220.59   1-0.38710 0.55300 0.03543-0.58855-0.92135 0.58973
   3  -8  -9  345.68  126.61   1-0.36186 0.53333 0.00729-0.56046-0.93220 0.63358
   3  -8  -8 8765.95  373.92   1-0.33341 0.51048-0.02307-0.53008-0.94249 0.67706
   3  -8  -7   45.25  108.01   1-0.30213 0.48479-0.05570-0.49745-0.95163 0.71938
   3  -8  -6 6584.27  342.40   1-0.26798 0.45624-0.09045-0.46271-0.95916 0.76009
   3  -8  -5  372.89  180.26   1-0.23064 0.42462-0.12792-0.42551-0.96459 0.79914
   3  -8  -4 6515.32  338.19   1-0.19112 0.39065-0.16605-0.38738-0.96741 0.83505
   3  -8  -320258.77  548.01   1-0.14917 0.35423-0.20539-0.34804-0.96724 0.86797
   3  -8  -2 2788.36  279.50   1-0.10669 0.31728-0.24592-0.30759-0.96339 0.89706
   3  -8  -113825.62  473.64   1-0.06081 0.27703-0.28644-0.26708-0.95616 0.92299
   3  -8   0 2118.76  226.77   1-0.01370 0.23554-0.32671-0.22681-0.94502 0.94502
  -3  -8  -1 5996.34  196.55   1-0.15307-0.07440-0.20364-0.34987-0.96700 0.93383
   3  -8   1 6268.35  306.83   1 0.03389 0.19337-0.36588-0.18723-0.93004 0.96309
  -3  -8  -2  290.56   75.53   1-0.24903 0.01626-0.10982-0.44361-0.96224 0.89606
   3  -8   2  480.28  157.78   1 0.08165 0.15114-0.40401-0.14910-0.91110 0.97720
  -3  -8  -3 7320.24  224.15   1-0.33268 0.09405-0.02385-0.52931-0.94273 0.84319
   3  -8   3 8648.21  365.97   1 0.12696 0.11117-0.44057-0.11230-0.88869 0.98743
  -3  -8  -4  324.94   86.21   1-0.39991 0.15580 0.04965-0.60276-0.91520 0.78255
  -3  -8  -5 2405.76  163.76   1-0.45472 0.20502 0.11236-0.66548-0.88351 0.71770
   3  -8   5 2285.42  216.97   1 0.21824 0.03097-0.50694-0.04593-0.83389 0.99846
  -3  -8  -6 5182.55  451.65   1-0.49849 0.24320 0.16499-0.71811-0.85104 0.65204
   3  -8   6 5354.67  311.80   1 0.26024-0.00580-0.53767-0.01462-0.80198 0.99987
  -3  -8  -7 5995.15  254.10   1-0.53333 0.27245 0.20881-0.76193-0.81972 0.58756
   3  -8   7 6277.21  337.67   1 0.30172-0.04174-0.56467 0.01238-0.76818 0.99905
  -3  -8  -8 5573.71  760.69   1-0.56106 0.29459 0.24517-0.79829-0.79063 0.52529
   3  -8   8 5959.08  379.27   1 0.34106-0.07554-0.58902 0.03673-0.73261 0.99646
  -3  -8  -9 8336.21  317.66   1-0.58271 0.31073 0.27497-0.82828-0.76474 0.46625
   3  -8   9 9100.78  418.46   1 0.37699-0.10605-0.61169 0.05959-0.69549 0.99257
  -3  -8 -10 1809.19  346.05   1-0.60039 0.32284 0.29988-0.85318-0.74134 0.40968
   3  -8  10 2618.00  320.46   1 0.41178-0.13530-0.63089 0.07879-0.65757 0.98766
  -3  -8 -11   75.80   47.86   1-0.61453 0.33141 0.32041-0.87371-0.72088 0.35606
   3  -8  11   42.77   95.21   1 0.44425-0.16223-0.64765 0.09555-0.61901 0.98211
  -3  -8 -12  256.32  113.50   1-0.62584 0.33714 0.33728-0.89059-0.70324 0.30525
   3  -8  12  429.67  153.07   1 0.47302-0.18558-0.66284 0.11058-0.58041 0.97638
  -3  -8 -13   96.01   98.91   1-0.63486 0.34058 0.35107-0.90437-0.68825 0.25710
   3  -8  13  141.18  123.45   1 0.50100-0.20802-0.67519 0.12293-0.54139 0.97036
  -3  -8 -14  258.64  144.68   1-0.64202 0.34217 0.36224-0.91554-0.67571 0.21139
   3  -8  14  283.52  121.00   1 0.52685-0.22834-0.68554 0.13328-0.50244 0.96441
  -3  -8 -15  936.23  164.45   1-0.64764 0.34222 0.37118-0.92448-0.66541 0.16792
   3  -8  15 1123.89  227.85   1 0.55069-0.24665-0.69405 0.14180-0.46371 0.95867
  -3  -8 -16  955.55  152.28   1-0.65200 0.34101 0.37820-0.93150-0.65715 0.12649
   3  -8  16 1295.01  234.77   1 0.57147-0.26149-0.70157 0.14889-0.42567 0.95364
  -3  -8 -17  258.64  123.24   1-0.65576 0.33911 0.38339-0.93675-0.65037 0.08657
   3  -8  17   53.41  124.25   1 0.59163-0.27609-0.70686 0.15417-0.38771 0.94868
  -3  -8 -18   32.28  100.82   1-0.65812 0.33589 0.38728-0.94063-0.64566 0.04870
   3  -8  18   97.70  156.21   1 0.61010-0.28900-0.71071 0.15803-0.35022 0.94419
  -3  -8 -19  255.74  160.41   1-0.65969 0.33188 0.38987-0.94323-0.64249 0.01236
   3  -8  19  538.68  179.31   1 0.62701-0.30035-0.71325 0.16057-0.31324 0.94021
   3  -9 -20 1453.00  296.01   1-0.48949 0.59953 0.15398-0.77623-0.85830 0.19497
   3  -9 -19  323.95  154.96   1-0.48184 0.59747 0.14468-0.76693-0.86422 0.23415
   3  -9 -18  108.24  137.85   1-0.47296 0.59418 0.13399-0.75625-0.87083 0.27391
   3  -9 -17   85.09  123.49   1-0.46273 0.58953 0.12181-0.74407-0.87808 0.31433
   3  -9 -16  444.92  185.50   1-0.45103 0.58342 0.10804-0.73030-0.88593 0.35534
   3  -9 -15 1288.62  241.64   1-0.43775 0.57573 0.09260-0.71485-0.89431 0.39688
   3  -9 -14 2009.01  240.26   1-0.42275 0.56631 0.07539-0.69764-0.90310 0.43883
   3  -9 -13  872.86  216.60   1-0.40589 0.55504 0.05634-0.67859-0.91218 0.48107
   3  -9 -12 4223.79  353.35   1-0.38705 0.54178 0.03538-0.65763-0.92137 0.52343
   3  -9 -11  147.77  181.16   1-0.36656 0.52683 0.01238-0.63469-0.93031 0.56533
   3  -9 -10  208.23  183.85   1-0.34336 0.50924-0.01253-0.60977-0.93911 0.60732
   3  -9  -9 7751.05  413.17   1-0.31783 0.48930-0.03942-0.58288-0.94732 0.64871
   3  -9  -8 1154.40  238.75   1-0.28989 0.46696-0.06826-0.55404-0.95462 0.68918
   3  -9  -7 5790.31  336.62   1-0.25897 0.44187-0.09993-0.52268-0.96070 0.72907
   3  -9  -6 1349.66  182.98   1-0.22624 0.41468-0.13222-0.49039-0.96505 0.76651
   3  -9  -5 7952.58  353.61   1-0.19118 0.38516-0.16600-0.45661-0.96741 0.80196
   3  -9  -4  518.75  145.87   1-0.15391 0.35343-0.20101-0.42160-0.96742 0.83506
   3  -9  -3  687.39  156.95   1-0.11636 0.32132-0.23722-0.38549-0.96446 0.86495
   3  -9  -2  654.78  178.19   1-0.07527 0.28586-0.27381-0.34890-0.95883 0.89249
   3  -9  -1   97.84  102.82   1-0.03278 0.24900-0.31056-0.31215-0.94998 0.91681
   3  -9   0 2164.59  214.71   1 0.01066 0.21107-0.34683-0.27542-0.93786 0.93786
   3  -9   1  138.47   82.57   1 0.05457 0.17269-0.38256-0.23969-0.92231 0.95536
   3  -9   2 1381.78  263.15   1 0.09865 0.13415-0.41724-0.20501-0.90342 0.96952
   3  -9   3 1657.52  213.60   1 0.14034 0.09779-0.45064-0.17134-0.88160 0.98034
  -3  -9  -4    9.94   55.92   1-0.30787 0.06365-0.04977-0.57253-0.95012 0.81740
   3  -9   4   93.89  102.77   1 0.18329 0.06038-0.48218-0.13980-0.85667 0.98833
  -3  -9  -5  583.51  103.04   1-0.36575 0.11593 0.01150-0.63382-0.93063 0.76474
   3  -9   5  757.78  170.41   1 0.22524 0.02397-0.51179-0.11019-0.82905 0.99362
  -3  -9  -6 3478.26  223.39   1-0.41332 0.15803 0.06469-0.68695-0.90828 0.70931
   3  -9   6 3820.28  279.36   1 0.26437-0.00993-0.54041-0.08090-0.79878 0.99667
  -3  -9  -7 1853.05  155.45   1-0.45348 0.19261 0.11091-0.73316-0.88433 0.65220
   3  -9   7 2359.59  269.21   1 0.30351-0.04353-0.56581-0.05551-0.76663 0.99750
  -3  -9  -8 6032.93  274.71   1-0.48668 0.22022 0.15054-0.77280-0.86050 0.59521
   3  -9   8 6909.10  413.97   1 0.34089-0.07537-0.58892-0.03240-0.73277 0.99662
  -3  -9  -9 4580.78  241.45   1-0.51411 0.24206 0.18441-0.80666-0.83766 0.53916
   3  -9   9 5281.58  356.10   1 0.37514-0.10419-0.61063-0.01047-0.69741 0.99450
  -3  -9 -10  502.14  153.20   1-0.53669 0.25906 0.21315-0.83541-0.81640 0.48474
   3  -9  10  435.91  173.88   1 0.40867-0.13219-0.62922 0.00811-0.66109 0.99119
  -3  -9 -11   78.46   90.69   1-0.55530 0.27208 0.23750-0.85976-0.79701 0.43218
   3  -9  11  -66.98  120.07   1 0.44020-0.15818-0.64563 0.02451-0.62400 0.98710
  -3  -9 -12   72.52   81.32   1-0.57061 0.28180 0.25806-0.88031-0.77961 0.38161
   3  -9  12  219.74  168.43   1 0.46971-0.18215-0.65993 0.03882-0.58639 0.98250
  -3  -9 -13  713.31  175.74   1-0.58276 0.28849 0.27504-0.89751-0.76467 0.33352
   3  -9  13 1177.30  245.71   1 0.49580-0.20282-0.67298 0.05169-0.54888 0.97784
  -3  -9 -14  632.71  167.98   1-0.59308 0.29323 0.28948-0.91195-0.75129 0.28697
   3  -9  14  762.66  185.79   1 0.52141-0.22291-0.68345 0.06217-0.51088 0.97285
  -3  -9 -15   44.62   65.92   1-0.60148 0.29606 0.30144-0.92391-0.73982 0.24233
   3  -9  15  146.29  113.89   1 0.54517-0.24113-0.69218 0.07089-0.47293 0.96789
  -3  -9 -16   15.45   90.45   1-0.60827 0.29728 0.31124-0.93371-0.73015 0.19950
   3  -9  16   32.03  105.60   1 0.56599-0.25601-0.69997 0.07820-0.43553 0.96350
  -3  -9 -17  376.83  132.81   1-0.61368 0.29711 0.31915-0.94161-0.72217 0.15835
   3  -9  17  587.03  181.99   1 0.58630-0.27076-0.70556 0.08380-0.39801 0.95898
  -3  -9 -18   13.53  103.11   1-0.61789 0.29575 0.32538-0.94784-0.71577 0.11878
   3  -9  18  332.43  169.94   1 0.60501-0.28391-0.70975 0.08799-0.36083 0.95480
   3 -10 -18  137.05  137.26   1-0.43166 0.55288 0.08558-0.77697-0.89796 0.30104
   3 -10 -17   94.60  127.07   1-0.42066 0.54747 0.07301-0.76441-0.90427 0.34051
   3 -10 -16  -12.26  145.48   1-0.40823 0.54062 0.05896-0.75035-0.91097 0.38037
   3 -10 -13 -109.55  137.40   1-0.36177 0.51085 0.00719-0.69865-0.93223 0.50090
   3 -10 -12  171.59  184.40   1-0.34257 0.49725-0.01337-0.67808-0.93939 0.54124
   3 -10 -11  551.46  165.95   1-0.32143 0.48171-0.03566-0.65578-0.94625 0.58128
   3 -10 -10  701.49  237.83   1-0.29827 0.46415-0.05967-0.63178-0.95261 0.62081
   3 -10  -9  431.14  160.56   1-0.27303 0.44451-0.08536-0.60609-0.95820 0.65959
   3 -10  -8  167.22  139.03   1-0.24511 0.42246-0.11370-0.57809-0.96280 0.69808
   3 -10  -7 1166.31  226.53   1-0.21572 0.39862-0.14244-0.54935-0.96600 0.73438
   3 -10  -6   43.46  119.90   1-0.18427 0.37271-0.17255-0.51924-0.96760 0.76907
   3 -10  -5  -37.22  117.78   1-0.15085 0.34483-0.20383-0.48795-0.96731 0.80186
   3 -10  -4  107.05  118.21   1-0.11743 0.31676-0.23625-0.45564-0.96456 0.83189
   3 -10  -3 4372.66  311.23   1-0.08043 0.28539-0.26927-0.42263-0.95969 0.86019
   3 -10  -2  211.40  155.21   1-0.04201 0.25260-0.30267-0.38922-0.95216 0.88582
   3 -10  -1 3364.07  274.97   1-0.00235 0.21857-0.33601-0.35538-0.94185 0.90880
   3 -10   0  -72.19   98.44   1 0.03787 0.18386-0.36911-0.32229-0.92861 0.92861
   3 -10   1 2094.74  229.11   1 0.07860 0.14866-0.40162-0.28978-0.91242 0.94547
   3 -10   2  402.11  166.83   1 0.11948 0.11331-0.43322-0.25817-0.89332 0.95942
   3 -10   3  243.24  163.07   1 0.15799 0.08015-0.46374-0.22735-0.87176 0.97050
   3 -10   4  479.87  168.96   1 0.19796 0.04571-0.49267-0.19842-0.84739 0.97905
   3 -10   5  934.22  204.67   1 0.23713 0.01207-0.51997-0.17112-0.82060 0.98517
   3 -10   6 1085.39  216.71   1 0.27357-0.01913-0.54649-0.14387-0.79152 0.98941
   3 -10   7  520.62  174.32   1 0.31044-0.05046-0.57018-0.12017-0.76059 0.99146
   3 -10   8 5064.49  389.38   1 0.34585-0.08033-0.59189-0.09846-0.72803 0.99189
   3 -10   9 8086.21  458.90   1 0.37833-0.10738-0.61245-0.07767-0.69409 0.99117
   3 -10  10 6149.72  847.10   1 0.41046-0.13398-0.63018-0.05993-0.65907 0.98916
   3 -10  11  276.53  156.18   1 0.44084-0.15882-0.64595-0.04417-0.62321 0.98631
   3 -10  12    2.84   98.68   1 0.46945-0.18189-0.65981-0.03031-0.58674 0.98285
   3 -10  13  144.16   97.67   1 0.49481-0.20184-0.67255-0.01775-0.55028 0.97925
   3 -10  14 1185.63  251.06   1 0.51992-0.22141-0.68287-0.00744-0.51318 0.97515
   3 -10  15 2181.97  305.83   1 0.54333-0.23929-0.69154 0.00122-0.47598 0.97094
   3 -11 -15 1494.25  300.99   1-0.34954 0.48743-0.00594-0.75465-0.93690 0.43921
   3 -11 -13   76.12  119.14   1-0.31579 0.46487-0.04155-0.71904-0.94791 0.51658
   3 -11 -12  249.83  106.07   1-0.29639 0.45107-0.06161-0.69899-0.95307 0.55492
   3 -11 -11 3371.22  351.63   1-0.27522 0.43549-0.08316-0.67743-0.95777 0.59280
   3 -11 -10   31.66  115.02   1-0.25156 0.41783-0.10730-0.65366-0.96187 0.63097
   3 -11  -9  140.11  115.47   1-0.22677 0.39858-0.13170-0.62926-0.96500 0.66719
   3 -11  -8  225.67  119.02   1-0.20014 0.37749-0.15744-0.60352-0.96703 0.70231
   3 -11  -7   48.67  110.76   1-0.17169 0.35458-0.18442-0.57655-0.96773 0.73610
   3 -11  -6  453.84  177.94   1-0.14147 0.32990-0.21249-0.54848-0.96686 0.76832
   3 -11  -5  923.21  245.58   1-0.11151 0.30521-0.24160-0.51949-0.96394 0.79810
   3 -11  -4  322.91  169.35   1-0.07800 0.27733-0.27141-0.48967-0.95929 0.82662
   3 -11  -3 2328.87  301.46   1-0.04310 0.24806-0.30173-0.45935-0.95241 0.85290
   3 -11  -2 1084.53  202.43   1-0.00685 0.21754-0.33225-0.42829-0.94316 0.87706
   3 -11  -1  123.45  187.49   1 0.03000 0.18620-0.36271-0.39782-0.93141 0.89836
   3 -11   0  269.98  161.41   1 0.06755 0.15418-0.39290-0.36764-0.91709 0.91709
   3 -11   1  277.79  132.93   1 0.10550 0.12176-0.42253-0.33800-0.90018 0.93323
   3 -11   2  792.28  187.00   1 0.14151 0.09108-0.45152-0.30868-0.88096 0.94679
   3 -11   3   83.25  104.09   1 0.17924 0.05889-0.47926-0.28094-0.85917 0.95791
   3 -11   4  259.95  147.72   1 0.21655 0.02712-0.50576-0.25444-0.83504 0.96670
   3 -11   5  414.49  178.27   1 0.25129-0.00239-0.53167-0.22773-0.80881 0.97372
   3 -11   6   13.48   94.22   1 0.28709-0.03265-0.55530-0.20409-0.78051 0.97840
   3 -11   7  965.74  194.40   1 0.32181-0.06183-0.57727-0.18212-0.75045 0.98132
   3 -11   8  206.99  146.94   1 0.35528-0.08976-0.59750-0.16189-0.71886 0.98271
   3 -11   9  151.25  120.08   1 0.38597-0.11502-0.61676-0.14237-0.68602 0.98310
   3 -11  10  580.11  167.29   1 0.41662-0.14014-0.63346-0.12567-0.65203 0.98212
   3 -11  11  566.66  140.68   1 0.44573-0.16371-0.64839-0.11074-0.61717 0.98027
   3 -11  12 1033.55  209.53   1 0.47178-0.18433-0.66226-0.09708-0.58208 0.97805
   3 -11  13  187.26  119.62   1 0.49774-0.20477-0.67381-0.08553-0.54609 0.97506
   3 -12 -11  140.14  133.68   1-0.22716 0.38789-0.13132-0.69883-0.96496 0.60097
   3 -12 -10 2410.22  321.27   1-0.20449 0.37076-0.15327-0.67688-0.96679 0.63589
   3 -12  -8  877.49  195.71   1-0.15425 0.33160-0.20069-0.62946-0.96743 0.70271
   3 -12  -7   66.29  115.23   1-0.12880 0.31125-0.22594-0.60434-0.96558 0.73340
   3 -12  -6   39.58  113.92   1-0.09971 0.28779-0.25217-0.57811-0.96253 0.76351
   3 -12  -5   44.97  121.78   1-0.06919 0.26289-0.27914-0.55114-0.95775 0.79191
   3 -12  -4   -2.72  114.35   1-0.03735 0.23668-0.30666-0.52362-0.95108 0.81841
   3 -12  -3  720.96  203.21   1-0.00413 0.20928-0.33453-0.49514-0.94237 0.84322
   3 -12  -2  -15.58  106.22   1 0.02970 0.18098-0.36247-0.46721-0.93152 0.86542
   3 -12  -1  962.25  186.40   1 0.06431 0.15190-0.39032-0.43935-0.91842 0.88537
   3 -12   0  140.72  138.34   1 0.09947 0.12226-0.41788-0.41179-0.90303 0.90303
   3 -12   1 1078.44  197.49   1 0.13299 0.09407-0.44513-0.38419-0.88553 0.91844
   3 -12   2   86.96  133.64   1 0.16839 0.06421-0.47137-0.35794-0.86570 0.93153
   3 -12   3 1003.07  220.41   1 0.20365 0.03449-0.49670-0.33261-0.84368 0.94243
   3 -12   4   85.13   95.26   1 0.23854 0.00513-0.52093-0.30838-0.81959 0.95124
   3 -12   5  232.25  151.30   1 0.27079-0.02189-0.54466-0.28377-0.79373 0.95864
   3 -12   6  432.76  172.56   1 0.30440-0.04996-0.56637-0.26205-0.76586 0.96375
   3 -12   7   94.33  106.09   1 0.33707-0.07709-0.58661-0.24181-0.73638 0.96725
   3 -12   8  488.01  159.37   1 0.36715-0.10174-0.60604-0.22210-0.70562 0.96969
   3 -12   9  610.02  163.42   1 0.39757-0.12663-0.62319-0.20494-0.67346 0.97054
   4   0 -27   -3.98  124.47   1-0.69027 0.83550 0.44380-0.44380-0.57145-0.32399
   4   0 -26  -31.36  116.83   1-0.69249 0.84329 0.44802-0.44802-0.56543-0.29684
   4   0 -25   10.29  117.61   1-0.69436 0.85074 0.45161-0.45161-0.56026-0.26885
   4   0 -24 3564.08  362.94   1-0.69586 0.85781 0.45452-0.45452-0.55604-0.23991
   4   0 -23  -71.30   98.67   1-0.69697 0.86450 0.45668-0.45668-0.55286-0.20992
   4   0 -22  447.72  124.40   1-0.69766 0.87077 0.45804-0.45804-0.55087-0.17875
   4   0 -21 -136.24  116.22   1-0.69789 0.87657 0.45849-0.45849-0.55020-0.14625
   4   0 -2011038.25  440.08   1-0.69760 0.88186 0.45793-0.45793-0.55103-0.11226
   4   0 -19 -369.24  191.69   1-0.69673 0.88656 0.45621-0.45621-0.55356-0.07656
   4   0 -18 3093.76  361.51   1-0.69516 0.89057 0.45315-0.45315-0.55802-0.03893
   4   0 -17  209.15  158.33   1-0.69276 0.89376 0.44854-0.44854-0.56469 0.00089
   4   0 -1614647.82  410.15   1-0.68936 0.89593 0.44208-0.44208-0.57388 0.04324
   4   0 -15 -174.98  103.67   1-0.68469 0.89683 0.43341-0.43341-0.58595 0.08848
   4   0 -14  209.77   78.95   1-0.67842 0.89614 0.42207-0.42207-0.60132 0.13701
   4   0 -13  -51.38   70.29   1-0.67008 0.89338 0.40746-0.40746-0.62045 0.18930
   4   0 -1223163.90  473.27   1-0.65904 0.88791 0.38880-0.38880-0.64381 0.24583
   4   0 -11   -0.54   53.01   1-0.64422 0.87866 0.36573-0.36573-0.67172 0.30689
   4   0 -10 1242.30  112.65   1-0.62484 0.86485 0.33577-0.33577-0.70485 0.37319
   4   0  -9   18.04   22.11   1-0.59908 0.84466 0.29799-0.29799-0.74316 0.44467
   4   0  -8 4161.84  172.79   1-0.56513 0.81613 0.25064-0.25064-0.78600 0.52067
   4   0  -7   40.77   69.06   1-0.51988 0.77647 0.19167-0.19167-0.83245 0.60028
   4   0  -631374.50  429.25   1-0.46081 0.72299 0.11954-0.11954-0.87940 0.68043
   4   0  -5  375.80  132.73   1-0.38571 0.65348 0.03391-0.03391-0.92199 0.75618
   4   0  -4  581.22   74.41   1-0.29402 0.56742-0.06404 0.06404-0.95365 0.82093
   4   0  -3  -67.22   53.81   1-0.18715 0.46611-0.16982 0.16982-0.96753 0.86826
   4   0  -2 6376.91  177.51   1-0.07347 0.35800-0.27539 0.27539-0.95851 0.89218
   4   0  -1  -28.63   53.39   1 0.04130 0.24882-0.37189 0.37189-0.92735 0.89430
   4   0   0206470.8  845.99   1 0.14768 0.14768-0.45612 0.45612-0.87757 0.87757
   4   0   1  -14.58   50.15   1 0.24165 0.05925-0.52305 0.52305-0.81732 0.85023
   4   0   2 4393.19  160.67   1 0.32187-0.01584-0.57730 0.57730-0.75040 0.81637
   4   0   3   14.83   61.14   1 0.38868-0.07726-0.61827 0.61827-0.68312 0.78215
   4   0   450144.61  610.72   1 0.44398-0.12702-0.64752 0.64752-0.61934 0.75138
   4   0   5  579.45  185.71   1 0.48912-0.16667-0.67008 0.67008-0.55834 0.72332
   4   0   6263395.2 1681.72   1 0.52695-0.19898-0.68558 0.68558-0.50228 0.70027
   4   0   8  -33.33   81.29   1 0.58461-0.24544-0.70514 0.70514-0.40124 0.66522
   4   0   9  156.91  125.20   1 0.60721-0.26248-0.71018 0.71018-0.35627 0.65325
   4   0  1019347.69  469.95   1 0.62657-0.27628-0.71320 0.71320-0.31422 0.64420
   4   0  11   -3.38   92.70   1 0.64281-0.28594-0.71573 0.71573-0.27297 0.63715
   4   0  12 3297.00  252.74   1 0.65723-0.29475-0.71589 0.71589-0.23565 0.63293
   4   0  13  133.85  109.40   1 0.66982-0.30173-0.71500 0.71500-0.20025 0.63065
   4   0  14 4142.87  300.25   1 0.68085-0.30716-0.71323 0.71323-0.16653 0.63003
   4   0  15  -67.32  132.68   1 0.69054-0.31125-0.71071 0.71071-0.13426 0.63087
   4   0  16 9783.72  422.68   1 0.69855-0.31450-0.70827 0.70827-0.10184 0.63200
   4   0  17  167.78  173.79   1 0.70604-0.31644-0.70450 0.70450-0.07194 0.63524
   4   0  1818094.48  580.65   1 0.71263-0.31747-0.70021 0.70021-0.04302 0.63945
   4   0  19 -106.19  151.50   1 0.71840-0.31769-0.69546 0.69546-0.01494 0.64451
   4   0  20 9089.83  484.09   1 0.72344-0.31717-0.69027 0.69027 0.01237 0.65032
   4   0  21  -10.52  140.88   1 0.72779-0.31597-0.68467 0.68467 0.03904 0.65679
   4   0  22  141.21  141.83   1 0.73114-0.31373-0.67908 0.67908 0.06535 0.66363
  -4   0 -23  363.69  216.63   1-0.74180 0.31779 0.66495-0.66495-0.08698-0.67590
   4   0  23   70.32  137.63   1 0.73429-0.31131-0.67271 0.67271 0.09090 0.67121
  -4   0 -24  251.27  155.30   1-0.74433 0.31475 0.65829-0.65829-0.11226-0.68379
   4   0  24  270.73  188.59   1 0.73689-0.30835-0.66598 0.66598 0.11600 0.67925
   4  -1 -27  -27.95  120.21   1-0.67711 0.82234 0.41975-0.48892-0.60441-0.29103
   4   1 -27  194.87  134.41   1-0.70133 0.84655 0.46536-0.39619-0.53996-0.35548
   4   1 -26   14.19  116.52   1-0.70377 0.85457 0.47031-0.40114-0.53245-0.32982
   4  -1 -26   59.36  124.84   1-0.67905 0.82986 0.42321-0.49238-0.59980-0.26247
   4   1 -25  535.21  106.93   1-0.70588 0.86226 0.47469-0.40552-0.52572-0.30339
   4  -1 -25  309.23  223.26   1-0.68059 0.83697 0.42597-0.49514-0.59609-0.23302
   4   1 -24  159.53   90.86   1-0.70801 0.86975 0.47807-0.40889-0.51977-0.27626
   4  -1 -24  113.26  117.98   1-0.68171 0.84367 0.42799-0.49716-0.59336-0.20259
   4   1 -23  -16.68  115.23   1-0.70946 0.87679 0.48116-0.41199-0.51490-0.24796
   4  -1 -23  -69.36  104.69   1-0.68238 0.84991 0.42920-0.49837-0.59172-0.17106
   4   1 -22  112.15   78.19   1-0.71057 0.88348 0.48353-0.41436-0.51115-0.21855
   4  -1 -22  -29.35  100.79   1-0.68256 0.85566 0.42952-0.49869-0.59128-0.13833
   4   1 -21   88.67   53.97   1-0.71129 0.88978 0.48509-0.41591-0.50867-0.18786
   4  -1 -21    5.03   98.83   1-0.68219 0.86087 0.42884-0.49801-0.59220-0.10425
   4   1 -20   97.47   41.82   1-0.71159 0.89566 0.48574-0.41656-0.50763-0.15573
   4  -1 -20  461.16  195.51   1-0.68120 0.86546 0.42706-0.49623-0.59462-0.06867
   4   1 -19 7925.77  369.92   1-0.71141 0.90106 0.48535-0.41617-0.50825-0.12194
   4   1 -1884905.70 1254.06   1-0.71067 0.90591 0.48376-0.41458-0.51079-0.08623
   4  -1 -1890280.18 1326.06   1-0.67699 0.87241 0.41953-0.48870-0.60469 0.00773
   4   1 -17 -230.32  198.50   1-0.70927 0.91009 0.48075-0.41157-0.51556-0.04829
   4  -1 -17   92.06  303.21   1-0.67350 0.87449 0.41338-0.48255-0.61278 0.04898
   4   1 -1641446.65  689.99   1-0.70671 0.91328 0.47642-0.40725-0.52304-0.00759
   4  -1 -1643495.28 1235.39   1-0.66882 0.87539 0.40529-0.47446-0.62322 0.09259
   4   1 -15 9552.15 1082.32   1-0.70344 0.91559 0.46965-0.40048-0.53345 0.03598
   4  -1 -15 9556.39  391.15   1-0.66270 0.87484 0.39490-0.46407-0.63629 0.13882
   4   1 -1419473.57  447.48   1-0.69882 0.91654 0.46034-0.39117-0.54746 0.08315
   4  -1 -1420678.32  458.43   1-0.65479 0.87251 0.38181-0.45098-0.65227 0.18797
   4   1 -1315648.57  389.17   1-0.69239 0.91569 0.44783-0.37866-0.56570 0.13456
   4  -1 -1315905.37  439.25   1-0.64440 0.86769 0.36602-0.43518-0.67138 0.24023
   4   1 -12 4619.84  213.56   1-0.68350 0.91238 0.43124-0.36207-0.58894 0.19096
   4  -1 -12 4330.48  237.30   1-0.63145 0.86031 0.34582-0.41499-0.69402 0.29603
   4   1 -11  772.11   83.55   1-0.67117 0.90562 0.40934-0.34017-0.61802 0.25321
   4  -1 -11  749.80  129.43   1-0.61492 0.84936 0.32098-0.39015-0.72029 0.35547
   4   1 -1011821.95  255.19   1-0.65385 0.89386 0.38121-0.31205-0.65356 0.32190
   4  -1 -1012170.25  346.52   1-0.59386 0.83388 0.29059-0.35975-0.75024 0.41859
   4   1  -9   78.77   31.02   1-0.62973 0.87532 0.34320-0.27403-0.69688 0.39838
   4  -1  -9   27.88   70.20   1-0.56739 0.81280 0.25369-0.32282-0.78339 0.48489
   4   1  -8  885.69   84.00   1-0.59558 0.84673 0.29301-0.22385-0.74794 0.48262
   4  -1  -8 1200.17  130.97   1-0.53350 0.78450 0.20903-0.27817-0.81955 0.55422
   4   1  -7  956.42   91.61   1-0.54736 0.80395 0.22704-0.15790-0.80550 0.57334
   4  -1  -7 1341.39  218.06   1-0.49095 0.74753 0.15575-0.22489-0.85715 0.62498
   4   1  -6309212.0 1668.47   1-0.47904 0.74122 0.14130-0.07216-0.86634 0.66736
   4  -1  -6318228.0 1470.05   1-0.43822 0.70040 0.09314-0.16228-0.89402 0.69505
   4  -1  -576746.39  606.17   1-0.37456 0.64237 0.02109-0.09023-0.92695 0.76106
   4   1  -577125.30  479.53   1-0.38555 0.65335 0.03314 0.03600-0.92208 0.75619
   4   1  -4117834.5  553.39   1-0.26296 0.53638-0.09594 0.16512-0.96002 0.82766
   4  -1  -4117658.8  761.36   1-0.29942 0.57282-0.05849-0.01065-0.95232 0.81960
   4  -1  -3 9904.66  230.86   1-0.21386 0.49282-0.14425 0.07507-0.96615 0.86688
   4   1  -3 9514.58  169.21   1-0.12053 0.39944-0.23345 0.30264-0.96486 0.86536
   4  -1  -2133772.3  740.80   1-0.12284 0.40738-0.23135 0.16216-0.96508 0.89874
   4   1  -2130693.3  643.93   1 0.03022 0.25437-0.36289 0.43204-0.93133 0.86523
   4  -1  -142286.75  432.19   1-0.02821 0.31838-0.31444 0.24525-0.94885 0.91568
   4   1  -142195.98  339.30   1 0.16934 0.12049-0.47207 0.54118-0.86514 0.83222
   4  -1   036990.35  409.35   1 0.06458 0.23107-0.39054 0.32140-0.91831 0.91831
   4   1   036299.44  327.74   1 0.28525 0.00969-0.55411 0.62314-0.78204 0.78204
   4  -1   144432.82  445.26   1 0.15072 0.15018-0.45837 0.38926-0.87588 0.90879
   4   1   146866.26  391.52   1 0.37690-0.07655-0.61163 0.68065-0.69558 0.72859
   4  -1   2  424.03   79.78   1 0.22946 0.07698-0.51470 0.44559-0.82608 0.89191
   4   1   2  397.73   89.55   1 0.44712-0.14124-0.64908 0.71809-0.61544 0.68146
   4  -1   3 5996.19  240.86   1 0.29906 0.01249-0.56299 0.49395-0.77045 0.86939
   4   1   3 6081.78  197.78   1 0.50091-0.18952-0.67515 0.74418-0.54152 0.64052
   4   1   4  398.90   94.71   1 0.54271-0.22579-0.69132 0.76035-0.47700 0.60899
   4  -1   555558.32  699.75   1 0.41214-0.08964-0.63108 0.56207-0.65717 0.82221
   4   1   557323.26  617.82   1 0.57545-0.25296-0.70270 0.77178-0.41840 0.58340
   4  -1   6140836.8 1383.92   1 0.45728-0.12925-0.65404 0.58503-0.60258 0.80064
   4   1   6148131.0 1104.01   1 0.60195-0.27390-0.70914 0.77822-0.36711 0.56510
   4  -1   7  779.50  144.56   1 0.49529-0.16178-0.67276 0.60372-0.54961 0.78059
   4   1   7  935.32  127.13   1 0.62366-0.29004-0.71283 0.78191-0.32080 0.55179
   4  -1   811604.19  361.99   1 0.52863-0.18960-0.68621 0.61718-0.49965 0.76363
   4   1   812026.69  349.01   1 0.64134-0.30128-0.71565 0.78487-0.27662 0.54147
   4  -1   9 5154.56  260.22   1 0.55743-0.21287-0.69626 0.62723-0.45219 0.74917
   4   1   9 5073.30  240.66   1 0.65647-0.31080-0.71591 0.78513-0.23771 0.53568
   4  -1  10  302.35   99.02   1 0.58168-0.23139-0.70438 0.63529-0.40680 0.73678
   4   1  10   91.75   84.64   1 0.66937-0.31810-0.71505 0.78428-0.20157 0.53265
   4  -1  11 2762.31  224.76   1 0.60342-0.24757-0.70943 0.64035-0.36410 0.72708
   4   1  11 2519.23  213.08   1 0.68048-0.32360-0.71331 0.78253-0.16771 0.53189
   4  -1  12 7603.40  325.19   1 0.62245-0.26103-0.71267 0.64358-0.32350 0.71948
   4   1  12 7550.26  304.28   1 0.69011-0.32763-0.71085 0.78007-0.13575 0.53304
   4  -1  13 1945.48  201.61   1 0.63915-0.27218-0.71439 0.64531-0.28480 0.71378
   4   1  13 2009.89  180.45   1 0.69800-0.33063-0.70851 0.77770-0.10390 0.53466
   4  -1  14 2827.29  253.52   1 0.65332-0.27963-0.71596 0.64674-0.24609 0.70959
   4   1  14 2771.60  265.57   1 0.70533-0.33240-0.70490 0.77409-0.07488 0.53878
   4  -1  15  324.62  197.95   1 0.66625-0.28695-0.71536 0.64614-0.21060 0.70721
   4   1  15 1101.91  208.73   1 0.71176-0.33327-0.70084 0.77003-0.04700 0.54403
   4  -1  1648281.59  843.92   1 0.67769-0.29279-0.71385 0.64462-0.17649 0.70620
   4   1  1649002.00  852.16   1 0.71739-0.33334-0.69637 0.76556-0.02009 0.55025
   4  -1  17 1361.53  279.86   1 0.68782-0.29732-0.71153 0.64230-0.14360 0.70642
   4   1  17 1322.97  281.80   1 0.72231-0.33271-0.69153 0.76072 0.00598 0.55730
   4  -1  1878702.17 1129.77   1 0.69626-0.30110-0.70923 0.64004-0.11044 0.70687
   4   1  1882121.95 1216.22   1 0.72659-0.33144-0.68634 0.75553 0.03135 0.56507
   4  -1  19  538.36  197.10   1 0.70418-0.30347-0.70553 0.63634-0.07963 0.70920
   4   1  19  412.32  169.97   1 0.73029-0.32958-0.68081 0.75000 0.05610 0.57346
  -4  -1 -20 2005.83  249.41   1-0.74046 0.33318 0.66785-0.73702-0.07535-0.58803
   4  -1  20 2326.09  316.39   1 0.71116-0.30489-0.70126 0.63207-0.04970 0.71240
   4   1  20 2112.57  259.56   1 0.73308-0.32679-0.67535 0.74451 0.08056 0.58215
  -4  -1 -21  106.38  154.15   1-0.74310 0.33024 0.66176-0.73093-0.09932-0.59722
   4  -1  21 -105.99  134.94   1 0.71730-0.30547-0.69646 0.62727-0.02055 0.71639
   4   1  21  136.18  138.73   1 0.73574-0.32389-0.66918 0.73834 0.10429 0.59155
   4  -1  22   89.82  130.92   1 0.72265-0.30527-0.69116 0.62197 0.00789 0.72107
   4   1  22  175.01  139.54   1 0.73792-0.32051-0.66270 0.73186 0.12762 0.60136
  -4  -1 -23  187.95  118.39   1-0.74693 0.32292 0.64865-0.71782-0.14608-0.61680
   4  -1  23  -18.17  124.69   1 0.72728-0.30434-0.68540 0.61621 0.03571 0.72639
   4   1  23  178.22  191.21   1 0.73965-0.31667-0.65592 0.72508 0.15059 0.61153
  -4  -1 -24  221.14  132.54   1-0.74816 0.31858 0.64163-0.71080-0.16895-0.62710
   4  -1  24  211.18  186.30   1 0.73085-0.30231-0.67960 0.61044 0.06316 0.73209
   4   1  24  546.45  194.81   1 0.74094-0.31240-0.64883 0.71799 0.17325 0.62200
   4   2 -27 1050.34  221.33   1-0.71075 0.85575 0.48393-0.34558-0.51051-0.38503
   4  -2 -27 1412.27  317.33   1-0.66175 0.80697 0.39331-0.53165-0.63827-0.25717
   4   2 -26  121.95   74.16   1-0.71334 0.86392 0.48958-0.35123-0.50144-0.36093
   4  -2 -26  244.60  149.74   1-0.66334 0.81414 0.39598-0.53431-0.63496-0.22732
   4   2 -25  833.73  163.80   1-0.71563 0.87179 0.49470-0.35635-0.49308-0.33612
   4  -2 -25 1074.33  216.08   1-0.66448 0.82085 0.39790-0.53624-0.63256-0.19655
   4   2 -24  724.01  175.15   1-0.71763 0.87937 0.49927-0.36092-0.48551-0.31052
   4  -2 -24  630.07  158.87   1-0.66514 0.82709 0.39901-0.53735-0.63116-0.16478
   4   2 -23   60.43   47.47   1-0.71933 0.88666 0.50324-0.36489-0.47884-0.28403
   4  -2 -23  158.43  122.17   1-0.66528 0.83281 0.39925-0.53759-0.63086-0.13192
   4   2 -22  879.12  188.00   1-0.72074 0.89365 0.50657-0.36821-0.47319-0.25651
   4  -2 -22  601.41  179.98   1-0.66485 0.83796 0.39853-0.53687-0.63176-0.09785
   4   2 -21  302.11   89.25   1-0.72182 0.90032 0.50918-0.37083-0.46871-0.22782
   4  -2 -21   87.01  116.35   1-0.66379 0.84248 0.39675-0.53508-0.63400-0.06245
   4   2 -20   96.91   75.69   1-0.72257 0.90664 0.51099-0.37264-0.46558-0.19778
   4  -2 -20  -12.89  122.27   1-0.66202 0.84628 0.39377-0.53211-0.63770-0.02559
   4   2 -19 2372.29  376.28   1-0.72294 0.91260 0.51190-0.37355-0.46401-0.16619
   4  -2 -19 3891.97  331.31   1-0.65943 0.84927 0.38945-0.52779-0.64301 0.01288
   4   2 -1812427.06  398.03   1-0.72288 0.91812 0.51175-0.37339-0.46427-0.13275
   4  -2 -1815978.42  529.58   1-0.65589 0.85131 0.38362-0.52196-0.65010 0.05313
   4   2 -1729457.27  606.57   1-0.72231 0.92313 0.51035-0.37200-0.46669-0.09716
   4  -2 -1732848.64  733.12   1-0.65096 0.85196 0.37652-0.51485-0.65914 0.09532
   4   2 -1620823.64  668.91   1-0.72111 0.92751 0.50745-0.36910-0.47168-0.05900
   4  -2 -1624913.66  685.41   1-0.64500 0.85157 0.36696-0.50529-0.67030 0.13964
   4   2 -15 6190.91  658.76   1-0.71910 0.93109 0.50270-0.36434-0.47976-0.01776
   4  -2 -15 6693.06  345.82   1-0.63746 0.84960 0.35510-0.49343-0.68377 0.18628
   4   2 -14 5204.42  681.86   1-0.71603 0.93360 0.49562-0.35726-0.49157 0.02721
   4  -2 -14 6215.26  277.43   1-0.62800 0.84572 0.34056-0.47889-0.69973 0.23540
   4   2 -1312655.47  414.03   1-0.71149 0.93464 0.48554-0.34719-0.50795 0.07676
   4  -2 -1314437.84  378.61   1-0.61623 0.83951 0.32291-0.46123-0.71832 0.28716
   4   2 -1211410.15  367.93   1-0.70455 0.93342 0.47193-0.33359-0.52998 0.13200
   4  -2 -1212375.12  395.02   1-0.60162 0.83048 0.30163-0.43996-0.73963 0.34164
   4   2 -11 7367.10  240.65   1-0.69484 0.92929 0.45254-0.31420-0.55891 0.19410
   4  -2 -11 8204.84  301.07   1-0.58356 0.81800 0.27615-0.41448-0.76366 0.39884
   4   2 -1013210.61  284.64   1-0.68045 0.92048 0.42572-0.28738-0.59643 0.26478
   4  -2 -1014629.12  382.31   1-0.56161 0.80144 0.24591-0.38419-0.79000 0.45834
   4   2  -9 3218.08  143.44   1-0.65874 0.90434 0.38830-0.24996-0.64441 0.34593
   4  -2  -9 3878.89  515.22   1-0.53430 0.77972 0.21007-0.34835-0.81877 0.52027
   4   2  -8 2462.20  290.66   1-0.62531 0.87647 0.33649-0.19816-0.70409 0.43876
   4  -2  -8 2452.41  204.21   1-0.50100 0.75200 0.16808-0.30636-0.84896 0.58363
   4   2  -7165954.6 1036.62   1-0.57305 0.82964 0.26137-0.12310-0.77671 0.54455
   4  -2  -7178385.6 1284.34   1-0.46072 0.71731 0.11943-0.25771-0.87947 0.64733
   4   2  -6  278.80   70.07   1-0.48954 0.75172 0.15403-0.01575-0.85826 0.65929
   4  -2  -6  268.42  103.21   1-0.41273 0.67490 0.06403-0.20230-0.90859 0.70962
   4   2  -5 5769.90  142.04   1-0.35951 0.62731 0.00475 0.13353-0.93312 0.76723
   4  -2  -5 5970.12  231.28   1-0.35677 0.62457 0.00181-0.14010-0.93418 0.76829
   4  -2  -484314.03  770.52   1-0.29244 0.56584-0.06566-0.07263-0.95402 0.82130
   4   2  -484918.22  527.62   1-0.17111 0.44453-0.18496 0.32332-0.96773 0.83537
   4  -2  -3   76.72   73.04   1-0.22050 0.49946-0.13780-0.00054-0.96560 0.86633
   4   2  -3   30.75   15.94   1 0.05180 0.22726-0.38034 0.51862-0.92339 0.82424
   4  -2  -2  -75.44   68.57   1-0.14369 0.42819-0.21045 0.07209-0.96698 0.90080
   4  -2  -1 8391.12  231.51   1-0.06448 0.35465-0.28324 0.14486-0.95687 0.92370
   4   2  -1 8905.26  155.45   1 0.40145-0.11218-0.62532 0.76334-0.66918 0.63617
   4  -2   023482.61  371.20   1 0.01592 0.27973-0.35117 0.21289-0.93617 0.93617
   4   2   026114.47  269.99   1 0.49468-0.19988-0.67249 0.81056-0.55048 0.55048
   4  -2   114580.24  302.03   1 0.09372 0.20746-0.41342 0.27514-0.90569 0.93874
   4   2   115491.99  221.91   1 0.55362-0.25329-0.69502 0.83309-0.45873 0.49173
   4   2   2 4383.50  149.53   1 0.59364-0.28783-0.70732 0.84549-0.38376 0.44976
   4  -2   4194610.2 1386.59   1 0.29440 0.02269-0.56000 0.42193-0.77441 0.90634
   4   2   4204213.7 1268.64   1 0.64258-0.32494-0.71571 0.85416-0.27354 0.40597
   4  -2   5  255.19  154.23   1 0.34926-0.02662-0.59393 0.45586-0.72474 0.88965
   4  -2   7104258.9 1404.15   1 0.44033-0.10676-0.64569 0.50767-0.62384 0.85491
   4   2   7105236.9 1339.41   1 0.68264-0.34818-0.71284 0.85129-0.16076 0.39251
   4  -2   8 7835.01  333.41   1 0.47721-0.13818-0.66476 0.52669-0.57476 0.83874
   4   2   8 6726.59  285.87   1 0.69177-0.35170-0.71032 0.84877-0.12997 0.39483
   4  -2   915110.37  414.95   1 0.51045-0.16589-0.67910 0.54103-0.52749 0.82447
   4   2   914912.88  377.53   1 0.69912-0.35397-0.70802 0.84640-0.09966 0.39787
   4  -2  10 3063.33  233.52   1 0.53973-0.18964-0.69027 0.55221-0.48187 0.81184
   4   2  10 3196.66  215.65   1 0.70586-0.35516-0.70460 0.84298-0.07267 0.40402
   4  -2  11 2633.68  226.67   1 0.56557-0.20995-0.69879 0.56073-0.43796 0.80093
   4   2  11 3023.49  236.47   1 0.71176-0.35550-0.70084 0.83922-0.04700 0.41148
   4  -2  1212916.88  405.34   1 0.58758-0.22617-0.70588 0.56771-0.39556 0.79154
   4   2  1212866.90  381.21   1 0.71693-0.35511-0.69677 0.83515-0.02238 0.42000
   4  -2  13  -48.36  111.93   1 0.60781-0.24084-0.71029 0.57212-0.35503 0.78400
   4   2  13  -74.69  107.37   1 0.72148-0.35410-0.69243 0.83080 0.00137 0.42937
   4  -2  14 1363.33  195.81   1 0.62577-0.25324-0.71310 0.57493-0.31604 0.77802
   4   2  14 1269.68  176.87   1 0.72547-0.35254-0.68780 0.82618 0.02443 0.43945
   4  -2  15  963.32  210.84   1 0.64125-0.26196-0.71564 0.57720-0.27683 0.77344
   4   2  15  913.41  175.67   1 0.72897-0.35049-0.68292 0.82130 0.04690 0.45012
   4  -2  16  126.26  133.64   1 0.65540-0.27051-0.71593 0.57749-0.24056 0.77027
   4   2  16  190.87  175.73   1 0.73165-0.34762-0.67816 0.81648 0.06917 0.46099
  -4  -2 -1722049.53  582.83   1-0.74146 0.35090 0.66572-0.80406-0.08392-0.47994
   4  -2  1725709.54  653.63   1 0.66802-0.27751-0.71520 0.57675-0.20551 0.76833
   4   2  1726651.26  664.91   1 0.73427-0.34468-0.67276 0.81108 0.09072 0.47258
  -4  -2 -18  820.12  224.10   1-0.74370 0.34757 0.66013-0.79846-0.10547-0.49156
   4  -2  18  841.77  206.28   1 0.67926-0.28315-0.71355 0.57511-0.17157 0.76750
   4   2  18 1060.87  268.43   1 0.73650-0.34134-0.66711 0.80543 0.11192 0.48452
  -4  -2 -19 6932.92 1154.06   1-0.74555 0.34385 0.65428-0.79262-0.12670-0.50350
   4  -2  19 8409.85  426.57   1 0.68927-0.28756-0.71110 0.57266-0.13866 0.76770
   4   2  19 8550.23  434.80   1 0.73835-0.33763-0.66120 0.79952 0.13282 0.49675
  -4  -2 -20  114.60  100.31   1-0.74703 0.33975 0.64818-0.78651-0.14766-0.51571
   4  -2  20  128.80  141.59   1 0.69763-0.29136-0.70867 0.57029-0.10533 0.76803
   4   2  20   65.82  113.06   1 0.73984-0.33355-0.65503 0.79335 0.15348 0.50923
  -4  -2 -21   29.90   62.96   1-0.74814 0.33528 0.64181-0.78015-0.16839-0.52815
   4  -2  21   -4.59  125.62   1 0.70551-0.29368-0.70480 0.56642-0.07416 0.77000
   4   2  21  322.21  171.02   1 0.74097-0.32912-0.64861 0.78693 0.17392 0.52192
  -4  -2 -22  508.82  101.15   1-0.74889 0.33046 0.63518-0.77352-0.18892-0.54079
   4  -2  22  402.84  194.71   1 0.71246-0.29508-0.70033 0.56195-0.04376 0.77273
   4   2  22  284.54  129.51   1 0.74176-0.32435-0.64192 0.78024 0.19419 0.53479
  -4  -2 -23  120.77  115.65   1-0.74981 0.32507 0.62797-0.76624-0.20838-0.55424
   4  -2  23 -124.22  123.95   1 0.71857-0.29564-0.69530 0.55692-0.01405 0.77616
   4   2  23  -76.28  118.05   1 0.74222-0.31924-0.63496 0.77328 0.21430 0.54782
  -4  -2 -24  137.49   76.47   1-0.74988 0.31954 0.62081-0.75908-0.22862-0.56717
   4  -2  24  217.04  124.82   1 0.72389-0.29540-0.68974 0.55136 0.01502 0.78021
   4   3 -26  225.63   77.61   1-0.72072 0.87130 0.50653-0.29900-0.47325-0.38912
   4  -3 -26  160.09  197.69   1-0.64495 0.79578 0.36688-0.57437-0.67039-0.19191
   4   3 -25  433.83  108.14   1-0.72312 0.87928 0.51234-0.30481-0.46323-0.36597
   4  -3 -25  399.08  213.06   1-0.64563 0.80203 0.36796-0.57545-0.66915-0.15999
   4   3 -24 1346.87  274.00   1-0.72525 0.88699 0.51765-0.31012-0.45391-0.34213
   4  -3 -24 1331.08  265.63   1-0.64576 0.80774 0.36818-0.57567-0.66889-0.12708
   4   3 -23  554.45  107.35   1-0.72711 0.89444 0.52244-0.31491-0.44537-0.31749
   4  -3 -23 1072.46  242.41   1-0.64532 0.81287 0.36746-0.57495-0.66972-0.09309
   4   3 -22  362.56  106.12   1-0.72870 0.90162 0.52665-0.31912-0.43774-0.29196
   4  -3 -22  122.65  128.26   1-0.64422 0.81735 0.36573-0.57322-0.67172-0.05792
   4   3 -21  293.10   81.59   1-0.73003 0.90852 0.53024-0.32271-0.43114-0.26538
   4  -3 -21  360.55   91.14   1-0.64241 0.82111 0.36286-0.57035-0.67500-0.02148
   4   3 -20  -17.26   83.94   1-0.73108 0.91516 0.53314-0.32561-0.42576-0.23760
   4  -3 -20  142.99  132.28   1-0.63980 0.82407 0.35875-0.56624-0.67966 0.01635
   4   3 -19 6510.83  963.36   1-0.73183 0.92149 0.53526-0.32773-0.42178-0.20841
   4  -3 -19 8851.55  412.82   1-0.63626 0.82611 0.35325-0.56074-0.68583 0.05568
   4   3 -18   56.45   57.86   1-0.73226 0.92750 0.53648-0.32895-0.41948-0.17754
   4  -3 -18  213.17  128.97   1-0.63168 0.82710 0.34618-0.55367-0.69363 0.09664
   4   3 -17  469.81  126.39   1-0.73232 0.93314 0.53663-0.32910-0.41919-0.14467
   4  -3 -17  316.19  104.05   1-0.62588 0.82687 0.33735-0.54483-0.70318 0.13936
   4   3 -1610133.65  507.67   1-0.73192 0.93833 0.53551-0.32798-0.42131-0.10937
   4  -3 -1611462.59  532.63   1-0.61866 0.82522 0.32651-0.53400-0.71459 0.18394
   4   3 -15  868.00  130.02   1-0.73096 0.94294 0.53279-0.32526-0.42641-0.07111
   4  -3 -15 1222.51  274.03   1-0.60976 0.82190 0.31341-0.52090-0.72798 0.23049
   4   3 -14 3915.32  564.65   1-0.72922 0.94679 0.52804-0.32051-0.43519-0.02915
   4  -3 -14 4925.52  578.23   1-0.59889 0.81661 0.29773-0.50522-0.74342 0.27910
   4   3 -13   -4.44   51.40   1-0.72641 0.94956 0.52062-0.31309-0.44864 0.01744
   4  -3 -13  -41.29   86.09   1-0.58568 0.80897 0.27911-0.48660-0.76096 0.32980
   4   3 -12   10.68   26.43   1-0.72198 0.95071 0.50956-0.30203-0.46805 0.07003
   4  -3 -12  126.67  131.28   1-0.57003 0.79869 0.25727-0.46468-0.78030 0.38230
   4   3 -11  882.09  146.02   1-0.71504 0.94935 0.49338-0.28585-0.49526 0.13041
   4  -3 -11 1159.41  155.88   1-0.55080 0.78504 0.23155-0.43897-0.80187 0.43704
   4   3 -1036695.55  545.24   1-0.70368 0.94371 0.47013-0.26262-0.53272 0.20107
   4  -3 -1041396.57  761.00   1-0.52773 0.76756 0.20165-0.40906-0.82512 0.49345
   4   3  -9 8724.75  226.31   1-0.68539 0.93099 0.43470-0.22719-0.58418 0.28569
   4  -3  -9 9464.15  338.34   1-0.50022 0.74564 0.16713-0.37455-0.84961 0.55111
   4   3  -810827.13  238.46   1-0.65390 0.90505 0.38128-0.17380-0.65347 0.38814
   4  -3  -811818.08  372.75   1-0.46761 0.71862 0.12761-0.33503-0.87467 0.60937
   4   3  -7 2634.69   98.45   1-0.59596 0.85269 0.29356-0.08607-0.74742 0.51526
   4  -3  -7 3150.27  357.59   1-0.42938 0.68597 0.08296-0.29038-0.89930 0.66716
   4   3  -6 3693.63  102.37   1-0.48163 0.74380 0.14442 0.06299-0.86439 0.66541
   4  -3  -6 4056.43  212.03   1-0.38506 0.64723 0.03318-0.24060-0.92229 0.72332
   4  -3  -5  396.74   97.98   1-0.33474 0.60254-0.02167-0.18576-0.94205 0.77616
   4   3  -5  455.38   33.51   1-0.23249 0.50036-0.12612 0.33366-0.96438 0.79893
   4  -3  -499320.03  896.23   1-0.27801 0.55141-0.08034-0.12709-0.95721 0.82449
   4  -3  -3 5011.26  223.70   1-0.21553 0.49449-0.14263-0.06490-0.96602 0.86675
   4  -3  -212444.07  292.69   1-0.14917 0.43368-0.20539-0.00214-0.96724 0.90106
   4   3  -1 6149.17  114.89   1 0.71789-0.42830-0.69593 0.90350-0.01756-0.01557
   4  -3   019251.77  380.15   1-0.01045 0.30624-0.32943 0.12186-0.94411 0.94411
   4   3   018076.09  188.05   1 0.71287-0.41773-0.70003 0.90760-0.04187 0.04187
   4   3   1 2247.04   82.82   1 0.71227-0.41156-0.70048 0.90805-0.04468 0.07781
   4  -3   2 1991.78  180.37   1 0.12606 0.18065-0.43821 0.23079-0.88998 0.95608
   4   3   2 1901.36   84.34   1 0.71338-0.40713-0.69965 0.90722-0.03951 0.10578
   4  -3   3 3393.44  213.78   1 0.18802 0.12396-0.48557 0.27824-0.85373 0.95247
   4   3   3 3622.43  135.75   1 0.71529-0.40348-0.69815 0.90572-0.03043 0.12984
   4  -3   4 9767.51  291.80   1 0.24706 0.07046-0.52671 0.31938-0.81334 0.94500
   4   3   4 9497.98  223.05   1 0.71757-0.40021-0.69621 0.90378-0.01915 0.15169
   4  -3   559712.30  904.31   1 0.30083 0.02179-0.56411 0.35700-0.76893 0.93384
   4  -3   614414.09  395.56   1 0.35030-0.02212-0.59455 0.38744-0.72373 0.92162
   4   3   613904.40  297.13   1 0.72251-0.39403-0.69131 0.89888 0.00712 0.19168
   4  -3   724691.50  528.95   1 0.39433-0.06076-0.62141 0.41437-0.67701 0.90807
   4  -3   848295.71  838.73   1 0.43449-0.09538-0.64274 0.43570-0.63094 0.89502
   4  -3   9  174.99  124.00   1 0.47048-0.12583-0.66029 0.45325-0.58537 0.88245
   4  -3  1011839.66  374.96   1 0.50164-0.15155-0.67546 0.46836-0.54046 0.87043
   4  -3  11 5211.51  290.61   1 0.53043-0.17481-0.68688 0.47979-0.49681 0.85979
   4   3  11 5627.35  275.37   1 0.73335-0.37714-0.67479 0.88227 0.08278 0.28170
  -4  -3 -12  363.01   95.23   1-0.74198 0.37931 0.66452-0.87202-0.08868-0.30934
   4  -3  12  562.25  132.20   1 0.55617-0.19502-0.69585 0.48876-0.45436 0.85033
   4   3  12  461.58  134.19   1 0.73514-0.37337-0.67069 0.87817 0.09863 0.29900
  -4  -3 -13 1005.19  162.22   1-0.74369 0.37544 0.66017-0.86767-0.10533-0.32586
   4  -3  13 1397.27  232.57   1 0.57832-0.21135-0.70348 0.49623-0.41309 0.84207
   4   3  13 1237.64  176.27   1 0.73676-0.36942-0.66635 0.87383 0.11465 0.31611
  -4  -3 -14 2344.85  370.40   1-0.74518 0.37135 0.65559-0.86309-0.12207-0.34229
   4  -3  14 2771.53  264.35   1 0.59896-0.22643-0.70851 0.50125-0.37317 0.83514
   4   3  14 2699.03  244.58   1 0.73819-0.36529-0.66178 0.86926 0.13082 0.33307
  -4  -3 -1514385.13 1031.48   1-0.74645 0.36705 0.65077-0.85828-0.13889-0.35864
   4  -3  1517524.45  553.87   1 0.61746-0.23937-0.71194 0.50468-0.33447 0.82945
   4   3  1516644.83  467.42   1 0.73942-0.36095-0.65697 0.86445 0.14713 0.34990
  -4  -3 -16 1951.80  277.06   1-0.74750 0.36252 0.64572-0.85323-0.15578-0.37492
   4  -3  16 2590.30  271.66   1 0.63405-0.25040-0.71399 0.50673-0.29696 0.82493
   4   3  16 2701.90  304.65   1 0.74044-0.35641-0.65191 0.85939 0.16355 0.36661
  -4  -3 -1710091.39 1164.30   1-0.74832 0.35777 0.64044-0.84794-0.17273-0.39113
   4  -3  1713172.49  528.80   1 0.64841-0.25791-0.71592 0.50825-0.25885 0.82167
   4   3  1712964.72  487.92   1 0.74125-0.35166-0.64661 0.85409 0.18009 0.38321
  -4  -3 -18 3562.71  374.74   1-0.74891 0.35278 0.63491-0.84241-0.18976-0.40728
   4  -3  18 3808.20  349.57   1 0.66169-0.26559-0.71570 0.50803-0.22343 0.81936
   4   3  18 4161.23  347.67   1 0.74184-0.34668-0.64106 0.84854 0.19672 0.39972
  -4  -3 -19 3105.77  435.52   1-0.74926 0.34756 0.62913-0.83663-0.20685-0.42336
   4  -3  19 3400.05  320.68   1 0.67360-0.27189-0.71451 0.50684-0.18899 0.81803
   4   3  19 3351.42  344.70   1 0.74220-0.34148-0.63526 0.84274 0.21345 0.41612
  -4  -3 -20 3140.06  493.22   1-0.74989 0.34195 0.62283-0.83024-0.22298-0.44017
   4  -3  20 3085.90  298.13   1 0.68427-0.27695-0.71246 0.50479-0.15546 0.81760
   4   3  20 3684.15  376.57   1 0.74208-0.33629-0.62921 0.83676 0.23107 0.43212
  -4  -3 -21  108.33  102.06   1-0.74976 0.33622 0.61655-0.82396-0.24021-0.45610
   4  -3  21    2.45  120.51   1 0.69379-0.28087-0.70962 0.50195-0.12276 0.81801
   4   3  21  -33.66  125.65   1 0.74196-0.33061-0.62289 0.83044 0.24796 0.44839
  -4  -3 -22  547.20  152.90   1-0.74937 0.33023 0.61001-0.81742-0.25750-0.47196
   4  -3  22  645.82  184.44   1 0.70172-0.28434-0.70680 0.49923-0.08951 0.81848
   4   3  22  551.91  206.82   1 0.74159-0.32468-0.61631 0.82385 0.26494 0.46458
  -4  -3 -23  125.37  121.07   1-0.74872 0.32398 0.60321-0.81062-0.27485-0.48777
   4  -3  23  424.68  188.06   1 0.70923-0.28630-0.70255 0.49498-0.05827 0.82037
   4   3  23  153.59  143.04   1 0.74097-0.31849-0.60945 0.81700 0.28199 0.48069
   4   4 -26  130.59   96.46   1-0.72644 0.87702 0.52069-0.24399-0.44850-0.41387
   4  -4 -26  109.94  139.77   1-0.62445 0.77528 0.33518-0.61183-0.70548-0.15682
   4   4 -25   97.42   71.66   1-0.72889 0.88505 0.52714-0.25043-0.43684-0.39236
   4  -4 -25   86.00  127.73   1-0.62461 0.78101 0.33543-0.61208-0.70522-0.12392
   4   4 -24 3803.24  633.96   1-0.73108 0.89282 0.53313-0.25642-0.42577-0.37026
   4  -4 -24 5599.73  444.64   1-0.62418 0.78615 0.33477-0.61142-0.70591-0.09006
   4   4 -23  337.37  135.78   1-0.73302 0.90034 0.53865-0.26194-0.41537-0.34750
   4  -4 -23   90.63  136.11   1-0.62309 0.79064 0.33313-0.60979-0.70765-0.05515
   4   4 -22  603.39  131.19   1-0.73471 0.90762 0.54366-0.26695-0.40574-0.32396
   4  -4 -22  738.02  202.03   1-0.62128 0.79440 0.33043-0.60708-0.71050-0.01914
   4   4 -21   94.70   42.11   1-0.73616 0.91465 0.54813-0.27142-0.39699-0.29954
   4  -4 -21  137.45  150.32   1-0.61868 0.79738 0.32655-0.60320-0.71455 0.01807
   4   4 -20    2.14   45.85   1-0.73738 0.92145 0.55201-0.27531-0.38928-0.27408
   4  -4 -20  232.52  142.30   1-0.61519 0.79946 0.32138-0.59803-0.71989 0.05657
   4   4 -19 2925.14  500.89   1-0.73835 0.92801 0.55524-0.27853-0.38279-0.24740
   4  -4 -19 3297.06  369.46   1-0.61070 0.80055 0.31479-0.59144-0.72659 0.09644
   4   4 -18 3190.48  505.88   1-0.73908 0.93432 0.55771-0.28100-0.37777-0.21926
   4  -4 -18 4455.76  299.33   1-0.60508 0.80050 0.30662-0.58327-0.73474 0.13776
   4   4 -17 1201.16  209.58   1-0.73954 0.94036 0.55930-0.28259-0.37450-0.18935
   4  -4 -17 1675.02  246.82   1-0.59816 0.79915 0.29669-0.57334-0.74442 0.18060
   4   4 -16 1269.40  274.53   1-0.73969 0.94609 0.55983-0.28312-0.37341-0.15728
   4  -4 -16 2324.29  276.66   1-0.58975 0.79632 0.28479-0.56145-0.75569 0.22504
   4   4 -1512254.03  372.11   1-0.73947 0.95145 0.55905-0.28234-0.37501-0.12250
   4  -4 -1514170.58  474.76   1-0.57962 0.79176 0.27070-0.54736-0.76860 0.27111
   4   4 -14  171.45   38.35   1-0.73875 0.95632 0.55659-0.27988-0.38005-0.08430
   4  -4 -14  493.08  130.78   1-0.56783 0.78531 0.25429-0.53084-0.78287 0.31854
   4   4 -13 2024.00  313.36   1-0.73734 0.96049 0.55188-0.27517-0.38955-0.04163
   4  -4 -13 2778.29  224.64   1-0.55342 0.77649 0.23502-0.51157-0.79905 0.36788
   4   4 -12   91.38   42.87   1-0.73484 0.96357 0.54405-0.26734-0.40498 0.00696
   4  -4 -12   72.46  105.25   1-0.53636 0.76502 0.21272-0.48928-0.81673 0.41874
   4   4 -1116039.27  365.88   1-0.73054 0.96485 0.53163-0.25492-0.42856 0.06371
   4  -4 -1117926.60  545.25   1-0.51626 0.75050 0.18710-0.46366-0.83574 0.47091
   4   4 -10  570.25   84.23   1-0.72300 0.96289 0.51204-0.23533-0.46377 0.13208
   4  -4 -10  724.70  136.75   1-0.49269 0.73252 0.15787-0.43443-0.85576 0.52409
   4   4  -9 1373.19  220.90   1-0.70884 0.95444 0.48092-0.20424-0.51599 0.21751
   4  -4  -9 2278.57  211.93   1-0.46519 0.71061 0.12473-0.40129-0.87637 0.57791
   4   4  -8 2243.63  213.35   1-0.68070 0.93188 0.42615-0.14947-0.59585 0.33053
   4  -4  -8 2866.98  207.48   1-0.43341 0.68442 0.08760-0.36415-0.89692 0.63162
   4   4  -7 2532.65  213.56   1-0.61483 0.87157 0.32085-0.04420-0.72043 0.48827
   4  -4  -7 3318.32  228.72   1-0.39697 0.65356 0.04637-0.32292-0.91665 0.68452
   4  -4  -619704.50  453.77   1-0.35596 0.61817 0.00093-0.27752-0.93449 0.73542
   4  -4  -530678.01  581.66   1-0.30966 0.57746-0.04792-0.22865-0.94963 0.78374
   4  -4  -4  785.90  128.58   1-0.25823 0.53165-0.10067-0.17604-0.96082 0.82846
   4  -4  -3 1152.18  122.56   1-0.20307 0.48203-0.15464-0.12207-0.96687 0.86760
   4  -4  -2 9421.50  285.69   1-0.14444 0.42894-0.20976-0.06695-0.96702 0.90084
   4  -4  -115364.02  352.61   1-0.08435 0.37451-0.26582-0.01094-0.96032 0.92715
  -4  -4   037935.05  262.63   1-0.68742 0.39163 0.43846-0.71514-0.57895 0.57895
   4  -4   045038.83  606.42   1-0.02187 0.31766-0.31982 0.04306-0.94722 0.94722
  -4  -4  -1 1824.82  144.58   1-0.73494 0.43364 0.54435-0.82106-0.40439 0.37122
   4  -4   1 2209.87  196.64   1 0.04038 0.26080-0.37114 0.09458-0.92769 0.96074
  -4  -4  -2 2171.59  169.11   1-0.74633 0.43917 0.58726-0.86380-0.31322 0.24691
   4  -4   2 2754.87  200.80   1 0.10142 0.20529-0.41939 0.14282-0.90212 0.96822
  -4  -4  -322467.36  432.97   1-0.74924 0.43648 0.60843-0.88498-0.26159 0.16212
   4  -4   325770.11  519.19   1 0.15858 0.15339-0.46418 0.18774-0.87142 0.97016
   4   4   327711.28  417.89   1 0.74057-0.42932-0.60603 0.88276 0.29029-0.19080
  -4  -4  -4  376.41   75.00   1-0.74987 0.43151 0.62027-0.89682-0.23008 0.09745
   4  -4   4  264.40   85.75   1 0.21430 0.10321-0.50419 0.22775-0.83657 0.96823
   4   4   4  343.37   60.30   1 0.74183-0.42502-0.62011 0.89684 0.25521-0.12257
  -4  -4  -510046.48  262.49   1-0.74984 0.42588 0.62710-0.90365-0.21088 0.04509
   4  -4   511912.45  371.88   1 0.26589 0.05673-0.54142 0.26528-0.79759 0.96249
   4   4   512586.13  262.25   1 0.74208-0.41971-0.62842 0.90514 0.23323-0.06743
  -4  -4  -6 2753.11  270.14   1-0.74918 0.41996 0.63086-0.90753-0.20180 0.00279
   4  -4   6 3344.26  235.58   1 0.31449 0.01368-0.57272 0.29657-0.75702 0.95491
   4   4   6 3142.74  156.54   1 0.74203-0.41410-0.63326 0.90998 0.21991-0.02095
  -4  -4  -7 4451.03  361.63   1-0.74907 0.41427 0.63276-0.90943-0.19618-0.03599
   4  -4   7 5795.02  275.31   1 0.35923-0.02552-0.59982 0.32368-0.71495 0.94582
   4   4   7 4921.62  195.98   1 0.74217-0.40822-0.63600 0.91264 0.21134 0.02060
  -4  -4  -8 8037.26  294.52   1-0.74904 0.40866 0.63327-0.90994-0.19468-0.07066
   4  -4   8 9876.92  345.71   1 0.39943-0.06033-0.62421 0.34817-0.67141 0.93548
   4   4   8 9903.88  271.36   1 0.74212-0.40260-0.63698 0.91362 0.20856 0.05652
  -4  -4  -9  886.62  244.92   1-0.74907 0.40312 0.63274-0.90941-0.19626-0.10225
   4  -4   9 1455.61  191.77   1 0.43673-0.09208-0.64387 0.36782-0.62824 0.92532
   4   4   9 1620.87  171.57   1 0.74213-0.39705-0.63681 0.91345 0.20905 0.08916
  -4  -4 -1025758.27  511.06   1-0.74916 0.39763 0.63140-0.90807-0.20021-0.13147
   4  -4  1030423.81  825.73   1 0.47058-0.12040-0.66033 0.38428-0.58523 0.91532
  -4  -4 -11 2058.16  362.47   1-0.74976 0.39221 0.62928-0.90582-0.20459-0.16014
   4  -4  11 2677.82  252.79   1 0.50013-0.14452-0.67482 0.39869-0.54265 0.90562
   4   4  11 2652.30  252.12   1 0.74225-0.38604-0.63398 0.91062 0.21707 0.14742
  -4  -4 -12 5616.03  373.73   1-0.74985 0.38670 0.62672-0.90327-0.21198-0.18591
   4  -4  12 6771.29  362.00   1 0.52788-0.16673-0.68593 0.40980-0.50083 0.89680
   4   4  12 6117.88  299.44   1 0.74206-0.38077-0.63156 0.90828 0.22464 0.17328
  -4  -4 -13 1219.58  190.77   1-0.74989 0.38114 0.62369-0.90024-0.22059-0.21046
   4  -4  13 1558.57  209.99   1 0.55296-0.18629-0.69481 0.41868-0.45985 0.88881
   4   4  13 1344.30  196.07   1 0.74208-0.37522-0.62868 0.90541 0.23251 0.19857
  -4  -4 -14  527.78   91.15   1-0.74987 0.37552 0.62023-0.89678-0.23020-0.23400
   4  -4  14  530.25  155.89   1 0.57469-0.20216-0.70249 0.42615-0.41979 0.88177
   4   4  14  404.34   88.80   1 0.74203-0.36961-0.62535 0.90208 0.24146 0.22277
  -4  -4 -15 2672.55  486.37   1-0.74975 0.36981 0.61639-0.89293-0.24066-0.25670
   4  -4  15 3091.44  273.02   1 0.59519-0.21709-0.70768 0.43134-0.38070 0.87567
   4   4  15 3214.68  264.82   1 0.74190-0.36392-0.62160 0.89833 0.25133 0.24606
  -4  -4 -16 3789.69  698.44   1-0.74953 0.36398 0.61218-0.88873-0.25184-0.27868
   4  -4  16 4662.95  351.43   1 0.61370-0.23005-0.71133 0.43499-0.34257 0.87054
   4   4  16 4437.03  314.16   1 0.74167-0.35813-0.61747 0.89420 0.26198 0.26858
  -4  -4 -17 4348.77  614.35   1-0.74917 0.35803 0.60764-0.88418-0.26364-0.30004
   4  -4  17 5486.81  367.21   1 0.63044-0.24123-0.71364 0.43730-0.30538 0.86635
   4   4  17 5816.93  370.97   1 0.74132-0.35221-0.61298 0.88971 0.27329 0.29043
  -4  -4 -18 1224.10  278.70   1-0.74867 0.35192 0.60276-0.87931-0.27597-0.32087
   4  -4  18 1945.59  299.07   1 0.64504-0.24893-0.71582 0.43893-0.26741 0.86334
   4   4  18 1812.07  240.38   1 0.74082-0.34616-0.60815 0.88487 0.28517 0.31170
  -4  -4 -19 8889.73 1291.86   1-0.74801 0.34566 0.59756-0.87411-0.28877-0.34122
   4  -4  1912658.13  522.00   1 0.65859-0.25688-0.71584 0.43895-0.23196 0.86100
   4   4  1912226.83  513.52   1 0.74018-0.33995-0.60298 0.87971 0.29756 0.33247
  -4  -4 -20 2070.16  395.63   1-0.74717 0.33922 0.59206-0.86860-0.30198-0.36117
   4  -4  20 2435.27  289.75   1 0.67081-0.26349-0.71488 0.43799-0.19734 0.85949
   4   4  20 2795.94  356.46   1 0.73936-0.33357-0.59748 0.87421 0.31039 0.35280
  -4  -4 -21  155.79   68.22   1-0.74614 0.33260 0.58624-0.86279-0.31557-0.38074
   4  -4  21   72.53  123.58   1 0.68179-0.26887-0.71303 0.43614-0.16351 0.85877
  -4  -4 -22  312.75  142.56   1-0.74491 0.32577 0.58012-0.85666-0.32948-0.39998
   4  -4  22  480.71  245.69   1 0.69164-0.27311-0.71036 0.43347-0.13042 0.85878
  -4  -4 -23  190.92   84.11   1-0.74346 0.31872 0.57369-0.85023-0.34369-0.41893
   4  -4  23  366.33  196.15   1 0.69988-0.27694-0.70767 0.43092-0.09673 0.85884
   4  -5 -25  566.51  185.75   1-0.60112 0.75752 0.30092-0.64673-0.74033-0.08880
   4  -5 -24  179.42   99.80   1-0.60007 0.76205 0.29942-0.64524-0.74178-0.05419
   4   5 -23  810.84  148.48   1-0.73731 0.90463 0.55179-0.20590-0.38974-0.37313
   4  -5 -23 1225.86  267.74   1-0.59831 0.76586 0.29691-0.64272-0.74421-0.01859
   4   5 -22   84.99   48.45   1-0.73902 0.91193 0.55751-0.21163-0.37816-0.35153
   4  -5 -22   63.35  123.31   1-0.59577 0.76890 0.29329-0.63911-0.74768 0.01803
   4   5 -21  165.34   67.60   1-0.74051 0.91900 0.56277-0.21688-0.36732-0.32921
   4  -5 -21   34.10  127.51   1-0.59237 0.77107 0.28848-0.63429-0.75224 0.05575
   4   5 -20    8.57   46.55   1-0.74191 0.92589 0.56738-0.22170-0.35726-0.30589
   4  -5 -20  366.23  233.85   1-0.58801 0.77229 0.28236-0.62818-0.75796 0.09464
   4   5 -19  146.89   89.80   1-0.74295 0.93254 0.57156-0.22588-0.34831-0.28168
   4  -5 -19  -21.26  122.73   1-0.58259 0.77244 0.27481-0.62062-0.76489 0.13474
   4   5 -18   57.23   45.11   1-0.74380 0.93898 0.57511-0.22943-0.34058-0.25626
   4  -5 -18   80.76   83.03   1-0.57631 0.77144 0.26583-0.61152-0.77278 0.17579
   4   5 -17 1666.41  261.99   1-0.74444 0.94522 0.57795-0.23226-0.33432-0.22935
   4  -5 -17 1896.28  253.09   1-0.56834 0.76906 0.25497-0.60067-0.78228 0.21845
   4   5 -16  283.68   74.46   1-0.74487 0.95125 0.57993-0.23425-0.32991-0.20061
   4  -5 -16  318.31  183.99   1-0.55885 0.76516 0.24222-0.58792-0.79310 0.26244
   4   5 -15 1164.21  229.63   1-0.74507 0.95704 0.58086-0.23518-0.32781-0.16955
   4  -5 -15 1801.07  261.09   1-0.54762 0.75952 0.22738-0.57307-0.80523 0.30773
   4   5 -14 2582.08  400.78   1-0.74498 0.96256 0.58045-0.23477-0.32873-0.13548
   4  -5 -14 3835.60  394.77   1-0.53444 0.75192 0.21024-0.55594-0.81863 0.35430
   4   5 -13 8375.11  531.53   1-0.74451 0.96768 0.57826-0.23257-0.33364-0.09741
   4  -5 -1311208.60  451.47   1-0.51903 0.74210 0.19060-0.53630-0.83322 0.40206
   4   5 -12 3223.40  402.12   1-0.74343 0.97220 0.57353-0.22784-0.34404-0.05384
   4  -5 -12 4731.09  310.05   1-0.50112 0.72978 0.16824-0.51394-0.84886 0.45086
   4   5 -11 8863.36  538.90   1-0.74126 0.97557 0.56552-0.21964-0.36154-0.00330
   4  -5 -1111654.69  396.51   1-0.48038 0.71463 0.14292-0.48862-0.86533 0.50055
   4   5 -10  758.52  119.83   1-0.73703 0.97692 0.55088-0.20500-0.39154 0.05985
   4  -5 -10 1184.62  199.34   1-0.45655 0.69638 0.11452-0.46022-0.88229 0.55067
   4  -5  -9 7036.64  637.12   1-0.42930 0.67472 0.08288-0.42857-0.89934 0.60088
   4  -5  -819098.51  449.89   1-0.39836 0.64937 0.04792-0.39362-0.91597 0.65067
   4  -5  -7    6.47   86.59   1-0.36389 0.62050 0.00949-0.35522-0.93139 0.69913
   4  -5  -6 4619.73  268.12   1-0.32504 0.58725-0.03189-0.31383-0.94516 0.74608
   4  -5  -5  103.87   90.62   1-0.28220 0.55000-0.07609-0.26963-0.95633 0.79043
   4  -5  -417338.17  445.49   1-0.23526 0.50868-0.12340-0.22249-0.96406 0.83170
   4  -5  -3   66.95   86.54   1-0.18538 0.46434-0.17150-0.17439-0.96758 0.86831
   4  -5  -212965.34  395.98   1-0.13392 0.41845-0.22126-0.12468-0.96597 0.89963
   4  -5  -123393.30  508.05   1-0.07901 0.36917-0.27053-0.07542-0.95946 0.92629
   4  -5   0 3287.05  197.04   1-0.02287 0.31866-0.31898-0.02697-0.94748 0.94748
  -4  -5  -1   36.35   31.59   1-0.58404 0.28276 0.27649-0.62219-0.76317 0.73001
   4  -5   1 -103.10   84.33   1 0.03339 0.26779-0.36547 0.01977-0.93022 0.96327
  -4  -5  -2 1198.27   77.96   1-0.66252 0.35557 0.39461-0.74046-0.63665 0.57032
   4  -5   2 1333.80  180.31   1 0.08905 0.21766-0.40980 0.06409-0.90781 0.97391
  -4  -5  -313465.58  305.50   1-0.69893 0.38640 0.46055-0.80640-0.54716 0.44766
   4  -5   315477.59  423.03   1 0.14161 0.17037-0.45159 0.10604-0.88091 0.97965
  -4  -5  -4 2271.71  235.00   1-0.71840 0.40035 0.50106-0.84694-0.48252 0.34985
   4  -5   4 2988.39  236.15   1 0.19370 0.12381-0.48964 0.14409-0.85013 0.98178
  -4  -5  -5 2030.45  195.80   1-0.72894 0.40531 0.52727-0.87316-0.43659 0.27075
   4  -5   5 2319.74  222.50   1 0.24331 0.07974-0.52417 0.17862-0.81610 0.98067
  -4  -5  -6 3627.54  331.72   1-0.73511 0.40590 0.54489-0.89077-0.40334 0.20433
   4  -5   6 4410.19  263.60   1 0.28927 0.03889-0.55671 0.21153-0.77870 0.97659
  -4  -5  -7 1523.20  281.47   1-0.73885 0.40406 0.55692-0.90281-0.37937 0.14719
   4  -5   7 1702.32  185.82   1 0.33304 0.00066-0.58417 0.23898-0.74015 0.97102
  -4  -5  -8  178.65   42.68   1-0.74141 0.40066 0.56549-0.91118-0.36125 0.09599
   4  -5   8  -63.71  105.13   1 0.37285-0.03374-0.60932 0.26426-0.69978 0.96385
  -4  -5  -9 1877.76  304.10   1-0.74280 0.39645 0.57094-0.91662-0.34966 0.05123
   4  -5   9 2092.97  191.87   1 0.41038-0.06574-0.63014 0.28508-0.65916 0.95624
  -4  -5 -10  565.95  122.15   1-0.74362 0.39167 0.57435-0.92004-0.34224 0.01066
   4  -5  10  951.73  213.83   1 0.44490-0.09472-0.64798 0.30291-0.61820 0.94829
  -4  -5 -11 3654.92  292.33   1-0.74405 0.38650 0.57622-0.92190-0.33815-0.02658
   4  -5  11 5632.99  346.24   1 0.47536-0.11974-0.66391 0.31875-0.57726 0.94024
  -4  -5 -12 9888.27  334.22   1-0.74419 0.38104 0.57685-0.92253-0.33676-0.06112
   4  -5  1211705.81  425.82   1 0.50430-0.14315-0.67657 0.33141-0.53659 0.93256
  -4  -5 -13  241.46   57.03   1-0.74411 0.37536 0.57647-0.92215-0.33760-0.09345
   4  -5  13  332.97  125.76   1 0.53071-0.16403-0.68699 0.34183-0.49636 0.92533
  -4  -5 -14  -46.32   85.42   1-0.74383 0.36948 0.57525-0.92093-0.34028-0.12392
   4  -5  14  -31.82  124.15   1 0.55480-0.18259-0.69541 0.35025-0.45671 0.91868
  -4  -5 -15   81.72   74.26   1-0.74338 0.36343 0.57331-0.91899-0.34452-0.15284
   4  -5  15  -19.73  123.82   1 0.57576-0.19767-0.70278 0.35736-0.41783 0.91280
  -4  -5 -16   59.78   84.27   1-0.74275 0.35721 0.57074-0.91642-0.35008-0.18044
   4  -5  16  206.63  188.85   1 0.59574-0.21209-0.70780 0.36238-0.37960 0.90757
  -4  -5 -17  127.75   65.70   1-0.74197 0.35082 0.56761-0.91329-0.35678-0.20690
   4  -5  17  272.39  117.03   1 0.61391-0.22470-0.71137 0.36594-0.34212 0.90309
  -4  -5 -18  207.15   86.06   1-0.74101 0.34426 0.56397-0.90965-0.36446-0.23238
   4  -5  18  194.26  140.24   1 0.63043-0.23566-0.71363 0.36821-0.30541 0.89937
  -4  -5 -19 2376.07  398.76   1-0.73965 0.33787 0.55968-0.90557-0.37371-0.25648
   4  -5  19 2629.46  330.04   1 0.64492-0.24321-0.71582 0.36970-0.26771 0.89675
  -4  -5 -20 1101.27  191.23   1-0.73832 0.33096 0.55514-0.90102-0.38299-0.28037
   4  -5  20 1440.90  287.69   1 0.65843-0.25111-0.71585 0.36974-0.23241 0.89455
  -4  -5 -21  914.95  177.60   1-0.73681 0.32386 0.55018-0.89606-0.39294-0.30359
   4  -5  21 1165.22  280.42   1 0.67065-0.25773-0.71490 0.36879-0.19781 0.89306
  -4  -5 -22  -98.42  114.77   1-0.73509 0.31656 0.54482-0.89070-0.40348-0.32622
   4  -5  22  164.98  146.80   1 0.68167-0.26315-0.71306 0.36694-0.16388 0.89224
   4  -6 -24  207.04   97.85   1-0.57383 0.73545 0.26244-0.67727-0.77578-0.02021
   4  -6 -23  511.98  159.03   1-0.57139 0.73860 0.25912-0.67395-0.77869 0.01586
   4  -6 -22  -61.62  130.36   1-0.56812 0.74091 0.25467-0.66951-0.78254 0.05288
   4  -6 -21  -82.01  137.74   1-0.56393 0.74230 0.24902-0.66386-0.78737 0.09088
   4  -6 -20 3374.98  420.42   1-0.55873 0.74269 0.24207-0.65690-0.79323 0.12990
   4   6 -19 -141.28   76.26   1-0.74579 0.93537 0.58444-0.16963-0.31969-0.31030
   4  -6 -19  -23.38  121.50   1-0.55242 0.74197 0.23369-0.64852-0.80013 0.16997
   4  -6 -18 4823.75  342.93   1-0.54486 0.74000 0.22377-0.63860-0.80811 0.21111
  -4  -6  18 4333.49  250.45   1 0.74028-0.93474-0.60373 0.18864 0.29577 0.30110
   4   6 -17  631.21  135.04   1-0.74729 0.94807 0.59284-0.17802-0.30014-0.26354
   4  -6 -17 1007.29  243.27   1-0.53594 0.73666 0.21218-0.62701-0.81715 0.25332
  -4  -6  17  918.20  125.68   1 0.74082-0.94084-0.60811 0.19302 0.28525 0.27847
   4   6 -16  -36.83   74.70   1-0.74779 0.95417 0.59606-0.18124-0.29241-0.23811
   4  -6 -16  117.02  128.70   1-0.52547 0.73178 0.19877-0.61360-0.82726 0.29659
  -4  -6  16  -15.31   55.62   1 0.74122-0.94680-0.61191 0.19681 0.27596 0.25459
   4   6 -15 5407.98  848.45   1-0.74813 0.96011 0.59848-0.18366-0.28654-0.21082
   4  -6 -15 8898.95  404.17   1-0.51330 0.72520 0.18339-0.59823-0.83838 0.34088
  -4  -6  15 8108.01  277.50   1 0.74149-0.95263-0.61500 0.19991 0.26824 0.22915
   4   6 -14  -43.28   44.92   1-0.74832 0.96589 0.59987-0.18505-0.28312-0.18108
   4  -6 -14  -46.13  127.01   1-0.49922 0.71670 0.16589-0.58073-0.85044 0.38611
  -4  -6  14  -34.25   51.42   1 0.74166-0.95836-0.61724 0.20215 0.26258 0.20165
   4  -6 -13 5053.71  337.04   1-0.48300 0.70607 0.14608-0.56091-0.86334 0.43224
  -4  -6  13 4853.25  206.55   1 0.74173-0.96400-0.61837 0.20328 0.25969 0.17138
   4  -6 -12  -27.22  124.72   1-0.46446 0.69311 0.12386-0.53870-0.87688 0.47894
  -4  -6  12  -55.14   41.91   1 0.74170-0.96953-0.61798 0.20288 0.26070 0.13721
   4  -6 -11 9739.34  398.04   1-0.44335 0.67759 0.09908-0.51391-0.89085 0.52607
   4  -6 -10 9603.66  376.93   1-0.41944 0.65927 0.07162-0.48646-0.90495 0.57333
   4  -6  -9   79.78  111.30   1-0.39253 0.63795 0.04144-0.45627-0.91880 0.62034
   4  -6  -8 6541.25  319.04   1-0.36284 0.61385 0.00835-0.42322-0.93181 0.66637
   4  -6  -7  120.81  147.12   1-0.32946 0.58607-0.02724-0.38762-0.94377 0.71151
   4  -6  -6 7966.23  317.16   1-0.29275 0.55496-0.06533-0.34953-0.95395 0.75487
   4  -6  -5  427.51  132.68   1-0.25239 0.52026-0.10648-0.30859-0.96174 0.79629
   4  -6  -4 7926.38  319.35   1-0.20946 0.48288-0.14849-0.26658-0.96647 0.83411
   4  -6  -310641.59  352.73   1-0.16379 0.44276-0.19180-0.22326-0.96766 0.86839
   4  -6  -2 1535.69  186.36   1-0.11713 0.40166-0.23653-0.17861-0.96453 0.89820
   4  -6  -1  734.96  123.91   1-0.06726 0.35743-0.28082-0.13431-0.95739 0.92423
   4  -6   0  -25.36   99.29   1-0.01627 0.31207-0.32454-0.09059-0.94572 0.94572
   4  -6   113475.60  370.21   1 0.03496 0.26622-0.36675-0.04808-0.92966 0.96271
  -4  -6  -2  208.83   43.69   1-0.51956 0.21270 0.19127-0.60611-0.83274 0.76640
   4  -6   2  217.69  100.92   1 0.08596 0.22075-0.40738-0.00745-0.90920 0.97530
  -4  -6  -3  168.52   45.93   1-0.59326 0.28079 0.28973-0.70471-0.75106 0.65156
   4  -6   3  285.59  126.00   1 0.13430 0.17768-0.44611 0.03145-0.88484 0.98358
  -4  -6  -4 5097.75  162.91   1-0.63855 0.32050 0.35680-0.77178-0.68186 0.54919
   4  -6   4 5694.73  282.22   1 0.18285 0.13466-0.48186 0.06720-0.85695 0.98860
  -4  -6  -5 1544.78  121.51   1-0.66798 0.34430 0.40385-0.81887-0.62505 0.45922
   4  -6   5 1575.62  177.72   1 0.22958 0.09347-0.51479 0.10013-0.82600 0.99057
  -4  -6  -6   55.37   47.76   1-0.68685 0.35759 0.43739-0.85241-0.58044 0.38145
   4  -6   6  180.73  153.95   1 0.27318 0.05499-0.54623 0.13201-0.79183 0.98972
  -4  -6  -722977.56  485.97   1-0.69959 0.36476 0.46188-0.87690-0.54518 0.31302
   4  -6   726244.89  625.80   1 0.31538 0.01832-0.57328 0.15906-0.75622 0.98709
  -4  -6  -8 4078.28  351.37   1-0.70839 0.36798 0.47995-0.89497-0.51751 0.25219
   4  -6   8 5425.46  326.30   1 0.35503-0.01578-0.59735 0.18313-0.71910 0.98296
  -4  -6  -9  -33.08   61.57   1-0.71498 0.36902 0.49324-0.90830-0.49548 0.19696
   4  -6   9  442.22  214.70   1 0.39116-0.04651-0.61965 0.20558-0.68045 0.97753
  -4  -6 -10 5077.42  390.43   1-0.71928 0.36774 0.50311-0.91817-0.47907 0.14738
   4  -6  10 5974.88  338.16   1 0.42561-0.07542-0.63817 0.22410-0.64155 0.97164
  -4  -6 -11  114.69   55.55   1-0.72228 0.36515 0.51028-0.92534-0.46681 0.10196
   4  -6  11   59.18  123.82   1 0.45751-0.10179-0.65415 0.24007-0.60230 0.96540
  -4  -6 -12  125.85   52.22   1-0.72432 0.36162 0.51533-0.93039-0.45802 0.05999
   4  -6  12  236.11  135.66   1 0.48573-0.12458-0.66858 0.25439-0.56307 0.95904
  -4  -6 -13   50.58   46.16   1-0.72565 0.35736 0.51867-0.93373-0.45211 0.02092
   4  -6  13  366.33  144.34   1 0.51287-0.14619-0.68007 0.26588-0.52388 0.95285
  -4  -6 -14  151.11   77.75   1-0.72640 0.35253 0.52060-0.93566-0.44866-0.01569
   4  -6  14  238.70  180.10   1 0.53781-0.16561-0.68959 0.27539-0.48499 0.94695
  -4  -6 -15   93.40   65.91   1-0.72670 0.34724 0.52136-0.93642-0.44730-0.05022
   4  -6  15 -102.35  123.27   1 0.56071-0.18297-0.69730 0.28310-0.44650 0.94147
  -4  -6 -16  163.32   75.74   1-0.72660 0.34157 0.52112-0.93618-0.44773-0.08295
   4  -6  16  473.76  175.94   1 0.58068-0.19703-0.70412 0.28961-0.40867 0.93664
  -4  -6 -17 1733.26  352.01   1-0.72617 0.33556 0.52001-0.93507-0.44972-0.11414
   4  -6  17 2441.17  293.61   1 0.59991-0.21069-0.70871 0.29420-0.37125 0.93222
  -4  -6 -18  230.35  113.87   1-0.72544 0.32924 0.51814-0.93320-0.45305-0.14397
   4  -6  18  554.47  186.68   1 0.61748-0.22271-0.71194 0.29743-0.33443 0.92840
  -4  -6 -19 3114.41  534.89   1-0.72442 0.32264 0.51558-0.93064-0.45757-0.17262
   4  -6  19 4991.00  395.83   1 0.63352-0.23319-0.71394 0.29943-0.29821 0.92518
  -4  -6 -20  590.42  175.12   1-0.72314 0.31578 0.51240-0.92746-0.46314-0.20022
   4  -6  20  634.22  229.88   1 0.64763-0.24032-0.71591 0.30057-0.26084 0.92298
  -4  -6 -21  202.38   73.33   1-0.72160 0.30866 0.50865-0.92371-0.46963-0.22690
   4  -6  21   91.31  135.24   1 0.66085-0.24793-0.71574 0.30040-0.22577 0.92102
   4  -7 -23  128.52  142.28   1-0.54170 0.70891 0.21965-0.70362-0.81136 0.04853
   4  -7 -22  202.76  151.75   1-0.53771 0.71050 0.21447-0.69844-0.81539 0.08573
   4  -7 -21    3.02  139.51   1-0.53276 0.71114 0.20809-0.69206-0.82028 0.12378
   4  -7 -20 1979.57  301.52   1-0.52676 0.71073 0.20041-0.68438-0.82604 0.16271
   4  -7 -19 1026.70  186.07   1-0.51962 0.70917 0.19134-0.67531-0.83269 0.20253
   4  -7 -18 1576.47  284.40   1-0.51121 0.70635 0.18078-0.66475-0.84022 0.24322
   4  -7 -16 1489.72  288.78   1-0.49012 0.69643 0.15474-0.63871-0.85780 0.32714
   4  -7 -15  417.59  159.98   1-0.47712 0.68902 0.13899-0.62296-0.86777 0.37034
   4  -7 -14   40.44  112.14   1-0.46231 0.67980 0.12132-0.60529-0.87837 0.41410
   4  -7 -13 1196.36  219.01   1-0.44550 0.66857 0.10158-0.58556-0.88949 0.45839
   4  -7 -1210331.50  424.01   1-0.42651 0.65517 0.07968-0.56366-0.90096 0.50301
   4  -7 -11 5002.73  341.73   1-0.40518 0.63943 0.05554-0.53952-0.91254 0.54776
   4  -7 -1010643.89  430.76   1-0.38135 0.62118 0.02910-0.51308-0.92397 0.59235
   4  -7  -944065.55  766.20   1-0.35528 0.60070 0.00020-0.48422-0.93475 0.63614
   4  -7  -8 3185.02  476.76   1-0.32606 0.57707-0.03082-0.45319-0.94484 0.67941
   4  -7  -743153.19  857.51   1-0.29402 0.55064-0.06403-0.41998-0.95364 0.72139
   4  -7  -6  461.28  159.92   1-0.25874 0.52107-0.10016-0.38409-0.96073 0.76220
   4  -7  -5  -53.45  108.40   1-0.22131 0.48918-0.13702-0.34722-0.96552 0.80007
   4  -7  -4  742.01  132.96   1-0.18135 0.45477-0.17531-0.30894-0.96766 0.83530
   4  -7  -3 1582.27  197.30   1-0.13914 0.41810-0.21463-0.26962-0.96673 0.86746
   4  -7  -2  322.71  139.02   1-0.09639 0.38092-0.25514-0.22919-0.96208 0.89574
   4  -7  -1 3322.33  238.40   1-0.05066 0.34082-0.29523-0.18909-0.95408 0.92091
   4  -7   0 2215.90  206.94   1-0.00393 0.29959-0.33470-0.14928-0.94231 0.94231
   4  -7   1  300.81  110.80   1 0.04306 0.25811-0.37331-0.11066-0.92670 0.95975
   4  -7   2  166.51  113.22   1 0.09003 0.21668-0.41056-0.07342-0.90737 0.97347
  -4  -7  -3 1864.52  111.11   1-0.46906 0.15661 0.12934-0.61331-0.87364 0.77415
   4  -7   3 2330.30  428.18   1 0.13459 0.17738-0.44633-0.03743-0.88468 0.98342
  -4  -7  -4  138.58   64.84   1-0.53520 0.21716 0.21123-0.69520-0.81788 0.68521
   4  -7   4  375.58  171.81   1 0.17983 0.13768-0.47968-0.00408-0.85881 0.99046
  -4  -7  -5 5802.48  204.58   1-0.58137 0.25775 0.27280-0.75678-0.76653 0.60070
   4  -7   5 6766.89  348.25   1 0.22371 0.09934-0.51074 0.02697-0.83011 0.99468
  -4  -7  -611137.36  339.38   1-0.61373 0.28453 0.31922-0.80336-0.72210 0.52310
   4  -7   612768.35  432.10   1 0.26480 0.06336-0.54070 0.05744-0.79844 0.99633
  -4  -7  -7  450.31   89.18   1-0.63751 0.30274 0.35519-0.83933-0.68367 0.45151
   4  -7   7  291.56  130.79   1 0.30515 0.02856-0.56685 0.08359-0.76521 0.99609
  -4  -7  -8 1480.80  141.91   1-0.65495 0.31461 0.38301-0.86715-0.65140 0.38608
   4  -7   8 1843.50  197.37   1 0.34341-0.00415-0.59043 0.10718-0.73037 0.99423
  -4  -7  -910904.21  344.78   1-0.66844 0.32246 0.40464-0.88883-0.62405 0.32557
   4  -7   912559.71 1371.30   1 0.37849-0.03384-0.61254 0.12945-0.69392 0.99100
  -4  -7 -10 4995.48  281.40   1-0.67808 0.32652 0.42147-0.90566-0.60213 0.27048
   4  -7  10 6617.56  902.48   1 0.41235-0.06217-0.63120 0.14811-0.65692 0.98701
  -4  -7 -11 8099.84  343.91   1-0.68531 0.32817 0.43455-0.91874-0.58438 0.21957
   4  -7  1110877.29  478.32   1 0.44400-0.08827-0.64753 0.16444-0.61932 0.98242
  -4  -7 -12 1836.15  184.08   1-0.69072 0.32800 0.44464-0.92883-0.57026 0.17228
   4  -7  12 2164.57  268.62   1 0.47218-0.11103-0.66245 0.17922-0.58155 0.97752
  -4  -7 -13  198.22  101.64   1-0.69472 0.32643 0.45230-0.93649-0.55926 0.12812
   4  -7  13  292.26  153.93   1 0.49953-0.13285-0.67457 0.19134-0.54352 0.97248
  -4  -7 -14 1104.56  282.11   1-0.69762 0.32375 0.45797-0.94216-0.55097 0.08667
   4  -7  14 1471.02  224.22   1 0.52487-0.15266-0.68478 0.20156-0.50553 0.96750
  -4  -7 -15 2092.76  222.65   1-0.69964 0.32019 0.46196-0.94615-0.54505 0.04758
   4  -7  15 2825.91  271.90   1 0.54829-0.17055-0.69324 0.21002-0.46774 0.96270
  -4  -7 -16  452.77  122.92   1-0.70092 0.31590 0.46454-0.94873-0.54120 0.01056
   4  -7  16  931.56  228.90   1 0.56885-0.18520-0.70081 0.21722-0.43041 0.95839
  -4  -7 -17 1922.89  364.88   1-0.70160 0.31100 0.46590-0.95008-0.53915-0.02464
   4  -7  17 2377.20  301.80   1 0.58875-0.19954-0.70617 0.22257-0.39330 0.95427
  -4  -7 -18 1075.88  268.24   1-0.70174 0.30557 0.46619-0.95038-0.53871-0.05825
   4  -7  18 1786.08  288.77   1 0.60705-0.21228-0.71014 0.22655-0.35661 0.95058
  -4  -7 -19  108.06   71.38   1-0.70142 0.29967 0.46555-0.94974-0.53968-0.09045
   4  -7  19  146.93  132.02   1 0.62384-0.22351-0.71285 0.22926-0.32038 0.94735
  -4  -7 -20   84.20  110.95   1-0.70069 0.29336 0.46407-0.94826-0.54190-0.12138
   4  -7  20   43.67  125.14   1 0.63922-0.23333-0.71440 0.23080-0.28464 0.94460
   4  -8 -21   22.09  146.21   1-0.49928 0.67766 0.16597-0.71908-0.85039 0.15389
   4  -8 -20 1039.47  228.96   1-0.49254 0.67651 0.15770-0.71081-0.85587 0.19255
   4  -8 -19   34.80  129.30   1-0.48463 0.67418 0.14805-0.70117-0.86209 0.23201
   4  -8 -18  235.94  175.69   1-0.47546 0.67060 0.13699-0.69011-0.86900 0.27208
   4  -8 -17  324.72  170.34   1-0.46492 0.66565 0.12441-0.67753-0.87656 0.31280
   4  -8 -16  523.28  194.38   1-0.45290 0.65921 0.11023-0.66334-0.88471 0.35412
   4  -8 -15   73.66  112.66   1-0.43926 0.65116 0.09434-0.64745-0.89339 0.39596
   4  -8 -13 1529.64  243.30   1-0.40661 0.62968 0.05714-0.61026-0.91181 0.48070
   4  -8 -12 1905.84  245.32   1-0.38734 0.61599 0.03569-0.58881-0.92124 0.52330
   4  -8 -11  928.78  212.38   1-0.36636 0.60058 0.01216-0.56532-0.93039 0.56541
   4  -8 -10  416.60  184.33   1-0.34271 0.58253-0.01322-0.53993-0.93934 0.60755
   4  -8  -9 3461.79  290.12   1-0.31673 0.56215-0.04057-0.51258-0.94764 0.64903
   4  -8  -8 5451.84  353.05   1-0.28835 0.53937-0.06982-0.48333-0.95497 0.68953
   4  -8  -7  -16.73  115.41   1-0.25706 0.51385-0.10183-0.45160-0.96101 0.72938
   4  -8  -6 5433.87  307.37   1-0.22400 0.48634-0.13440-0.41903-0.96527 0.76673
   4  -8  -5 8895.95  383.05   1-0.18868 0.45656-0.16837-0.38506-0.96749 0.80204
   4  -8  -4  158.82  118.96   1-0.15125 0.42467-0.20346-0.34996-0.96732 0.83496
   4  -8  -3  134.27  112.96   1-0.11348 0.39238-0.23982-0.31369-0.96416 0.86465
   4  -8  -210144.98  416.75   1-0.07247 0.35700-0.27627-0.27725-0.95834 0.89200
   4  -8  -1  435.54  132.48   1-0.03021 0.32037-0.31275-0.24076-0.94935 0.91618
   4  -8   0  -15.71  105.43   1 0.01290 0.28275-0.34868-0.20443-0.93715 0.93715
   4  -8   1 3550.03  646.46   1 0.05631 0.24487-0.38395-0.16916-0.92163 0.95468
   4  -8   2 2050.10  281.23   1 0.09977 0.20693-0.41812-0.13500-0.90289 0.96899
   4  -8   3 8219.69  374.66   1 0.14097 0.17100-0.45111-0.10176-0.88125 0.98000
   4  -8   4  101.76  116.21   1 0.18318 0.13433-0.48210-0.07077-0.85674 0.98840
  -4  -8  -5 1942.93  137.44   1-0.48211 0.15849 0.14501-0.69812-0.86402 0.69821
   4  -8   5 2429.93  251.28   1 0.22435 0.09870-0.51118-0.04169-0.82967 0.99424
  -4  -8  -6  339.04   87.39   1-0.52675 0.19753 0.20039-0.75350-0.82606 0.62706
   4  -8   6  661.62  193.39   1 0.26294 0.06523-0.53946-0.01282-0.79989 0.99778
  -4  -8  -7  920.29  117.89   1-0.56079 0.22599 0.24482-0.79794-0.79092 0.55876
   4  -8   7 1243.28  219.44   1 0.30131 0.03239-0.56442 0.01212-0.76853 0.99940
  -4  -8  -815918.20  370.84   1-0.58648 0.24614 0.28022-0.83352-0.75993 0.49461
   4  -8   818927.99  598.91   1 0.33797 0.00128-0.58716 0.03486-0.73553 0.99939
  -4  -8  -9    2.04   67.27   1-0.60680 0.26089 0.30911-0.86241-0.73228 0.43378
   4  -8   9    2.82  129.73   1 0.37172-0.02708-0.60867 0.05658-0.70094 0.99803
  -4  -8 -1014676.94  736.18   1-0.62263 0.27114 0.33244-0.88575-0.70838 0.37672
   4  -8  1016582.44  554.50   1 0.40466-0.05448-0.62706 0.07496-0.66560 0.99569
  -4  -8 -11  768.38  142.21   1-0.63500 0.27794 0.35129-0.90459-0.68801 0.32318
   4  -8  11 1358.93  305.15   1 0.43568-0.07995-0.64334 0.09124-0.62951 0.99261
  -4  -8 -12  -52.04   90.19   1-0.64468 0.28205 0.36646-0.91977-0.67087 0.27288
   4  -8  12  198.34   82.60   1 0.46476-0.10350-0.65761 0.10551-0.59290 0.98901
  -4  -8 -13  562.72  166.10   1-0.65225 0.28404 0.37860-0.93191-0.65667 0.22551
   4  -8  13 1063.51  230.14   1 0.49063-0.12395-0.67074 0.11848-0.55622 0.98518
  -4  -8 -14  234.97  121.61   1-0.65863 0.28476 0.38812-0.94148-0.64464 0.18033
   4  -8  14  516.79  156.65   1 0.51598-0.14377-0.68132 0.12906-0.51919 0.98115
  -4  -8 -15  409.62  157.52   1-0.66310 0.28366 0.39558-0.94894-0.63545 0.13798
   4  -8  15  390.06  128.67   1 0.53955-0.16182-0.69021 0.13795-0.48216 0.97712
  -4  -8 -16  -20.12   86.74   1-0.66644 0.28142 0.40123-0.95459-0.62837 0.09774
   4  -8  16  333.07  185.18   1 0.56143-0.17816-0.69752 0.14526-0.44525 0.97321
  -4  -8 -17  464.69  170.88   1-0.66883 0.27823 0.40531-0.95867-0.62319 0.05939
   4  -8  17  619.33  175.12   1 0.58062-0.19141-0.70410 0.15142-0.40878 0.96975
  -4  -8 -18  681.39  137.88   1-0.67041 0.27424 0.40803-0.96139-0.61971 0.02275
   4  -8  18  540.37  203.57   1 0.59935-0.20458-0.70859 0.15591-0.37238 0.96635
   4  -9 -19  163.39  161.37   1-0.44757 0.63713 0.10400-0.72625-0.88817 0.25809
   4  -9 -18  169.80  198.64   1-0.43774 0.63288 0.09259-0.71484-0.89431 0.29740
   4  -9 -17  302.73  186.01   1-0.42657 0.62729 0.07974-0.70200-0.90093 0.33717
   4  -9 -16  339.31  164.04   1-0.41395 0.62026 0.06540-0.68766-0.90794 0.37735
   4  -9 -15  226.85  124.58   1-0.39978 0.61168 0.04950-0.67175-0.91527 0.41784
   4  -9 -14 1646.42  259.45   1-0.38395 0.60144 0.03197-0.65422-0.92279 0.45852
   4  -9 -13 1349.73  222.96   1-0.36682 0.58985 0.01266-0.63497-0.93020 0.49887
   4  -9 -12 1696.37  282.40   1-0.34740 0.57603-0.00822-0.61408-0.93767 0.53952
   4  -9 -1110424.11 1256.96   1-0.32604 0.56027-0.03083-0.59147-0.94485 0.57987
   4  -9 -1010448.64  501.32   1-0.30267 0.54249-0.05515-0.56715-0.95149 0.61970
   4  -9  -913044.48  525.45   1-0.27723 0.52265-0.08113-0.54118-0.95737 0.65875
   4  -9  -8 4206.99  320.72   1-0.24914 0.50039-0.10970-0.51290-0.96223 0.69751
   4  -9  -7  214.11  171.81   1-0.21961 0.47641-0.13867-0.48394-0.96567 0.73405
   4  -9  -6  -64.05  113.25   1-0.18807 0.45040-0.16895-0.45366-0.96751 0.76897
   4  -9  -5 1015.41  175.56   1-0.15461 0.42249-0.20035-0.42225-0.96744 0.80199
   4  -9  -4  920.51  206.05   1-0.12104 0.39432-0.23299-0.38972-0.96491 0.83224
   4  -9  -3  519.02  154.60   1-0.08414 0.36305-0.26600-0.35670-0.96029 0.86078
   4  -9  -2  306.76  130.48   1-0.04589 0.33043-0.29934-0.32337-0.95304 0.88670
   4  -9  -1 5510.62  346.84   1-0.00647 0.29660-0.33257-0.28968-0.94305 0.91000
   4  -9   0 1226.67  184.02   1 0.03341 0.26224-0.36549-0.25677-0.93021 0.93021
   4  -9   1  369.46  206.09   1 0.07373 0.22745-0.39778-0.22447-0.91451 0.94756
   4  -9   2  461.35  153.48   1 0.11413 0.19258-0.42915-0.19311-0.89599 0.96209
   4  -9   3 1056.98  200.93   1 0.15233 0.15964-0.45957-0.16241-0.87497 0.97372
   4  -9   4 2409.11  283.23   1 0.19178 0.12573-0.48827-0.13371-0.85135 0.98301
   4  -9   5 2519.23  267.03   1 0.23042 0.09263-0.51537-0.10661-0.82540 0.98997
   4  -9   6   56.19  132.05   1 0.26659 0.06158-0.54189-0.07943-0.79704 0.99493
   4  -9   7  717.44  201.34   1 0.30298 0.03073-0.56547-0.05584-0.76709 0.99796
   4  -9   8 2487.65  424.14   1 0.33794 0.00130-0.58714-0.03418-0.73556 0.99941
   4  -9   9 2120.29  274.09   1 0.37021-0.02556-0.60780-0.01330-0.70250 0.99958
   4  -9  10 7635.28 1196.69   1 0.40202-0.05183-0.62563 0.00451-0.66855 0.99864
   4  -9  11 3674.69  348.54   1 0.43215-0.07643-0.64154 0.02043-0.63376 0.99686
  -4  -9 -12 1007.00  152.74   1-0.58845 0.22582 0.28298-0.90544-0.75738 0.35939
   4  -9  12 1620.43  255.24   1 0.46058-0.09932-0.65562 0.03451-0.59834 0.99445
  -4  -9 -13   -1.90   75.71   1-0.60001 0.23180 0.29933-0.92180-0.74187 0.31071
   4  -9  13   40.89  130.32   1 0.48595-0.11928-0.66868 0.04740-0.56276 0.99172
   4  -9  14  -12.36  115.76   1 0.51102-0.13881-0.67933 0.05804-0.52665 0.98861
   4  -9  15  143.22  125.75   1 0.53446-0.15672-0.68837 0.06708-0.49039 0.98536
   4  -9  16  966.63  191.40   1 0.55631-0.17305-0.69590 0.07461-0.45412 0.98208
   4 -10 -17 1779.26  315.17   1-0.38640 0.58713 0.03466-0.72606-0.92167 0.35792
   4 -10 -16  299.60  203.61   1-0.37374 0.57998 0.02019-0.71165-0.92731 0.39644
   4 -10 -15  -18.79  133.99   1-0.35918 0.57101 0.00440-0.69585-0.93325 0.43556
   4 -10 -14 -150.91  130.62   1-0.34305 0.56049-0.01286-0.67859-0.93922 0.47471
   4 -10 -13  469.16  175.98   1-0.32530 0.54833-0.03161-0.65984-0.94508 0.51374
   4 -10 -12   67.64  127.18   1-0.30584 0.53447-0.05187-0.63958-0.95066 0.55251
   4 -10 -11  492.91  219.65   1-0.28462 0.51885-0.07363-0.61782-0.95580 0.59083
   4 -10 -10  282.65  142.17   1-0.26094 0.50111-0.09795-0.59383-0.96036 0.62947
   4 -10  -9  670.42  165.58   1-0.23614 0.48185-0.12253-0.56925-0.96396 0.66615
   4 -10  -8  174.17  124.54   1-0.20951 0.46076-0.14844-0.54335-0.96647 0.70175
   4 -10  -7  162.94  132.39   1-0.18109 0.43789-0.17556-0.51623-0.96766 0.73604
   4 -10  -5  200.48  182.74   1-0.12092 0.38857-0.23309-0.45880-0.96490 0.79906
   4 -10  -4   20.10  124.83   1-0.08755 0.36083-0.26298-0.42892-0.96081 0.82814
   4 -10  -3 5169.04  375.95   1-0.05284 0.33175-0.29334-0.39855-0.95454 0.85503
   4 -10  -2  314.37  195.91   1-0.01700 0.30153-0.32393-0.36796-0.94592 0.87958
   4 -10  -1 9179.24  438.74   1 0.01980 0.27032-0.35436-0.33703-0.93489 0.90184
   4 -10   0  380.41  210.49   1 0.05703 0.23862-0.38452-0.30687-0.92134 0.92134
   4 -10   1 5141.51  362.33   1 0.09463 0.20654-0.41414-0.27726-0.90527 0.93832
   4 -10   2  123.35   92.49   1 0.13048 0.17595-0.44324-0.24786-0.88685 0.95268
   4 -10   3  -26.23  118.17   1 0.16785 0.14413-0.47098-0.22011-0.86602 0.96476
   4 -10   4  109.02  123.24   1 0.20480 0.11272-0.49751-0.19358-0.84293 0.97458
   4 -10   5  267.91  179.00   1 0.24109 0.08196-0.52267-0.16842-0.81773 0.98230
   4 -10   6  151.40  130.06   1 0.27496 0.05321-0.54740-0.14296-0.79040 0.98829
   4 -10   7 2021.48  284.10   1 0.30941 0.02430-0.56953-0.12082-0.76150 0.99237
   4 -10   8 1353.29  225.30   1 0.34266-0.00341-0.58998-0.10037-0.73109 0.99494
   4 -10   9 1079.22  229.51   1 0.37336-0.02871-0.60961-0.08050-0.69925 0.99634
   4 -10  10 1381.58  363.69   1 0.40391-0.05373-0.62665-0.06346-0.66644 0.99653
   4 -10  11   37.66  121.29   1 0.43300-0.07728-0.64198-0.04814-0.63274 0.99584
   4 -10  12  243.61  123.69   1 0.46058-0.09932-0.65562-0.03449-0.59834 0.99445
   4 -10  13  786.41  240.67   1 0.48525-0.11857-0.66837-0.02194-0.56373 0.99270
   4 -10  14   54.02  123.36   1 0.50981-0.13760-0.67884-0.01147-0.52845 0.99042
   4 -11 -14  255.69  162.90   1-0.30029 0.51772-0.05760-0.70300-0.95210 0.48759
   4 -11 -13  845.95  222.89   1-0.28246 0.50549-0.07583-0.68477-0.95627 0.52494
   4 -11 -12 3655.96  380.00   1-0.26306 0.49169-0.09538-0.66521-0.96005 0.56189
   4 -11 -11  200.94  146.70   1-0.24139 0.47601-0.11737-0.64360-0.96330 0.59931
   4 -11 -10  405.32  188.45   1-0.21881 0.45898-0.13945-0.62152-0.96574 0.63485
   4 -11  -9  237.59  190.81   1-0.19462 0.44033-0.16272-0.59825-0.96728 0.66947
   4 -11  -8  141.40  203.65   1-0.16882 0.42007-0.18711-0.57386-0.96772 0.70300
   4 -11  -7  931.34  278.03   1-0.14145 0.39825-0.21250-0.54847-0.96686 0.73523
   4 -11  -6    0.50  132.44   1-0.11446 0.37648-0.23894-0.52215-0.96426 0.76525
   4 -11  -5 1373.82  274.32   1-0.08413 0.35178-0.26601-0.49507-0.96029 0.79444
   4 -11  -4  161.18  139.82   1-0.05250 0.32578-0.29364-0.46745-0.95447 0.82179
   4 -11  -3 1173.46  194.48   1-0.01974 0.29865-0.32162-0.43947-0.94666 0.84715
   4 -11  -2   -0.01  114.51   1 0.01412 0.27047-0.34969-0.41085-0.93675 0.87065
   4 -11  -1   39.75  116.29   1 0.04846 0.24166-0.37766-0.38288-0.92467 0.89162
   4 -11   0  201.31  128.90   1 0.08334 0.21231-0.40534-0.35520-0.91035 0.91035
   4 -11   1  610.08  188.29   1 0.11855 0.18263-0.43251-0.32802-0.89379 0.92684
   4 -11   2 3775.53  339.98   1 0.15192 0.15452-0.45926-0.30094-0.87521 0.94103
   4 -11   3 1201.65  231.21   1 0.18693 0.12505-0.48479-0.27541-0.85441 0.95315
   4 -11   4   78.25  153.01   1 0.22160 0.09592-0.50927-0.25093-0.83158 0.96323
   4 -11   5  159.43  118.81   1 0.25394 0.06869-0.53345-0.22594-0.80680 0.97171
   4 -11   6  388.85  140.88   1 0.28741 0.04076-0.55551-0.20388-0.78025 0.97814
   4 -11   7  758.07  172.28   1 0.31999 0.01371-0.57614-0.18325-0.75209 0.98297
   4 -11   8  -17.95  115.74   1 0.35155-0.01230-0.59529-0.16410-0.72251 0.98636
   4 -11   9 1017.16  215.82   1 0.38067-0.03602-0.61377-0.14535-0.69164 0.98872
   4 -11  10 1215.57  315.48   1 0.40989-0.05971-0.62988-0.12925-0.65972 0.98981
   4 -11  11 3686.50  393.18   1 0.43783-0.08211-0.64443-0.11469-0.62690 0.99000
   4 -12  -9  228.25  129.93   1-0.15196 0.39767-0.20281-0.62734-0.96735 0.66954
   4 -12  -8 1221.70  263.77   1-0.12898 0.37975-0.22577-0.60451-0.96560 0.70025
   4 -12  -7   78.05  132.87   1-0.10258 0.35898-0.24961-0.58067-0.96289 0.73071
   4 -12  -6   34.01  129.56   1-0.07487 0.33690-0.27416-0.55612-0.95876 0.75975
   4 -12  -5  518.91  165.05   1-0.04595 0.31360-0.29929-0.53099-0.95305 0.78721
   4 -12  -4  746.55  199.14   1-0.01591 0.28919-0.32485-0.50543-0.94563 0.81295
   4 -12  -3  298.37  200.52   1 0.01529 0.26377-0.35065-0.47902-0.93637 0.83722
   4 -12  -2 2091.36  296.57   1 0.04697 0.23762-0.37646-0.45322-0.92524 0.85914
   4 -12  -1  455.64  209.72   1 0.07929 0.21083-0.40216-0.42752-0.91212 0.87907
   4 -12   0  172.91  119.01   1 0.11208 0.18357-0.42758-0.40210-0.89700 0.89700
   4 -12   1  592.36  189.73   1 0.14328 0.15762-0.45284-0.37647-0.88000 0.91291
   4 -12   2  214.80  188.93   1 0.17626 0.13018-0.47710-0.35221-0.86099 0.92681
   4 -12   3  450.16  204.58   1 0.20913 0.10285-0.50056-0.32875-0.84005 0.93879
   4 -12   4  996.95  257.69   1 0.24171 0.07580-0.52309-0.30622-0.81727 0.94893
   4 -12   5   69.34  120.63   1 0.27189 0.05073-0.54539-0.28304-0.79285 0.95776
   4 -12   6 1134.77  238.43   1 0.30346 0.02471-0.56578-0.26265-0.76668 0.96457
   5   0 -27  -33.84  124.99   1-0.66250 0.88167 0.39457-0.39457-0.63670-0.25874
   5   0 -26  169.14  127.33   1-0.66403 0.88878 0.39714-0.39714-0.63350-0.22877
   5   0 -25   62.58  115.52   1-0.66507 0.89540 0.39890-0.39890-0.63130-0.19781
   5   0 -24 1756.52  287.36   1-0.66559 0.90149 0.39978-0.39978-0.63020-0.16575
   5   0 -23   24.87  128.69   1-0.66554 0.90702 0.39969-0.39969-0.63031-0.13247
   5   0 -22 1137.86  267.44   1-0.66485 0.91191 0.39853-0.39853-0.63176-0.09785
   5   0 -21  -17.68   86.69   1-0.66346 0.91609 0.39618-0.39618-0.63471-0.06174
   5   0 -20  -80.14   76.74   1-0.66124 0.91945 0.39246-0.39246-0.63931-0.02397
   5   0 -19  -47.37   91.94   1-0.65807 0.92186 0.38720-0.38720-0.64576 0.01563
   5   0 -1828817.60  618.43   1-0.65355 0.92291 0.38073-0.38073-0.65414 0.05715
   5   0 -17 -285.14  250.38   1-0.64793 0.92286 0.37163-0.37163-0.66488 0.10106
   5   0 -1647861.44  928.12   1-0.64067 0.92117 0.36012-0.36012-0.67812 0.14747
   5   0 -15 -277.28  144.10   1-0.63141 0.91749 0.34576-0.34576-0.69409 0.19660
   5   0 -14 8868.40  728.15   1-0.61968 0.91134 0.32804-0.32804-0.71300 0.24867
   5   0 -13   67.48   76.97   1-0.60489 0.90211 0.30634-0.30634-0.73502 0.30386
   5   0 -12  236.20   85.80   1-0.58626 0.88906 0.27991-0.27991-0.76022 0.36223
   5   0 -11   10.95   65.14   1-0.56315 0.87132 0.24799-0.24799-0.78825 0.42342
   5   0 -1012262.18  345.15   1-0.53383 0.84758 0.20945-0.20945-0.81923 0.48757
   5   0  -9   13.08   55.36   1-0.49726 0.81660 0.16348-0.16348-0.85205 0.55355
   5   0  -811769.75  316.12   1-0.45204 0.77697 0.10922-0.10922-0.88528 0.61998
   5   0  -7   -3.22   60.80   1-0.39701 0.72753 0.04642-0.04642-0.91663 0.68450
   5   0  -616868.23  295.79   1-0.33150 0.66766-0.02509 0.02509-0.94311 0.74404
   5   0  -5  154.97   48.16   1-0.25448 0.59625-0.10440 0.10440-0.96142 0.79597
   5   0  -4200614.4 1265.70   1-0.16991 0.51723-0.18608 0.18608-0.96772 0.83537
   5   0  -3   26.56   62.83   1-0.08016 0.43302-0.26951 0.26951-0.95965 0.86014
   5   0  -2 7089.16  230.41   1 0.01254 0.34596-0.34839 0.34839-0.93726 0.87116
   5   0  -1  719.93  106.97   1 0.10163 0.26241-0.41955 0.41955-0.90202 0.86897
   5   0   0132486.4  963.63   1 0.18460 0.18460-0.48312 0.48312-0.85586 0.85586
   5   0   1   29.76   67.44   1 0.25930 0.11491-0.53704 0.53704-0.80270 0.83568
   5   0   2168672.0 1172.36   1 0.32539 0.05436-0.57948 0.57948-0.74720 0.81316
   5   0   3  -20.33   64.90   1 0.38261 0.00251-0.61487 0.61487-0.68959 0.78862
   5   0   4   -9.38   64.57   1 0.43193-0.04127-0.64143 0.64143-0.63402 0.76606
   5   0   5  321.77  111.61   1 0.47375-0.07761-0.66317 0.66317-0.57943 0.74442
   5   0   6121105.2  910.80   1 0.50998-0.10830-0.67890 0.67890-0.52820 0.72618
   5   0   7   12.62   92.34   1 0.54114-0.13394-0.69077 0.69077-0.47957 0.71055
   5   0   820607.04  480.02   1 0.56754-0.15470-0.70043 0.70043-0.43276 0.69674
   5   0   9  -18.86   84.58   1 0.59086-0.17246-0.70667 0.70667-0.38920 0.68619
   5   0  10 7616.00  310.74   1 0.61119-0.18723-0.71090 0.71090-0.34792 0.67790
   5   0  11  -36.91   98.03   1 0.62900-0.19948-0.71348 0.71348-0.30869 0.67167
   5   0  12  831.70  159.61   1 0.64427-0.20799-0.71579 0.71579-0.26932 0.66661
   5   0  13  254.15  154.29   1 0.65801-0.21612-0.71587 0.71587-0.23354 0.66394
   5   0  14 3457.58  284.42   1 0.67016-0.22266-0.71496 0.71496-0.19925 0.66275
   5   0  15  -35.14  127.90   1 0.68093-0.22783-0.71321 0.71321-0.16627 0.66287
   5   0  1636680.73  746.25   1 0.69048-0.23178-0.71073 0.71073-0.13446 0.66417
   5   0  17 -171.39  139.55   1 0.69842-0.23504-0.70832 0.70832-0.10230 0.66560
   5   0  18 4869.64  349.21   1 0.70592-0.23697-0.70457 0.70457-0.07246 0.66889
   5   0  19  -45.97  127.21   1 0.71254-0.23804-0.70028 0.70028-0.04343 0.67300
   5   0  20 1101.74  224.25   1 0.71836-0.23831-0.69550 0.69550-0.01515 0.67785
   5   0  21   36.06  135.03   1 0.72345-0.23784-0.69025 0.69025 0.01247 0.68335
   5   0  22  591.32  209.16   1 0.72787-0.23670-0.68457 0.68457 0.03952 0.68944
   5   0  23  182.15  198.69   1 0.73127-0.23454-0.67885 0.67885 0.06632 0.69580
   5  -1 -26   61.25  125.23   1-0.64923 0.87400 0.37373-0.44289-0.66242-0.19988
   5   1 -26  -67.40  108.51   1-0.67646 0.90121 0.41859-0.34942-0.60594-0.25633
   5   1 -25  204.15  115.98   1-0.67787 0.90820 0.42110-0.35193-0.60261-0.22650
   5  -1 -25   93.84  129.96   1-0.64986 0.88020 0.37474-0.44390-0.66124-0.16790
   5   1 -24 1881.40  239.47   1-0.67881 0.91472 0.42277-0.35360-0.60038-0.19556
   5  -1 -24 1862.68  257.35   1-0.64991 0.88582 0.37482-0.44398-0.66114-0.13483
   5   1 -23   -2.46   99.61   1-0.67923 0.92071 0.42353-0.35436-0.59937-0.16341
   5  -1 -23   30.72  110.75   1-0.64934 0.89082 0.37390-0.44306-0.66223-0.10058
   5   1 -22 1891.50  236.67   1-0.67908 0.92614 0.42326-0.35409-0.59973-0.12988
   5  -1 -22 2432.53  280.74   1-0.64807 0.89513 0.37186-0.44102-0.66461-0.06502
   5   1 -21 1014.84  181.99   1-0.67829 0.93092 0.42184-0.35267-0.60163-0.09482
   5  -1 -21 1480.15  217.68   1-0.64602 0.89865 0.36858-0.43775-0.66842-0.02805
   5   1 -20 1378.96  212.49   1-0.67675 0.93496 0.41911-0.34994-0.60525-0.05803
   5  -1 -20 1354.57  208.86   1-0.64308 0.90129 0.36392-0.43308-0.67379 0.01048
   5   1 -19  955.83  194.35   1-0.67435 0.93814 0.41488-0.34571-0.61083-0.01929
   5  -1 -19 1153.19  176.36   1-0.63911 0.90289 0.35768-0.42684-0.68087 0.05072
   5   1 -18   17.49  115.06   1-0.67091 0.94027 0.40888-0.33972-0.61861 0.02164
   5  -1 -18 -109.04  123.18   1-0.63395 0.90330 0.34966-0.41882-0.68981 0.09282
   5   1 -1714900.58  462.85   1-0.66621 0.94115 0.40082-0.33166-0.62888 0.06508
   5  -1 -1715081.56  480.27   1-0.62737 0.90230 0.33960-0.40876-0.70076 0.13694
   5   1 -1635589.39  857.41   1-0.65994 0.94046 0.39030-0.32113-0.64197 0.11133
   5  -1 -1636780.39  827.27   1-0.61911 0.89962 0.32719-0.39636-0.71388 0.18323
   5   1 -1581842.85  957.76   1-0.65156 0.93764 0.37748-0.30832-0.65800 0.16051
   5  -1 -1584794.85 1405.88   1-0.60885 0.89493 0.31208-0.38125-0.72931 0.23182
   5   1 -14 6498.59  273.43   1-0.64087 0.93252 0.36043-0.29127-0.67776 0.21344
   5  -1 -14 6981.35  631.27   1-0.59616 0.88782 0.29385-0.36301-0.74714 0.28282
   5   1 -13  210.32   81.29   1-0.62697 0.92420 0.33899-0.26983-0.70141 0.27025
   5  -1 -13  384.23  154.56   1-0.58056 0.87779 0.27200-0.34117-0.76743 0.33627
   5   1 -1248534.87  749.46   1-0.60891 0.91171 0.31218-0.24301-0.72922 0.33123
   5  -1 -1253524.65  686.56   1-0.56175 0.86433 0.24610-0.31524-0.78985 0.39185
   5   1 -11 4776.61  202.46   1-0.58542 0.89380 0.27875-0.20958-0.76129 0.39647
   5  -1 -11 5417.70  246.80   1-0.53839 0.84656 0.21535-0.28449-0.81470 0.44987
   5   1 -10 7661.49  241.02   1-0.55517 0.86892 0.23733-0.16819-0.79715 0.46549
   5  -1 -10 7617.27  263.53   1-0.51000 0.82376 0.17927-0.24841-0.84128 0.50961
   5  -1  -9 4851.81  222.05   1-0.47568 0.79502 0.13725-0.20639-0.86884 0.57038
   5   1  -9 4930.94  235.53   1-0.51548 0.83482 0.18613-0.11699-0.83643 0.53794
   5  -1  -814676.02  353.77   1-0.43465 0.75957 0.08902-0.15816-0.89618 0.63089
   5   1  -814011.09  263.57   1-0.46425 0.78918 0.12362-0.05448-0.87702 0.61173
   5  -1  -7 6060.36  247.54   1-0.38619 0.71670 0.03443-0.10357-0.92177 0.68964
   5   1  -7 5704.61  186.43   1-0.39924 0.72975 0.04890 0.02023-0.91553 0.68340
   5  -1  -6 2547.05  151.82   1-0.33012 0.66627-0.02655-0.04259-0.94356 0.74448
   5   1  -6 2639.84  129.11   1-0.31881 0.65497-0.03840 0.10755-0.94703 0.74796
   5  -1  -5  589.08   87.73   1-0.26627 0.60802-0.09216 0.02302-0.95947 0.79358
   5   1  -5  526.43   65.15   1-0.22180 0.56357-0.13655 0.20573-0.96548 0.80003
   5  -1  -4   83.50   71.99   1-0.19515 0.54247-0.16221 0.09303-0.96726 0.83490
   5   1  -4  121.56   65.87   1-0.11512 0.46234-0.23834 0.30753-0.96433 0.83165
   5  -1  -3 3059.16  166.44   1-0.12061 0.47347-0.23337 0.16418-0.96487 0.86537
   5   1  -3 3145.96  132.62   1-0.00128 0.35427-0.33691 0.40605-0.94153 0.84238
   5  -1  -2106678.4  878.19   1-0.04250 0.40098-0.30225 0.23306-0.95227 0.88594
   5   1  -2109334.5  775.78   1 0.10816 0.25034-0.42457 0.49371-0.89890 0.83280
   5  -1  -150852.12  611.44   1 0.03591 0.32812-0.36752 0.29838-0.92931 0.89626
   5   1  -150513.42  492.08   1 0.20895 0.15472-0.50044 0.56955-0.84017 0.80726
   5  -1   0 9659.19  265.43   1 0.11136 0.25820-0.42703 0.35788-0.89735 0.89735
   5   1   0 8473.91  235.49   1 0.29584 0.07284-0.56093 0.62996-0.77319 0.77319
   5  -1   128433.06  430.09   1 0.18179 0.19295-0.48110 0.41199-0.85760 0.89052
   5   1   128417.33  375.31   1 0.36896 0.00508-0.60708 0.67610-0.70378 0.73679
   5  -1   224475.73  437.29   1 0.24716 0.13312-0.52678 0.45767-0.81326 0.87909
   5   1   225387.22  373.20   1 0.42903-0.04944-0.63994 0.70895-0.63749 0.70351
   5  -1   3 8925.48  288.68   1 0.30614 0.07915-0.56748 0.49844-0.76435 0.86330
   5   1   310240.33  651.28   1 0.47813-0.09304-0.66517 0.73420-0.57352 0.67251
   5  -1   4 1453.80  137.50   1 0.35918 0.03165-0.59979 0.53075-0.71500 0.84693
   5   1   4 1554.76  121.61   1 0.51845-0.12783-0.68229 0.75133-0.51543 0.64742
   5  -1   5 4424.18  247.53   1 0.40586-0.00966-0.62771 0.55870-0.66426 0.82931
   5   1   5 4552.37  207.91   1 0.55180-0.15565-0.69442 0.76345-0.46183 0.62682
   5  -1   6 4283.26  532.15   1 0.44736-0.04562-0.64919 0.58018-0.61515 0.81320
   5   1   6 3747.74  193.54   1 0.57930-0.17758-0.70375 0.77283-0.41125 0.60924
   5  -1   7 6839.26  292.61   1 0.48320-0.07599-0.66746 0.59842-0.56658 0.79756
   5   1   7 7256.00  265.00   1 0.60268-0.19539-0.70928 0.77837-0.36563 0.59661
   5  -1   8 6386.62  299.38   1 0.51534-0.10260-0.68106 0.61203-0.52016 0.78414
   5   1   8 6289.85  268.74   1 0.62256-0.20971-0.71268 0.78177-0.32325 0.58723
   5  -1   9  321.55  145.48   1 0.54367-0.12540-0.69165 0.62262-0.47542 0.77240
   5   1   9  340.79  101.36   1 0.63962-0.22122-0.71442 0.78351-0.28367 0.58066
   5  -1  1043309.89  668.31   1 0.56802-0.14406-0.70057 0.63149-0.43189 0.76188
   5   1  1045009.97  665.62   1 0.65399-0.22891-0.71595 0.78518-0.24433 0.57540
   5  -1  11  160.25  156.22   1 0.59014-0.16062-0.70650 0.63742-0.39060 0.75358
   5   1  11   40.90  104.31   1 0.66674-0.23606-0.71532 0.78454-0.20919 0.57337
   5  -1  12 2469.48  248.29   1 0.60977-0.17468-0.71065 0.64156-0.35093 0.74691
   5   1  12 2430.08  236.78   1 0.67790-0.24161-0.71381 0.78303-0.17584 0.57312
   5  -1  13  198.80  157.28   1 0.62721-0.18657-0.71328 0.64419-0.31277 0.74175
   5   1  13  323.03  155.50   1 0.68770-0.24581-0.71156 0.78078-0.14401 0.57441
   5  -1  14  123.51  119.56   1 0.64235-0.19485-0.71570 0.64648-0.27412 0.73762
   5   1  14   89.54  107.52   1 0.69582-0.24911-0.70941 0.77860-0.11206 0.57595
   5  -1  15 4933.14  337.08   1 0.65613-0.20303-0.71592 0.64670-0.23861 0.73522
   5   1  15 4588.97  314.32   1 0.70342-0.25115-0.70593 0.77512-0.08271 0.57973
   5  -1  16 3749.61  292.60   1 0.66843-0.20973-0.71515 0.64593-0.20430 0.73401
   5   1  16 4004.17  292.66   1 0.71012-0.25229-0.70197 0.77116-0.05435 0.58451
   5  -1  17 9150.60  444.06   1 0.67942-0.21511-0.71352 0.64430-0.17107 0.73389
   5   1  17 8725.04  402.98   1 0.71603-0.25264-0.69755 0.76674-0.02685 0.59015
   5  -1  18 9824.76  453.07   1 0.68922-0.21931-0.71112 0.64190-0.13882 0.73475
   5   1  18 9987.65  479.41   1 0.72121-0.25226-0.69271 0.76190-0.00011 0.59654
   5  -1  19 6836.70  462.48   1 0.69741-0.22291-0.70876 0.63957-0.10613 0.73569
   5   1  19 6699.46  431.88   1 0.72573-0.25123-0.68748 0.75667 0.02597 0.60359
   5  -1  20 4349.28  392.13   1 0.70516-0.22511-0.70499 0.63580-0.07558 0.73828
   5   1  20 4594.72  382.94   1 0.72964-0.24958-0.68188 0.75107 0.05148 0.61122
   5  -1  21  520.30  190.69   1 0.71203-0.22642-0.70065 0.63146-0.04577 0.74161
   5   1  21  609.72  204.04   1 0.73261-0.24701-0.67629 0.74545 0.07676 0.61909
  -5  -1 -22 4671.09  428.73   1-0.74275 0.25037 0.66266-0.73183-0.09589-0.63382
   5  -1  22 5237.99  438.68   1 0.71807-0.22691-0.69576 0.62657-0.01662 0.74559
   5   1  22 5369.97  432.29   1 0.73543-0.24426-0.66998 0.73914 0.10130 0.62769
  -5  -1 -23   95.78   62.29   1-0.74503 0.24708 0.65609-0.72525-0.12028-0.64261
   5  -1  23   68.42  130.89   1 0.72336-0.22663-0.69036 0.62117 0.01192 0.75018
   5   1  23   23.07  137.59   1 0.73773-0.24101-0.66332 0.73248 0.12543 0.63668
   5   2 -26 4807.47  375.35   1-0.68687 0.91162 0.43744-0.29910-0.58037-0.28190
   5  -2 -26 4586.45  385.15   1-0.63255 0.85732 0.34752-0.48584-0.69217-0.17014
   5   2 -25   70.91  145.34   1-0.68861 0.91893 0.44067-0.30233-0.57585-0.25325
   5  -2 -25  126.32  148.22   1-0.63271 0.86306 0.34777-0.48609-0.69189-0.13724
   5   2 -24  978.25  216.94   1-0.68991 0.92581 0.44312-0.30478-0.57241-0.22353
   5  -2 -24 1376.37  225.92   1-0.63225 0.86817 0.34706-0.48538-0.69267-0.10330
   5   2 -23 1433.76  234.88   1-0.69074 0.93222 0.44469-0.30635-0.57018-0.19260
   5  -2 -23 1540.08  230.79   1-0.63111 0.87260 0.34531-0.48363-0.69458-0.06822
   5   2 -22  532.50  151.68   1-0.69106 0.93812 0.44530-0.30696-0.56932-0.16030
   5  -2 -22  515.23  148.48   1-0.62922 0.87628 0.34241-0.48073-0.69773-0.03191
   5   2 -21  129.13  135.58   1-0.69080 0.94344 0.44481-0.30647-0.57001-0.12644
   5  -2 -21  177.26  121.37   1-0.62647 0.87911 0.33824-0.47657-0.70221 0.00573
   5   2 -20 3153.47  255.53   1-0.68988 0.94809 0.44307-0.30473-0.57248-0.09080
   5  -2 -20 3405.55  263.85   1-0.62278 0.88099 0.33267-0.47100-0.70814 0.04482
   5   2 -19  609.14  144.52   1-0.68818 0.95197 0.43987-0.30153-0.57698-0.05314
   5  -2 -19  542.03  115.57   1-0.61799 0.88177 0.32552-0.46385-0.71562 0.08546
   5   2 -18 3972.43  232.11   1-0.68553 0.95490 0.43496-0.29662-0.58381-0.01315
   5  -2 -18 4617.15  632.26   1-0.61195 0.88130 0.31661-0.45493-0.72475 0.12777
   5   2 -17  855.69  166.90   1-0.68172 0.95666 0.42801-0.28967-0.59333 0.02953
   5  -2 -17  819.40  144.96   1-0.60444 0.87938 0.30570-0.44403-0.73565 0.17183
   5   2 -16    9.29   90.21   1-0.67645 0.95697 0.41857-0.28023-0.60597 0.07533
   5  -2 -16  -35.05  131.60   1-0.59524 0.87575 0.29254-0.43086-0.74839 0.21774
   5   2 -1515315.88  447.25   1-0.66928 0.95538 0.40608-0.26774-0.62221 0.12474
   5  -2 -1517172.52  564.26   1-0.58404 0.87012 0.27682-0.41515-0.76305 0.26556
   5   2 -14 4928.64  260.60   1-0.65963 0.95130 0.38978-0.25144-0.64260 0.17830
   5  -2 -14 5240.74  307.31   1-0.57082 0.86223 0.25834-0.39661-0.77937 0.31504
   5   2 -13 9765.62  285.50   1-0.64657 0.94379 0.36946-0.23113-0.66741 0.23625
   5  -2 -1311190.62  418.94   1-0.55452 0.85152 0.23648-0.37476-0.79785 0.36669
   5   2 -1238912.48  530.44   1-0.62911 0.93191 0.34224-0.20392-0.69791 0.29992
   5  -2 -1243797.50 1040.46   1-0.53500 0.83758 0.21097-0.34925-0.81808 0.42008
   5   2 -11 8450.71  403.62   1-0.60542 0.91379 0.30710-0.16878-0.73426 0.36944
   5  -2 -11 9878.31  364.25   1-0.51172 0.81989 0.18141-0.31969-0.83977 0.47494
   5   2 -10 2230.05  136.24   1-0.57338 0.88713 0.26183-0.12355-0.77632 0.44465
   5  -2 -10 2191.97  179.55   1-0.48407 0.79783 0.14738-0.28566-0.86252 0.53090
   5   2  -924561.78  414.85   1-0.52903 0.84837 0.20330-0.06502-0.82388 0.52538
   5  -2  -925038.81  521.85   1-0.45156 0.77090 0.10865-0.24693-0.88559 0.58714
   5   2  -8    3.99   36.23   1-0.46822 0.79315 0.12833 0.00994-0.87423 0.60894
   5  -2  -8   38.04   42.00   1-0.41360 0.73853 0.06501-0.20329-0.90813 0.64283
   5  -2  -7  390.90  106.01   1-0.37006 0.70062 0.01618-0.15447-0.92886 0.69660
   5   2  -7  290.22   52.21   1-0.38600 0.71656 0.03364 0.10464-0.92188 0.68962
   5  -2  -612271.71  345.43   1-0.32029 0.65644-0.03686-0.10142-0.94660 0.74752
   5   2  -612987.39  204.53   1-0.27849 0.61465-0.07985 0.21814-0.95711 0.75803
   5  -2  -5 4747.96  217.28   1-0.26471 0.60646-0.09373-0.04455-0.95976 0.79386
   5   2  -5 4652.65  140.44   1-0.14449 0.48609-0.21156 0.34994-0.96662 0.80078
   5  -2  -428366.27  453.77   1-0.20347 0.55078-0.15425 0.01589-0.96685 0.83449
   5   2  -427244.15  289.56   1 0.00508 0.34236-0.34221 0.48049-0.93960 0.80740
   5  -2  -317570.23  355.21   1-0.13874 0.49160-0.21499 0.07663-0.96670 0.86743
   5   2  -317690.73  231.97   1 0.15234 0.20025-0.45958 0.59780-0.87497 0.77622
   5  -2  -243112.40  560.33   1-0.07203 0.43051-0.27665 0.13827-0.95826 0.89192
   5   2  -242775.82  383.80   1 0.27853 0.07907-0.54974 0.68781-0.78752 0.72156
   5  -2  -1 1950.27  171.47   1-0.00313 0.36717-0.33537 0.19708-0.94208 0.90903
   5   2  -1 1898.92  238.62   1 0.37930-0.01633-0.61300 0.75102-0.69307 0.66007
   5  -2   0 2617.84  175.64   1 0.06454 0.30503-0.39051 0.25223-0.91833 0.91833
   5   2   0 2784.71  312.37   1 0.45458-0.08607-0.65273 0.79075-0.60604 0.60604
   5  -2   128782.70  456.34   1 0.12915 0.24559-0.44223 0.30401-0.88755 0.92046
   5   2   130775.85  362.59   1 0.51117-0.13714-0.67939 0.81745-0.52642 0.55942
   5  -2   2 4942.54  222.18   1 0.19111 0.18917-0.48779 0.34957-0.85178 0.91761
   5   2   2 5307.58  187.20   1 0.55326-0.17371-0.69490 0.83297-0.45934 0.52533
   5  -2   3  824.54  117.29   1 0.24895 0.13687-0.52799 0.38977-0.81193 0.91068
   5   2   3  890.35   90.89   1 0.58577-0.20072-0.70543 0.84360-0.39904 0.49803
   5  -2   4 8824.24  299.41   1 0.30182 0.08900-0.56474 0.42667-0.76808 0.90001
   5   2   4 9000.71  265.69   1 0.61112-0.22052-0.71089 0.84906-0.34806 0.48005
   5  -2   5 9407.53  344.23   1 0.35044 0.04592-0.59464 0.45656-0.72359 0.88850
   5   2   5 9187.26  278.69   1 0.63156-0.23540-0.71375 0.85192-0.30277 0.46776
   5  -2   6  492.32  103.24   1 0.39394 0.00778-0.62119 0.48317-0.67743 0.87548
   5   2   6  530.74   94.41   1 0.64822-0.24556-0.71592 0.85437-0.25934 0.45798
   5  -2   7 9726.38  355.70   1 0.43353-0.02626-0.64225 0.50422-0.63210 0.86317
   5  -2   876704.71  857.40   1 0.46906-0.05625-0.65962 0.52160-0.58725 0.85133
   5   2   879446.14  790.99   1 0.67401-0.26014-0.71445 0.85290-0.18778 0.45264
   5  -2   910154.93  388.60   1 0.50002-0.08176-0.67477 0.53671-0.54281 0.83979
   5  -2  1010953.74  383.59   1 0.52850-0.10471-0.68616 0.54810-0.49985 0.82982
   5   2  1011268.26  352.33   1 0.69301-0.26793-0.70990 0.84834-0.12555 0.45663
   5  -2  11  115.83  109.26   1 0.55401-0.12470-0.69515 0.55709-0.45806 0.82103
   5   2  11  227.74  105.48   1 0.70023-0.27018-0.70751 0.84589-0.09536 0.45985
   5  -2  12 1838.58  233.10   1 0.57612-0.14104-0.70288 0.56471-0.41716 0.81314
   5   2  12 1492.27  179.98   1 0.70697-0.27137-0.70395 0.84233-0.06802 0.46564
   5  -2  13  -55.50  113.55   1 0.59662-0.15598-0.70800 0.56983-0.37784 0.80682
   5   2  13   66.14   91.04   1 0.71290-0.27174-0.70001 0.83839-0.04173 0.47249
   5  -2  14 3855.05  282.36   1 0.61503-0.16883-0.71155 0.57338-0.33972 0.80169
   5   2  14 3841.22  280.67   1 0.71813-0.27141-0.69571 0.83409-0.01634 0.48023
   5  -2  15  692.36  177.45   1 0.63157-0.17981-0.71375 0.57558-0.30275 0.79772
   5   2  15  690.70  155.28   1 0.72272-0.27045-0.69108 0.82946 0.00830 0.48872
   5  -2  16  608.55  160.87   1 0.64601-0.18731-0.71586 0.57741-0.26495 0.79467
   5   2  16  342.20  124.24   1 0.72675-0.26892-0.68613 0.82451 0.03231 0.49784
   5  -2  17  567.23  193.68   1 0.65930-0.19499-0.71582 0.57737-0.23002 0.79285
   5   2  17  453.54  137.74   1 0.73025-0.26686-0.68089 0.81927 0.05578 0.50751
   5  -2  18  108.97  152.14   1 0.67124-0.20133-0.71483 0.57638-0.19605 0.79198
   5   2  18  -10.75  118.08   1 0.73290-0.26399-0.67571 0.81403 0.07910 0.51734
  -5  -2 -19 6173.26  426.70   1-0.74263 0.26699 0.66294-0.80128-0.09480-0.53540
   5  -2  19 8067.48  472.67   1 0.68196-0.20644-0.71299 0.57455-0.16296 0.79200
   5   2  19 7871.34  434.37   1 0.73547-0.26099-0.66988 0.80820 0.10167 0.52790
  -5  -2 -20 5424.31  984.37   1-0.74478 0.26356 0.65690-0.79523-0.11736-0.54601
   5  -2  20 6578.16  401.09   1 0.69156-0.21044-0.71039 0.57194-0.13069 0.79283
   5   2  20 7928.12  504.46   1 0.73760-0.25757-0.66376 0.80208 0.12390 0.53881
  -5  -2 -21  933.88  240.30   1-0.74650 0.25970 0.65056-0.78890-0.13960-0.55694
   5  -2  21 1312.24  280.46   1 0.69958-0.21397-0.70781 0.56943-0.09786 0.79369
   5   2  21  957.48  270.18   1 0.73933-0.25373-0.65735 0.79567 0.14584 0.55001
  -5  -2 -22  -71.84  119.41   1-0.74781 0.25543 0.64394-0.78228-0.16157-0.56814
   5  -2  22   26.61  137.31   1 0.70721-0.21604-0.70381 0.56543-0.06702 0.79599
   5   2  22   71.63  141.91   1 0.74065-0.24949-0.65066 0.78898 0.16751 0.56147
  -5  -2 -23 1038.88  160.76   1-0.74872 0.25077 0.63703-0.77536-0.18330-0.57958
   5  -2  23 1330.69  280.94   1 0.71396-0.21723-0.69921 0.56083-0.03681 0.79891
   5   2  23 1007.67  253.69   1 0.74159-0.24486-0.64368 0.78200 0.18896 0.57316
   5   3 -26  -25.21  107.56   1-0.69535 0.92010 0.45352-0.24601-0.55749-0.30478
   5  -3 -26   20.85  153.21   1-0.61368 0.83845 0.31915-0.52664-0.72216-0.14014
   5   3 -25 1413.26  279.65   1-0.69735 0.92768 0.45744-0.24993-0.55175-0.27736
   5  -3 -25 2151.46  499.61   1-0.61335 0.84369 0.31867-0.52615-0.72266-0.10647
   5   3 -24  -97.87   89.73   1-0.69896 0.93487 0.46062-0.25311-0.54705-0.24889
   5  -3 -24  -77.77  115.07   1-0.61234 0.84826 0.31719-0.52468-0.72416-0.07181
   5   3 -23   18.94   82.28   1-0.70014 0.94162 0.46298-0.25547-0.54354-0.21924
   5  -3 -23   83.20   67.50   1-0.61060 0.85209 0.31464-0.52213-0.72674-0.03607
   5   3 -22  -26.19   82.68   1-0.70086 0.94792 0.46442-0.25691-0.54138-0.18824
   5  -3 -22  258.14  128.26   1-0.60806 0.85512 0.31093-0.51842-0.73046 0.00081
   5   3 -21  748.63  169.14   1-0.70106 0.95370 0.46482-0.25731-0.54077-0.15568
   5  -3 -21  799.06  162.44   1-0.60461 0.85724 0.30594-0.51342-0.73542 0.03893
   5   3 -20  207.80  123.34   1-0.70067 0.95888 0.46404-0.25653-0.54195-0.12134
   5  -3 -20  117.62   65.66   1-0.60015 0.85836 0.29953-0.50702-0.74168 0.07836
   5   3 -19  -38.33   82.60   1-0.69958 0.96337 0.46186-0.25435-0.54521-0.08491
   5  -3 -19  -14.41  113.86   1-0.59455 0.85833 0.29156-0.49905-0.74933 0.11917
   5   3 -18 2666.53  378.01   1-0.69765 0.96701 0.45802-0.25051-0.55090-0.04606
   5  -3 -18 3331.50  291.81   1-0.58765 0.85701 0.28186-0.48934-0.75842 0.16144
   5   3 -17   76.79   94.21   1-0.69465 0.96959 0.45217-0.24466-0.55945-0.00434
   5  -3 -17  267.46  193.77   1-0.57927 0.85420 0.27023-0.47771-0.76903 0.20521
   5   3 -16 7051.42  293.01   1-0.69029 0.97081 0.44384-0.23633-0.57139 0.04075
   5  -3 -16 7618.52  378.09   1-0.56952 0.84975 0.25657-0.46399-0.78090 0.25024
   5   3 -15 1690.56  194.63   1-0.68413 0.97023 0.43239-0.22488-0.58736 0.08988
   5  -3 -15 2006.15  249.58   1-0.55748 0.84330 0.24041-0.44782-0.79461 0.29711
   5   3 -1412794.56  342.90   1-0.67551 0.96718 0.41692-0.20941-0.60815 0.14384
   5  -3 -1415293.18  515.21   1-0.54320 0.83461 0.22159-0.42901-0.80982 0.34549
   5   3 -13  -43.62   53.12   1-0.66346 0.96070 0.39618-0.18867-0.63471 0.20356
   5  -3 -13  -47.77  129.76   1-0.52633 0.82332 0.19986-0.40727-0.82645 0.39529
   5   3 -12 5269.98  190.38   1-0.64647 0.94927 0.36931-0.16182-0.66758 0.26959
   5  -3 -12 6025.33  311.52   1-0.50651 0.80909 0.17491-0.38233-0.84430 0.44630
   5   3 -11 1934.01  208.17   1-0.62226 0.93063 0.33190-0.12441-0.70896 0.34413
   5  -3 -11 2707.16  240.38   1-0.48331 0.79147 0.14645-0.35387-0.86311 0.49832
   5   3 -10  406.53   74.20   1-0.58704 0.90099 0.28100-0.07351-0.75922 0.42756
   5  -3 -10  420.18   90.40   1-0.45638 0.77014 0.11432-0.32174-0.88240 0.55078
   5   3  -9 7899.81  397.83   1-0.53516 0.85450 0.21118-0.00376-0.81792 0.51942
   5  -3  -9 8517.15  546.34   1-0.42531 0.74465 0.07831-0.28573-0.90164 0.60319
   5   3  -8  841.18   75.03   1-0.45649 0.78142 0.11445 0.09296-0.88233 0.61703
   5  -3  -8  918.66  141.87   1-0.38977 0.71470 0.03838-0.24580-0.92010 0.65481
   5   3  -715261.03  251.38   1-0.33754 0.66810-0.01871 0.22614-0.94112 0.70886
   5  -3  -715421.36  402.91   1-0.34980 0.68036-0.00566-0.20177-0.93680 0.70454
   5  -3  -6 4031.40  237.57   1-0.30480 0.64096-0.05294-0.15448-0.95094 0.75186
   5   3  -6 4151.02  116.76   1-0.16009 0.49606-0.19712 0.40469-0.96721 0.76820
   5  -3  -514861.32  392.77   1-0.25471 0.59648-0.10417-0.10335-0.96138 0.79594
   5   3  -515176.67  219.20   1 0.07186 0.27005-0.39631 0.60373-0.91529 0.75004
   5  -3  -4  481.44  146.02   1-0.20113 0.54845-0.15649-0.05104-0.96698 0.83462
   5   3  -4  231.89   34.04   1 0.31404 0.03248-0.57244 0.77955-0.75742 0.62549
   5  -3  -375449.29 1070.16   1-0.14415 0.49701-0.21002 0.00248-0.96700 0.86774
   5   3  -374499.36  820.11   1 0.48615-0.13424-0.66877 0.87587-0.56248 0.46349
   5  -3  -237758.35  668.46   1-0.08556 0.44404-0.26474 0.05717-0.96051 0.89417
   5   3  -235775.42  437.04   1 0.57497-0.21773-0.70257 0.90982-0.41928 0.35328
   5  -3  -1 7674.88  306.32   1-0.02462 0.38873-0.31750 0.10992-0.94793 0.91476
   5   3  -1 7281.17  178.51   1 0.61875-0.25594-0.71214 0.91939-0.33165 0.29866
   5  -3   049000.23  965.37   1 0.03646 0.33310-0.36797 0.16055-0.92912 0.92912
   5  -3   1 9047.31  329.28   1 0.09632 0.27878-0.41544 0.20802-0.90450 0.93755
   5  -3   214138.88  344.60   1 0.15295 0.22733-0.46002 0.25269-0.87462 0.94045
   5   3   215047.89  296.55   1 0.67493-0.29468-0.71431 0.92198-0.18499 0.25120
   5  -3   3 3969.47  228.19   1 0.20792 0.17790-0.49971 0.29238-0.84086 0.93960
   5   3   3 3756.62  169.88   1 0.68467-0.29882-0.71236 0.92003-0.15413 0.25345
   5  -3   4 5766.80  278.09   1 0.25907 0.13176-0.53688 0.32977-0.80289 0.93481
   5   3   4 5837.99  207.98   1 0.69271-0.30126-0.71000 0.91767-0.12662 0.25905
   5  -3   5 6804.07  297.30   1 0.30729 0.08907-0.56820 0.36109-0.76335 0.92826
   5   3   5 7173.31  245.90   1 0.69919-0.30248-0.70799 0.91555-0.09938 0.26505
   5  -3   6 7990.27  318.55   1 0.35181 0.05009-0.59545 0.38834-0.72226 0.92015
   5   3   6 8357.80  273.41   1 0.70510-0.30283-0.70503 0.91260-0.07586 0.27467
   5  -3   7  136.34  105.94   1 0.39205 0.01521-0.62015 0.41311-0.67948 0.91055
   5   3   7  181.20   75.04   1 0.71032-0.30249-0.70184 0.90940-0.05348 0.28542
   5  -3   8  126.09  115.29   1 0.42933-0.01652-0.64010 0.43306-0.63713 0.90121
   5   3   8  335.99   90.28   1 0.71497-0.30159-0.69841 0.90598-0.03195 0.29703
   5  -3   918355.10  471.48   1 0.46324-0.04489-0.65689 0.44985-0.59488 0.89197
   5   3   918971.13  420.23   1 0.71915-0.30021-0.69476 0.90233-0.01108 0.30930
   5  -3  10    4.74  113.01   1 0.49307-0.06928-0.67180 0.46470-0.55277 0.88274
   5   3  10   89.94  114.93   1 0.72290-0.29840-0.69088 0.89845 0.00928 0.32206
   5  -3  11  363.00  170.17   1 0.52096-0.09164-0.68328 0.47618-0.51158 0.87455
   5   3  11   82.72  112.03   1 0.72626-0.29621-0.68679 0.89436 0.02926 0.33522
   5  -3  12 2247.38  231.70   1 0.54624-0.11139-0.69254 0.48545-0.47116 0.86713
   5   3  12 2351.21  202.51   1 0.72927-0.29366-0.68246 0.89003 0.04892 0.34869
   5  -3  13  107.40  123.34   1 0.56830-0.12766-0.70065 0.49340-0.43140 0.86038
   5   3  13   64.13   94.54   1 0.73159-0.29050-0.67826 0.88574 0.06874 0.36202
  -5  -3 -14 1361.45  190.50   1-0.74080 0.29303 0.66715-0.87465-0.07821-0.38614
   5  -3  14 1408.80  213.90   1 0.58902-0.14281-0.70623 0.49898-0.39278 0.85476
   5   3  14 1314.51  199.71   1 0.73395-0.28730-0.67348 0.88096 0.08792 0.37597
  -5  -3 -15  160.43  102.92   1-0.74294 0.28960 0.66216-0.86967-0.09778-0.39975
   5  -3  15  152.88  174.53   1 0.60778-0.15602-0.71028 0.50303-0.35509 0.85006
   5   3  15   42.40  101.08   1 0.73601-0.28379-0.66846 0.87594 0.10694 0.39009
  -5  -3 -16 1006.75  212.17   1-0.74477 0.28584 0.65695-0.86445-0.11717-0.41352
   5  -3  16 1121.79  232.05   1 0.62476-0.16744-0.71297 0.50572-0.31831 0.84628
   5   3  16 1137.90  199.86   1 0.73777-0.27999-0.66321 0.87069 0.12583 0.40433
  -5  -3 -17 1036.50  255.44   1-0.74628 0.28178 0.65149-0.85900-0.13642-0.42745
   5  -3  17  994.61  192.84   1 0.64014-0.17725-0.71445 0.50720-0.28242 0.84339
   5   3  17  994.10  190.22   1 0.73924-0.27590-0.65772 0.86520 0.14462 0.41868
  -5  -3 -18  859.55  137.09   1-0.74749 0.27742 0.64579-0.85330-0.15555-0.44149
   5  -3  18  918.90  217.19   1 0.65357-0.18365-0.71596 0.50829-0.24544 0.84137
   5   3  18  928.35  203.55   1 0.74043-0.27152-0.65198 0.85946 0.16332 0.43311
  -5  -3 -19  217.16  115.30   1-0.74840 0.27275 0.63985-0.84735-0.17458-0.45562
   5  -3  19  400.02  201.71   1 0.66606-0.19054-0.71538 0.50771-0.21115 0.84018
   5   3  19  369.51  188.96   1 0.74133-0.26685-0.64599 0.85347 0.18197 0.44761
  -5  -3 -20 1663.39  495.78   1-0.74901 0.26779 0.63365-0.84115-0.19354-0.46983
   5  -3  20 1309.78  252.51   1 0.67732-0.19620-0.71391 0.50624-0.17762 0.83977
   5   3  20 1364.13  244.08   1 0.74194-0.26191-0.63975 0.84723 0.20056 0.46215
  -5  -3 -21  106.31   83.33   1-0.74984 0.26231 0.62691-0.83432-0.21144-0.48486
   5  -3  21   47.02  132.63   1 0.68746-0.20073-0.71163 0.50396-0.14482 0.84007
   5   3  21 -146.46  125.38   1 0.74227-0.25667-0.63325 0.84073 0.21911 0.47674
  -5  -3 -22 2845.77  440.40   1-0.74987 0.25674 0.62019-0.82760-0.23032-0.49915
   5  -3  22 4033.33  386.13   1 0.69600-0.20483-0.70934 0.50177-0.11142 0.84039
   5   3  22 3859.54  372.88   1 0.74206-0.25150-0.62648 0.83402 0.23846 0.49106
   5  -4 -25  408.64  216.69   1-0.59174 0.82208 0.28760-0.56425-0.75307-0.07607
   5  -4 -24  210.97  169.69   1-0.59018 0.82609 0.28539-0.56204-0.75513-0.04084
   5   4 -23  242.80  116.39   1-0.70753 0.94901 0.47815-0.20147-0.52035-0.24243
   5  -4 -23  143.24  119.81   1-0.58783 0.82931 0.28210-0.55875-0.75820-0.00461
   5   4 -22  -37.74   80.85   1-0.70888 0.95572 0.47992-0.20321-0.51687-0.21283
   5  -4 -22   60.14  111.82   1-0.58462 0.83168 0.27763-0.55428-0.76232 0.03267
   5   4 -21  -47.32   78.97   1-0.70946 0.96188 0.48115-0.20444-0.51493-0.18160
   5  -4 -21  121.37  122.16   1-0.58047 0.83310 0.27187-0.54852-0.76755 0.07107
   5   4 -20  327.53   93.93   1-0.70950 0.96751 0.48125-0.20454-0.51477-0.14859
   5  -4 -20  317.40  180.10   1-0.57559 0.83348 0.26485-0.54141-0.77365 0.11032
   5   4 -19 2681.06  475.09   1-0.70863 0.97242 0.48047-0.20379-0.51670-0.11342
   5  -4 -19 3958.06  327.35   1-0.56921 0.83269 0.25616-0.53272-0.78126 0.15110
   5   4 -1815796.57 1223.05   1-0.70729 0.97665 0.47764-0.20096-0.52114-0.07582
   5  -4 -1820826.05  655.81   1-0.56151 0.83057 0.24578-0.52234-0.79011 0.19312
   5   4 -17  399.82   82.42   1-0.70499 0.97993 0.47284-0.19616-0.52857-0.03522
   5   4 -1633236.54  528.90   1-0.70143 0.98195 0.46557-0.18889-0.53965 0.00901
   5  -4 -1639472.29  801.41   1-0.54145 0.82168 0.21931-0.49587-0.81162 0.28095
   5   4 -15 2446.96  357.47   1-0.69616 0.98225 0.45510-0.17842-0.55518 0.05771
   5  -4 -15 3402.08  356.10   1-0.52868 0.81450 0.20285-0.47941-0.82422 0.32672
   5   4 -1470393.69  719.04   1-0.68846 0.98013 0.44040-0.16372-0.57625 0.11194
   5  -4 -1482048.44 1139.65   1-0.51376 0.80517 0.18397-0.46053-0.83797 0.37364
   5   4 -1310210.29  663.23   1-0.67719 0.97443 0.41988-0.14320-0.60424 0.17310
   5  -4 -1312409.60  458.23   1-0.49643 0.79343 0.16247-0.43902-0.85273 0.42156
   5   4 -12   -6.71   43.80   1-0.66042 0.96324 0.39110-0.11442-0.64099 0.24302
   5  -4 -12  -44.16  131.01   1-0.47639 0.77897 0.13811-0.41466-0.86831 0.47037
   5   4 -1120941.26  295.48   1-0.63501 0.94339 0.35131-0.07466-0.68799 0.32316
   5  -4 -1125437.07  559.08   1-0.45337 0.76154 0.11078-0.38734-0.88440 0.51962
   5   4 -10 2482.30  115.28   1-0.59448 0.90843 0.29146-0.01481-0.74942 0.41776
   5  -4 -10 3290.50  290.69   1-0.42708 0.74084 0.08033-0.35689-0.90063 0.56901
   5   4  -9  548.87   54.64   1-0.52676 0.84610 0.20041 0.07614-0.82604 0.52754
   5  -4  -9  579.54  128.67   1-0.39725 0.71659 0.04668-0.32324-0.91651 0.61806
   5  -4  -822021.70  521.08   1-0.36399 0.68895 0.00959-0.28618-0.93135 0.66591
   5  -4  -7  978.43  143.15   1-0.32654 0.65710-0.03031-0.24626-0.94469 0.71243
   5  -4  -6  298.86  102.76   1-0.28523 0.62138-0.07301-0.20356-0.95567 0.75659
   5  -4  -5 5382.03  275.11   1-0.23978 0.58155-0.11895-0.15775-0.96351 0.79806
   5  -4  -446771.73  803.71   1-0.19154 0.53885-0.16565-0.11105-0.96740 0.83504
   5  -4  -3 4341.82  241.74   1-0.14046 0.49332-0.21342-0.06329-0.96680 0.86754
   5  -4  -2 2514.62  212.06   1-0.08820 0.44668-0.26241-0.01434-0.96091 0.89457
   5  -4  -1 3170.68  223.11   1-0.03344 0.39755-0.31000 0.03324-0.95014 0.91697
  -5  -4   013299.22  234.69   1-0.74979 0.37984 0.61732-0.89386-0.23816 0.23816
   5  -4   016233.08  420.28   1 0.02183 0.34773-0.35603 0.07947-0.93421 0.93421
  -5  -4  -1 1118.55  177.63   1-0.74828 0.37300 0.64074-0.91742-0.17177 0.13860
   5  -4   1 1612.78  148.22   1 0.07652 0.29857-0.39998 0.12342-0.91332 0.94637
   5   4   1 1349.22   76.35   1 0.74197-0.36820-0.63512 0.91184 0.21469-0.18153
  -5  -4  -213166.49  278.57   1-0.74627 0.36540 0.65154-0.92821-0.13625 0.06991
   5  -4   216310.45  428.69   1 0.12874 0.25154-0.44192 0.16548-0.88776 0.95359
   5   4   216270.22  292.04   1 0.74070-0.36081-0.65038 0.92702 0.16838-0.10211
  -5  -4  -3  217.06   47.23   1-0.74484 0.35840 0.65670-0.93338-0.11805 0.01854
   5  -4   3  208.81   90.72   1 0.18034 0.20548-0.48005 0.20361-0.85850 0.95724
   5   4   3  159.36   45.90   1 0.73928-0.35383-0.65754 0.93418 0.14523-0.04582
  -5  -4  -4   13.05   38.39   1-0.74409 0.35208 0.65901-0.93568-0.10963-0.02303
   5  -4   4  227.46  141.35   1 0.22965 0.16171-0.51484 0.23840-0.82595 0.95760
  -5  -4  -5 6602.08  193.15   1-0.74388 0.34629 0.65962-0.93630-0.10735-0.05848
   5  -4   5 7992.09  314.22   1 0.27563 0.12074-0.54784 0.27169-0.78987 0.95477
   5   4   5 8162.20  223.70   1 0.73797-0.34139-0.66253 0.93917 0.12823 0.03744
  -5  -4  -6 2527.21  315.21   1-0.74405 0.34089 0.65913-0.93580-0.10920-0.08981
   5  -4   6 3596.63  252.54   1 0.31945 0.08245-0.57581 0.29966-0.75258 0.95047
   5   4   6 2906.65  142.99   1 0.73795-0.33581-0.66261 0.93925 0.12793 0.07088
  -5  -4  -7 6676.19  608.30   1-0.74448 0.33574 0.65783-0.93450-0.11397-0.11820
   5  -4   7 8216.24  345.37   1 0.36028 0.04716-0.60044 0.32429-0.71390 0.94477
   5   4   7 7512.70  238.42   1 0.73820-0.33049-0.66174 0.93838 0.13095 0.10099
  -5  -4  -813998.18  892.28   1-0.74508 0.33076 0.65591-0.93259-0.12089-0.14445
   5  -4   817004.97  490.22   1 0.39741 0.01539-0.62311 0.34706-0.67364 0.93771
   5   4   815131.06  337.73   1 0.73863-0.32536-0.66015 0.93679 0.13643 0.12865
  -5  -4  -9 8657.85  604.10   1-0.74577 0.32587 0.65350-0.93017-0.12946-0.16905
   5  -4   9 9995.59  410.70   1 0.43229-0.01394-0.64162 0.36557-0.63359 0.93067
   5   4   9 9411.65  302.68   1 0.73918-0.32035-0.65798 0.93462 0.14376 0.15445
  -5  -4 -10 9112.57  481.16   1-0.74648 0.32101 0.65065-0.92732-0.13930-0.19238
   5  -4  1012851.97 1429.66   1 0.46435-0.04046-0.65741 0.38136-0.59344 0.92353
   5   4  1011460.33  358.76   1 0.73978-0.31538-0.65532 0.93196 0.15255 0.17880
  -5  -4 -11   20.55   75.79   1-0.74718 0.31614 0.64742-0.92410-0.15016-0.21469
   5  -4  11   36.83  124.14   1 0.49270-0.06338-0.67164 0.39551-0.55329 0.91626
   5   4  11   14.57  109.60   1 0.74038-0.31042-0.65224 0.92888 0.16249 0.20199
  -5  -4 -12  -97.34   66.83   1-0.74782 0.31120 0.64385-0.92052-0.16186-0.23616
   5  -4  12   77.13  123.90   1 0.51959-0.08474-0.68274 0.40662-0.51368 0.90965
   5   4  12  168.21  114.40   1 0.74095-0.30542-0.64879 0.92543 0.17338 0.22425
  -5  -4 -13   -0.10   76.47   1-0.74839 0.30619 0.63996-0.91663-0.17424-0.25695
   5  -4  13   54.41  132.63   1 0.54417-0.10380-0.69183 0.41570-0.47458 0.90355
   5   4  13  -11.17   93.89   1 0.74145-0.30036-0.64498 0.92162 0.18503 0.24572
  -5  -4 -14  218.75   86.77   1-0.74884 0.30107 0.63575-0.91243-0.18719-0.27717
   5  -4  14  409.31  173.23   1 0.56574-0.11954-0.69989 0.42355-0.43597 0.89794
   5   4  14  167.79  108.99   1 0.74186-0.29520-0.64085 0.91749 0.19734 0.26655
  -5  -4 -15  188.27   98.80   1-0.74916 0.29582 0.63126-0.90793-0.20063-0.29689
   5  -4  15  176.07  140.28   1 0.58622-0.13446-0.70554 0.42920-0.39816 0.89314
   5   4  15   95.52  111.05   1 0.74215-0.28993-0.63640 0.91305 0.21020 0.28683
  -5  -4 -16 3824.25  555.80   1-0.74986 0.29032 0.62626-0.90281-0.21329-0.31723
   5  -4  16 5167.04  389.32   1 0.60490-0.14758-0.70973 0.43339-0.36106 0.88903
   5   4  16 5716.53  389.08   1 0.74206-0.28488-0.63163 0.90836 0.22443 0.30613
  -5  -4 -17   -9.17  118.36   1-0.74988 0.28475 0.62119-0.89774-0.22756-0.33612
   5  -4  17   14.99  122.94   1 0.62191-0.15903-0.71259 0.43625-0.32468 0.88565
   5   4  17   85.01  117.16   1 0.74206-0.27931-0.62659 0.90332 0.23816 0.32556
  -5  -4 -18 1245.34  281.57   1-0.74973 0.27899 0.61583-0.89238-0.24215-0.35469
   5  -4  18 1821.03  294.47   1 0.63740-0.16896-0.71427 0.43793-0.28902 0.88298
   5   4  18 1872.75  281.52   1 0.74189-0.27358-0.62125 0.89798 0.25225 0.34463
  -5  -4 -19  328.82  103.13   1-0.74939 0.27305 0.61020-0.88675-0.25702-0.37297
   5  -4  19  148.40  144.08   1 0.65102-0.17550-0.71596 0.43907-0.25210 0.88114
   5   4  19  454.06  195.84   1 0.74154-0.26767-0.61563 0.89236 0.26666 0.36337
  -5  -4 -20 8619.35 1210.87   1-0.74884 0.26691 0.60428-0.88083-0.27215-0.39100
   5  -4  2013212.23  603.23   1 0.66373-0.18261-0.71557 0.43867-0.21775 0.87989
   5   4  2013333.73  586.08   1 0.74099-0.26156-0.60971 0.88644 0.28136 0.38183
  -5  -4 -21 2000.30  323.57   1-0.74808 0.26054 0.59808-0.87463-0.28750-0.40881
   5  -4  21 2890.02  383.00   1 0.67524-0.18851-0.71426 0.43737-0.18404 0.87929
   5   4  21 2919.90  365.72   1 0.74025-0.25525-0.60350 0.88023 0.29632 0.40003
  -5  -4 -22  357.61  104.99   1-0.74709 0.25396 0.59160-0.86814-0.30307-0.42640
   5  -4  22  394.91  189.57   1 0.68563-0.19330-0.71212 0.43522-0.15096 0.87932
   5   4  22  253.35  139.79   1 0.73928-0.24873-0.59700 0.87372 0.31152 0.41800
   5  -5 -24  107.65  133.13   1-0.56612 0.80166 0.25197-0.59767-0.78486-0.01112
   5  -5 -23  102.98  124.67   1-0.56316 0.80429 0.24799-0.59369-0.78825 0.02542
   5  -5 -22   76.86  122.93   1-0.55930 0.80602 0.24283-0.58853-0.79259 0.06293
   5  -5 -21   75.37  136.16   1-0.55446 0.80676 0.23640-0.58209-0.79792 0.10142
   5  -5 -20  945.25  256.39   1-0.54854 0.80643 0.22858-0.57428-0.80426 0.14093
   5   5 -19  -53.18   79.01   1-0.71568 0.97926 0.49481-0.14893-0.49290-0.13729
   5  -5 -19  552.07  223.93   1-0.54142 0.80489 0.21928-0.56497-0.81164 0.18148
   5  -5 -18 4011.29  524.62   1-0.53297 0.80203 0.20835-0.55405-0.82007 0.22308
   5   5 -17  -14.25   68.22   1-0.71305 0.98780 0.48895-0.14307-0.50246-0.06139
   5  -5 -17  -57.48  125.27   1-0.52304 0.79769 0.19567-0.54137-0.82953 0.26571
   5   5 -16   28.20   23.88   1-0.71011 0.99045 0.48256-0.13667-0.51270-0.01799
   5  -5 -16 -110.95  128.36   1-0.51147 0.79170 0.18110-0.52679-0.84000 0.30933
   5   5 -15 2478.09  410.79   1-0.70527 0.99136 0.47342-0.12757-0.52769 0.03022
   5  -5 -15 4499.36  315.43   1-0.49806 0.78388 0.16447-0.51017-0.85139 0.35390
   5  -5 -14 4995.51  342.36   1-0.48261 0.77402 0.14561-0.49131-0.86364 0.39937
   5  -5 -13  437.82  168.66   1-0.46494 0.76194 0.12443-0.47013-0.87655 0.44544
   5  -5 -12 1673.92  217.94   1-0.44481 0.74739 0.10078-0.44647-0.88993 0.49198
   5  -5 -1116390.72  503.54   1-0.42200 0.73017 0.07454-0.42024-0.90352 0.53873
   5  -5 -10 4269.57  291.13   1-0.39632 0.71007 0.04564-0.39134-0.91697 0.58535
   5  -5  -9  233.72  112.68   1-0.36792 0.68728 0.01385-0.35958-0.92975 0.63113
   5  -5  -8  442.03  133.79   1-0.33600 0.66096-0.02034-0.32538-0.94164 0.67620
   5  -5  -715510.23  411.45   1-0.30084 0.63140-0.05703-0.28869-0.95196 0.71970
   5  -5  -610064.35  342.42   1-0.26249 0.59864-0.09595-0.24977-0.96015 0.76107
   5  -5  -5 4517.31  278.79   1-0.22072 0.56249-0.13760-0.20829-0.96558 0.80013
   5  -5  -4  -51.84   98.06   1-0.17667 0.52398-0.17973-0.16616-0.96771 0.83536
   5  -5  -328359.63  539.23   1-0.13145 0.48431-0.22352-0.12243-0.96579 0.86628
   5  -5  -231635.46  649.00   1-0.08302 0.44150-0.26699-0.07895-0.96011 0.89377
   5  -5  -112566.70  369.95   1-0.03329 0.39740-0.31012-0.03582-0.95011 0.91694
   5  -5   0 1012.81  130.74   1 0.01708 0.35248-0.35213 0.00643-0.93579 0.93579
   5  -5   1 1661.69  170.25   1 0.06724 0.30785-0.39265 0.04695-0.91722 0.95027
  -5  -5  -2 1460.18  213.25   1-0.71500 0.33418 0.49328-0.83916-0.49542 0.42908
   5  -5   2 2055.93  195.13   1 0.11679 0.26383-0.43118 0.08547-0.89467 0.96077
  -5  -5  -3 7885.74  286.73   1-0.73201 0.34561 0.53574-0.88162-0.42087 0.32137
   5  -5   310104.59  367.60   1 0.16356 0.22226-0.46784 0.12229-0.86854 0.96728
  -5  -5  -4 1222.87  207.53   1-0.73992 0.34794 0.56063-0.90651-0.37176 0.23909
   5  -5   4 1720.49  190.22   1 0.21014 0.18121-0.50127 0.15572-0.83937 0.97103
  -5  -5  -5 5712.00  419.74   1-0.74416 0.34621 0.57669-0.92238-0.33710 0.17131
   5  -5   5 7192.15  323.44   1 0.25392 0.14245-0.53343 0.18825-0.80682 0.97173
  -5  -5  -6 1436.73  268.63   1-0.74621 0.34266 0.58661-0.93229-0.31472 0.11577
   5  -5   6 2488.57  242.71   1 0.29635 0.10555-0.56125 0.21607-0.77276 0.97065
  -5  -5  -7 9357.94  652.35   1-0.74731 0.33817 0.59296-0.93864-0.29985 0.06775
   5  -5   711504.28  427.61   1 0.33637 0.07108-0.58619 0.24100-0.73704 0.96791
  -5  -5  -8  368.55  116.68   1-0.74790 0.33316 0.59684-0.94253-0.29052 0.02525
   5  -5   8  924.87  212.45   1 0.37311 0.03969-0.60947 0.26441-0.69951 0.96359
  -5  -5  -910108.40  591.23   1-0.74820 0.32785 0.59895-0.94463-0.28539-0.01303
   5  -5   912456.84  487.48   1 0.40812 0.01022-0.62893 0.28386-0.66172 0.95880
   5   5   913430.58  365.16   1 0.73989-0.32163-0.60094 0.94685 0.30236-0.00392
  -5  -5 -10  636.33  143.13   1-0.74830 0.32235 0.59971-0.94539-0.28352-0.04805
   5  -5  10  924.45  179.14   1 0.44065-0.01676-0.64585 0.30079-0.62344 0.95354
   5   5  10  670.46  114.94   1 0.74007-0.31625-0.60221 0.94812 0.29937 0.03222
  -5  -5 -11  562.63  134.15   1-0.74826 0.31671 0.59941-0.94509-0.28426-0.08047
   5  -5  11  783.43  155.95   1 0.47079-0.04136-0.66043 0.31537-0.58496 0.94806
   5   5  11  432.36  102.44   1 0.74008-0.31070-0.60232 0.94823 0.29911 0.06564
  -5  -5 -12 1569.34  229.07   1-0.74810 0.31096 0.59825-0.94394-0.28709-0.11080
   5  -5  12 1727.48  228.91   1 0.49751-0.06266-0.67371 0.32855-0.54643 0.94240
   5   5  12 1636.26  172.83   1 0.73997-0.30503-0.60149 0.94740 0.30107 0.09684
  -5  -5 -13  -33.97   79.99   1-0.74784 0.30510 0.59638-0.94206-0.29165-0.13939
   5  -5  13   79.50  125.61   1 0.52317-0.08279-0.68413 0.33897-0.50817 0.93714
   5   5  13   20.37   92.47   1 0.73973-0.29923-0.59988 0.94579 0.30484 0.12623
  -5  -5 -14  698.33  198.45   1-0.74746 0.29912 0.59388-0.93956-0.29765-0.16655
   5  -5  14  933.21  211.24   1 0.54679-0.10088-0.69273 0.34757-0.47024 0.93220
  -5  -5 -15  931.38  166.53   1-0.74696 0.29302 0.59084-0.93652-0.30486-0.19250
   5  -5  15  898.65  226.13   1 0.56759-0.11582-0.70044 0.35502-0.43268 0.92765
  -5  -5 -16  988.87  237.71   1-0.74634 0.28680 0.58730-0.93299-0.31311-0.21741
   5  -5  16 1465.45  231.89   1 0.58752-0.13020-0.70587 0.36044-0.39567 0.92364
  -5  -5 -17  441.73   88.10   1-0.74557 0.28043 0.58332-0.92901-0.32224-0.24143
   5  -5  17  243.90  182.76   1 0.60580-0.14292-0.70990 0.36448-0.35920 0.92017
  -5  -5 -18   56.58   95.71   1-0.74465 0.27392 0.57892-0.92461-0.33215-0.26468
   5  -5  18   89.11  133.45   1 0.62254-0.15410-0.71268 0.36725-0.32329 0.91726
  -5  -5 -19 1685.16  264.57   1-0.74357 0.26723 0.57413-0.91981-0.34273-0.28726
   5  -5  19 2707.84  328.79   1 0.63784-0.16384-0.71430 0.36887-0.28795 0.91492
  -5  -5 -20   83.82   70.70   1-0.74231 0.26037 0.56895-0.91464-0.35391-0.30924
   5  -5  20  156.83  207.18   1 0.65136-0.17024-0.71596 0.36985-0.25121 0.91335
  -5  -5 -21  523.69  135.71   1-0.74086 0.25332 0.56341-0.90910-0.36562-0.33069
   5  -5  21  997.57  239.33   1 0.66402-0.17729-0.71555 0.36943-0.21693 0.91218
   5  -6 -23  101.75  133.82   1-0.53596 0.77709 0.21220-0.62704-0.81713 0.05431
   5  -6 -22 1445.97  293.92   1-0.53147 0.77819 0.20643-0.62127-0.82153 0.09187
   5  -6 -21    7.36  143.39   1-0.52598 0.77828 0.19941-0.61424-0.82678 0.13029
   5  -6 -20 1243.69  226.32   1-0.51938 0.77727 0.19104-0.60587-0.83291 0.16958
   5  -6 -19 5150.19  386.05   1-0.51157 0.77505 0.18123-0.59607-0.83990 0.20974
   5  -6 -18   94.43  159.94   1-0.50244 0.77151 0.16988-0.58471-0.84775 0.25075
   5  -6 -17 7843.16  414.69   1-0.49186 0.76651 0.15686-0.57170-0.85642 0.29259
   5  -6 -16   95.14  129.00   1-0.47966 0.75990 0.14205-0.55689-0.86587 0.33528
   5  -6 -15 -101.22  115.85   1-0.46574 0.75156 0.12538-0.54022-0.87599 0.37856
   5  -6 -14 1665.99  304.90   1-0.44990 0.74131 0.10672-0.52155-0.88667 0.42240
   5  -6 -13 6518.96  411.19   1-0.43199 0.72898 0.08596-0.50079-0.89777 0.46666
   5  -6 -1211791.43 1289.58   1-0.41183 0.71442 0.06302-0.47785-0.90907 0.51113
   5  -6 -11 3705.54  283.47   1-0.38928 0.69744 0.03784-0.45267-0.92034 0.55555
   5  -6 -10 3614.41  312.54   1-0.36454 0.67831 0.01019-0.42507-0.93112 0.59933
   5  -6  -9  107.04  126.30   1-0.33679 0.65615-0.01950-0.39536-0.94137 0.64276
   5  -6  -820571.41  569.78   1-0.30631 0.63127-0.05139-0.36348-0.95054 0.68510
   5  -6  -7  243.67  123.34   1-0.27309 0.60365-0.08530-0.32956-0.95819 0.72594
   5  -6  -6  344.79  158.34   1-0.23675 0.57298-0.12194-0.29313-0.96388 0.76534
   5  -6  -5 3365.17  273.51   1-0.19841 0.54018-0.15910-0.25597-0.96711 0.80167
   5  -6  -4 5177.06  309.77   1-0.15776 0.50507-0.19743-0.21764-0.96753 0.83517
   5  -6  -3  382.76  134.44   1-0.11638 0.46924-0.23720-0.17793-0.96446 0.86495
   5  -6  -238246.28  658.49   1-0.07199 0.43047-0.27669-0.13845-0.95825 0.89192
   5  -6  -1  143.68  154.17   1-0.02642 0.39053-0.31597-0.09916-0.94840 0.91523
   5  -6   0 1866.02  208.25   1 0.01982 0.34975-0.35438-0.06045-0.93488 0.93488
   5  -6   151266.34  757.90   1 0.06605 0.30905-0.39171-0.02313-0.91771 0.95076
   5  -6   2 1742.67  195.20   1 0.11197 0.26865-0.42749 0.01265-0.89705 0.96315
   5  -6   3 2190.66  219.60   1 0.15545 0.23037-0.46187 0.04721-0.87321 0.97195
  -5  -6  -4  842.22  127.90   1-0.67661 0.28456 0.41885-0.83387-0.60560 0.47294
   5  -6   4  987.44  152.32   1 0.19928 0.19208-0.49361 0.07895-0.84654 0.97819
  -5  -6  -518119.18  439.94   1-0.69737 0.29974 0.45747-0.87249-0.55171 0.38589
   5  -6   523658.10  610.92   1 0.24163 0.15526-0.52303 0.10837-0.81733 0.98190
  -5  -6  -6  225.97   60.95   1-0.71081 0.30767 0.48406-0.89912-0.51031 0.31130
   5  -6   6  963.37  209.43   1 0.28131 0.12059-0.55155 0.13733-0.78526 0.98315
  -5  -6  -7   30.49   55.67   1-0.71913 0.31040 0.50276-0.91782-0.47966 0.24748
   5  -6   7   70.28  131.33   1 0.32005 0.08739-0.57618 0.16196-0.75204 0.98291
  -5  -6  -8 1774.49  370.74   1-0.72464 0.31033 0.51612-0.93118-0.45662 0.19127
   5  -6   8 2414.76  257.67   1 0.35673 0.05625-0.59835 0.18413-0.71743 0.98128
  -5  -6  -9 3331.72  648.13   1-0.72834 0.30845 0.52566-0.94072-0.43953 0.14102
   5  -6   9 4233.55  303.82   1 0.39042 0.02791-0.61925 0.20517-0.68124 0.97832
  -5  -6 -10 7753.32  556.68   1-0.73081 0.30534 0.53238-0.94744-0.42717 0.09549
   5  -6  1010180.17  453.34   1 0.42284 0.00104-0.63673 0.22266-0.64480 0.97489
  -5  -6 -11   -6.68   89.73   1-0.73242 0.30137 0.53692-0.95198-0.41864 0.05379
   5  -6  11  177.16  158.07   1 0.45313-0.02371-0.65203 0.23795-0.60788 0.97098
  -5  -6 -12 2391.80  409.96   1-0.73340 0.29676 0.53976-0.95482-0.41324 0.01522
   5  -6  12 3442.63  523.72   1 0.48019-0.04534-0.66610 0.25191-0.57071 0.96668
  -5  -6 -13 1888.96  459.24   1-0.73389 0.29168 0.54122-0.95629-0.41044-0.02074
   5  -6  13 2729.25  306.80   1 0.50640-0.06603-0.67744 0.26325-0.53349 0.96246
  -5  -6 -14 3313.76  685.02   1-0.73400 0.28620 0.54155-0.95661-0.40981-0.05454
   5  -6  14 4026.88  329.04   1 0.53072-0.08481-0.68699 0.27280-0.49635 0.95832
  -5  -6 -15   27.04   40.84   1-0.73379 0.28041 0.54091-0.95597-0.41104-0.08648
   5  -6  15  295.70  140.97   1 0.55322-0.10178-0.69489 0.28070-0.45941 0.95438
  -5  -6 -16  226.53   88.33   1-0.73329 0.27433 0.53944-0.95451-0.41385-0.11684
   5  -6  16  228.60  140.74   1 0.57306-0.11574-0.70203 0.28752-0.42278 0.95075
  -5  -6 -17 2733.62  538.12   1-0.73253 0.26799 0.53725-0.95231-0.41802-0.14584
   5  -6  17 4152.29  361.48   1 0.59224-0.12936-0.70700 0.29249-0.38650 0.94747
  -5  -6 -18  815.68  181.85   1-0.73154 0.26141 0.53441-0.94947-0.42337-0.17365
   5  -6  18 1873.07  325.78   1 0.60991-0.14146-0.71067 0.29616-0.35063 0.94460
  -5  -6 -19  393.63   95.23   1-0.73030 0.25459 0.53098-0.94604-0.42976-0.20043
   5  -6  19  232.83  152.44   1 0.62615-0.15215-0.71315 0.29864-0.31519 0.94215
  -5  -6 -20  401.48   94.60   1-0.72884 0.24755 0.52701-0.94207-0.43707-0.22629
   5  -6  20  715.31  228.05   1 0.64105-0.16149-0.71451 0.30000-0.28020 0.94016
   5  -7 -22  459.76  231.81   1-0.50151 0.74823 0.16872-0.65270-0.84853 0.11887
   5  -7 -21  -52.36  127.92   1-0.49540 0.74770 0.16120-0.64518-0.85357 0.15707
   5  -7 -20 1309.93  253.96   1-0.48818 0.74607 0.15238-0.63635-0.85933 0.19600
   5  -7 -19 2564.81  336.55   1-0.47975 0.74322 0.14215-0.62613-0.86581 0.23573
   5  -7 -18  604.31  190.17   1-0.47002 0.73908 0.13047-0.61445-0.87295 0.27604
   5  -7 -17  109.51  116.82   1-0.45887 0.73352 0.11724-0.60122-0.88073 0.31697
   5  -7 -16  270.81  143.86   1-0.44618 0.72642 0.10237-0.58635-0.88906 0.35847
   5  -7 -15 3469.63  364.64   1-0.43183 0.71765 0.08577-0.56975-0.89786 0.40043
   5  -7 -14  693.01  219.71   1-0.41569 0.70710 0.06737-0.55135-0.90700 0.44273
   5  -7 -13 9090.74  459.75   1-0.39763 0.69462 0.04710-0.53108-0.91633 0.48522
   5  -7 -12  348.94  165.46   1-0.37790 0.68047 0.02474-0.50876-0.92551 0.52736
   5  -7 -11 3350.95  328.85   1-0.35564 0.66381 0.00059-0.48461-0.93462 0.56964
   5  -7 -1014509.82  496.62   1-0.33112 0.64489-0.02549-0.45852-0.94324 0.61144
   5  -7  -914301.93  671.61   1-0.30428 0.62364-0.05349-0.43052-0.95107 0.65246
   5  -7  -8 2349.59  291.76   1-0.27508 0.60004-0.08330-0.40071-0.95780 0.69236
   5  -7  -7 3678.46  295.09   1-0.24304 0.57373-0.11574-0.36851-0.96308 0.73145
   5  -7  -6   -7.16  123.92   1-0.20931 0.54554-0.14864-0.33561-0.96648 0.76794
   5  -7  -5 2110.47  226.12   1-0.17344 0.51521-0.18277-0.30148-0.96773 0.80228
   5  -7  -4 1366.20  193.49   1-0.13561 0.48293-0.21786-0.26639-0.96651 0.83415
   5  -7  -3 7224.24  341.65   1-0.09743 0.45028-0.25421-0.23011-0.96222 0.86272
   5  -7  -2  155.65  116.85   1-0.05639 0.41487-0.29027-0.19405-0.95527 0.88894
   5  -7  -1  695.82  205.96   1-0.01431 0.37842-0.32619-0.15813-0.94519 0.91202
   5  -7   012591.66  437.47   1 0.02840 0.34117-0.36140-0.12257-0.93197 0.93197
   5  -7   1 1613.76  214.21   1 0.07121 0.30388-0.39580-0.08818-0.91556 0.94861
   5  -7   2 1636.66  221.59   1 0.11391 0.26672-0.42897-0.05500-0.89610 0.96220
   5  -7   3 5289.40  323.48   1 0.15436 0.23146-0.46106-0.02270-0.87383 0.97257
   5  -7   4  805.37  188.07   1 0.19554 0.19582-0.49095 0.00718-0.84895 0.98061
   5  -7   5  -82.99  125.49   1 0.23560 0.16129-0.51892 0.03515-0.82170 0.98627
  -5  -7  -6   88.34   60.27   1-0.64153 0.23840 0.36147-0.84561-0.67658 0.47759
   5  -7   6   10.88  119.59   1 0.27323 0.12868-0.54626 0.06301-0.79179 0.98968
  -5  -7  -7 1817.50  143.43   1-0.66235 0.25357 0.39432-0.87851-0.63702 0.40486
   5  -7   7 2587.62  286.42   1 0.31043 0.09701-0.57018 0.08692-0.76060 0.99147
  -5  -7  -8 4033.91  221.47   1-0.67658 0.26222 0.41880-0.90299-0.60567 0.34035
   5  -7   8 5178.65  340.78   1 0.34593 0.06705-0.59195 0.10869-0.72795 0.99181
  -5  -7  -922303.77  438.20   1-0.68682 0.26688 0.43734-0.92153-0.58051 0.28203
   5  -7   925723.61 1412.04   1 0.37871 0.03963-0.61266 0.12958-0.69369 0.99077
  -5  -7 -10  607.55  146.99   1-0.69426 0.26875 0.45142-0.93561-0.56053 0.22889
   5  -7  10  943.36  180.91   1 0.41059 0.01329-0.63025 0.14717-0.65893 0.98902
  -5  -7 -11  130.88  107.83   1-0.69969 0.26860 0.46207-0.94626-0.54489 0.18007
   5  -7  11  262.26  144.95   1 0.44061-0.01118-0.64583 0.16274-0.62350 0.98660
  -5  -7 -12 1533.08  260.61   1-0.70362 0.26696 0.47002-0.95421-0.53289 0.13492
   5  -7  12 1784.52  290.95   1 0.46878-0.03382-0.65949 0.17641-0.58762 0.98373
  -5  -7 -13   81.35   71.23   1-0.70641 0.26417 0.47580-0.95999-0.52400 0.09286
   5  -7  13  174.63  134.02   1 0.49392-0.05355-0.67217 0.18895-0.55155 0.98052
  -5  -7 -15  478.94  111.56   1-0.70993 0.25655 0.48216-0.96640-0.51333 0.01580
   5  -7  15  503.10  135.15   1 0.54144-0.09000-0.69087 0.20765-0.47908 0.97405
  -5  -7 -16   26.61   43.48   1-0.71051 0.25155 0.48341-0.96765-0.51135-0.01934
   5  -7  16  118.78  129.70   1 0.56273-0.10576-0.69792 0.21470-0.44297 0.97093
  -5  -7 -17  -50.41   90.58   1-0.71059 0.24604 0.48358-0.96781-0.51108-0.05278
   5  -7  17  109.39  143.38   1 0.58151-0.11863-0.70433 0.22074-0.40711 0.96809
  -5  -7 -18  -18.09   97.93   1-0.71023 0.24010 0.48280-0.96704-0.51231-0.08471
   5  -7  18  -12.30  140.02   1 0.59980-0.13136-0.70869 0.22509-0.37147 0.96544
   5  -8 -20 5557.01  473.23   1-0.45501 0.71290 0.11271-0.66582-0.88332 0.22007
   5  -8 -19  114.33  152.56   1-0.44604 0.70952 0.10221-0.65532-0.88915 0.25907
   5  -8 -18   98.44  136.58   1-0.43579 0.70485 0.09033-0.64344-0.89550 0.29858
   5  -8 -17  340.27  221.70   1-0.42416 0.69881 0.07699-0.63011-0.90230 0.33855
   5  -8 -16  135.06  116.39   1-0.41106 0.69129 0.06214-0.61526-0.90948 0.37889
   5  -8 -15  532.03  195.13   1-0.39638 0.68220 0.04571-0.59883-0.91694 0.41951
   5  -8 -14  125.34  169.72   1-0.38042 0.67180 0.02750-0.58066-0.92440 0.45989
   5  -8 -13   87.80  120.24   1-0.36230 0.65928 0.00777-0.56093-0.93202 0.50069
   5  -8 -12   21.04  123.02   1-0.34231 0.64489-0.01365-0.53951-0.93948 0.54133
   5  -8 -1112225.81  523.86   1-0.32038 0.62855-0.03677-0.51639-0.94657 0.58160
   5  -8 -10  493.42  197.58   1-0.29643 0.61020-0.06156-0.49160-0.95306 0.62127
   5  -8  -9  550.72  182.31   1-0.27044 0.58981-0.08797-0.46518-0.95870 0.66009
   5  -8  -8 8144.43  425.12   1-0.24186 0.56701-0.11690-0.43653-0.96324 0.69852
   5  -8  -7 2035.09  250.22   1-0.21187 0.54256-0.14616-0.40727-0.96630 0.73467
   5  -8  -6 3857.35  308.23   1-0.17994 0.51618-0.17664-0.37678-0.96768 0.76914
   5  -8  -5  708.57  131.01   1-0.14619 0.48796-0.20814-0.34529-0.96711 0.80166
   5  -8  -4  533.30  163.28   1-0.11226 0.45948-0.24092-0.31260-0.96402 0.83135
   5  -8  -3  286.55  205.41   1-0.07529 0.42814-0.27380-0.27972-0.95883 0.85932
   5  -8  -2   -4.13  115.10   1-0.03710 0.39559-0.30687-0.24664-0.95102 0.88468
   5  -8  -1 2268.02  238.84   1 0.00212 0.36191-0.33975-0.21337-0.94051 0.90746
   5  -8   0   11.43  113.81   1 0.04167 0.32790-0.37218-0.18093-0.92722 0.92722
   5  -8   1  221.09   92.16   1 0.08151 0.29359-0.40390-0.14922-0.91116 0.94421
   5  -8   2  620.65  160.31   1 0.12133 0.25930-0.43462-0.11849-0.89239 0.95849
   5  -8   3  482.10  157.33   1 0.15901 0.22681-0.46450-0.08837-0.87117 0.96992
   5  -8   4 1530.19  240.34   1 0.19771 0.19364-0.49250-0.06037-0.84755 0.97921
   5  -8   5 3066.55  314.47   1 0.23555 0.16134-0.51889-0.03398-0.82174 0.98631
   5  -8   6  -67.57  123.67   1 0.27110 0.13081-0.54486-0.00742-0.79348 0.99137
   5  -8   7 2848.24  296.16   1 0.30665 0.10079-0.56780 0.01550-0.76391 0.99478
   5  -8   8 2672.01  315.99   1 0.34079 0.07219-0.58886 0.03657-0.73286 0.99671
   5  -8   9   -4.72  132.63   1 0.37241 0.04592-0.60907 0.05697-0.70023 0.99731
   5  -8  10  124.33  138.65   1 0.40347 0.02040-0.62642 0.07432-0.66693 0.99702
  -5  -8 -11 2113.17  202.03   1-0.65114 0.22014 0.37680-0.93011-0.65880 0.29398
   5  -8  11 3387.95  336.90   1 0.43291-0.00349-0.64193 0.08983-0.63284 0.99595
  -5  -8 -12 1286.89  210.47   1-0.65998 0.22332 0.39037-0.94373-0.64188 0.24391
   5  -8  12 1874.88  293.41   1 0.46071-0.02575-0.65568 0.10358-0.59817 0.99428
  -5  -8 -13 2592.45  250.17   1-0.66630 0.22406 0.40098-0.95434-0.62869 0.19754
   5  -8  13 3181.93  307.81   1 0.48563-0.04525-0.66854 0.11628-0.56321 0.99218
  -5  -8 -14 1960.05  344.63   1-0.67107 0.22325 0.40916-0.96252-0.61825 0.15394
   5  -8  14 2930.37  326.84   1 0.51019-0.06429-0.67899 0.12674-0.52788 0.98985
  -5  -8 -15  349.70  117.72   1-0.67460 0.22121 0.41532-0.96868-0.61025 0.11278
   5  -8  15  429.97  204.45   1 0.53320-0.08176-0.68791 0.13565-0.49241 0.98737
   5  -8  16  280.47  191.59   1 0.55469-0.09772-0.69537 0.14312-0.45690 0.98486
   5  -8  17 1136.22  284.68   1 0.57373-0.11085-0.70222 0.14954-0.42155 0.98252
   5  -9 -18  -23.04  147.98   1-0.39979 0.66886 0.04951-0.67177-0.91526 0.31834
   5  -9 -17   71.26  144.52   1-0.38777 0.66242 0.03618-0.65843-0.92104 0.35728
   5  -9 -16  342.42  244.82   1-0.37475 0.65494 0.02129-0.64360-0.92688 0.39600
   5  -9 -15  449.29  187.81   1-0.35984 0.64563 0.00511-0.62743-0.93299 0.43530
   5  -9 -14  505.09  159.39   1-0.34337 0.63475-0.01252-0.60978-0.93911 0.47460
   5  -9 -13   52.74   77.93   1-0.32526 0.62224-0.03166-0.59064-0.94509 0.51376
   5  -9 -12  245.87  145.64   1-0.30544 0.60802-0.05229-0.57002-0.95077 0.55261
   5  -9 -11  131.95  129.66   1-0.28387 0.59204-0.07439-0.54791-0.95597 0.59099
   5  -9 -10 4699.31  389.01   1-0.25986 0.57393-0.09903-0.52357-0.96055 0.62965
   5  -9  -913255.19  551.64   1-0.23474 0.55435-0.12390-0.49870-0.96412 0.66631
   5  -9  -8 2073.08  262.78   1-0.20783 0.53298-0.15006-0.47255-0.96658 0.70186
   5  -9  -7 4886.59  386.14   1-0.17917 0.50986-0.17737-0.44524-0.96769 0.73606
   5  -9  -6    0.64  122.09   1-0.14884 0.48507-0.20570-0.41691-0.96722 0.76869
   5  -9  -5  193.70  128.58   1-0.11854 0.46014-0.23525-0.38746-0.96467 0.79883
   5  -9  -4   90.81  124.89   1-0.08512 0.43235-0.26513-0.35757-0.96044 0.82777
   5  -9  -3 2626.42  303.00   1-0.05045 0.40330-0.29541-0.32729-0.95403 0.85452
   5  -9  -2  889.35  197.49   1-0.01472 0.37321-0.32585-0.29686-0.94530 0.87896
   5  -9  -1 4631.32  311.91   1 0.02188 0.34215-0.35607-0.26618-0.93420 0.90115
   5  -9   0  -77.63  115.21   1 0.05881 0.31076-0.38595-0.23631-0.92064 0.92064
   5  -9   1 2783.97  492.96   1 0.09603 0.27906-0.41522-0.20704-0.90463 0.93768
   5  -9   2 3366.52  308.90   1 0.13159 0.24869-0.44407-0.17791-0.88627 0.95210
   5  -9   3 4335.93  349.47   1 0.16846 0.21736-0.47142-0.15056-0.86566 0.96440
   5  -9   4  504.96  153.73   1 0.20486 0.18649-0.49756-0.12442-0.84288 0.97454
   5  -9   5   34.52  112.57   1 0.24059 0.15630-0.52233-0.09965-0.81809 0.98266
   5  -9   6 1100.93  225.29   1 0.27409 0.12782-0.54683-0.07449-0.79110 0.98899
   5  -9   7 4486.27  366.86   1 0.30796 0.09948-0.56862-0.05270-0.76277 0.99364
   5  -9   8 4413.17  380.56   1 0.34066 0.07232-0.58878-0.03254-0.73299 0.99684
   5  -9   9    8.77  125.30   1 0.37098 0.04736-0.60825-0.01285-0.70171 0.99879
   5  -9  10   53.45   56.55   1 0.40104 0.02284-0.62509 0.00398-0.66963 0.99973
   5  -9  11 2088.63  323.24   1 0.42968-0.00026-0.64028 0.01917-0.63671 0.99981
   5  -9  12 1841.45  270.34   1 0.45688-0.02191-0.65384 0.03273-0.60311 0.99922
   5  -9  13 1741.55  398.26   1 0.48132-0.04094-0.66661 0.04533-0.56916 0.99813
   5  -9  14 1492.37  228.71   1 0.50559-0.05969-0.67710 0.05582-0.53468 0.99665
   5  -9  15 3942.69  380.78   1 0.52844-0.07700-0.68614 0.06485-0.49995 0.99491
   5 -10 -16  178.51  158.01   1-0.33650 0.61669-0.01981-0.67163-0.94147 0.41060
   5 -10 -15  527.57  230.28   1-0.32144 0.60722-0.03566-0.65579-0.94625 0.44856
   5 -10 -14  216.68  145.65   1-0.30492 0.59630-0.05283-0.63862-0.95091 0.48639
   5 -10 -13    7.15  125.90   1-0.28688 0.58386-0.07133-0.62012-0.95530 0.52397
   5 -10 -12  279.93  142.17   1-0.26729 0.56986-0.09114-0.60030-0.95929 0.56114
   5 -10 -11  165.22  126.73   1-0.24545 0.55397-0.11336-0.57843-0.96275 0.59877
   5 -10 -10 4898.71  391.24   1-0.22271 0.53677-0.13566-0.55612-0.96539 0.63450
   5 -10  -9  534.07  192.72   1-0.19837 0.51797-0.15914-0.53265-0.96712 0.66931
   5 -10  -8  630.82  201.85   1-0.17245 0.49760-0.18370-0.50809-0.96773 0.70301
   5 -10  -7  160.06  166.86   1-0.14500 0.47569-0.20924-0.48255-0.96705 0.73542
   5 -10  -6  383.25  184.86   1-0.11782 0.45379-0.23590-0.45599-0.96460 0.76559
   5 -10  -5 4011.21  343.05   1-0.08748 0.42908-0.26304-0.42885-0.96080 0.79496
   5 -10  -4  450.48  184.83   1-0.05591 0.40313-0.29070-0.40120-0.95517 0.82250
   5 -10  -3  286.16  180.87   1-0.02325 0.37610-0.31866-0.37324-0.94758 0.84807
   5 -10  -2  612.97  239.46   1 0.01049 0.34801-0.34670-0.34470-0.93791 0.87181
   5 -10  -1 1468.21  262.22   1 0.04462 0.31942-0.37456-0.31683-0.92612 0.89307
   5 -10   0  109.37  159.58   1 0.07923 0.29033-0.40212-0.28928-0.91215 0.91215
   5 -10   1  956.58  236.94   1 0.11413 0.26096-0.42915-0.26225-0.89599 0.92904
   5 -10   2  350.68  176.88   1 0.14732 0.23296-0.45585-0.23524-0.87777 0.94360
   5 -10   3  868.01  237.19   1 0.18197 0.20385-0.48122-0.20987-0.85749 0.95624
   5 -10   4  870.55  182.97   1 0.21625 0.17510-0.50555-0.18554-0.83525 0.96690
   5 -10   5 2136.40  284.94   1 0.24843 0.14793-0.52974-0.16062-0.81095 0.97586
   5 -10   6  379.61  162.66   1 0.28151 0.12039-0.55168-0.13867-0.78510 0.98299
   5 -10   7  924.85  196.10   1 0.31373 0.09371-0.57224-0.11811-0.75769 0.98856
   5 -10   8 1176.72  284.17   1 0.34494 0.06804-0.59136-0.09900-0.72890 0.99275
   5 -10   9  332.79  141.75   1 0.37390 0.04444-0.60992-0.08019-0.69870 0.99578
   5 -10  10  358.74  165.78   1 0.40285 0.02103-0.62608-0.06404-0.66763 0.99772
   5 -10  11   46.23  124.40   1 0.43055-0.00113-0.64072-0.04939-0.63567 0.99877
   5 -10  12 1210.67  225.58   1 0.45697-0.02201-0.65389-0.03623-0.60299 0.99910
   5 -11 -12   32.03  130.67   1-0.22716 0.53014-0.13133-0.62964-0.96496 0.56788
   5 -11 -11  444.41  199.89   1-0.20644 0.51496-0.15140-0.60957-0.96667 0.60268
   5 -11 -10 5675.75  434.79   1-0.18428 0.49834-0.17254-0.58842-0.96760 0.63671
   5 -11  -9  629.29  224.23   1-0.16070 0.48030-0.19469-0.56627-0.96760 0.66980
   5 -11  -8   98.13  145.19   1-0.13572 0.46087-0.21776-0.54320-0.96651 0.70179
   5 -11  -7  880.37  271.69   1-0.11121 0.44155-0.24187-0.51922-0.96391 0.73173
   5 -11  -6  -71.44  140.85   1-0.08355 0.41952-0.26652-0.49456-0.96019 0.76118
   5 -11  -4   78.77  141.05   1-0.02477 0.37200-0.31736-0.44372-0.94797 0.81530
   5 -11  -3 2372.21  345.56   1 0.00634 0.34663-0.34326-0.41728-0.93921 0.84006
   5 -11  -2 1021.20  238.68   1 0.03785 0.32066-0.36909-0.39145-0.92862 0.86252
   5 -11  -1 1561.53  258.13   1 0.06997 0.29407-0.39481-0.36572-0.91609 0.88304
   5 -11   0  171.22  136.91   1 0.10253 0.26704-0.42024-0.34030-0.90160 0.90160
   5 -11   1  282.75  186.45   1 0.13365 0.24109-0.44562-0.31458-0.88518 0.91809
   5 -11   2  511.83  214.04   1 0.16638 0.21390-0.46990-0.29030-0.86689 0.93272
   5 -11   3  -29.63  116.02   1 0.19899 0.18683-0.49340-0.26680-0.84672 0.94546
   5 -11   4    3.07  115.81   1 0.23132 0.16003-0.51599-0.24421-0.82476 0.95642
   5 -11   5   60.93  119.28   1 0.26149 0.13487-0.53850-0.22089-0.80101 0.96592
   5 -11   6   50.28  119.14   1 0.29283 0.10907-0.55900-0.20039-0.77573 0.97362
   5 -11   7   88.42  124.29   1 0.32343 0.08401-0.57827-0.18112-0.74899 0.97986
   5 -11   8  368.80  156.82   1 0.35317 0.05981-0.59625-0.16314-0.72093 0.98478
   5 -11   9 1719.46  265.18   1 0.38072 0.03762-0.61380-0.14532-0.69158 0.98866
   5 -12  -6  850.28  258.41   1-0.04774 0.38371-0.29775-0.53253-0.95344 0.75443
   5 -12  -5   97.67  131.60   1-0.02025 0.36185-0.32119-0.50909-0.94679 0.78095
   5 -12  -4   49.83  123.17   1 0.00848 0.33897-0.34503-0.48465-0.93855 0.80635
   5 -12  -3  225.83  177.39   1 0.03758 0.31539-0.36888-0.46080-0.92871 0.82956
   5 -12  -2  298.85  159.47   1 0.06736 0.29114-0.39275-0.43693-0.91717 0.85107
   5 -12  -1  686.46  209.41   1 0.09768 0.26635-0.41650-0.41318-0.90387 0.87082
   5 -12   0  -96.10  122.52   1 0.12675 0.24246-0.44041-0.38890-0.88880 0.88880
   5 -12   1   69.73  117.33   1 0.15753 0.21722-0.46340-0.36591-0.87202 0.90494
   5 -12   2  315.75  177.95   1 0.18837 0.19191-0.48583-0.34348-0.85351 0.91933
   5 -12   3  325.09  216.54   1 0.21912 0.16669-0.50755-0.32176-0.83328 0.93202
   6   0 -26  114.59  117.94   1-0.62765 0.92635 0.34002-0.34002-0.70030-0.16200
   6   0 -25   72.82  156.08   1-0.62743 0.93171 0.33970-0.33970-0.70065-0.12848
   6   0 -24  388.37  168.85   1-0.62650 0.93635 0.33828-0.33828-0.70217-0.09380
   6   0 -23  -36.99  102.13   1-0.62477 0.94020 0.33567-0.33567-0.70496-0.05784
   6   0 -22 1633.15  218.43   1-0.62215 0.94315 0.33173-0.33173-0.70914-0.02050
   6   0 -21  -19.63   91.61   1-0.61851 0.94508 0.32630-0.32630-0.71481 0.01833
   6   0 -20  342.92  111.10   1-0.61371 0.94586 0.31920-0.31920-0.72212 0.05880
   6   0 -19   46.51   92.88   1-0.60756 0.94528 0.31021-0.31021-0.73118 0.10103
   6   0 -18  250.08  137.37   1-0.59983 0.94312 0.29907-0.29907-0.74212 0.14514
   6   0 -17   11.32   99.47   1-0.59024 0.93910 0.28548-0.28548-0.75506 0.19124
   6   0 -16 6628.50  744.69   1-0.57876 0.93292 0.26920-0.26920-0.76977 0.23911
   6   0 -15  -90.93  117.02   1-0.56434 0.92409 0.24959-0.24959-0.78690 0.28940
   6   0 -1442654.83  800.33   1-0.54679 0.91213 0.22629-0.22629-0.80610 0.34177
   6   0 -13  106.78  142.79   1-0.52552 0.89644 0.19882-0.19882-0.82721 0.39605
   6   0 -12 8378.98  286.88   1-0.49984 0.87634 0.16665-0.16665-0.84993 0.45193
   6   0 -11   42.20   74.10   1-0.46896 0.85105 0.12921-0.12921-0.87371 0.50893
   6   0 -10 4181.32  199.60   1-0.43218 0.81986 0.08618-0.08618-0.89765 0.56603
   6   0  -9  -44.53   63.61   1-0.38876 0.78203 0.03727-0.03727-0.92058 0.62212
   6   0  -8 3912.41  186.63   1-0.33829 0.73720-0.01792 0.01791-0.94086 0.67543
   6   0  -7   13.42   61.01   1-0.28039 0.68489-0.07793 0.07793-0.95671 0.72446
   6   0  -6  805.20  107.24   1-0.21455 0.62468-0.14357 0.14357-0.96610 0.76756
   6   0  -5  -59.93   58.70   1-0.14413 0.55980-0.21004 0.21004-0.96700 0.80156
   6   0  -4 1592.28  129.03   1-0.07028 0.49145-0.27819 0.27819-0.95795 0.82527
   6   0  -3  256.36   90.42   1 0.00686 0.42003-0.34368 0.34368-0.93905 0.83990
   6   0  -283432.28 1152.42   1 0.08202 0.35040-0.40430 0.40430-0.91093 0.84483
   6   0  -1  484.95   98.00   1 0.15425 0.28326-0.46099 0.46099-0.87389 0.84097
   6   0   0311156.2 1344.63   1 0.22152 0.22152-0.50922 0.50922-0.83163 0.83163
   6   0   1  263.54  121.01   1 0.28291 0.16504-0.55259 0.55259-0.78396 0.81694
   6   0   2 6748.47  351.20   1 0.33846 0.11503-0.58745 0.58745-0.73507 0.80103
   6   0   3  -97.00   70.00   1 0.38775 0.07107-0.61775 0.61775-0.68412 0.78315
   6   0   4 1184.81  133.61   1 0.43141 0.03295-0.64116 0.64116-0.63465 0.76669
   6   0   5    4.28   78.19   1 0.46983 0.00005-0.65999 0.65999-0.58622 0.75127
   6   0   6 8673.17  309.26   1 0.50311-0.02774-0.67607 0.67607-0.53832 0.73630
   6   0   7  120.68  118.48   1 0.53276-0.05186-0.68775 0.68775-0.49310 0.72408
   6   0   8 2238.92  215.49   1 0.55888-0.07245-0.69672 0.69672-0.44969 0.71367
   6   0   9  -28.36   96.80   1 0.58144-0.08937-0.70432 0.70432-0.40724 0.70423
   6   0  10 3099.44  258.09   1 0.60182-0.10419-0.70911 0.70911-0.36737 0.69735
   6   0  11  190.86  144.90   1 0.61991-0.11672-0.71231 0.71231-0.32910 0.69208
   6   0  12 1029.98  175.15   1 0.63601-0.12725-0.71416 0.71416-0.29233 0.68831
   6   0  13   35.74  100.43   1 0.65002-0.13432-0.71595 0.71595-0.25470 0.68510
   6   0  14 4912.37  324.79   1 0.66275-0.14145-0.71563 0.71563-0.22049 0.68399
   6   0  15   95.72  118.29   1 0.67412-0.14722-0.71443 0.71443-0.18742 0.68403
   6   0  16   -5.61  112.54   1 0.68429-0.15178-0.71245 0.71245-0.15538 0.68510
   6   0  17   33.06  111.58   1 0.69337-0.15525-0.70977 0.70977-0.12427 0.68710
   6   0  1812140.72  507.91   1 0.70092-0.15819-0.70718 0.70718-0.09266 0.68909
   6   0  19  140.14  125.01   1 0.70811-0.15982-0.70326 0.70326-0.06315 0.69272
   6   0  20  219.69  127.26   1 0.71448-0.16064-0.69880 0.69880-0.03433 0.69703
   6   0  21  173.85  141.79   1 0.72009-0.16069-0.69384 0.69384-0.00612 0.70196
   6   0  22  401.91  225.05   1 0.72499-0.16004-0.68841 0.68841 0.02153 0.70744
   6  -1 -26    6.73  114.94   1-0.61283 0.91153 0.31790-0.38706-0.72344-0.13886
   6   1 -26  155.72  116.95   1-0.64037 0.93908 0.35966-0.29050-0.67864-0.18366
   6  -1 -25 1133.13  211.81   1-0.61219 0.91647 0.31697-0.38613-0.72439-0.10475
   6   1 -25  918.67  205.09   1-0.64055 0.94483 0.35993-0.29077-0.67833-0.15081
   6  -1 -24 1285.80  224.17   1-0.61081 0.92066 0.31494-0.38411-0.72644-0.06953
   6   1 -24 1037.69  232.86   1-0.64003 0.94989 0.35913-0.28996-0.67924-0.11673
   6   1 -23  286.98  174.81   1-0.63875 0.95418 0.35712-0.28796-0.68150-0.08130
   6  -1 -23  227.50  140.20   1-0.60860 0.92402 0.31172-0.38088-0.72967-0.03313
   6   1 -22   -8.03   91.78   1-0.63661 0.95761 0.35378-0.28462-0.68524-0.04440
   6  -1 -22  204.43  122.16   1-0.60547 0.92646 0.30717-0.37634-0.73419 0.00454
   6   1 -21  102.32   91.53   1-0.63347 0.96004 0.34893-0.27977-0.69061-0.00586
   6  -1 -21 -112.49  123.84   1-0.60130 0.92787 0.30117-0.37033-0.74008 0.04360
   6   1 -20 1910.28  224.77   1-0.62919 0.96133 0.34236-0.27320-0.69778 0.03446
   6  -1 -20 2333.84  295.21   1-0.59595 0.92809 0.29354-0.36270-0.74744 0.08412
   6   1 -19 2626.70  250.56   1-0.62355 0.96127 0.33383-0.26467-0.70691 0.07676
   6  -1 -19 2935.44  256.61   1-0.58925 0.92697 0.28409-0.35325-0.75635 0.12620
   6   1 -18 1975.36  207.88   1-0.61631 0.95961 0.32304-0.25387-0.71819 0.12120
   6  -1 -18 1745.41  200.80   1-0.58100 0.92429 0.27261-0.34177-0.76689 0.16990
   6  -1 -17  546.04  129.69   1-0.57127 0.91984 0.25896-0.32809-0.77883 0.21500
   6   1 -17  414.22  114.63   1-0.60715 0.95601 0.30961-0.24044-0.73178 0.16796
   6   1 -16 3479.61  335.15   1-0.59564 0.95008 0.29311-0.22394-0.74785 0.21720
   6  -1 -16 3346.57  255.43   1-0.55913 0.91329 0.24260-0.31174-0.79278 0.26212
   6   1 -15  221.16  129.77   1-0.58129 0.94130 0.27301-0.20385-0.76652 0.26903
   6  -1 -15  557.75  172.00   1-0.54455 0.90430 0.22336-0.29250-0.80843 0.31093
   6  -1 -14  -16.87   90.97   1-0.52713 0.89246 0.20088-0.27002-0.82569 0.36136
   6   1 -14  195.12  112.23   1-0.56377 0.92910 0.24881-0.17968-0.78755 0.32322
   6   1 -13  290.14  112.54   1-0.54164 0.91256 0.21957-0.15043-0.81142 0.38025
   6  -1 -13  268.97  173.07   1-0.50643 0.87734 0.17481-0.24395-0.84437 0.41320
   6  -1 -1211417.01  374.15   1-0.48190 0.85841 0.14475-0.21389-0.86418 0.46623
   6   1 -1210861.19  300.12   1-0.51427 0.89077 0.18461-0.11547-0.83752 0.43952
   6   1 -11  345.02   93.03   1-0.48050 0.86259 0.14306-0.07392-0.86524 0.50046
   6  -1 -11  371.22  114.62   1-0.45309 0.83519 0.11046-0.17959-0.88458 0.51980
   6   1 -10  169.67   92.69   1-0.43921 0.82688 0.09428-0.02514-0.89342 0.56180
   6  -1 -10  -20.89   75.21   1-0.41946 0.80714 0.07165-0.14079-0.90493 0.57331
   6  -1  -9 1967.16  170.64   1-0.38074 0.77405 0.02785-0.09699-0.92426 0.62564
   6   1  -9 1711.31  136.42   1-0.38917 0.78244 0.03772 0.03141-0.92038 0.62193
   6   1  -817984.53  375.88   1-0.32951 0.72841-0.02719 0.09634-0.94375 0.67832
   6  -1  -818144.47  420.08   1-0.33624 0.73515-0.02009-0.04905-0.94156 0.67612
   6   1  -7   18.99   49.70   1-0.25836 0.66294-0.10054 0.16972-0.96080 0.72917
   6  -1  -7  -48.97   61.95   1-0.28610 0.69060-0.07212 0.00298-0.95548 0.72322
   6  -1  -6  221.94   79.22   1-0.22976 0.63989-0.12879 0.05961-0.96468 0.76614
   6   1  -6  237.50   57.26   1-0.17964 0.58977-0.17693 0.24611-0.96768 0.76915
   6  -1  -527369.77  514.92   1-0.16967 0.58534-0.18631 0.11713-0.96772 0.80227
   6   1  -526825.27  449.93   1-0.09446 0.51001-0.25685 0.32604-0.96182 0.79597
   6  -1  -4  149.00   96.89   1-0.10671 0.52788-0.24591 0.17672-0.96339 0.83072
   6   1  -4  268.19   63.14   1-0.00353 0.42490-0.33503 0.40417-0.94219 0.81000
   6  -1  -311829.50  336.68   1-0.04057 0.46737-0.30391 0.23472-0.95183 0.85232
   6   1  -311305.47  286.73   1 0.08520 0.34169-0.40679 0.47593-0.90953 0.81039
   6  -1  -219316.99  416.77   1 0.02668 0.40574-0.36000 0.29086-0.93256 0.86646
   6   1  -219373.94  369.70   1 0.17045 0.26152-0.47288 0.54199-0.86448 0.79865
   6  -1  -1  734.27  121.90   1 0.09220 0.34575-0.41224 0.34310-0.90639 0.87334
   6   1  -1  648.40   98.11   1 0.24747 0.18940-0.52909 0.59812-0.81167 0.77869
   6  -1   012147.93  364.57   1 0.15493 0.28812-0.46149 0.39238-0.87350 0.87350
   6   1   012128.11  322.99   1 0.31612 0.12629-0.57374 0.64277-0.75557 0.75557
   6  -1   110508.71  338.91   1 0.21450 0.23409-0.50433 0.43522-0.83644 0.86935
   6   1   110596.63  298.39   1 0.37595 0.07179-0.61109 0.68010-0.69657 0.72958
   6  -1   2   27.28   80.78   1 0.26959 0.18390-0.54387 0.47483-0.79468 0.86064
   6   1   2  123.38   69.11   1 0.42715 0.02612-0.63897 0.70799-0.63971 0.70573
   6  -1   3 2528.39  177.94   1 0.32064 0.13838-0.57655 0.50751-0.75151 0.85045
   6   1   3 2552.39  177.93   1 0.47073-0.01195-0.66178 0.73081-0.58347 0.68247
   6  -1   432068.62  620.83   1 0.36678 0.09757-0.60583 0.53681-0.70599 0.83803
   6   1   434146.88  612.46   1 0.50789-0.04357-0.67805 0.74708-0.53130 0.66329
   6  -1   5 1280.93  156.29   1 0.40875 0.06114-0.62927 0.56025-0.66101 0.82605
   6   1   5 1006.20  128.75   1 0.53964-0.06979-0.69024 0.75927-0.48202 0.64701
   6  -1   6 2743.58  402.88   1 0.44650 0.02893-0.64877 0.57976-0.61621 0.81427
   6   1   6 2714.30  201.70   1 0.56661-0.09122-0.70015 0.76924-0.43442 0.63241
   6  -1   7 2581.97  395.33   1 0.47972 0.00118-0.66589 0.59686-0.57135 0.80234
   6   1   7 2929.38  212.77   1 0.59006-0.10910-0.70648 0.77557-0.39077 0.62175
   6  -1   811761.13  368.88   1 0.51001-0.02358-0.67892 0.60989-0.52815 0.79213
   6   1   812426.07  361.57   1 0.61040-0.12388-0.71076 0.77985-0.34959 0.61358
   6  -1   9 1649.07  268.10   1 0.53715-0.04519-0.68935 0.62031-0.48606 0.78304
   6   1   9 1202.48  164.95   1 0.62815-0.13607-0.71338 0.78247-0.31064 0.60763
   6  -1  10 5381.13  328.64   1 0.56146-0.06397-0.69753 0.62850-0.44519 0.77517
   6   1  10 5062.80  295.22   1 0.64347-0.14459-0.71576 0.78498-0.27133 0.60240
   6  -1  11 3418.14  281.44   1 0.58264-0.07945-0.70463 0.63555-0.40497 0.76796
   6   1  11 4062.29  269.87   1 0.65708-0.15259-0.71589 0.78512-0.23606 0.60024
   6  -1  12  271.30  119.87   1 0.60220-0.09344-0.70919 0.64010-0.36660 0.76258
   6   1  12  209.13  138.58   1 0.66910-0.15901-0.71508 0.78430-0.20235 0.59964
   6  -1  13 1063.68  185.26   1 0.61977-0.10546-0.71229 0.64320-0.32941 0.75839
   6   1  13 1162.76  208.57   1 0.67975-0.16405-0.71346 0.78268-0.17001 0.60040
   6  -1  14 1086.42  224.23   1 0.63558-0.11570-0.71412 0.64504-0.29336 0.75533
   6   1  14 1217.50  190.05   1 0.68920-0.16790-0.71112 0.78035-0.13887 0.60237
   6  -1  15 2943.39  272.98   1 0.64944-0.12253-0.71594 0.64672-0.25620 0.75281
   6   1  15 3139.34  291.67   1 0.69708-0.17102-0.70890 0.77809-0.10739 0.60442
   6  -1  16 1343.86  231.01   1 0.66216-0.12965-0.71567 0.64645-0.22214 0.75185
   6   1  16 1074.29  178.69   1 0.70451-0.17290-0.70535 0.77454-0.07826 0.60842
   6  -1  17 8515.38  434.33   1 0.67360-0.13549-0.71451 0.64529-0.18900 0.75182
   6   1  17 8996.17  447.14   1 0.71110-0.17393-0.70130 0.77049-0.04996 0.61325
   6  -1  18 1176.24  244.14   1 0.68388-0.14016-0.71255 0.64333-0.15671 0.75264
   6   1  18 1078.28  198.36   1 0.71693-0.17420-0.69678 0.76597-0.02239 0.61882
   6  -1  19 5236.52  416.83   1 0.69311-0.14378-0.70986 0.64064-0.12521 0.75425
   6   1  19 5527.14  399.18   1 0.72205-0.17376-0.69182 0.76101 0.00453 0.62503
   6  -1  20   19.39  134.32   1 0.70080-0.14696-0.70724 0.63805-0.09313 0.75583
   6   1  20  300.73  256.84   1 0.72652-0.17268-0.68644 0.75563 0.03088 0.63181
   6  -1  21 1226.97  243.72   1 0.70814-0.14875-0.70324 0.63405-0.06300 0.75884
   6   1  21  997.22  242.44   1 0.73038-0.17098-0.68067 0.74986 0.05672 0.63911
   6  -2 -26  176.05  231.06   1-0.59591 0.89462 0.29349-0.43182-0.74749-0.11482
   6   2 -25  869.34  192.50   1-0.65152 0.95580 0.37742-0.23910-0.65807-0.17107
   6  -2 -25 1214.48  265.45   1-0.59484 0.89911 0.29196-0.43029-0.74894-0.08020
   6   2 -24   78.16  101.28   1-0.65139 0.96124 0.37720-0.23888-0.65833-0.13764
   6  -2 -24   -2.50  129.22   1-0.59298 0.90283 0.28934-0.42767-0.75143-0.04454
   6   2 -23  509.35  173.50   1-0.65051 0.96594 0.37579-0.23746-0.66000-0.10280
   6  -2 -23  516.89  175.46   1-0.59027 0.90569 0.28552-0.42385-0.75501-0.00779
   6   2 -22  844.04  199.72   1-0.64879 0.96979 0.37302-0.23470-0.66325-0.06639
   6  -2 -22 1041.03  211.62   1-0.58661 0.90761 0.28040-0.41872-0.75977 0.03012
   6   2 -21  465.06  161.01   1-0.64611 0.97268 0.36872-0.23040-0.66826-0.02821
   6  -2 -21  557.71  189.42   1-0.58189 0.90846 0.27384-0.41217-0.76577 0.06928
   6   2 -20 3474.34  266.59   1-0.64229 0.97443 0.36266-0.22434-0.67522 0.01191
   6  -2 -20 3538.49  455.27   1-0.57632 0.90813 0.26584-0.40412-0.77277 0.10944
   6   2 -19   59.50   90.88   1-0.63711 0.97483 0.35456-0.21623-0.68437 0.05422
   6  -2 -19  168.15  116.22   1-0.56907 0.90647 0.25596-0.39424-0.78143 0.15127
   6   2 -18 2462.32  242.65   1-0.63029 0.97359 0.34405-0.20572-0.69595 0.09896
   6  -2 -18 2659.02  259.23   1-0.56029 0.90328 0.24415-0.38243-0.79148 0.19449
   6   2 -17 6576.18  572.35   1-0.62146 0.97033 0.33070-0.19238-0.71021 0.14639
   6  -2 -17 7182.72  350.03   1-0.54977 0.89834 0.23020-0.36848-0.80296 0.23913
   6   2 -16 6182.34  606.24   1-0.61014 0.96458 0.31397-0.17564-0.72742 0.19676
   6  -2 -16 7489.76  384.01   1-0.53727 0.89143 0.21389-0.35217-0.81583 0.28517
   6   2 -15 4582.09  404.58   1-0.59568 0.95570 0.29316-0.15483-0.74780 0.25031
   6  -2 -15 5305.20  337.40   1-0.52249 0.88223 0.19498-0.33326-0.83004 0.33255
   6   2 -1420697.85  728.46   1-0.57758 0.94291 0.26758-0.12930-0.77122 0.30689
   6  -2 -1423590.82  604.78   1-0.50512 0.87046 0.17320-0.31147-0.84548 0.38115
   6   2 -1313478.79  346.99   1-0.55410 0.92502 0.23591-0.09764-0.79831 0.36715
   6  -2 -1314243.15  453.24   1-0.48479 0.85571 0.14826-0.28653-0.86196 0.43086
   6   2 -12 5911.89  226.55   1-0.52417 0.90067 0.19711-0.05883-0.82848 0.43049
   6  -2 -12 6150.97  317.64   1-0.46119 0.83769 0.11999-0.25827-0.87914 0.48120
   6   2 -11 2927.29  175.80   1-0.48601 0.86810 0.14973-0.01145-0.86102 0.49624
   6  -2 -11 3145.51  251.67   1-0.43391 0.81600 0.08816-0.22644-0.89663 0.53184
   6   2 -1019017.82  326.66   1-0.43769 0.82537 0.09253 0.04574-0.89434 0.56272
   6  -2 -1019189.75  435.96   1-0.40260 0.79028 0.05265-0.19093-0.91385 0.58223
   6   2  -9  388.82   72.04   1-0.37700 0.77031 0.02375 0.11453-0.92590 0.62729
   6  -2  -9  431.21  109.55   1-0.36720 0.76051 0.01307-0.15136-0.93004 0.63143
   6  -2  -8 3469.20  211.30   1-0.32707 0.72598-0.02975-0.10853-0.94452 0.67909
   6   2  -8 3433.45  154.56   1-0.30218 0.70109-0.05565 0.19394-0.95162 0.68618
   6  -2  -7  667.29  110.47   1-0.28243 0.68694-0.07585-0.06243-0.95628 0.72402
   6   2  -7  673.98   75.04   1-0.21060 0.61519-0.14739 0.28575-0.96639 0.73476
   6  -2  -6 6774.86  263.36   1-0.23281 0.64294-0.12580-0.01255-0.96434 0.76581
   6   2  -6 6644.63  189.42   1-0.10884 0.51876-0.24399 0.38237-0.96364 0.76463
   6  -2  -5 1645.38  152.28   1-0.18012 0.59579-0.17648 0.03812-0.96768 0.80223
   6   2  -5 1750.50  112.47   1 0.00353 0.41229-0.34092 0.47921-0.94008 0.77483
   6  -2  -411142.45  330.19   1-0.12517 0.54635-0.22924 0.09085-0.96528 0.83261
   6   2  -410899.95  237.87   1 0.11363 0.30773-0.42876 0.56704-0.89623 0.76403
   6  -2  -3 5220.32  249.07   1-0.06691 0.49371-0.28113 0.14275-0.95733 0.85782
   6   2  -3 4858.41  165.76   1 0.21830 0.20814-0.50698 0.64520-0.83385 0.73511
   6  -2  -2  215.46   88.33   1-0.00748 0.43991-0.33193 0.19355-0.94327 0.87693
   6   2  -2  192.33   50.58   1 0.30829 0.12304-0.56883 0.70690-0.76248 0.69651
   6  -2  -193124.52  831.02   1 0.05219 0.38576-0.38065 0.24237-0.92324 0.89019
   6   2  -191260.90 1203.39   1 0.38397 0.05270-0.61563 0.75366-0.68815 0.65514
   6  -2   0 2168.08  177.97   1 0.11038 0.33310-0.42628 0.28800-0.89783 0.89783
   6   2   0 1736.53  203.46   1 0.44489-0.00268-0.64797 0.78600-0.61821 0.61821
   6  -2   1  808.00  129.97   1 0.16577 0.28281-0.46946 0.33124-0.86724 0.90016
   6   2   1  772.85  102.09   1 0.49430-0.04657-0.67233 0.81039-0.55102 0.58402
   6  -2   235035.01  660.43   1 0.21916 0.23496-0.50758 0.36936-0.83326 0.89908
   6   2   234848.13  641.66   1 0.53364-0.08038-0.68807 0.82613-0.49170 0.55770
   6  -2   3  351.36  110.39   1 0.26890 0.19013-0.54341 0.40534-0.79522 0.89417
   6   2   3  133.58   52.93   1 0.56575-0.10703-0.69989 0.83806-0.43596 0.53496
   6  -2   4  343.63  119.82   1 0.31574 0.14882-0.57350 0.43543-0.75590 0.88783
   6   2   4  252.73   77.84   1 0.59191-0.12763-0.70692 0.84509-0.38715 0.51915
   6  -2   5 1022.43  156.20   1 0.35900 0.11110-0.59968 0.46161-0.71518 0.88009
   6   2   5  881.15  125.91   1 0.61370-0.14386-0.71133 0.84950-0.34258 0.50758
   6  -2   615700.52  404.81   1 0.39822 0.07720-0.62355 0.48553-0.67274 0.87080
   6   2   616838.03  370.63   1 0.63207-0.15667-0.71380 0.85197-0.30159 0.49958
   6  -2   7 2702.05  241.84   1 0.43447 0.04650-0.64273 0.50470-0.63097 0.86203
   6   2   7 2601.73  198.65   1 0.64762-0.16555-0.71591 0.85435-0.26086 0.49261
   6  -2   8   90.06  114.23   1 0.46747 0.01904-0.65888 0.52085-0.58935 0.85342
   6   2   8  187.21  110.38   1 0.66100-0.17332-0.71574 0.85418-0.22537 0.49022
   6  -2   9 3107.97  243.16   1 0.49664-0.00468-0.67334 0.53527-0.54768 0.84466
   6   2   9 3169.52  240.54   1 0.67261-0.17933-0.71465 0.85310-0.19199 0.48995
   6  -2  10 7749.75  359.16   1 0.52381-0.02632-0.68438 0.54631-0.50718 0.83716
   6   2  10 7160.21  310.12   1 0.68276-0.18387-0.71281 0.85126-0.16039 0.49146
   6  -2  11 1888.11  226.73   1 0.54845-0.04543-0.69330 0.55523-0.46747 0.83045
   6   2  11 2242.71  250.88   1 0.69168-0.18719-0.71035 0.84879-0.13028 0.49446
   6  -2  1214189.69  479.14   1 0.57008-0.06133-0.70117 0.56300-0.42819 0.82417
   6   2  1214743.99  442.51   1 0.69904-0.18965-0.70805 0.84643-0.09995 0.49757
   6  -2  13  158.79  133.72   1 0.59031-0.07600-0.70654 0.56837-0.39027 0.81924
   6   2  13   21.61   97.38   1 0.70597-0.19102-0.70454 0.84292-0.07222 0.50298
   6  -2  14 3734.71  339.09   1 0.60865-0.08878-0.71044 0.57227-0.35326 0.81523
   6   2  14 3430.85  265.64   1 0.71210-0.19160-0.70059 0.83897-0.04542 0.50931
   6  -2  15    5.22  126.80   1 0.62528-0.09984-0.71304 0.57487-0.31715 0.81212
   6   2  15   52.31  108.74   1 0.71752-0.19146-0.69626 0.83463-0.01942 0.51644
   6  -2  16  -44.58  126.61   1 0.64035-0.10935-0.71447 0.57630-0.28191 0.80988
   6   2  16   70.15  109.00   1 0.72229-0.19068-0.69155 0.82993 0.00590 0.52426
   6  -2  17  161.51  144.20   1 0.65360-0.11549-0.71596 0.57751-0.24534 0.80816
   6   2  17   95.52  117.63   1 0.72648-0.18931-0.68650 0.82487 0.03062 0.53266
   6  -2  18 3899.53  394.73   1 0.66588-0.12216-0.71540 0.57695-0.21165 0.80758
   6   2  18 3615.17  351.51   1 0.73012-0.18739-0.68111 0.81949 0.05484 0.54158
   6  -2  19  197.85  210.04   1 0.67697-0.12764-0.71397 0.57553-0.17871 0.80775
   6   2  19  120.46  126.57   1 0.73288-0.18466-0.67575 0.81407 0.07896 0.55062
  -6  -2 -20  756.57  210.84   1-0.74267 0.18750 0.66286-0.80119-0.09512-0.56826
   6  -2  20 1051.06  263.54   1 0.68697-0.13204-0.71176 0.57331-0.14647 0.80862
   6   2  20  831.23  190.29   1 0.73553-0.18174-0.66971 0.80803 0.10231 0.56040
  -6  -2 -21   20.24  140.92   1-0.74488 0.18413 0.65659-0.79493-0.11847-0.57808
   6  -2  21 -143.01  129.72   1 0.69596-0.13543-0.70882 0.57037-0.11488 0.81013
   6   2  21   32.39  122.86   1 0.73773-0.17837-0.66335 0.80167 0.12533 0.57051
   6  -3 -25 1529.86  251.57   1-0.57572 0.87960 0.26502-0.47244-0.77350-0.05565
   6  -3 -24   84.46   92.54   1-0.57338 0.88284 0.26182-0.46924-0.77632-0.01967
   6   3 -23   29.30   85.39   1-0.66015 0.97558 0.39064-0.18314-0.64155-0.12123
   6  -3 -23  227.54  180.85   1-0.57016 0.88521 0.25744-0.46486-0.78015 0.01732
   6   3 -22  199.11  117.88   1-0.65879 0.97979 0.38839-0.18088-0.64431-0.08530
   6  -3 -22  234.98  176.16   1-0.56597 0.88660 0.25177-0.45919-0.78503 0.05537
   6   3 -21  -60.38   84.37   1-0.65647 0.98305 0.38456-0.17705-0.64896-0.04749
   6  -3 -21   -7.99  109.64   1-0.56070 0.88693 0.24470-0.45212-0.79102 0.09453
   6   3 -20  288.56  124.55   1-0.65289 0.98503 0.37964-0.17215-0.65544-0.00787
   6  -3 -20  535.35  170.96   1-0.55424 0.88606 0.23611-0.44352-0.79816 0.13483
   6   3 -19   44.36   82.73   1-0.64807 0.98579 0.37186-0.16437-0.66461 0.03446
   6  -3 -19   96.50  112.33   1-0.54645 0.88385 0.22584-0.43326-0.80645 0.17629
   6   3 -18  970.93  155.79   1-0.64156 0.98485 0.36152-0.15403-0.67653 0.07954
   6  -3 -18 1506.35  222.84   1-0.53716 0.88015 0.21376-0.42118-0.81593 0.21894
   6   3 -17 3795.13  263.13   1-0.63292 0.98179 0.34808-0.14059-0.69155 0.12773
   6  -3 -17 4485.87  297.89   1-0.52620 0.87477 0.19969-0.40710-0.82658 0.26275
   6   3 -16 1818.71  237.57   1-0.62156 0.97600 0.33085-0.12336-0.71006 0.17941
   6  -3 -16 2362.30  281.86   1-0.51334 0.86750 0.18344-0.39086-0.83834 0.30768
   6   3 -15  276.47   80.98   1-0.60667 0.96669 0.30892-0.10143-0.73246 0.23497
   6  -3 -15  190.24   85.78   1-0.49836 0.85810 0.16484-0.37225-0.85115 0.35365
   6   3 -14 5083.10  224.81   1-0.58713 0.95272 0.28112-0.07363-0.75910 0.29478
   6  -3 -14 6229.63  355.59   1-0.48099 0.84632 0.14365-0.35106-0.86487 0.40060
   6   3 -1328500.95  579.66   1-0.56172 0.93264 0.24607-0.03865-0.78987 0.35871
   6  -3 -1331392.82  729.73   1-0.46100 0.83192 0.11976-0.32718-0.87928 0.44817
   6   3 -12 1137.13  111.18   1-0.52761 0.90411 0.20149 0.00592-0.82524 0.42724
   6  -3 -12 1270.97  192.72   1-0.43809 0.81460 0.09299-0.30041-0.89410 0.49615
   6   3 -11  454.50   68.41   1-0.48212 0.86421 0.14502 0.06239-0.86401 0.49923
   6  -3 -11  818.47  154.18   1-0.41201 0.79410 0.06321-0.27063-0.90898 0.54419
   6  -3 -10 5702.03  336.84   1-0.38250 0.77018 0.03037-0.23779-0.92345 0.59183
   6   3 -10 4325.86  437.03   1-0.42153 0.80921 0.07400 0.13341-0.90378 0.57216
   6   3  -9 6692.33  318.93   1-0.34097 0.73428-0.01507 0.22251-0.93995 0.64133
   6  -3  -9 7222.73  321.23   1-0.34965 0.74296-0.00582-0.20160-0.93686 0.63824
   6  -3  -8 2100.99  189.84   1-0.31282 0.71173-0.04464-0.16279-0.94876 0.68332
   6   3  -8 1872.48   99.16   1-0.23314 0.63219-0.12547 0.33301-0.96431 0.69959
   6  -3  -7  312.00  106.81   1-0.27230 0.67680-0.08610-0.12132-0.95835 0.72609
   6   3  -7  219.65   38.51   1-0.10288 0.50717-0.24934 0.45691-0.96293 0.73075
   6  -3  -632167.52  651.95   1-0.22767 0.63780-0.13083-0.07670-0.96490 0.76636
   6  -3  -5  102.11   95.75   1-0.18051 0.59618-0.17610-0.03142-0.96767 0.80222
   6   3  -5   58.03   45.03   1 0.20893 0.20643-0.50042 0.70775-0.84019 0.67562
   6  -3  -417034.62  442.06   1-0.13167 0.55284-0.22332 0.01575-0.96580 0.83313
   6  -3  -3 2862.79  214.33   1-0.07956 0.50637-0.27004 0.06246-0.95955 0.86004
   6   3  -3 2447.04   94.83   1 0.44734-0.02175-0.64919 0.85622-0.61516 0.51613
   6  -3  -2 4550.38  258.53   1-0.02614 0.45857-0.31621 0.10864-0.94832 0.88199
   6   3  -2 4318.20  131.26   1 0.51974-0.08860-0.68280 0.88990-0.51345 0.44746
   6  -3  -1  421.73  102.20   1 0.02799 0.40996-0.36107 0.15365-0.93211 0.89906
   6   3  -1  418.32   58.65   1 0.56895-0.13247-0.70084 0.90810-0.43023 0.39723
   6  -3   0 1050.61  153.58   1 0.08138 0.36210-0.40380 0.19638-0.91121 0.91121
   6   3   0 1082.84   87.16   1 0.60211-0.16007-0.70917 0.91642-0.36679 0.36679
   6  -3   1   67.04   94.21   1 0.13275 0.31584-0.44494 0.23761-0.88566 0.91857
   6   3   1   16.01   41.75   1 0.62642-0.17882-0.71318 0.92044-0.31458 0.34757
   6  -3   2 1269.79  191.05   1 0.18323 0.27090-0.48213 0.27480-0.85671 0.92254
   6   3   2 1126.57  112.88   1 0.64555-0.19150-0.71584 0.92351-0.26611 0.33232
   6  -3   3   62.30  104.86   1 0.23153 0.22813-0.51613 0.30880-0.82461 0.92335
   6  -3   410820.95  352.34   1 0.27669 0.18787-0.54854 0.34143-0.78901 0.92093
   6   3   410983.77  265.86   1 0.67200-0.20674-0.71473 0.92240-0.19379 0.32622
   6  -3   5  591.86  140.07   1 0.31974 0.15036-0.57599 0.36888-0.75232 0.91723
   6   3   5  562.33   86.52   1 0.68201-0.21115-0.71298 0.92065-0.16280 0.32834
   6  -3   6  861.04  149.71   1 0.35990 0.11574-0.60021 0.39310-0.71428 0.91217
   6   3   6  685.81  117.17   1 0.69058-0.21411-0.71070 0.91837-0.13413 0.33277
   6  -3   718196.42  622.37   1 0.39658 0.08438-0.62265 0.41561-0.67455 0.90561
   6   3   718991.97  402.33   1 0.69760-0.21599-0.70868 0.91625-0.10543 0.33738
   6  -3   8 7926.48  391.95   1 0.43098 0.05553-0.64094 0.43391-0.63516 0.89924
   6   3   8 7938.90  318.75   1 0.70409-0.21692-0.70558 0.91315-0.08001 0.34509
   6  -3   9 3202.78  274.85   1 0.46264 0.02940-0.65660 0.44956-0.59568 0.89276
   6   3   9 2438.07  207.53   1 0.70982-0.21710-0.70217 0.90973-0.05567 0.35389
   6  -3  10 2728.14  268.87   1 0.49080 0.00668-0.67081 0.46372-0.55598 0.88595
   6   3  10 3100.67  234.75   1 0.71492-0.21664-0.69845 0.90602-0.03221 0.36356
   6  -3  11 1190.45  202.39   1 0.51742-0.01440-0.68189 0.47479-0.51700 0.87997
   6   3  11 1322.06  193.27   1 0.71946-0.21562-0.69446 0.90203-0.00946 0.37394
   6  -3  12  869.90  168.60   1 0.54179-0.03324-0.69100 0.48390-0.47851 0.87448
   6   3  12 1222.21  181.94   1 0.72349-0.21410-0.69020 0.89777 0.01271 0.38490
   6  -3  13   -9.25  120.49   1 0.56407-0.04999-0.69834 0.49124-0.44061 0.86958
   6   3  13   -1.55  103.01   1 0.72708-0.21213-0.68568 0.89325 0.03440 0.39634
   6  -3  14 1112.25  202.59   1 0.58366-0.06378-0.70489 0.49764-0.40305 0.86503
   6   3  14  886.28  164.08   1 0.73024-0.20974-0.68091 0.88847 0.05570 0.40818
   6  -3  15 3608.93  339.60   1 0.60225-0.07681-0.70920 0.50194-0.36650 0.86148
   6   3  15 3716.42  328.27   1 0.73265-0.20668-0.67621 0.88369 0.07709 0.41994
  -6  -3 -16 4081.46  338.71   1-0.74194 0.20908 0.66461-0.87211-0.08832-0.44237
   6  -3  16 5345.16  405.18   1 0.61921-0.08821-0.71221 0.50495-0.33065 0.85862
   6   3  16 4886.29  365.43   1 0.73505-0.20352-0.67092 0.87840 0.09776 0.43241
  -6  -3 -17  282.28  148.01   1-0.74406 0.20562 0.65911-0.86662-0.10924-0.45462
   6  -3  17  571.63  214.32   1 0.63467-0.09812-0.71404 0.50679-0.29549 0.85646
   6   3  17  600.85  198.37   1 0.73709-0.19999-0.66537 0.87285 0.11819 0.44511
  -6  -3 -18  379.58  139.10   1-0.74580 0.20179 0.65336-0.86086-0.12994-0.46710
   6  -3  18  332.71  204.11   1 0.64840-0.10467-0.71592 0.50825-0.25888 0.85481
   6   3  18  254.88  130.46   1 0.73879-0.19613-0.65956 0.86704 0.13844 0.45800
  -6  -3 -19  319.84  107.46   1-0.74720 0.19760 0.64734-0.85485-0.15044-0.47977
   6  -3  19  238.77  199.65   1 0.66113-0.11181-0.71573 0.50806-0.22499 0.85403
   6   3  19   82.63  115.54   1 0.74015-0.19192-0.65348 0.86096 0.15852 0.47106
  -6  -3 -20  310.21   93.66   1-0.74824 0.19308 0.64106-0.84856-0.17078-0.49260
   6  -3  20  348.58  205.58   1 0.67269-0.11776-0.71464 0.50697-0.19173 0.85387
   6   3  20  355.52  160.72   1 0.74118-0.18739-0.64714 0.85462 0.17846 0.48425
  -6  -3 -21 1163.81  201.37   1-0.74895 0.18820 0.63450-0.84200-0.19098-0.50556
   6  -3  21  797.71  235.15   1 0.68316-0.12263-0.71272 0.50505-0.15907 0.85432
   6   3  21 1202.29  285.37   1 0.74188-0.18253-0.64052 0.84800 0.19830 0.49755
   6  -4 -24 3178.90  407.79   1-0.55136 0.86083 0.23230-0.50886-0.80126 0.00527
   6  -4 -23  148.89  142.79   1-0.54763 0.86268 0.22739-0.50395-0.80522 0.04239
   6  -4 -22  409.99  188.66   1-0.54292 0.86355 0.22123-0.49778-0.81011 0.08045
   6  -4 -21  283.91  120.64   1-0.53712 0.86334 0.21370-0.49026-0.81598 0.11949
   6  -4 -20  414.00  130.08   1-0.53012 0.86194 0.20470-0.48126-0.82283 0.15950
   6  -4 -19 1734.36  262.19   1-0.52181 0.85921 0.19412-0.47068-0.83067 0.20051
   6   4 -18   -0.10   73.67   1-0.64980 0.99310 0.37465-0.09800-0.66135 0.06436
   6  -4 -18   83.37  124.57   1-0.51204 0.85503 0.18182-0.45838-0.83949 0.24249
   6   4 -17 1994.37  194.90   1-0.64109 0.98996 0.36078-0.08413-0.67736 0.11355
   6  -4 -17 3067.52  340.32   1-0.50066 0.84923 0.16767-0.44422-0.84924 0.28542
   6   4 -16  685.10  117.23   1-0.62932 0.98376 0.34256-0.06591-0.69756 0.16691
   6  -4 -16  947.41  205.14   1-0.48748 0.84164 0.15152-0.42808-0.85988 0.32922
   6   4 -15  195.87   52.19   1-0.61341 0.97342 0.31875-0.04210-0.72257 0.22509
   6  -4 -15  242.71  152.94   1-0.47230 0.83204 0.13320-0.40976-0.87131 0.37388
   6   4 -14  502.95   85.30   1-0.59175 0.95734 0.28760-0.01095-0.75306 0.28874
   6  -4 -14  808.62  192.72   1-0.45496 0.82029 0.11264-0.38920-0.88335 0.41908
   6  -4 -1316409.07  534.31   1-0.43523 0.80615 0.08969-0.36625-0.89583 0.46473
   6  -4 -1210423.37  423.82   1-0.41291 0.78942 0.06424-0.34079-0.90849 0.51055
   6  -4 -11  378.02  185.27   1-0.38781 0.76991 0.03622-0.31278-0.92102 0.55624
   6  -4 -1065999.60 1138.51   1-0.36006 0.74777 0.00535-0.28193-0.93291 0.60111
   6  -4  -912614.52  420.76   1-0.32894 0.72225-0.02778-0.24879-0.94393 0.64532
   6  -4  -8  122.91  107.93   1-0.29471 0.69362-0.06333-0.21325-0.95348 0.68804
   6  -4  -719674.82  474.80   1-0.25680 0.66139-0.10209-0.17462-0.96105 0.72942
   6  -4  -637334.17  659.82   1-0.21663 0.62676-0.14156-0.13515-0.96593 0.76739
   6  -4  -5 5667.99  263.93   1-0.17378 0.58945-0.18245-0.09426-0.96773 0.80228
   6  -4  -414094.65  419.49   1-0.12970 0.55088-0.22511-0.05164-0.96565 0.83298
   6  -4  -3 4407.67  250.90   1-0.08251 0.50931-0.26744-0.00931-0.96003 0.86052
   6  -4  -2  -53.94  104.64   1-0.03400 0.46643-0.30952 0.03276-0.95028 0.88394
   6  -4  -1  327.37  113.53   1 0.01539 0.42255-0.35074 0.07418-0.93634 0.90329
   6  -4   056004.21  876.58   1 0.06448 0.37900-0.39046 0.11390-0.91835 0.91835
   6   4   1 5231.97  139.13   1 0.72878-0.28071-0.68302 0.95967 0.04843-0.01530
   6  -4   2 4284.10  287.19   1 0.15933 0.29480-0.46473 0.18829-0.87099 0.93682
   6   4   2 3154.03  119.47   1 0.72786-0.27403-0.68458 0.96134 0.03944 0.02682
   6  -4   3 8356.65  338.12   1 0.20520 0.25446-0.49780 0.22136-0.84266 0.94140
   6   4   3 8247.86  202.00   1 0.72781-0.26843-0.68465 0.96141 0.03914 0.06025
   6  -4   4  751.67  143.35   1 0.24923 0.21597-0.52818 0.25174-0.81173 0.94338
   6   4   4  815.46  124.67   1 0.72842-0.26348-0.68375 0.96051 0.04319 0.08934
   6  -4   5 8176.79  348.22   1 0.29044 0.17966-0.55746 0.28132-0.77773 0.94264
   6  -4   6  923.39  185.61   1 0.33010 0.14554-0.58237 0.30623-0.74287 0.94076
   6   4   6  791.29  116.60   1 0.73040-0.25450-0.68039 0.95703 0.05984 0.13897
   6  -4   7  579.74  160.33   1 0.36737 0.11381-0.60456 0.32842-0.70677 0.93764
   6   4   7  370.86   95.11   1 0.73178-0.25032-0.67791 0.95455 0.07020 0.16175
   6  -4   8 2074.19  245.85   1 0.40156 0.08495-0.62537 0.34932-0.66906 0.93314
   6   4   8 1434.38  159.51   1 0.73321-0.24619-0.67506 0.95170 0.08168 0.18339
  -6  -4  -9 1454.42  158.42   1-0.74085 0.24701 0.66705-0.94372-0.07860-0.21991
   6  -4   9 2131.24  265.33   1 0.43399 0.05805-0.64249 0.36644-0.63154 0.92862
   6   4   9 1479.22  164.04   1 0.73464-0.24206-0.67189 0.94853 0.09406 0.20416
  -6  -4 -10 8954.26  318.30   1-0.74242 0.24301 0.66346-0.94014-0.09278-0.23890
   6  -4  1010587.83  451.60   1 0.46410 0.03348-0.65729 0.38124-0.59377 0.92386
   6   4  1011230.15  387.36   1 0.73603-0.23788-0.66841 0.94505 0.10713 0.22422
  -6  -4 -11  116.10   56.70   1-0.74388 0.23890 0.65961-0.93628-0.10739-0.25746
   6  -4  11  161.00  137.16   1 0.49098 0.01203-0.67089 0.39476-0.55572 0.91870
   6   4  11   23.19  116.67   1 0.73732-0.23361-0.66464 0.94128 0.12078 0.24371
  -6  -4 -12 8185.13  795.39   1-0.74520 0.23464 0.65550-0.93217-0.12237-0.27565
   6  -4  1210128.05  435.51   1 0.51670-0.00815-0.68160 0.40548-0.51809 0.91406
   6   4  12 9777.09  383.56   1 0.73851-0.22924-0.66060 0.93724 0.13490 0.26273
  -6  -4 -13   29.67   48.66   1-0.74637 0.23023 0.65113-0.92780-0.13766-0.29353
   6  -4  13  254.77  135.22   1 0.54042-0.02635-0.69052 0.41439-0.48074 0.90971
   6   4  13  322.03  160.30   1 0.73957-0.22473-0.65627 0.93291 0.14942 0.28134
  -6  -4 -14 3716.71  262.72   1-0.74736 0.22564 0.64651-0.92318-0.15321-0.31115
   6  -4  14 4804.36  374.97   1 0.56227-0.04266-0.69778 0.42165-0.44378 0.90575
   6   4  14 4257.55  315.33   1 0.74048-0.22007-0.65168 0.92832 0.16428 0.29962
  -6  -4 -15   59.14   67.39   1-0.74816 0.22087 0.64162-0.91829-0.16899-0.32854
   6  -4  15  162.68  140.26   1 0.58154-0.05611-0.70434 0.42800-0.40705 0.90203
   6   4  15   66.62  119.09   1 0.74122-0.21525-0.64682 0.92346 0.17943 0.31760
  -6  -4 -16 2049.89  402.73   1-0.74877 0.21591 0.63648-0.91315-0.18498-0.34572
   6  -4  16 2321.15  254.65   1 0.60000-0.06900-0.70873 0.43239-0.37106 0.89904
   6   4  16 2539.46  277.21   1 0.74178-0.21025-0.64170 0.91834 0.19485 0.33532
  -6  -4 -17  727.04  178.60   1-0.74917 0.21073 0.63108-0.90775-0.20115-0.36272
   6  -4  17  985.35  250.95   1 0.61694-0.08038-0.71186 0.43552-0.33561 0.89658
   6   4  17  994.48  208.06   1 0.74216-0.20506-0.63630 0.91294 0.21050 0.35281
  -6  -4 -18 4302.74  802.68   1-0.74988 0.20515 0.62519-0.90174-0.21635-0.38049
   6  -4  18 5778.89  424.35   1 0.63246-0.09034-0.71384 0.43750-0.30069 0.89466
   6   4  18 5500.42  410.93   1 0.74208-0.20013-0.63062 0.90735 0.22721 0.36966
  -6  -4 -19  138.61   77.47   1-0.74985 0.19952 0.61926-0.89581-0.23287-0.39712
   6  -4  19   72.21  136.77   1 0.64631-0.09698-0.71587 0.43898-0.26421 0.89324
   6   4  19  149.41  164.47   1 0.74202-0.19451-0.62468 0.90141 0.24324 0.38680
  -6  -4 -20  745.86  155.91   1-0.74958 0.19366 0.61306-0.88961-0.24953-0.41362
   6  -4  20  805.36  208.74   1 0.65920-0.10427-0.71582 0.43893-0.23030 0.89244
   6   4  20  918.01  238.97   1 0.74174-0.18866-0.61847 0.89520 0.25944 0.40375
   6  -5 -24 2441.67  373.32   1-0.52729 0.83675 0.20108-0.54677-0.82554 0.02955
   6  -5 -23  533.31  204.45   1-0.52306 0.83811 0.19570-0.54139-0.82952 0.06669
   6  -5 -22  119.03  138.43   1-0.51783 0.83847 0.18909-0.53479-0.83431 0.10465
   6  -5 -21 4350.57  380.47   1-0.51152 0.83775 0.18117-0.52686-0.83994 0.14345
   6  -5 -20  -16.56  132.73   1-0.50403 0.83584 0.17184-0.51753-0.84641 0.18308
   6  -5 -19  -12.98  132.94   1-0.49524 0.83263 0.16100-0.50669-0.85370 0.22354
   6  -5 -18 3508.45  359.86   1-0.48501 0.82800 0.14852-0.49421-0.86180 0.26488
   6  -5 -17  245.21  137.15   1-0.47325 0.82182 0.13434-0.48003-0.87062 0.30686
   6  -5 -16  623.71  169.95   1-0.45978 0.81394 0.11833-0.46403-0.88010 0.34951
   6  -5 -15  948.07  209.47   1-0.44447 0.80422 0.10039-0.44608-0.89014 0.39271
   6  -5 -14 2104.40  316.21   1-0.42716 0.79249 0.08042-0.42611-0.90059 0.43632
   6  -5 -13 5260.75  399.65   1-0.40767 0.77859 0.05833-0.40403-0.91126 0.48015
   6  -5 -12  544.78  198.51   1-0.38587 0.76237 0.03407-0.37977-0.92192 0.52397
   6  -5 -11 1281.15  210.99   1-0.36192 0.74404 0.00736-0.35309-0.93217 0.56720
   6  -5 -10 4436.27  339.76   1-0.33510 0.72281-0.02129-0.32443-0.94194 0.61014
   6  -5  -9   99.04  114.74   1-0.30564 0.69895-0.05208-0.29363-0.95072 0.65210
   6  -5  -8   69.90  109.20   1-0.27351 0.67242-0.08488-0.26084-0.95811 0.69267
   6  -5  -7 2626.29  272.86   1-0.23825 0.64284-0.12046-0.22543-0.96370 0.73207
   6  -5  -6 3380.81  280.17   1-0.20112 0.61124-0.15651-0.18938-0.96698 0.76844
   6  -5  -510521.04  401.30   1-0.16170 0.57737-0.19376-0.15213-0.96762 0.80218
   6  -5  -411628.56  412.10   1-0.12146 0.54264-0.23260-0.11334-0.96495 0.83228
   6  -5  -3  105.57  117.94   1-0.07826 0.50507-0.27118-0.07476-0.95933 0.85983
   6  -5  -2 2159.30  243.31   1-0.03383 0.46626-0.30967-0.03627-0.95024 0.88390
   6  -5  -117863.19  475.57   1 0.01155 0.42640-0.34757 0.00187-0.93758 0.90453
   6  -5   0 6604.79  815.18   1 0.05685 0.38663-0.38438 0.03868-0.92142 0.92142
   6  -5   1  294.88  124.69   1 0.10196 0.34704-0.41981 0.07410-0.90186 0.93491
   6  -5   2  803.78  146.44   1 0.14511 0.30902-0.45420 0.10865-0.87899 0.94482
  -6  -5  -3 1013.29  167.87   1-0.74676 0.28602 0.58965-0.93533-0.30766 0.20819
   6  -5   3 1053.11  155.70   1 0.18841 0.27125-0.48586 0.14031-0.85348 0.95222
  -6  -5  -4 1278.39  196.52   1-0.74869 0.28235 0.60291-0.94859-0.27559 0.14296
   6  -5   4 1439.27  212.84   1 0.23038 0.23482-0.51534 0.16979-0.82543 0.95709
  -6  -5  -5 3334.88  337.34   1-0.74944 0.27750 0.61086-0.95654-0.25531 0.08952
   6  -5   5 4784.06  332.19   1 0.26989 0.20021-0.54407 0.19888-0.79444 0.95935
   6   5   5 4116.19  185.78   1 0.74098-0.27133-0.60957 0.95548 0.28172-0.11591
  -6  -5  -6  216.23   51.70   1-0.74972 0.27218 0.61555-0.96124-0.24290 0.04395
   6  -5   6  348.46  137.01   1 0.30849 0.16715-0.56896 0.22377-0.76230 0.96019
   6   5   6  104.47   70.40   1 0.74153-0.26632-0.61558 0.96149 0.26678-0.06782
  -6  -5  -7 7749.67  569.62   1-0.74982 0.26668 0.61809-0.96377-0.23606 0.00396
   6  -5   710560.75  431.67   1 0.34513 0.13605-0.59147 0.24628-0.72872 0.95959
   6   5   7 9857.08  302.43   1 0.74177-0.26100-0.61908 0.96499 0.25787-0.02575
  -6  -5  -8 1390.04  269.57   1-0.74984 0.26111 0.61909-0.96478-0.23333-0.03193
   6  -5   8 1948.52  266.67   1 0.37900 0.10750-0.61283 0.26777-0.69339 0.95746
   6   5   8 1267.60  137.94   1 0.74187-0.25553-0.62081 0.96672 0.25340 0.01188
  -6  -5  -9  106.17   82.82   1-0.74984 0.25551 0.61895-0.96463-0.23371-0.06470
   6  -5   9  428.41  101.81   1 0.41154 0.08050-0.63076 0.28570-0.65784 0.95493
   6   5   9  413.42  138.96   1 0.74189-0.24999-0.62123 0.96714 0.25230 0.04613
  -6  -5 -10 8359.17  535.10   1-0.74981 0.24988 0.61791-0.96360-0.23654-0.09503
   6  -5  1011890.69  478.37   1 0.44203 0.05555-0.64654 0.30148-0.62175 0.95185
   6   5  1010405.83  368.49   1 0.74186-0.24440-0.62064 0.96655 0.25385 0.07774
  -6  -5 -11 3803.41  342.73   1-0.74974 0.24421 0.61615-0.96183-0.24131-0.12342
   6  -5  11 5881.84  409.70   1 0.47049 0.03262-0.66029 0.31523-0.58535 0.94845
   6   5  11 5084.70  282.47   1 0.74178-0.23876-0.61922 0.96513 0.25751 0.10725
  -6  -5 -12   90.75   69.53   1-0.74963 0.23849 0.61377-0.95945-0.24766-0.15022
   6  -5  12  257.44  147.14   1 0.49595 0.01258-0.67304 0.32788-0.54866 0.94463
   6   5  12  246.93  144.95   1 0.74165-0.23307-0.61712 0.96303 0.26287 0.13504
  -6  -5 -13 2026.28  307.97   1-0.74944 0.23270 0.61085-0.95653-0.25532-0.17572
   6  -5  13 2556.97  294.51   1 0.52058-0.00651-0.68313 0.33797-0.51216 0.94113
   6   5  13 2224.19  232.76   1 0.74144-0.22730-0.61444 0.96035 0.26966 0.16142
  -6  -5 -14 1288.65  184.63   1-0.74916 0.22683 0.60746-0.95315-0.26408-0.20013
   6  -5  14 1867.34  289.98   1 0.54343-0.02382-0.69157 0.34641-0.47581 0.93777
   6   5  14 1735.81  222.27   1 0.74115-0.22145-0.61123 0.95714 0.27762 0.18661
  -6  -5 -15   62.55   52.86   1-0.74877 0.22084 0.60364-0.94932-0.27376-0.22360
   6  -5  15  418.22  230.12   1 0.56459-0.03945-0.69849 0.35333-0.43970 0.93466
   6   5  15  -29.21  108.28   1 0.74076-0.21549-0.60756 0.95347 0.28659 0.21081
  -6  -5 -16  112.49   67.53   1-0.74826 0.21473 0.59942-0.94510-0.28423-0.24629
   6  -5  16  206.70  184.56   1 0.58329-0.05230-0.70480 0.35937-0.40375 0.93172
   6   5  16   65.45   99.66   1 0.74024-0.20941-0.60346 0.94937 0.29641 0.23414
  -6  -5 -17 1130.80  155.20   1-0.74761 0.20848 0.59482-0.94050-0.29539-0.26828
   6  -5  17 1568.95  312.34   1 0.60135-0.06479-0.70901 0.36359-0.36833 0.92930
   6   5  17 1122.99  213.31   1 0.73959-0.20320-0.59896 0.94487 0.30698 0.25674
  -6  -5 -18  555.12  158.13   1-0.74680 0.20207 0.58986-0.93554-0.30716-0.28968
   6  -5  18  815.22  240.82   1 0.61799-0.07588-0.71202 0.36660-0.33330 0.92727
  -6  -5 -19 2837.57  501.37   1-0.74581 0.19549 0.58455-0.93023-0.31945-0.31054
   6  -5  19 5101.13  477.09   1 0.63331-0.08563-0.71392 0.36849-0.29870 0.92567
   6  -6 -22   81.55   55.49   1-0.49077 0.81141 0.15553-0.57036-0.85729 0.12763
   6  -6 -21  -75.00  131.52   1-0.48397 0.81020 0.14725-0.56209-0.86260 0.16620
   6  -6 -20  557.28  190.36   1-0.47601 0.80782 0.13765-0.55248-0.86859 0.20535
   6  -6 -19  986.67  282.17   1-0.46678 0.80418 0.12662-0.54145-0.87526 0.24518
   6  -6 -18 5608.43  459.50   1-0.45617 0.79916 0.11407-0.52891-0.88254 0.28562
   6  -6 -17 1168.75  231.75   1-0.44408 0.79266 0.09993-0.51477-0.89039 0.32663
   6  -6 -16 3365.88  332.66   1-0.43039 0.78455 0.08412-0.49896-0.89871 0.36811
   6  -6 -14 1271.72  215.71   1-0.39769 0.76302 0.04717-0.46201-0.91630 0.45203
   6  -6 -13 4229.76  333.27   1-0.37878 0.74970 0.02570-0.44057-0.92512 0.49379
   6  -6 -1237251.82  818.31   1-0.35744 0.73397 0.00253-0.41741-0.93392 0.53577
   6  -6 -1126101.47  683.42   1-0.33393 0.71605-0.02253-0.39234-0.94232 0.57735
   6  -6 -10 1380.47  238.12   1-0.30816 0.69588-0.04947-0.36539-0.95004 0.61825
   6  -6  -9 1318.15  243.47   1-0.28010 0.67341-0.07822-0.33665-0.95677 0.65816
   6  -6  -8  226.79  190.62   1-0.24918 0.64823-0.10966-0.30541-0.96222 0.69750
   6  -6  -726013.93  635.55   1-0.21667 0.62126-0.14152-0.27355-0.96593 0.73430
   6  -6  -614231.38  500.65   1-0.18204 0.59217-0.17466-0.24040-0.96765 0.76911
   6  -6  -5 1642.26  240.80   1-0.14545 0.56112-0.20883-0.20624-0.96707 0.80162
   6  -6  -4  211.15  173.18   1-0.10837 0.52955-0.24441-0.17072-0.96359 0.83091
   6  -6  -3   53.49  121.97   1-0.06848 0.49528-0.27976-0.13537-0.95762 0.85811
   6  -6  -2  128.67  120.37   1-0.02745 0.45988-0.31509-0.10004-0.94866 0.88232
   6  -6  -1 3521.57  246.36   1 0.01449 0.42346-0.34999-0.06484-0.93663 0.90358
   6  -6   013888.70  541.31   1 0.05648 0.38700-0.38409-0.03075-0.92156 0.92156
   6  -6   1  864.06  175.67   1 0.09848 0.35053-0.41712 0.00227-0.90349 0.93654
   6  -6   2 9381.52  398.97   1 0.13870 0.31542-0.44942 0.03476-0.88248 0.94831
   6  -6   3  435.28  165.33   1 0.17949 0.28017-0.47944 0.06478-0.85901 0.95776
   6  -6   4 1119.50  197.88   1 0.21930 0.24590-0.50768 0.09302-0.83316 0.96482
   6  -6   5 1280.36  172.90   1 0.25690 0.21320-0.53544 0.12122-0.80455 0.96945
  -6  -6  -6  302.58   78.51   1-0.72641 0.24934 0.52063-0.93569-0.44862 0.24960
   6  -6   6  376.36  141.41   1 0.29411 0.18153-0.55982 0.14560-0.77465 0.97254
  -6  -6  -7 3571.91  408.48   1-0.73153 0.24888 0.53441-0.94947-0.42338 0.19120
   6  -6   7 4741.29  340.40   1 0.32973 0.15145-0.58214 0.16792-0.74322 0.97409
  -6  -6  -8  112.53   43.32   1-0.73479 0.24656 0.54391-0.95897-0.40525 0.13990
   6  -6   8   -1.00  139.57   1 0.36365 0.12307-0.60240 0.18818-0.71053 0.97439
  -6  -6  -9  187.39   86.82   1-0.73687 0.24305 0.55038-0.96544-0.39254 0.09403
   6  -6   9  453.54  111.92   1 0.39500 0.09704-0.62178 0.20770-0.67628 0.97336
  -6  -6 -10  373.92   67.71   1-0.73816 0.23876 0.55460-0.96966-0.38409 0.05240
   6  -6  10  502.31  205.08   1 0.42537 0.07220-0.63805 0.22398-0.64182 0.97191
  -6  -6 -11 3391.97  586.32   1-0.73890 0.23392 0.55709-0.97215-0.37903 0.01418
   6  -6  11 4523.43  393.49   1 0.45396 0.04915-0.65243 0.23836-0.60683 0.96993
  -6  -6 -12 5258.52  812.11   1-0.73922 0.22866 0.55821-0.97327-0.37674-0.02127
   6  -6  12 7512.48 1069.46   1 0.47968 0.02886-0.66588 0.25168-0.57140 0.96737
  -6  -6 -13   24.81   67.68   1-0.73923 0.22308 0.55821-0.97327-0.37673-0.05445
  -6  -6 -14    3.93   87.64   1-0.73896 0.21723 0.55728-0.97234-0.37863-0.08572
   6  -6  14   -0.64  123.67   1 0.52820-0.00859-0.68605 0.27186-0.50033 0.96229
  -6  -6 -15 2402.58  435.05   1-0.73845 0.21114 0.55556-0.97062-0.38215-0.11537
   6  -6  15 3560.30  341.34   1 0.55003-0.02489-0.69383 0.27964-0.46481 0.95978
  -6  -6 -16 3168.27  699.33   1-0.73772 0.20483 0.55313-0.96819-0.38704-0.14365
   6  -6  16 4827.28  366.56   1 0.56945-0.03845-0.70099 0.28648-0.42934 0.95731
  -6  -6 -17 3725.08  683.13   1-0.73678 0.19830 0.55009-0.96515-0.39312-0.17074
   6  -6  17 6682.32  488.40   1 0.58830-0.05174-0.70606 0.29155-0.39418 0.95515
  -6  -6 -18 1276.35  253.91   1-0.73563 0.19157 0.54648-0.96154-0.40024-0.19679
   6  -6  18 2271.05  340.35   1 0.60576-0.06365-0.70990 0.29539-0.35928 0.95325
   6  -7 -21  -31.73  133.98   1-0.45453 0.78076 0.11214-0.59611-0.88364 0.18724
   6  -7 -20  163.89  134.17   1-0.44615 0.77796 0.10233-0.58631-0.88908 0.22584
   6  -7 -19  103.51  142.29   1-0.43653 0.77393 0.09118-0.57516-0.89505 0.26497
   6  -7 -18  133.47  191.31   1-0.42559 0.76857 0.07862-0.56260-0.90149 0.30457
   6  -7 -17  870.91  214.71   1-0.41322 0.76180 0.06458-0.54856-0.90833 0.34457
   6  -7 -16  173.32  137.09   1-0.39934 0.75350 0.04901-0.53299-0.91548 0.38489
   6  -7 -15  324.71  186.95   1-0.38385 0.74359 0.03185-0.51583-0.92284 0.42541
   6  -7 -14 1135.41  252.72   1-0.36700 0.73233 0.01286-0.49688-0.93013 0.46561
   6  -7 -13  318.41  143.30   1-0.34799 0.71892-0.00759-0.47642-0.93746 0.50613
   6  -7 -12 9799.89  492.13   1-0.32711 0.70363-0.02972-0.45429-0.94451 0.54636
   6  -7 -11 4891.13  403.38   1-0.30427 0.68639-0.05350-0.43051-0.95108 0.58610
   6  -7  -926983.57  712.05   1-0.25200 0.64550-0.10687-0.37738-0.96180 0.66399
   6  -7  -825046.99  731.51   1-0.22324 0.62228-0.13515-0.34910-0.96534 0.70063
   6  -7  -733327.93  751.86   1-0.19254 0.59713-0.16470-0.31955-0.96736 0.73573
   6  -7  -6 6536.86  388.83   1-0.16002 0.57015-0.19533-0.28892-0.96759 0.76905
   6  -7  -511982.33  475.63   1-0.12721 0.54276-0.22738-0.25694-0.96545 0.79961
   6  -7  -4  405.81  171.37   1-0.09139 0.51256-0.25958-0.22474-0.96138 0.82871
   6  -7  -3 1177.89  207.89   1-0.05428 0.48108-0.29210-0.19222-0.95484 0.85533
   6  -7  -2 4739.97  350.04   1-0.01615 0.44858-0.32465-0.15968-0.94569 0.87935
   6  -7  -1 1983.81  255.46   1 0.02282 0.41513-0.35684-0.12713-0.93388 0.90083
   6  -7   0  -55.50  126.36   1 0.06192 0.38155-0.38843-0.09554-0.91939 0.91939
   6  -7   1 1264.27  213.03   1 0.10115 0.34786-0.41917-0.06480-0.90225 0.93530
   6  -7   2 2215.14  269.00   1 0.13869 0.31544-0.44940-0.03436-0.88249 0.94832
   6  -7   3  842.14  186.75   1 0.17709 0.28257-0.47770-0.00606-0.86048 0.95922
   6  -7   4  414.58  153.44   1 0.21478 0.25042-0.50452 0.02075-0.83625 0.96791
   6  -7   5 5552.86  363.42   1 0.25040 0.21971-0.53106 0.04781-0.80948 0.97439
   6  -7   610123.10  467.67   1 0.28606 0.18958-0.55463 0.07138-0.78137 0.97926
   6  -7   7 6936.38  377.47   1 0.32042 0.16076-0.57641 0.09315-0.75171 0.98258
   6  -7   8  153.18  147.56   1 0.35337 0.13335-0.59637 0.11311-0.72073 0.98459
   6  -7   9   81.36  132.11   1 0.38394 0.10810-0.61562 0.13253-0.68818 0.98526
  -6  -7 -10  445.70  118.66   1-0.70597 0.20651 0.47486-0.95905-0.52545 0.19380
   6  -7  10 1099.90  263.79   1 0.41385 0.08372-0.63199 0.14891-0.65520 0.98529
  -6  -7 -11  800.94  158.97   1-0.71049 0.20551 0.48338-0.96761-0.51140 0.14654
   6  -7  11 1415.12  264.14   1 0.44219 0.06092-0.64663 0.16354-0.62155 0.98465
  -6  -7 -12 1440.22  310.74   1-0.71330 0.20273 0.48950-0.97374-0.50158 0.10355
   6  -7  12 2241.26  296.13   1 0.46896 0.03970-0.65958 0.17649-0.58739 0.98350
  -6  -7 -13 2267.24  398.34   1-0.71518 0.19903 0.49369-0.97792-0.49475 0.06356
   6  -7  13 3741.99  338.29   1 0.49300 0.02107-0.67177 0.18855-0.55286 0.98183
  -6  -7 -14   46.10   60.56   1-0.71633 0.19460 0.49629-0.98053-0.49046 0.02610
   6  -7  14  162.94  130.71   1 0.51666 0.00294-0.68159 0.19837-0.51815 0.98012
  -6  -7 -15  114.99   56.91   1-0.71689 0.18958 0.49758-0.98182-0.48833-0.00919
   6  -7  15  121.67  145.88   1 0.53883-0.01370-0.68995 0.20673-0.48333 0.97830
   6  -7  16  306.11  204.89   1 0.55956-0.02890-0.69694 0.21371-0.44850 0.97646
   6  -7  17 2175.95  334.02   1 0.57800-0.04144-0.70340 0.21980-0.41369 0.97466
   6  -8 -19  335.31  203.58   1-0.40452 0.74192 0.05480-0.60791-0.91288 0.28280
   6  -8 -18   -0.96  129.95   1-0.39329 0.73628 0.04229-0.59540-0.91843 0.32152
   6  -8 -17  473.48  247.10   1-0.38108 0.72961 0.02822-0.58138-0.92411 0.36006
   6  -8 -16   76.36  136.03   1-0.36707 0.72120 0.01293-0.56610-0.93010 0.39923
   6  -8 -15   50.46  129.84   1-0.35155 0.71128-0.00378-0.54937-0.93615 0.43846
   6  -8 -14   71.67  118.59   1-0.33445 0.69978-0.02198-0.53118-0.94215 0.47764
   6  -8 -13 1716.18  267.49   1-0.31570 0.68663-0.04164-0.51151-0.94794 0.51660
   6  -8 -12  684.21  203.42   1-0.29525 0.67177-0.06278-0.49038-0.95335 0.55520
   6  -8 -11  794.08  260.59   1-0.27304 0.65516-0.08536-0.46780-0.95820 0.59323
   6  -8 -1029096.40  758.01   1-0.24844 0.63640-0.11040-0.44303-0.96233 0.63143
   6  -8  -9   65.92  146.24   1-0.22274 0.61625-0.13563-0.41780-0.96539 0.66758
   6  -8  -8 1436.63  294.46   1-0.19531 0.59435-0.16206-0.39137-0.96725 0.70254
   6  -8  -7  845.63  229.81   1-0.16619 0.57078-0.18956-0.36387-0.96769 0.73607
   6  -8  -6 1392.26  263.37   1-0.13549 0.54561-0.21798-0.33545-0.96650 0.76796
   6  -8  -5 5684.65  351.77   1-0.10476 0.52031-0.24766-0.30586-0.96316 0.79732
   6  -8  -4 5481.35  369.56   1-0.07117 0.49235-0.27740-0.27611-0.95811 0.82543
   6  -8  -3 1046.00  232.03   1-0.03646 0.46326-0.30742-0.24609-0.95087 0.85136
   6  -8  -2 4252.26  354.37   1-0.00057 0.43300-0.33750-0.21561-0.94132 0.87522
   6  -8  -1 3961.41  343.98   1 0.03556 0.40239-0.36724-0.18588-0.92944 0.89639
   6  -8   0 6122.30  361.85   1 0.07212 0.37135-0.39652-0.15660-0.91518 0.91518
   6  -8   1  679.99  201.47   1 0.10886 0.34015-0.42511-0.12800-0.89856 0.93161
   6  -8   2  216.96  187.69   1 0.14396 0.31016-0.45335-0.09953-0.87962 0.94545
   6  -8   3  507.86  160.38   1 0.18014 0.27952-0.47991-0.07296-0.85862 0.95736
   6  -8   4 1323.53  264.52   1 0.21579 0.24941-0.50523-0.04764-0.83556 0.96722
   6  -8   5 -174.07  129.35   1 0.24945 0.22065-0.53042-0.02186-0.81019 0.97510
   6  -8   6 3552.14  336.33   1 0.28350 0.19214-0.55298 0.00068-0.78347 0.98136
   6  -8   7  280.49  150.25   1 0.31649 0.16468-0.57397 0.02168-0.75523 0.98610
   6  -8   8 3177.23  331.28   1 0.34830 0.13841-0.59336 0.04107-0.72566 0.98952
   6  -8   9 2632.37  318.07   1 0.37788 0.11416-0.61219 0.06009-0.69456 0.99164
   6  -8  1012444.24  616.64   1 0.40709 0.09048-0.62837 0.07628-0.66288 0.99297
   6  -8  11 5833.85  838.78   1 0.43492 0.06819-0.64296 0.09086-0.63042 0.99352
   6  -8  12  451.22  237.55   1 0.46135 0.04731-0.65599 0.10389-0.59735 0.99346
   6  -8  13  293.25  209.67   1 0.48517 0.02890-0.66834 0.11608-0.56385 0.99281
   6  -8  14  365.70  180.28   1 0.50878 0.01082-0.67842 0.12616-0.52998 0.99195
   6  -8  15  667.72  234.04   1 0.53101-0.00588-0.68710 0.13485-0.49588 0.99084
   6  -9 -17 1661.30  301.16   1-0.34698 0.69551-0.00868-0.61362-0.93783 0.37378
   6  -9 -16  -76.61  142.76   1-0.33289 0.68702-0.02363-0.59867-0.94266 0.41179
   6  -9 -15 1174.89  259.85   1-0.31739 0.67712-0.03989-0.58242-0.94745 0.44976
   6  -9 -14  278.74  199.28   1-0.30042 0.66575-0.05746-0.56484-0.95207 0.48755
   6  -9 -13 1344.98  245.27   1-0.28195 0.65287-0.07635-0.54596-0.95638 0.52505
   6  -9 -12  128.02  130.88   1-0.26123 0.63811-0.09767-0.52494-0.96032 0.56324
   6  -9 -1110065.53  494.97   1-0.23966 0.62208-0.11907-0.50354-0.96352 0.59953
   6  -9 -10 3354.75  364.34   1-0.21652 0.60448-0.14167-0.48094-0.96594 0.63504
   6  -9  -9 4970.65  434.81   1-0.19181 0.58532-0.16539-0.45722-0.96739 0.66958
   6  -9  -8 8054.74  459.54   1-0.16557 0.56462-0.19014-0.43246-0.96769 0.70297
   6  -9  -7  395.64  187.95   1-0.13785 0.54244-0.21581-0.40680-0.96665 0.73502
   6  -9  -6   59.32  175.66   1-0.11031 0.52023-0.24267-0.38004-0.96381 0.76480
   6  -9  -5  308.10  161.94   1-0.07983 0.49538-0.26980-0.35291-0.95959 0.79375
   6  -9  -4  553.06  164.42   1-0.04819 0.46937-0.29736-0.32535-0.95354 0.82087
   6  -9  -3 4567.83  357.67   1-0.01556 0.44236-0.32514-0.29756-0.94553 0.84602
   6  -9  -2  317.82  208.66   1 0.01808 0.41434-0.35295-0.26930-0.93546 0.86936
   6  -9  -1 2803.16  491.24   1 0.05199 0.38596-0.38049-0.24176-0.92331 0.89026
   6  -9   0  297.05  237.95   1 0.08630 0.35717-0.40765-0.21460-0.90904 0.90904
   6  -9   1 9688.33  464.06   1 0.12082 0.32819-0.43424-0.18802-0.89265 0.92570
   6  -9   2 3380.46  317.45   1 0.15369 0.30044-0.46057-0.16141-0.87421 0.94004
   6  -9   3  269.97  187.27   1 0.18782 0.27185-0.48543-0.13655-0.85385 0.95260
   6  -9   4  144.41  135.23   1 0.22154 0.24366-0.50923-0.11275-0.83162 0.96328
   6  -9   5  -18.07  116.82   1 0.25329 0.21681-0.53301-0.08831-0.80730 0.97220
   6  -9   6  114.94  124.04   1 0.28574 0.18990-0.55443-0.06689-0.78163 0.97952
   6  -9   7 1092.06  217.33   1 0.31732 0.16386-0.57448-0.04684-0.75449 0.98537
   6  -9   8  278.15  136.53   1 0.34790 0.13882-0.59312-0.02820-0.72606 0.98991
   6  -9   9  965.54  222.51   1 0.37635 0.11569-0.61132-0.00978-0.69615 0.99323
   6  -9  10  147.02  152.48   1 0.40470 0.09288-0.62708 0.00597-0.66556 0.99565
   6  -9  11  241.78  199.86   1 0.43183 0.07129-0.64138 0.02027-0.63414 0.99724
   6  -9  12  102.86  140.15   1 0.45771 0.05094-0.65424 0.03313-0.60204 0.99815
   6  -9  13  522.83  208.28   1 0.48110 0.03297-0.66652 0.04523-0.56946 0.99843
   6 -10 -14  532.18  189.70   1-0.26493 0.63026-0.09351-0.59794-0.95972 0.49520
   6 -10 -13 1904.05  307.91   1-0.24605 0.61738-0.11277-0.57902-0.96267 0.53250
   6 -10 -12  302.46  216.65   1-0.22648 0.60336-0.13199-0.55980-0.96502 0.56795
   6 -10 -11 1103.96  233.68   1-0.20550 0.58791-0.15230-0.53948-0.96673 0.60274
   6 -10 -10  677.20  196.51   1-0.18310 0.57106-0.17367-0.51812-0.96763 0.63673
   6 -10  -9  731.23  237.08   1-0.15930 0.55280-0.19600-0.49579-0.96757 0.66977
   6 -10  -8  182.94  131.51   1-0.13588 0.53454-0.21947-0.47243-0.96610 0.70075
   6 -10  -7 3890.29  375.23   1-0.10935 0.51364-0.24353-0.44836-0.96370 0.73152
   6 -10  -6 1020.82  280.49   1-0.08159 0.49151-0.26825-0.42365-0.95988 0.76087
   6 -10  -5  503.76  190.63   1-0.05270 0.46824-0.29347-0.39842-0.95451 0.78866
   6 -10  -4  -68.08  118.89   1-0.02278 0.44396-0.31905-0.37285-0.94746 0.81478
   6 -10  -3 2911.31  307.96   1 0.00829 0.41859-0.34487-0.34652-0.93861 0.83946
   6 -10  -2  188.27  141.49   1 0.03966 0.39276-0.37056-0.32083-0.92795 0.86185
   6 -10  -1   58.70  127.68   1 0.07159 0.36636-0.39609-0.29530-0.91541 0.88236
   6 -10   0   63.27  119.77   1 0.10389 0.33959-0.42129-0.27010-0.90095 0.90095
   6 -10   1  327.41  142.58   1 0.13484 0.31374-0.44652-0.24457-0.88455 0.91746
   6 -10   2  441.01  158.20   1 0.16723 0.28690-0.47052-0.22057-0.86639 0.93222
   6 -10   3   73.71  126.47   1 0.19946 0.26020-0.49374-0.19736-0.84642 0.94516
   6 -10   4  446.27  162.12   1 0.23137 0.23383-0.51602-0.17507-0.82472 0.95638
   6 -10   5  -92.00  129.75   1 0.26130 0.20880-0.53837-0.15198-0.80116 0.96607
   6 -10   6  143.32  191.14   1 0.29219 0.18345-0.55859-0.13176-0.77626 0.97415
   6 -10   7   72.00  140.56   1 0.32235 0.15883-0.57760-0.11275-0.74997 0.98084
   6 -10   8  481.61  143.56   1 0.35165 0.13506-0.59535-0.09500-0.72241 0.98627
   6 -10   9 1852.53  320.66   1 0.37891 0.11313-0.61278-0.07734-0.69348 0.99056
   6 -10  10  826.80  227.84   1 0.40629 0.09129-0.62794-0.06218-0.66378 0.99388
   6 -11 -10  156.42  159.06   1-0.14818 0.53614-0.20630-0.55467-0.96720 0.63630
   6 -11  -9 3417.26  410.49   1-0.12706 0.52010-0.22752-0.53357-0.96544 0.66692
   6 -11  -8  210.40  152.46   1-0.10285 0.50151-0.24937-0.51172-0.96293 0.69758
   6 -11  -7   61.75  142.04   1-0.07747 0.48176-0.27188-0.48921-0.95920 0.72702
   6 -11  -6   62.71  141.13   1-0.05101 0.46092-0.29493-0.46615-0.95415 0.75514
   6 -11  -5 1956.36  342.90   1-0.02354 0.43908-0.31841-0.44268-0.94765 0.78181
   6 -11  -4   14.98  132.48   1 0.00518 0.41618-0.34229-0.41824-0.93957 0.80737
   6 -11  -3  412.72  217.93   1 0.03418 0.39270-0.36612-0.39442-0.92993 0.83078
   6 -11  -2   43.32  138.92   1 0.06383 0.36859-0.38994-0.37059-0.91862 0.85252
   6 -11  -1 1014.67  221.49   1 0.09397 0.34398-0.41362-0.34692-0.90558 0.87253
   6 -11   0  435.14  206.92   1 0.12446 0.31902-0.43700-0.32354-0.89080 0.89080
   6 -11   1 1072.33  234.45   1 0.15351 0.29508-0.46044-0.29976-0.87431 0.90722
   6 -11   2  511.11  200.35   1 0.18409 0.27003-0.48276-0.27744-0.85618 0.92201
   6 -11   3  305.35  187.97   1 0.21457 0.24509-0.50438-0.25582-0.83639 0.93513
   6 -11   4 1830.11  324.11   1 0.24480 0.22040-0.52518-0.23502-0.81501 0.94667
   6 -11   5  -76.20  124.79   1 0.27298 0.19712-0.54610-0.21329-0.79198 0.95689
   6 -11   6  669.89  220.50   1 0.30236 0.17328-0.56508-0.19431-0.76762 0.96551
   7   0 -25 -110.59  107.51   1-0.58160 0.95982 0.27344-0.27344-0.76613-0.06301
   7   0 -24 3699.93  363.03   1-0.57916 0.96255 0.26975-0.26975-0.76928-0.02671
   7   0 -23   48.86   55.98   1-0.57534 0.96431 0.26450-0.26450-0.77396 0.01113
   7   0 -22 1248.53  242.94   1-0.57035 0.96491 0.25770-0.25770-0.77992 0.05026
   7   0 -21  116.96  110.49   1-0.56404 0.96419 0.24918-0.24918-0.78724 0.09075
   7   0 -20   94.10  113.16   1-0.55624 0.96197 0.23875-0.23875-0.79598 0.13265
   7   0 -19   -3.50  112.79   1-0.54672 0.95804 0.22619-0.22619-0.80618 0.17601
   7   0 -1813130.33 1260.35   1-0.53523 0.95214 0.21127-0.21127-0.81785 0.22085
   7   0 -17  -42.11  125.25   1-0.52149 0.94398 0.19370-0.19370-0.83097 0.26714
   7   0 -1613664.20  407.71   1-0.50513 0.93321 0.17320-0.17320-0.84548 0.31482
   7   0 -15   40.99   99.87   1-0.48574 0.91941 0.14940-0.14940-0.86123 0.36380
   7   0 -1410853.80  370.49   1-0.46295 0.90220 0.12207-0.12207-0.87793 0.41366
   7   0 -13   -9.64   93.24   1-0.43625 0.88110 0.09087-0.09087-0.89522 0.46411
   7   0 -12 1019.94  155.41   1-0.40520 0.85563 0.05556-0.05556-0.91253 0.51459
   7   0 -11  -87.43   79.73   1-0.36946 0.82553 0.01553-0.01553-0.92911 0.56413
   7   0 -10  872.10  125.90   1-0.32845 0.79011-0.02830 0.02830-0.94409 0.61230
   7   0  -9  162.32  107.31   1-0.28213 0.74939-0.07616 0.07616-0.95634 0.65773
   7   0  -8 6756.43  256.40   1-0.22942 0.70236-0.12912 0.12912-0.96472 0.70000
   7   0  -7  167.74  100.93   1-0.17316 0.65164-0.18303 0.18304-0.96773 0.73610
   7   0  -617473.75  357.88   1-0.11370 0.59757-0.23962 0.23962-0.96418 0.76517
   7   0  -5  170.21   98.38   1-0.05038 0.53988-0.29547 0.29547-0.95402 0.78817
   7   0  -4 8270.03  259.19   1 0.01535 0.47992-0.35070 0.35070-0.93635 0.80415
   7   0  -3  146.66   64.46   1 0.07967 0.42113-0.40246 0.40246-0.91196 0.81281
   7   0  -256300.05  639.53   1 0.14262 0.36319-0.45235 0.45235-0.88036 0.81453
   7   0  -1    3.93   85.18   1 0.20238 0.30898-0.49580 0.49580-0.84452 0.81160
   7   0   0 4361.90  231.70   1 0.25807 0.25807-0.53622 0.53622-0.80365 0.80365
   7   0   1 -153.50   87.93   1 0.30999 0.21169-0.56990 0.56990-0.76098 0.79397
   7   0   2 2661.52  196.92   1 0.35741 0.16981-0.59875 0.59875-0.71675 0.78272
   7   0   3  225.47  140.24   1 0.40017 0.13235-0.62462 0.62462-0.67060 0.76963
   7   0   418952.63  433.74   1 0.43878 0.09927-0.64491 0.64491-0.62574 0.75777
   7   0   5   19.84  104.25   1 0.47300 0.07053-0.66283 0.66283-0.58045 0.74543
   7   0   6  775.10  132.73   1 0.50391 0.04515-0.67641 0.67641-0.53715 0.73513
   7   0   7  116.54  103.01   1 0.53156 0.02303-0.68730 0.68730-0.49501 0.72599
   7   0   8  823.51  152.81   1 0.55630 0.00382-0.69589 0.69589-0.45415 0.71813
   7   0   9  158.84  134.89   1 0.57799-0.01224-0.70339 0.70339-0.41370 0.71068
   7   0  1019068.43  507.71   1 0.59781-0.02650-0.70826 0.70826-0.37546 0.70544
   7   0  11  251.36  178.19   1 0.61561-0.03874-0.71165 0.71165-0.33848 0.70146
   7   0  12  182.29  121.07   1 0.63160-0.04918-0.71376 0.71376-0.30268 0.69866
   7   0  13  -66.50  104.72   1 0.64576-0.05626-0.71585 0.71585-0.26558 0.69597
   7   0  14   76.62   96.24   1 0.65863-0.06352-0.71584 0.71584-0.23185 0.69536
   7   0  15  332.78  194.34   1 0.67021-0.06950-0.71495 0.71495-0.19909 0.69570
   7   0  1613009.59  523.55   1 0.68063-0.07432-0.71328 0.71328-0.16721 0.69692
   7   0  17   87.47  168.55   1 0.69000-0.07808-0.71088 0.71088-0.13613 0.69895
   7   0  18  285.82  170.20   1 0.69785-0.08133-0.70857 0.70857-0.10449 0.70092
   7   0  19    8.92  130.06   1 0.70534-0.08327-0.70489 0.70489-0.07483 0.70440
   7   0  20 1071.93  247.37   1 0.71202-0.08440-0.70065 0.70065-0.04578 0.70849
   7   1 -25   82.29  152.77   1-0.59379 0.97201 0.29049-0.22132-0.75034-0.07879
   7  -1 -25   24.10  117.23   1-0.56749 0.94529 0.25382-0.32296-0.78327-0.04588
   7   1 -24  170.79  143.68   1-0.59128 0.97507 0.28695-0.21779-0.75368-0.04229
   7  -1 -24   69.32  112.49   1-0.56439 0.94778 0.24964-0.31878-0.78685-0.00914
   7   1 -23    8.13   98.40   1-0.58772 0.97708 0.28195-0.21279-0.75834-0.00447
   7  -1 -23  -43.12  110.31   1-0.56026 0.94923 0.24410-0.31324-0.79152 0.02870
   7   1 -22 2096.05  258.20   1-0.58296 0.97789 0.27532-0.20616-0.76442 0.03477
   7  -1 -22 2575.09  314.30   1-0.55498 0.94954 0.23708-0.30622-0.79735 0.06769
   7   1 -21  471.63  164.73   1-0.57718 0.97733 0.26702-0.19789-0.77172 0.07522
   7  -1 -21  722.13  211.00   1-0.54843 0.94858 0.22844-0.29757-0.80438 0.10789
   7   1 -20   96.50  119.64   1-0.56948 0.97521 0.25652-0.18738-0.78095 0.11762
   7  -1 -20   23.35  109.46   1-0.54044 0.94617 0.21800-0.28714-0.81264 0.14931
   7  -1 -19  680.29  185.30   1-0.53083 0.94215 0.20560-0.27474-0.82215 0.19199
   7   1 -19  624.61  160.20   1-0.55995 0.97127 0.24370-0.17456-0.79187 0.16171
   7   1 -18 2868.15  249.40   1-0.54829 0.96519 0.22825-0.15911-0.80453 0.20754
   7  -1 -18 3367.99  304.03   1-0.51938 0.93629 0.19104-0.26018-0.83290 0.23591
   7   1 -17 2140.00  223.25   1-0.53412 0.95661 0.20983-0.14069-0.81895 0.25512
   7  -1 -17 1870.76  234.12   1-0.50586 0.92835 0.17411-0.24325-0.84485 0.28102
   7  -1 -16  468.24  120.60   1-0.48999 0.91807 0.15458-0.22371-0.85791 0.32724
   7   1 -16  457.93  143.28   1-0.51701 0.94509 0.18805-0.11891-0.83506 0.30440
   7   1 -1511374.37  374.80   1-0.49643 0.93010 0.16247-0.09333-0.85273 0.35523
   7  -1 -1510930.61  402.26   1-0.47143 0.90510 0.13217-0.20131-0.87193 0.37450
   7  -1 -1412998.12  427.11   1-0.44992 0.88918 0.10674-0.17588-0.88666 0.42239
   7   1 -1411709.78  360.14   1-0.47177 0.91103 0.13257-0.06343-0.87169 0.40742
   7  -1 -13 1492.41  217.66   1-0.42510 0.86994 0.07806-0.14720-0.90177 0.47066
   7   1 -13 1563.37  184.20   1-0.44244 0.88728 0.09802-0.02888-0.89142 0.46031
   7  -1 -12  280.81  177.09   1-0.39662 0.84705 0.04599-0.11512-0.91682 0.51888
   7   1 -12   54.52   74.83   1-0.40771 0.85814 0.05838 0.01075-0.91124 0.51329
   7   1 -11 2596.93  177.07   1-0.36699 0.82305 0.01284 0.05629-0.93013 0.56516
   7  -1 -11 2915.88  269.02   1-0.36437 0.82044 0.01001-0.07916-0.93119 0.56622
   7   1 -1033093.16  496.48   1-0.31959 0.78125-0.03758 0.10673-0.94680 0.61501
   7  -1 -1032439.16  913.43   1-0.32777 0.78944-0.02901-0.04012-0.94430 0.61251
   7   1  -9  827.47  125.70   1-0.26382 0.73122-0.09508 0.16426-0.95987 0.66206
   7  -1  -9  660.62  145.76   1-0.28690 0.75416-0.07131 0.00216-0.95530 0.65668
   7   1  -812463.64  292.35   1-0.20293 0.67587-0.15477 0.22395-0.96688 0.70216
   7  -1  -812603.73  365.82   1-0.24085 0.71379-0.11790 0.04872-0.96337 0.69865
   7  -1  -7  735.29  127.07   1-0.19189 0.67038-0.16532 0.09614-0.96739 0.73576
   7   1  -7  650.91   95.04   1-0.13698 0.61521-0.21847 0.28766-0.96618 0.73400
   7  -1  -6  210.60  121.34   1-0.13950 0.62352-0.21430 0.14512-0.96675 0.76821
   7   1  -6  246.79   72.99   1-0.06544 0.54930-0.28241 0.35160-0.95705 0.75804
   7  -1  -5  711.32  134.76   1-0.08514 0.57464-0.26511 0.19592-0.96044 0.79460
   7   1  -5  556.77   93.89   1 0.01000 0.47974-0.34629 0.41543-0.93807 0.77282
   7  -1  -426679.97  471.23   1-0.02803 0.52316-0.31460 0.24541-0.94880 0.81613
   7   1  -426023.51  401.34   1 0.08381 0.41147-0.40570 0.47484-0.91015 0.77795
   7  -1  -3  328.68  131.51   1 0.03049 0.47031-0.36311 0.29397-0.93124 0.83209
   7   1  -3  232.02   80.20   1 0.15630 0.34398-0.46250 0.53161-0.87273 0.77398
   7  -1  -220949.62  446.27   1 0.08779 0.41854-0.40882 0.33967-0.90838 0.84228
   7   1  -222447.65  395.87   1 0.22365 0.28216-0.51070 0.57981-0.83015 0.76432
   7  -1  -1  121.84  147.70   1 0.14355 0.36781-0.45304 0.38393-0.87985 0.84694
   7   1  -1   10.90   76.68   1 0.28547 0.22514-0.55425 0.62329-0.78185 0.74887
   7  -1   0  109.23  148.35   1 0.19726 0.31963-0.49218 0.42306-0.84784 0.84784
   7   1   0    9.64   75.01   1 0.34151 0.17464-0.58929 0.65833-0.73218 0.73218
   7  -1   1 1148.34  176.90   1 0.24823 0.27420-0.52751 0.45840-0.81247 0.84538
   7   1   1 1285.06  209.37   1 0.39142 0.13002-0.61980 0.68881-0.68017 0.71318
   7  -1   225174.48  501.26   1 0.29559 0.23163-0.56077 0.49173-0.77340 0.83936
   7   1   225613.83  449.48   1 0.43529 0.09169-0.64314 0.71216-0.62998 0.69600
   7   1   3  313.51   95.68   1 0.47363 0.05884-0.66312 0.73215-0.57959 0.67859
   7  -1   417151.41  431.17   1 0.38066 0.15740-0.61377 0.54475-0.69165 0.82368
   7   1   417913.18  395.28   1 0.50718 0.03082-0.67776 0.74679-0.53234 0.66433
   7  -1   5  141.44  102.85   1 0.41814 0.12545-0.63427 0.56525-0.65027 0.81531
   7   1   5  324.10  153.33   1 0.53655 0.00698-0.68913 0.75816-0.48703 0.65202
   7  -1   6 1236.18  176.20   1 0.45233 0.09680-0.65164 0.58262-0.60889 0.80695
   7   1   6 1381.17  172.16   1 0.56230-0.01323-0.69779 0.76682-0.44373 0.64171
   7  -1   7  328.83  130.33   1 0.48282 0.07177-0.66729 0.59826-0.56709 0.79808
   7   1   7  208.42  152.89   1 0.58464-0.03001-0.70514 0.77423-0.40120 0.63218
   7  -1   813113.89  415.73   1 0.51101 0.04911-0.67932 0.61029-0.52666 0.79064
   7   1   812675.51  406.26   1 0.60455-0.04437-0.70966 0.77875-0.36177 0.62576
   7  -1   9 1378.13  215.79   1 0.53657 0.02908-0.68914 0.62011-0.48699 0.78397
   7   1   9 1631.57  203.77   1 0.62218-0.05643-0.71263 0.78172-0.32408 0.62106
   7  -1  10 3209.40  266.55   1 0.55975 0.01143-0.69699 0.62796-0.44818 0.77815
   7   1  10 3625.13  287.77   1 0.63783-0.06653-0.71430 0.78338-0.28797 0.61796
   7  -1  11  222.84  159.83   1 0.58019-0.00332-0.70399 0.63490-0.40960 0.77258
   7   1  11  114.29  142.16   1 0.65155-0.07326-0.71596 0.78519-0.25072 0.61490
   7  -1  12 2620.76  276.13   1 0.59922-0.01679-0.70856 0.63948-0.37264 0.76862
   7   1  12 2180.21  245.61   1 0.66389-0.07999-0.71555 0.78478-0.21730 0.61458
   7  -1  13 1902.64  251.08   1 0.61648-0.02849-0.71179 0.64270-0.33660 0.76558
   7   1  13 1592.43  229.61   1 0.67491-0.08540-0.71431 0.78354-0.18504 0.61544
   7  -1  14 2552.67  296.97   1 0.63213-0.03858-0.71381 0.64472-0.30146 0.76343
   7   1  14 2696.22  283.52   1 0.68476-0.08965-0.71234 0.78156-0.15384 0.61734
   7  -1  15  276.47  169.73   1 0.64606-0.04534-0.71586 0.64664-0.26483 0.76144
   7   1  15   70.35  114.20   1 0.69356-0.09285-0.70971 0.77893-0.12358 0.62019
   7  -1  16 5447.26  376.64   1 0.65884-0.05252-0.71584 0.64661-0.23128 0.76100
   7   1  16 5884.06  430.02   1 0.70088-0.09548-0.70720 0.77639-0.09280 0.62296
   7  -1  17  353.47  119.25   1 0.67041-0.05849-0.71493 0.64571-0.19851 0.76133
   7   1  17  462.97  184.86   1 0.70788-0.09692-0.70341 0.77260-0.06415 0.62745
   7  -1  18  237.59  184.48   1 0.68087-0.06334-0.71323 0.64400-0.16646 0.76239
   7   1  18  146.23  173.06   1 0.71409-0.09758-0.69911 0.76830-0.03617 0.63260
   7  -1  19  335.05  205.49   1 0.69030-0.06717-0.71079 0.64156-0.13508 0.76411
   7   1  19  243.13  175.59   1 0.71958-0.09751-0.69434 0.76353-0.00879 0.63836
   7  -1  20 3905.71  370.84   1 0.69822-0.07060-0.70841 0.63922-0.10306 0.76577
   7   1  20 4661.07  393.03   1 0.72441-0.09678-0.68912 0.75831 0.01804 0.64465
   7  -2 -25 1916.97  324.26   1-0.55086 0.92866 0.23163-0.36991-0.80180-0.02735
   7  -2 -24  142.70  128.37   1-0.54741 0.93080 0.22710-0.36538-0.80545 0.00945
   7   2 -23  272.19   91.40   1-0.59791 0.98727 0.29632-0.15800-0.74477-0.01803
   7  -2 -23  539.57  210.96   1-0.54295 0.93192 0.22127-0.35955-0.81008 0.04726
   7   2 -22  721.78  171.94   1-0.59329 0.98823 0.28978-0.15145-0.75101 0.02136
   7  -2 -22  765.60  195.69   1-0.53736 0.93192 0.21401-0.35229-0.81574 0.08608
   7   2 -21  -79.66   89.43   1-0.58724 0.98775 0.28128-0.14295-0.75896 0.06247
   7  -2 -21  -45.48  108.01   1-0.53052 0.93067 0.20521-0.34349-0.82245 0.12596
   7   2 -20 2104.02  250.42   1-0.57986 0.98560 0.27072-0.13244-0.76841 0.10508
   7  -2 -20 2368.84  282.09   1-0.52229 0.92803 0.19473-0.33301-0.83023 0.16690
   7   2 -19  420.78  159.90   1-0.57015 0.98147 0.25743-0.11915-0.78015 0.14999
   7  -2 -19  792.40  197.49   1-0.51253 0.92385 0.18242-0.32070-0.83906 0.20890
   7   2 -18  202.42  144.98   1-0.55808 0.97499 0.24120-0.10292-0.79395 0.19695
   7  -2 -18  179.94  147.84   1-0.50104 0.91795 0.16814-0.30642-0.84893 0.25193
   7   2 -17  578.06  119.16   1-0.54318 0.96567 0.22157-0.08329-0.80984 0.24602
   7  -2 -17  496.94  149.74   1-0.48760 0.91010 0.15167-0.28995-0.85978 0.29603
   7   2 -16 5449.92  287.50   1-0.52487 0.95295 0.19800-0.05972-0.82782 0.29716
   7  -2 -16 6119.27  367.09   1-0.47205 0.90013 0.13290-0.27118-0.87149 0.34090
   7   2 -15  114.67   92.20   1-0.50245 0.93612 0.16988-0.03160-0.84774 0.35025
   7  -2 -15   33.10   94.87   1-0.45411 0.88778 0.11165-0.24993-0.88391 0.38648
   7   2 -14  324.05  147.20   1-0.47503 0.91429 0.13648 0.00179-0.86931 0.40504
   7  -2 -14  136.85   96.46   1-0.43354 0.87280 0.08774-0.22602-0.89684 0.43257
   7   2 -13 7792.67  285.93   1-0.44173 0.88657 0.09720 0.04107-0.89186 0.46075
   7  -2 -13 7140.09  754.62   1-0.41010 0.85494 0.06106-0.19934-0.90999 0.47888
   7  -2 -1211780.70  394.57   1-0.38353 0.83396 0.03151-0.16979-0.92298 0.52504
   7   2 -1211400.69  305.41   1-0.40143 0.85185 0.05134 0.08693-0.91444 0.51650
   7   2 -11  907.78  126.66   1-0.35303 0.80909-0.00221 0.14050-0.93560 0.57063
   7  -2 -11 1038.66  165.20   1-0.35385 0.80991-0.00132-0.13696-0.93529 0.57032
   7  -2 -10  440.85  135.97   1-0.32048 0.78214-0.03666-0.10162-0.94654 0.61474
   7   2 -10  332.58   78.37   1-0.29564 0.75730-0.06237 0.20066-0.95325 0.62146
   7  -2  -9  706.05  151.59   1-0.28357 0.75083-0.07469-0.06359-0.95603 0.65742
   7   2  -9  590.24   94.07   1-0.22682 0.69422-0.13165 0.27001-0.96499 0.66718
   7  -2  -8 6816.50  332.64   1-0.24237 0.71531-0.11640-0.02195-0.96317 0.69845
   7   2  -8 6712.30  211.97   1-0.15106 0.62400-0.20364 0.34200-0.96731 0.70260
   7  -2  -7 9211.85  342.87   1-0.19876 0.67724-0.15876 0.02041-0.96710 0.73547
   7   2  -7 8970.23  229.38   1-0.06845 0.54669-0.27978 0.41816-0.95761 0.72543
   7  -2  -6 1376.25  180.14   1-0.15220 0.63622-0.20259 0.06423-0.96736 0.76882
   7   2  -6 1112.91  104.16   1 0.02138 0.46283-0.35566 0.49395-0.93436 0.73606
   7  -2  -513334.68  386.87   1-0.10408 0.59357-0.24827 0.10989-0.96308 0.79723
   7   2  -512627.64  249.90   1 0.10927 0.38047-0.42542 0.56370-0.89837 0.73312
   7  -2  -4 5675.05  299.24   1-0.05305 0.54817-0.29316 0.15478-0.95458 0.82191
   7   2  -4 5031.10  186.45   1 0.19539 0.29935-0.49084 0.62906-0.84905 0.71739
   7  -2  -360687.83  763.15   1-0.00028 0.50110-0.33774 0.19946-0.94123 0.84208
   7   2  -359458.22  536.19   1 0.27258 0.22695-0.54584 0.68391-0.79230 0.69335
   7  -2  -253912.26  741.86   1 0.05193 0.45441-0.38044 0.24216-0.92334 0.85724
   7   2  -254263.32  536.37   1 0.34106 0.16401-0.58902 0.72709-0.73261 0.66665
   7  -2  -1  179.65  101.80   1 0.10372 0.40814-0.42116 0.28288-0.90103 0.86798
   7   2  -1  168.27   88.17   1 0.40054 0.10982-0.62482 0.76285-0.67018 0.63717
   7  -2   010166.25  349.84   1 0.15375 0.36314-0.46062 0.32240-0.87417 0.87417
   7   2   0 9891.65  255.04   1 0.45051 0.06539-0.65075 0.78877-0.61119 0.61119
   7  -2   1   14.13  100.46   1 0.20253 0.31990-0.49591 0.35769-0.84442 0.87733
   7   2   1   56.94   64.15   1 0.49289 0.02853-0.67172 0.80979-0.55302 0.58602
   7  -2   2 6789.30  436.80   1 0.24914 0.27883-0.52812 0.38990-0.81179 0.87762
   7   2   2 6883.39  239.69   1 0.52811-0.00115-0.68601 0.82408-0.50047 0.56646
   7  -2   3 2275.86  216.99   1 0.29270 0.24006-0.55891 0.42084-0.77584 0.87478
   7   2   3 2535.75  189.91   1 0.55784-0.02535-0.69639 0.83445-0.45149 0.55049
   7  -2   4  662.49  140.59   1 0.33415 0.20415-0.58484 0.44677-0.73911 0.87104
   7   2   4  899.69  128.23   1 0.58308-0.04513-0.70474 0.84291-0.40415 0.53614
   7  -2   5   51.83  107.88   1 0.37235 0.17124-0.60904 0.47101-0.70029 0.86534
   7   2   5  -61.35   82.73   1 0.60458-0.06107-0.70967 0.84784-0.36173 0.52672
   7  -2   6 5489.58  305.58   1 0.40818 0.14095-0.62896 0.49093-0.66166 0.85971
   7   2   6 5181.20  257.90   1 0.62310-0.07403-0.71276 0.85093-0.32204 0.52003
   7  -2   7   83.90  112.85   1 0.44125 0.11342-0.64615 0.50813-0.62271 0.85377
   7   2   7   61.88  102.76   1 0.63918-0.08455-0.71439 0.85256-0.28474 0.51573
   7  -2   8 2130.07  224.41   1 0.47169 0.08851-0.66085 0.52283-0.58375 0.84782
   7   2   8 2574.81  238.07   1 0.65313-0.09165-0.71596 0.85441-0.24659 0.51144
   7  -2   913284.26  458.62   1 0.49889 0.06676-0.67430 0.53623-0.54444 0.84142
   7   2   912707.58  397.86   1 0.66536-0.09828-0.71544 0.85389-0.21312 0.51108
   7  -2  10 6531.11  367.01   1 0.52449 0.04669-0.68464 0.54658-0.50612 0.83610
   7   2  10 6243.33  333.10   1 0.67616-0.10347-0.71411 0.85256-0.18120 0.51227
   7  -2  11 1671.64  248.36   1 0.54793 0.02878-0.69312 0.55506-0.46833 0.83131
   7   2  11 2593.07  236.10   1 0.68573-0.10743-0.71209 0.85054-0.15063 0.51481
   7  -2  12 3326.53  322.91   1 0.56873 0.01369-0.70078 0.56261-0.43062 0.82660
   7   2  12 3052.25  300.99   1 0.69422-0.11032-0.70947 0.84792-0.12122 0.51851
   7  -2  13  -89.22  109.83   1 0.58833-0.00034-0.70606 0.56789-0.39412 0.82309
   7   2  13  216.41  157.79   1 0.70125-0.11252-0.70703 0.84541-0.09137 0.52213
   7  -2  14  295.00  132.05   1 0.60624-0.01269-0.70999 0.57182-0.35830 0.82027
   7   2  14  265.07  169.27   1 0.70794-0.11365-0.70337 0.84175-0.06387 0.52776
   7  -2  15 3818.56  336.30   1 0.62259-0.02348-0.71269 0.57452-0.32317 0.81815
   7   2  15 3070.13  310.41   1 0.71389-0.11404-0.69927 0.83765-0.03714 0.53416
   7  -2  16 1512.53  247.50   1 0.63752-0.03285-0.71427 0.57610-0.28874 0.81671
   7   2  16 1436.19  236.74   1 0.71915-0.11375-0.69476 0.83314-0.01107 0.54123
   7  -2  17  173.22  134.59   1 0.65082-0.03890-0.71596 0.57751-0.25262 0.81545
   7   2  17  180.62  164.65   1 0.72379-0.11283-0.68986 0.82824 0.01440 0.54888
   7  -2  18  188.60  114.93   1 0.66313-0.04561-0.71561 0.57716-0.21942 0.81535
   7   2  18  317.72  180.50   1 0.72785-0.11133-0.68460 0.82298 0.03938 0.55704
   7  -2  19  290.80  241.57   1 0.67432-0.05119-0.71440 0.57596-0.18683 0.81587
   7   2  19   75.48  120.38   1 0.73100-0.10903-0.67933 0.81765 0.06429 0.56528
   7  -3 -24   65.49  123.21   1-0.52832 0.91171 0.20240-0.40982-0.82456 0.02856
   7  -3 -23  765.40  199.88   1-0.52351 0.91249 0.19627-0.40369-0.82910 0.06627
   7  -3 -22 1036.32  250.91   1-0.51759 0.91215 0.18878-0.39620-0.83454 0.10488
   7  -3 -20 1432.63  285.68   1-0.50197 0.90770 0.16928-0.37670-0.84815 0.18482
   7   3 -19  596.60  123.35   1-0.57677 0.98809 0.26646-0.05904-0.77222 0.14206
   7  -3 -19  984.06  222.00   1-0.49201 0.90333 0.15705-0.36447-0.85630 0.22614
   7   3 -18   -7.47   88.85   1-0.56391 0.98082 0.24900-0.04159-0.78739 0.19040
   7  -3 -18  -63.66   97.46   1-0.48041 0.89732 0.14296-0.35037-0.86530 0.26839
   7   3 -17  145.50  150.86   1-0.54775 0.97024 0.22754-0.02013-0.80509 0.24127
   7  -3 -17   39.50  102.88   1-0.46704 0.88954 0.12693-0.33435-0.87507 0.31131
   7   3 -16 4324.47  258.78   1-0.52749 0.95557 0.20133 0.00608-0.82535 0.29469
   7  -3 -16 4704.60  343.83   1-0.45170 0.87978 0.10882-0.31624-0.88550 0.35491
   7   3 -15  797.96  136.28   1-0.50211 0.93577 0.16946 0.03795-0.84803 0.35054
   7  -3 -15 1094.51  193.38   1-0.43420 0.86787 0.08850-0.29592-0.89645 0.39902
   7   3 -14  288.23   91.44   1-0.47027 0.90953 0.13078 0.07663-0.87277 0.40850
   7  -3 -14  462.18  123.03   1-0.41435 0.85361 0.06586-0.27328-0.90772 0.44345
   7   3 -13  917.67  146.77   1-0.43050 0.87535 0.08425 0.12316-0.89864 0.46753
   7  -3 -13 1246.54  239.89   1-0.39197 0.83682 0.04082-0.24824-0.91906 0.48796
   7  -3 -12 1954.51  232.74   1-0.36712 0.81759 0.01299-0.22043-0.93007 0.53192
   7   3 -12 1637.55  144.37   1-0.38080 0.83127 0.02791 0.17951-0.92423 0.52608
   7  -3 -11 7676.54  361.25   1-0.33918 0.79524-0.01697-0.19045-0.94056 0.57559
   7  -3 -10  815.45  181.87   1-0.30828 0.76994-0.04935-0.15808-0.95001 0.61821
   7  -3  -9 5152.06  309.47   1-0.27439 0.74165-0.08399-0.12344-0.95794 0.65932
   7  -3  -818588.57  540.72   1-0.23687 0.70981-0.12182-0.08571-0.96387 0.69915
   7  -3  -7 1125.68  160.78   1-0.19733 0.67581-0.16013-0.04740-0.96716 0.73554
   7  -3  -6  244.77  133.94   1-0.15526 0.63928-0.19975-0.00778-0.96746 0.76892
   7  -3  -5  957.76  163.15   1-0.11201 0.60151-0.24114 0.03357-0.96400 0.79815
   7  -3  -4  191.78  154.11   1-0.06587 0.56099-0.28204 0.07447-0.95713 0.82446
   7  -3  -3 2129.02  262.41   1-0.01851 0.51926-0.32266 0.11508-0.94633 0.84682
   7  -3  -2 7877.31  358.74   1 0.02984 0.47650-0.36258 0.15516-0.93147 0.86537
   7   3  -2 7959.67  193.82   1 0.50791-0.00307-0.67806 0.88516-0.53127 0.46527
   7  -3  -1 9102.10  714.42   1 0.07764 0.43422-0.40087 0.19344-0.91283 0.87978
   7  -3   0 3431.82  224.15   1 0.12494 0.39246-0.43736 0.22994-0.89056 0.89056
   7   3   0 3678.33  163.88   1 0.58268-0.06697-0.70464 0.91190-0.40490 0.40490
   7  -3   1 7831.64  330.21   1 0.17025 0.35218-0.47273 0.26540-0.86459 0.89751
   7   3   1 7307.33  223.61   1 0.60776-0.08649-0.71028 0.91753-0.35512 0.38812
   7  -3   238723.02  665.04   1 0.21490 0.31307-0.50460 0.29727-0.83617 0.90200
   7   3   238260.23  475.27   1 0.62793-0.10110-0.71336 0.92061-0.31114 0.37714
   7  -3   3  494.87  142.95   1 0.25704 0.27572-0.53553 0.32842-0.80444 0.90339
   7   3   3  361.10   83.44   1 0.64490-0.11144-0.71582 0.92349-0.26774 0.36707
   7  -3   4   53.87  127.63   1 0.29790 0.24040-0.56224 0.35513-0.77144 0.90337
   7   3   4   93.63  112.92   1 0.65857-0.11950-0.71585 0.92352-0.23202 0.36445
   7  -3   5 3434.45  290.91   1 0.33653 0.20731-0.58628 0.37917-0.73689 0.90180
   7   3   5 2658.92  181.94   1 0.67020-0.12553-0.71496 0.92263-0.19914 0.36468
   7  -3   6  301.17  126.54   1 0.37229 0.17683-0.60900 0.40197-0.70035 0.89841
   7   3   6  151.33   81.91   1 0.68022-0.12995-0.71336 0.92103-0.16851 0.36716
   7  -3   7   22.06  119.42   1 0.40625 0.14841-0.62792 0.42088-0.66382 0.89488
   7   3   7   59.76   94.53   1 0.68897-0.13309-0.71119 0.91886-0.13969 0.37144
   7  -3   8   58.69  124.46   1 0.43789 0.12231-0.64446 0.43743-0.62682 0.89089
   7  -3   914184.53  475.40   1 0.46728 0.09846-0.65879 0.45175-0.58960 0.88668
   7   3   914251.34  413.96   1 0.70298-0.13647-0.70616 0.91373-0.08448 0.38270
   7  -3  10  987.71  177.79   1 0.49364 0.07754-0.67205 0.46495-0.55195 0.88193
   7   3  10  979.97  151.68   1 0.70899-0.13693-0.70271 0.91028-0.05933 0.39068
   7  -3  11  573.98  201.13   1 0.51878 0.05792-0.68243 0.47533-0.51492 0.87789
   7   3  11  445.10  131.17   1 0.71434-0.13672-0.69891 0.90648-0.03499 0.39948
   7  -3  12 9317.60  478.69   1 0.54199 0.04025-0.69107 0.48397-0.47818 0.87415
   7   3  12 9557.36  418.57   1 0.71910-0.13592-0.69480 0.90237-0.01132 0.40894
   7  -3  13   35.13  129.51   1 0.56338 0.02439-0.69812 0.49103-0.44183 0.87079
   7   3  13   30.64  113.38   1 0.72333-0.13460-0.69039 0.89796 0.01177 0.41897
   7  -3  14 1175.85  254.38   1 0.58235 0.01118-0.70456 0.49730-0.40552 0.86750
   7   3  14 1651.16  243.12   1 0.72708-0.13279-0.68568 0.89325 0.03440 0.42948
   7  -3  15  542.71  213.77   1 0.60046-0.00135-0.70883 0.50157-0.37013 0.86511
   7   3  15  633.56  194.87   1 0.73001-0.13030-0.68103 0.88851 0.05708 0.43995
   7  -3  16  -59.73  124.13   1 0.61709-0.01242-0.71188 0.50463-0.33527 0.86324
   7   3  16   80.46   98.32   1 0.73288-0.12760-0.67575 0.88323 0.07894 0.45123
  -7  -3 -17  507.24  160.21   1-0.74222 0.12984 0.66395-0.87145-0.09090-0.47297
   7  -3  17  569.37  208.38   1 0.63235-0.02212-0.71383 0.50657-0.30093 0.86190
   7   3  17  823.77  224.16   1 0.73534-0.12450-0.67019 0.87767 0.10051 0.46280
  -7  -3 -18  259.54  164.00   1-0.74437 0.12641 0.65818-0.86568-0.11268-0.48435
   7  -3  18  179.17  140.91   1 0.64606-0.02853-0.71586 0.50819-0.26483 0.86076
   7   3  18  400.43  166.62   1 0.73742-0.12101-0.66435 0.87183 0.12183 0.47461
  -7  -3 -19 1973.43  469.37   1-0.74612 0.12259 0.65213-0.85963-0.13423-0.49598
   7  -3  19 3407.57  390.46   1 0.65877-0.03564-0.71584 0.50817-0.23148 0.86051
   7   3  19 3381.71  371.96   1 0.73912-0.11714-0.65822 0.86570 0.14293 0.48664
   7  -4 -23  361.31  193.43   1-0.50202 0.89100 0.16935-0.44591-0.84810 0.08528
   7  -4 -22  -30.07  133.92   1-0.49577 0.89033 0.16165-0.43820-0.85327 0.12361
   7  -4 -21  705.68  206.28   1-0.48832 0.88847 0.15255-0.42910-0.85922 0.16273
   7  -4 -20 -111.07  121.19   1-0.47957 0.88530 0.14193-0.41849-0.86594 0.20270
   7  -4 -19  660.04  213.24   1-0.46941 0.88074 0.12976-0.40631-0.87338 0.24331
   7  -4 -18 5565.20  406.48   1-0.45772 0.87463 0.11589-0.39245-0.88150 0.28459
   7  -4 -17  114.99  136.73   1-0.44435 0.86685 0.10024-0.37680-0.89022 0.32646
   7  -4 -15 3286.58  420.22   1-0.41201 0.84568 0.06321-0.33977-0.90898 0.41155
   7  -4 -14 8814.16  426.66   1-0.39274 0.83199 0.04167-0.31822-0.91870 0.45443
   7  -4 -13  463.05  163.35   1-0.37148 0.81635 0.01772-0.29431-0.92827 0.49693
   7  -4 -12 3077.41  291.96   1-0.34757 0.79804-0.00805-0.26853-0.93761 0.53946
   7  -4 -11  175.45  117.43   1-0.32117 0.77724-0.03593-0.24064-0.94633 0.58136
   7  -4 -10  187.13  113.92   1-0.29223 0.75390-0.06586-0.21071-0.95407 0.62227
   7  -4  -9 6736.18  361.15   1-0.26004 0.72744-0.09886-0.17785-0.96052 0.66271
   7  -4  -8 6414.11  344.00   1-0.22610 0.69904-0.13236-0.14435-0.96506 0.70035
   7  -4  -7  617.79  186.63   1-0.18978 0.66826-0.16733-0.10938-0.96746 0.73583
   7  -4  -6  -75.35  120.90   1-0.15126 0.63529-0.20345-0.07325-0.96732 0.76878
   7  -4  -5 9291.11  387.52   1-0.11191 0.60141-0.24123-0.03552-0.96399 0.79814
   7  -4  -415053.39  500.08   1-0.06974 0.56486-0.27866 0.00189-0.95785 0.82517
   7  -4  -326998.04  670.40   1-0.02637 0.52712-0.31601 0.03925-0.94838 0.84888
   7  -4  -2 7570.44  346.39   1 0.01810 0.48823-0.35297 0.07641-0.93545 0.86935
   7  -4  -1 5641.97  316.61   1 0.06232 0.44954-0.38874 0.11218-0.91923 0.88618
   7  -4   011889.94  406.48   1 0.10639 0.41100-0.42321 0.14665-0.89975 0.89975
   7  -4   1 3193.42  282.54   1 0.14883 0.37360-0.45697 0.18053-0.87693 0.90985
   7  -4   2 7275.98  357.96   1 0.19121 0.33676-0.48786 0.21142-0.85171 0.91754
   7  -4   3 4969.19  300.82   1 0.23231 0.30119-0.51667 0.24023-0.82406 0.92280
   7   4   3 3266.56  154.68   1 0.71549-0.18232-0.69799 0.97475-0.02947 0.12888
   7  -4   413701.69  433.67   1 0.27110 0.26720-0.54486 0.26872-0.79348 0.92541
   7   4   411935.15  286.07   1 0.71815-0.17942-0.69569 0.97245-0.01624 0.14878
   7  -4   5 6998.45  357.64   1 0.30899 0.23485-0.56927 0.29313-0.76187 0.92677
   7   4   5 5694.06  236.14   1 0.72082-0.17654-0.69311 0.96987-0.00220 0.16787
   7  -4   6 6666.15  356.95   1 0.34500 0.20437-0.59139 0.31524-0.72885 0.92674
   7   4   6 6081.70  270.05   1 0.72345-0.17361-0.69026 0.96701 0.01244 0.18636
   7  -4   7 6413.24  390.31   1 0.37842 0.17624-0.61250 0.33645-0.69399 0.92505
   7   4   7 6158.83  280.52   1 0.72598-0.17059-0.68715 0.96391 0.02755 0.20438
   7  -4   8 5419.25  342.54   1 0.41048 0.14972-0.63019 0.35415-0.65905 0.92312
   7   4   8 5315.72  263.13   1 0.72840-0.16745-0.68379 0.96055 0.04304 0.22204
   7  -4   9  644.85  245.50   1 0.44055 0.12519-0.64580 0.36975-0.62357 0.92065
   7   4   9   46.10  100.28   1 0.73034-0.16401-0.68048 0.95712 0.05945 0.23877
   7  -4  10  564.64  182.04   1 0.46867 0.10261-0.65944 0.38339-0.58777 0.91786
   7   4  10  406.98  151.55   1 0.73244-0.16055-0.67662 0.95327 0.07543 0.25592
  -7  -4 -11  604.26  141.25   1-0.74070 0.16177 0.66735-0.94402-0.07738-0.28747
   7  -4  11  703.89  201.20   1 0.49395 0.08275-0.67218 0.39606-0.55151 0.91448
   7   4  11  797.93  159.41   1 0.73437-0.15691-0.67252 0.94916 0.09162 0.27286
  -7  -4 -12   19.60   90.95   1-0.74262 0.15811 0.66298-0.93965-0.09464-0.30338
   7  -4  12  -27.49  143.71   1 0.51833 0.06390-0.68225 0.40612-0.51560 0.91157
   7   4  12  176.75  140.61   1 0.73611-0.15309-0.66817 0.94481 0.10801 0.28961
  -7  -4 -13  479.43  120.06   1-0.74431 0.15423 0.65837-0.93504-0.11198-0.31921
   7  -4  13  654.33  213.04   1 0.54098 0.04679-0.69071 0.41459-0.47983 0.90880
   7   4  13  466.10  143.66   1 0.73766-0.14907-0.66357 0.94022 0.12456 0.30620
  -7  -4 -14  581.24  137.72   1-0.74576 0.15011 0.65352-0.93019-0.12939-0.33497
   7  -4  14  786.49  195.99   1 0.56198 0.03132-0.69769 0.42156-0.44429 0.90625
   7   4  14  773.54  180.02   1 0.73900-0.14484-0.65872 0.93536 0.14125 0.32264
  -7  -4 -15  685.73  162.82   1-0.74698 0.14575 0.64841-0.92508-0.14687-0.35066
   7  -4  15  578.03  213.83   1 0.58066 0.01844-0.70411 0.42777-0.40872 0.90369
   7   4  15  894.29  233.43   1 0.74012-0.14040-0.65362 0.93026 0.15808 0.33895
  -7  -4 -16 1510.38  308.88   1-0.74795 0.14114 0.64306-0.91973-0.16441-0.36628
   7  -4  16 2500.91  344.56   1 0.59863 0.00603-0.70844 0.43210-0.37383 0.90180
   7   4  16 1754.30  233.09   1 0.74102-0.13574-0.64826 0.92490 0.17502 0.35514
  -7  -4 -17  158.41   93.08   1-0.74868 0.13629 0.63745-0.91412-0.18203-0.38184
   7  -4  17  -17.21  132.52   1 0.61522-0.00499-0.71158 0.43524-0.33932 0.90029
   7   4  17   53.31  105.17   1 0.74170-0.13085-0.64263 0.91927 0.19208 0.37122
  -7  -4 -18  647.85  346.59   1-0.74915 0.13119 0.63157-0.90824-0.19971-0.39733
   7  -4  18 1151.68  287.28   1 0.63051-0.01472-0.71364 0.43730-0.30522 0.89919
   7   4  18  975.41  213.15   1 0.74213-0.12572-0.63674 0.91338 0.20925 0.38719
   7  -5 -22   38.54  139.87   1-0.47196 0.86653 0.13280-0.47850-0.87155 0.14199
   7  -5 -21 -109.76  129.62   1-0.46422 0.86437 0.12358-0.46927-0.87705 0.18065
   7  -5 -20  335.39  173.02   1-0.45522 0.86096 0.11295-0.45865-0.88318 0.21994
   7  -5 -19  114.45   66.29   1-0.44487 0.85620 0.10085-0.44655-0.88989 0.25981
   7  -5 -18  695.66  201.13   1-0.43307 0.84998 0.08720-0.43289-0.89713 0.30021
   7  -5 -17 3753.99  364.58   1-0.41969 0.84218 0.07191-0.41760-0.90481 0.34105
   7  -5 -16  267.40  174.65   1-0.40462 0.83270 0.05491-0.40061-0.91283 0.38224
   7  -5 -15  373.64  210.65   1-0.38775 0.82142 0.03615-0.38185-0.92105 0.42362
   7  -5 -14   45.88  123.07   1-0.36925 0.80852 0.01530-0.36103-0.92920 0.46469
   7  -5 -13  753.84  197.60   1-0.34843 0.79331-0.00712-0.33860-0.93730 0.50597
   7  -5 -12 1577.97  252.69   1-0.32550 0.77597-0.03140-0.31432-0.94501 0.54686
   7  -5 -11 8958.66  450.03   1-0.30039 0.75645-0.05749-0.28822-0.95208 0.58710
   7  -5 -10  781.29  201.51   1-0.27305 0.73471-0.08534-0.26038-0.95820 0.62640
   7  -5  -9 2212.45  251.32   1-0.24287 0.71026-0.11591-0.22998-0.96310 0.66530
   7  -5  -8  486.67  180.86   1-0.21121 0.68415-0.14680-0.19909-0.96635 0.70163
   7  -5  -7 2442.15  232.61   1-0.17749 0.65598-0.17896-0.16693-0.96771 0.73608
   7  -5  -6  961.48  165.83   1-0.14186 0.62589-0.21213-0.13376-0.96688 0.76835
   7  -5  -5 2079.59  212.76   1-0.10570 0.59520-0.24681-0.09913-0.96327 0.79743
   7  -5  -411468.64  418.02   1-0.06681 0.56194-0.28121-0.06473-0.95731 0.82464
   7  -5  -343462.53  770.48   1-0.02679 0.52754-0.31566-0.03029-0.94849 0.84898
   7  -5  -2 1232.22  215.92   1 0.01434 0.49199-0.34987 0.00417-0.93668 0.87058
   7  -5  -1  650.82  169.30   1 0.05539 0.45647-0.38322 0.03751-0.92199 0.88894
   7  -5   0  140.88  125.51   1 0.09651 0.42088-0.41559 0.06989-0.90441 0.90441
   7  -5   122943.17  572.51   1 0.13620 0.38623-0.44754 0.10199-0.88382 0.91674
   7  -5   2 1448.46  222.02   1 0.17626 0.35171-0.47710 0.13155-0.86098 0.92681
   7  -5   3  202.93  124.96   1 0.21542 0.31808-0.50497 0.15942-0.83581 0.93456
   7  -5   4  125.22  129.45   1 0.25252 0.28578-0.53250 0.18731-0.80788 0.93980
  -7  -5  -5  525.48   94.11   1-0.74954 0.20361 0.63296-0.97865-0.19371 0.02792
   7  -5   5  743.98  169.59   1 0.28925 0.25458-0.55670 0.21151-0.77872 0.94363
  -7  -5  -6   25.21   27.33   1-0.74896 0.19791 0.63435-0.98019-0.19144-0.00756
   7  -5   6  -15.83  126.54   1 0.32447 0.22490-0.57892 0.23373-0.74804 0.94593
   7   5   6   25.82   64.30   1 0.74197-0.19311-0.63514 0.98105 0.21463-0.01567
  -7  -5  -7 1756.47  330.65   1-0.74894 0.19231 0.63461-0.98045-0.19065-0.04152
   7  -5   7 2746.96  266.37   1 0.35808 0.19684-0.59914 0.25396-0.71609 0.94697
   7   5   7 2287.68  176.59   1 0.74216-0.18695-0.63633 0.98213 0.21042 0.02152
  -7  -5  -8  400.61   84.03   1-0.74899 0.18679 0.63388-0.97972-0.19286-0.07249
   7  -5   8  599.93  145.16   1 0.38928 0.17092-0.61861 0.27355-0.68247 0.94654
   7   5   8  529.27  177.95   1 0.74217-0.18139-0.63612 0.98192 0.21102 0.05405
  -7  -5  -9 1931.11  350.96   1-0.74910 0.18132 0.63236-0.97820-0.19736-0.10115
   7  -5   9 2567.97  397.53   1 0.41947 0.14627-0.63497 0.28991-0.64872 0.94581
   7   5   9 2268.89  216.40   1 0.74221-0.17588-0.63501 0.98081 0.21416 0.08405
  -7  -5 -10  740.46  164.10   1-0.74972 0.17579 0.63017-0.97585-0.20198-0.12959
   7  -5  10 1313.62  224.11   1 0.44794 0.12334-0.64948 0.30442-0.61442 0.94451
   7   5  10  882.10  153.10   1 0.74204-0.17093-0.63307 0.97898 0.22042 0.11117
  -7  -5 -11 1439.12  267.15   1-0.74983 0.17030 0.62746-0.97314-0.20986-0.15486
   7  -5  11 1920.22  271.19   1 0.47370 0.10301-0.66315 0.31799-0.57950 0.94247
   7   5  11 1369.43  165.40   1 0.74208-0.16541-0.63066 0.97657 0.22711 0.13764
  -7  -5 -12 1414.88  329.29   1-0.74989 0.16476 0.62427-0.96996-0.21894-0.17895
   7  -5  12 2554.54  299.00   1 0.49876 0.08348-0.67424 0.32908-0.54463 0.94060
   7   5  12 2257.90  235.02   1 0.74207-0.15985-0.62771 0.97362 0.23514 0.16278
  -7  -5 -13 1247.22  199.01   1-0.74988 0.15915 0.62067-0.96635-0.22900-0.20205
   7  -5  13 2041.07  318.63   1 0.52220 0.06556-0.68376 0.33860-0.50967 0.93864
   7   5  13 1239.31  191.60   1 0.74201-0.15422-0.62430 0.97021 0.24426 0.18681
  -7  -5 -14 2388.97  522.21   1-0.74977 0.15344 0.61667-0.96236-0.23990-0.22431
   7  -5  14 4037.80  369.59   1 0.54408 0.04921-0.69180 0.34664-0.47473 0.93670
   7   5  14 3791.67  319.44   1 0.74185-0.14850-0.62046 0.96637 0.25431 0.20992
  -7  -5 -15  -45.31   87.01   1-0.74954 0.14762 0.61231-0.95799-0.25150-0.24586
   7  -5  15  142.22  199.75   1 0.56446 0.03436-0.69846 0.35330-0.43991 0.93487
   7   5  15   81.95  101.33   1 0.74158-0.14268-0.61622 0.96213 0.26516 0.23223
  -7  -5 -16  142.26   71.11   1-0.74917 0.14165 0.60760-0.95328-0.26373-0.26679
   7  -5  16  151.01  146.74   1 0.58262 0.02204-0.70462 0.35920-0.40502 0.93299
   7   5  16  -22.48   95.67   1 0.74119-0.13672-0.61161 0.95752 0.27669 0.25387
  -7  -5 -17  663.66  160.66   1-0.74865 0.13553 0.60255-0.94823-0.27649-0.28718
   7  -5  17  948.30  290.67   1 0.60022 0.01000-0.70877 0.36335-0.37062 0.93159
   7   5  17  400.28  172.44   1 0.74065-0.13062-0.60664 0.95255 0.28881 0.27490
   7  -6 -21  -71.08  132.83   1-0.43823 0.83838 0.09315-0.50799-0.89402 0.19761
   7  -6 -20  126.06  134.93   1-0.42900 0.83474 0.08253-0.49736-0.89952 0.23628
   7  -6 -19  674.12  228.56   1-0.41847 0.82980 0.07053-0.48536-0.90548 0.27540
   7  -6 -18 -130.82  138.72   1-0.40656 0.82347 0.05708-0.47192-0.91183 0.31492
   7  -6 -17 7219.82  488.45   1-0.39317 0.81567 0.04215-0.45698-0.91849 0.35474
   7  -6 -16  112.98  135.84   1-0.37852 0.80660 0.02541-0.44029-0.92524 0.39437
   7  -6 -15   68.98  133.08   1-0.36190 0.79558 0.00733-0.42221-0.93218 0.43449
   7  -6 -14  264.57  191.77   1-0.34353 0.78280-0.01235-0.40251-0.93905 0.47454
   7  -6 -13  188.30  140.74   1-0.32333 0.76820-0.03368-0.38118-0.94568 0.51435
   7  -6 -12 6655.83  408.35   1-0.30123 0.75170-0.05663-0.35824-0.95186 0.55371
   7  -6 -11 6979.67  453.00   1-0.27720 0.73327-0.08115-0.33372-0.95737 0.59240
   7  -6 -1022668.45  640.81   1-0.25057 0.71243-0.10828-0.30678-0.96202 0.63112
   7  -6  -9 2371.09  306.66   1-0.22271 0.69011-0.13566-0.27940-0.96539 0.66759
   7  -6  -8 5472.49  319.82   1-0.19295 0.66589-0.16431-0.25076-0.96735 0.70263
   7  -6  -7  385.99  186.61   1-0.16140 0.63988-0.19404-0.22103-0.96762 0.73599
   7  -6  -6 3522.26  305.38   1-0.12951 0.61337-0.22529-0.18984-0.96564 0.76663
   7  -6  -511695.33  446.76   1-0.09467 0.58417-0.25666-0.15847-0.96185 0.79600
   7  -6  -4  241.08  135.66   1-0.05854 0.55366-0.28841-0.12672-0.95571 0.82303
   7  -6  -3 1710.23  216.99   1-0.02136 0.52211-0.32025-0.09488-0.94708 0.84758
   7  -6  -210658.05  440.57   1 0.01688 0.48945-0.35197-0.06287-0.93585 0.86975
   7  -6  -1  434.72  121.94   1 0.05515 0.45672-0.38302-0.03181-0.92208 0.88904
   7  -6   0   96.65  133.99   1 0.09360 0.42379-0.41333-0.00150-0.90575 0.90575
   7  -6   1  430.84  251.40   1 0.13073 0.39170-0.44342 0.02876-0.88672 0.91964
   7  -6   2 6090.78  355.77   1 0.16855 0.35942-0.47149 0.05683-0.86561 0.93144
   7  -6   310958.96  437.33   1 0.20573 0.32777-0.49817 0.08351-0.84231 0.94105
   7  -6   4 2301.35  270.43   1 0.24206 0.29698-0.52333 0.10867-0.81702 0.94867
   7  -6   5 3622.76  310.28   1 0.27636 0.26747-0.54832 0.13410-0.78927 0.95418
   7  -6   6  358.10  186.89   1 0.31050 0.23888-0.57022 0.15600-0.76054 0.95843
   7  -6   7 4907.54  364.66   1 0.34330 0.21161-0.59037 0.17615-0.73047 0.96134
   7  -6   8 6441.31  401.16   1 0.37390 0.18630-0.60992 0.19585-0.69869 0.96277
   7  -6   9 6908.39  891.06   1 0.40381 0.16193-0.62660 0.21252-0.66656 0.96364
   7  -6  10 3224.26  328.59   1 0.43220 0.13908-0.64157 0.22750-0.63370 0.96379
   7  -6  11  437.44  171.26   1 0.45907 0.11775-0.65490 0.24082-0.60029 0.96339
  -7  -6 -12  244.54   65.16   1-0.74292 0.15780 0.57142-0.98624-0.34862-0.04927
   7  -6  12  397.09  159.98   1 0.48337 0.09887-0.66753 0.25334-0.56633 0.96230
  -7  -6 -13  766.26  168.43   1-0.74265 0.15193 0.57032-0.98514-0.35099-0.08006
   7  -6  13 2065.27  292.38   1 0.50722 0.08055-0.67777 0.26358-0.53229 0.96126
   7  -6  14 1580.47  277.09   1 0.52961 0.06369-0.68658 0.27239-0.49811 0.96007
   7  -6  15  164.81  135.53   1 0.55059 0.04824-0.69402 0.27983-0.46387 0.95883
   7  -6  16  245.01  194.59   1 0.56937 0.03528-0.70097 0.28646-0.42946 0.95744
   7  -7 -20  389.27  198.60   1-0.40096 0.80670 0.05082-0.53479-0.91468 0.25144
   7  -7 -19  240.65  139.59   1-0.39028 0.80160 0.03894-0.52292-0.91987 0.28979
   7  -7 -18  357.27  205.47   1-0.37860 0.79549 0.02550-0.50952-0.92520 0.32797
   7  -7 -17  525.39  195.85   1-0.36522 0.78770 0.01092-0.49494-0.93085 0.36680
   7  -7 -16  103.55  137.09   1-0.35036 0.77845-0.00506-0.47895-0.93659 0.40572
   7  -7 -15  636.91  231.43   1-0.33397 0.76765-0.02248-0.46153-0.94231 0.44462
   7  -7 -14  549.90  224.35   1-0.31598 0.75526-0.04135-0.44266-0.94786 0.48334
   7  -7 -13  602.73  226.40   1-0.29633 0.74120-0.06166-0.42235-0.95309 0.52175
   7  -7 -12 1139.03  257.57   1-0.27498 0.72544-0.08340-0.40061-0.95782 0.55967
   7  -7 -11  144.12  148.59   1-0.25123 0.70755-0.10763-0.37662-0.96192 0.59793
   7  -7 -10  723.74  267.26   1-0.22646 0.68832-0.13200-0.35225-0.96503 0.63413
   7  -7  -9 7340.28  488.02   1-0.19999 0.66739-0.15759-0.32666-0.96704 0.66923
   7  -7  -8 6884.17  425.46   1-0.17186 0.64480-0.18426-0.29999-0.96773 0.70301
   7  -7  -7  464.08  188.11   1-0.14214 0.62062-0.21187-0.27238-0.96690 0.73527
   7  -7  -6 4672.87  342.89   1-0.11233 0.59620-0.24085-0.24347-0.96403 0.76502
   7  -7  -5 1354.65  252.46   1-0.07971 0.56921-0.26990-0.21442-0.95958 0.79373
   7  -7  -4 1008.69  207.14   1-0.04593 0.54106-0.29930-0.18502-0.95305 0.82037
   7  -7  -3   86.20   99.30   1-0.01119 0.51194-0.32881-0.15551-0.94432 0.84482
   7  -7  -2  186.11  138.96   1 0.02452 0.48181-0.35824-0.12573-0.93330 0.86720
   7  -7  -1 6995.04  466.98   1 0.06033 0.45153-0.38716-0.09681-0.92003 0.88698
   7  -7   0 6328.93  879.61   1 0.09639 0.42100-0.41550-0.06847-0.90446 0.90446
   7  -7   1 3771.07  331.05   1 0.13117 0.39126-0.44375-0.04001-0.88649 0.91940
   7  -7   2 1056.00  221.01   1 0.16687 0.36110-0.47027-0.01350-0.86660 0.93242
   7  -7   3   62.30  138.10   1 0.20213 0.33137-0.49563 0.01186-0.84468 0.94342
   7  -7   4 2907.57  328.03   1 0.23675 0.30229-0.51971 0.03594-0.82087 0.95253
   7  -7   5 5943.36  410.28   1 0.26944 0.27440-0.54377 0.06051-0.79480 0.95970
   7  -7   6   49.43  136.94   1 0.30233 0.24705-0.56506 0.08181-0.76765 0.96554
   7  -7   7  914.53  169.71   1 0.33412 0.22079-0.58482 0.10157-0.73914 0.97001
   7  -7   8  728.19  248.15   1 0.36472 0.19574-0.60302 0.11977-0.70946 0.97331
   7  -7   9 7749.89  447.60   1 0.39320 0.17255-0.62078 0.13770-0.67824 0.97532
   7  -7  10  175.10  136.24   1 0.42121 0.15007-0.63588 0.15279-0.64670 0.97679
   7  -7  11  274.70  166.40   1 0.44788 0.12894-0.64945 0.16636-0.61449 0.97759
   7  -7  12 6021.69  436.09   1 0.47319 0.10917-0.66154 0.17845-0.58176 0.97787
   7  -7  13   60.52  146.28   1 0.49603 0.09173-0.67308 0.18985-0.54854 0.97751
   7  -7  14   56.64  129.14   1 0.51863 0.07466-0.68237 0.19914-0.51515 0.97712
   7  -7  15  -14.64  131.90   1 0.53991 0.05891-0.69034 0.20711-0.48157 0.97654
   7  -8 -18  297.92  198.07   1-0.34862 0.76551-0.00692-0.54624-0.93723 0.34000
   7  -8 -17 -101.62  130.62   1-0.33526 0.75774-0.02113-0.53203-0.94188 0.37783
   7  -8 -16  204.89  139.39   1-0.32052 0.74860-0.03662-0.51654-0.94653 0.41566
   7  -8 -15  225.80  205.27   1-0.30436 0.73804-0.05341-0.49975-0.95105 0.45336
   7  -8 -14  396.64  209.38   1-0.28672 0.72600-0.07149-0.48167-0.95534 0.49082
   7  -8 -12  -13.97  137.12   1-0.24621 0.69699-0.11261-0.44082-0.96265 0.56557
   7  -8 -11 4171.98  365.62   1-0.22402 0.68033-0.13439-0.41904-0.96527 0.60128
   7  -8 -10 2198.52  276.65   1-0.20028 0.66213-0.15731-0.39612-0.96702 0.63612
   7  -8  -9 1897.15  274.60   1-0.17502 0.64242-0.18128-0.37214-0.96772 0.66992
   7  -8  -8 6174.97  394.19   1-0.14829 0.62123-0.20620-0.34723-0.96720 0.70248
   7  -8  -7   55.98  128.21   1-0.12167 0.59991-0.23241-0.32110-0.96497 0.73279
   7  -8  -6 1553.26  294.94   1-0.09216 0.57603-0.25890-0.29462-0.96149 0.76248
   7  -8  -5  966.14  250.62   1-0.06146 0.55095-0.28587-0.26764-0.95629 0.79044
   7  -8  -4 3788.56  355.52   1-0.02972 0.52484-0.31317-0.24035-0.94923 0.81655
   7  -8  -3 2713.41  352.85   1 0.00325 0.49755-0.34069-0.21242-0.94016 0.84101
   7  -8  -2  -98.06  124.73   1 0.03639 0.46994-0.36791-0.18520-0.92914 0.86304
   7  -8  -1  -45.39  134.41   1 0.07002 0.44184-0.39485-0.15826-0.91606 0.88301
   7  -8   0 1116.06  199.36   1 0.10393 0.41346-0.42132-0.13179-0.90093 0.90093
   7  -8   1  184.38  186.66   1 0.13656 0.38587-0.44781-0.10506-0.88363 0.91654
   7  -8   2 1355.67  266.66   1 0.17029 0.35767-0.47276-0.08011-0.86457 0.93040
   7  -8   3   29.15  125.60   1 0.20372 0.32979-0.49675-0.05612-0.84364 0.94238
   7  -8   4 1345.36  220.33   1 0.23666 0.30239-0.51964-0.03323-0.82094 0.95260
   7  -8   5 1012.88  254.75   1 0.26771 0.27612-0.54263-0.00965-0.79616 0.96107
   7  -8   613869.43  548.90   1 0.29928 0.25010-0.56312 0.01083-0.77026 0.96815
   7  -8   7  325.46  147.42   1 0.32994 0.22498-0.58227 0.02998-0.74303 0.97390
   7  -8   8 8647.34  474.14   1 0.35959 0.20087-0.60003 0.04774-0.71460 0.97845
   7  -8   9  363.77  192.91   1 0.38723 0.17852-0.61746 0.06536-0.68467 0.98176
   7  -8  10 2687.28  488.33   1 0.41465 0.15663-0.63242 0.08032-0.65429 0.98438
   7  -8  11  876.02  235.97   1 0.44089 0.13593-0.64597 0.09387-0.62315 0.98625
   7  -8  12  182.81  147.89   1 0.46591 0.11645-0.65815 0.10605-0.59140 0.98751
   7  -8  13  880.45  241.40   1 0.48856 0.09921-0.66983 0.11758-0.55912 0.98809
   7  -9 -15  229.07  203.92   1-0.27311 0.70678-0.08529-0.53701-0.95819 0.46050
   7  -9 -14   58.41  153.12   1-0.25510 0.69479-0.10378-0.51882-0.96132 0.49807
   7  -9 -13  576.53  189.10   1-0.23646 0.68169-0.12222-0.50039-0.96392 0.53375
   7  -9 -12  166.79  152.86   1-0.21643 0.66720-0.14176-0.48085-0.96595 0.56887
   7  -9 -11  255.62  159.81   1-0.19500 0.65131-0.16236-0.46025-0.96727 0.60328
   7  -9 -10  -38.85  144.16   1-0.17218 0.63404-0.18395-0.43866-0.96773 0.63683
   7  -9  -9 2108.11  309.02   1-0.14801 0.61541-0.20646-0.41615-0.96719 0.66938
   7  -9  -8 2178.60  297.04   1-0.12415 0.59676-0.23017-0.39254-0.96519 0.69984
   7  -9  -7 6019.82  379.28   1-0.09735 0.57559-0.25428-0.36843-0.96221 0.73003
   7  -9  -6 5105.14  402.44   1-0.06939 0.55325-0.27896-0.34374-0.95778 0.75877
   7  -9  -5 4026.10  385.28   1-0.04037 0.52986-0.30408-0.31863-0.95178 0.78594
   7  -9  -4  785.14  206.16   1-0.01042 0.50554-0.32946-0.29324-0.94410 0.81143
   7  -9  -3 1159.76  226.70   1 0.02062 0.48018-0.35504-0.26721-0.93462 0.83547
   7  -9  -2   -2.29  114.76   1 0.05184 0.45449-0.38037-0.24188-0.92337 0.85727
   7  -9  -1 2023.36  307.58   1 0.08352 0.42834-0.40548-0.21678-0.91027 0.87722
   7  -9   0 1313.80  238.51   1 0.11550 0.40189-0.43019-0.19206-0.89531 0.89531
   7  -9   1  266.23  195.16   1 0.14616 0.37627-0.45498-0.16700-0.87841 0.91133
   7  -9   2  167.15  138.07   1 0.17807 0.34990-0.47841-0.14357-0.85988 0.92571
   7  -9   3  309.26  184.88   1 0.20976 0.32374-0.50101-0.12097-0.83963 0.93837
   7  -9   5  160.92  184.95   1 0.27053 0.27331-0.54449-0.07683-0.79394 0.95885
   7  -9   6  234.08  139.56   1 0.30075 0.24863-0.56406-0.05726-0.76901 0.96690
   7  -9   7 1385.09  279.49   1 0.33021 0.22470-0.58244-0.03888-0.74277 0.97364
   7  -9   8  253.48  160.29   1 0.35882 0.20164-0.59958-0.02174-0.71536 0.97921
   7  -9   9  124.90  103.06   1 0.38550 0.18025-0.61649-0.00461-0.68652 0.98360
   7  -9  10  -23.21  142.50   1 0.41218 0.15910-0.63110 0.00999-0.65711 0.98721
   7 -10 -12  -36.29  143.33   1-0.18499 0.63576-0.17188-0.51991-0.96759 0.57051
   7 -10 -10  325.43  230.50   1-0.14230 0.60416-0.21172-0.48007-0.96691 0.63601
   7 -10  -9 1480.44  289.98   1-0.12082 0.58780-0.23318-0.45871-0.96489 0.66637
   7 -10  -8  177.15  158.07   1-0.09640 0.56901-0.25512-0.43677-0.96208 0.69673
   7 -10  -7  174.83  152.44   1-0.07086 0.54910-0.27767-0.41422-0.95805 0.72587
   7 -10  -6  581.84  200.65   1-0.04429 0.52815-0.30072-0.39118-0.95268 0.75367
   7 -10  -5  295.75  203.32   1-0.01677 0.50626-0.32412-0.36777-0.94586 0.78002
   7 -10  -4 1943.04  276.39   1 0.01197 0.48331-0.34791-0.34348-0.93744 0.80524
   7 -10  -3   20.12  130.01   1 0.04089 0.45991-0.37156-0.31984-0.92750 0.82835
   7 -10  -2  700.00  189.61   1 0.07039 0.43594-0.39515-0.29625-0.91591 0.84981
   7 -10  -1  169.59  139.94   1 0.10033 0.41154-0.41854-0.27285-0.90263 0.86958
   7 -10   0  -63.23  133.55   1 0.12917 0.38773-0.44224-0.24885-0.88754 0.88754
   7 -10   1  733.00  261.41   1 0.15939 0.36304-0.46478-0.22631-0.87095 0.90387
   7 -10   2  732.64  219.78   1 0.18961 0.33835-0.48672-0.20437-0.85272 0.91855
   7 -10   3   14.72  139.12   1 0.21968 0.31382-0.50794-0.18315-0.83290 0.93164
   7 -10   4  334.96  202.50   1 0.24946 0.28958-0.52834-0.16275-0.81155 0.94321
   7 -10   5  -65.75  138.05   1 0.27733 0.26650-0.54896-0.14140-0.78849 0.95340
   7 -10   6 1519.44  303.80   1 0.30622 0.24316-0.56753-0.12283-0.76428 0.96217
   7 -10   7 1915.03  344.31   1 0.33447 0.22045-0.58503-0.10532-0.73882 0.96969
   7 -11  -5  466.78  150.48   1 0.00954 0.48020-0.34591-0.41463-0.93821 0.77296
   7 -11  -4  135.88   78.35   1 0.03633 0.45895-0.36786-0.39268-0.92917 0.79697
   7 -11  -3 -215.42  148.66   1 0.06375 0.43706-0.38988-0.37066-0.91865 0.81950
   7 -11  -2   10.15  142.80   1 0.09169 0.41464-0.41185-0.34869-0.90662 0.84052
   7 -11  -1 2641.50  330.89   1 0.12003 0.39183-0.43364-0.32689-0.89305 0.86000
   7 -11   0  196.34  149.07   1 0.14719 0.36970-0.45575-0.30445-0.87785 0.87785
   8   0 -24   53.46  107.40   1-0.52282 0.98014 0.19540-0.19540-0.82973 0.03374
   8   0 -23  -99.87   99.19   1-0.51666 0.97955 0.18761-0.18761-0.83538 0.07255
   8   0 -22 1729.62  239.52   1-0.50908 0.97756 0.17811-0.17811-0.84208 0.11242
   8   0 -21   12.76  110.29   1-0.49992 0.97399 0.16676-0.16676-0.84986 0.15336
   8   0 -2012054.48 1169.73   1-0.48900 0.96866 0.15337-0.15337-0.85869 0.19536
   8   0 -19  -55.68  107.53   1-0.47608 0.96133 0.13774-0.13774-0.86854 0.23846
   8   0 -18 4065.44  315.78   1-0.46096 0.95179 0.11972-0.11972-0.87930 0.28238
   8   0 -17  -49.73   97.98   1-0.44336 0.93978 0.09909-0.09909-0.89084 0.32709
   8   0 -16 1516.00  215.47   1-0.42298 0.92499 0.07565-0.07565-0.90297 0.37238
   8   0 -15  -83.88   99.33   1-0.39953 0.90712 0.04922-0.04922-0.91539 0.41796
   8   0 -14 6736.81  322.29   1-0.37283 0.88605 0.01919-0.01919-0.92770 0.46318
   8   0 -13  -57.70   92.65   1-0.34234 0.86116-0.01361 0.01361-0.93947 0.50814
   8   0 -12 1828.00  217.30   1-0.30798 0.83240-0.04966 0.04966-0.95009 0.55193
   8   0 -11  257.01  171.65   1-0.26961 0.79963-0.08881 0.08881-0.95886 0.59388
   8   0 -10 4303.80  250.68   1-0.22599 0.76175-0.13246 0.13246-0.96507 0.63418
   8   0  -9   32.93   81.98   1-0.17982 0.72112-0.17676 0.17676-0.96768 0.66987
   8   0  -810123.43  344.05   1-0.13118 0.67774-0.22377 0.22377-0.96577 0.70042
   8   0  -7   11.86   78.21   1-0.07848 0.63067-0.27099 0.27099-0.95937 0.72719
   8   0  -6 3024.89  202.99   1-0.02370 0.58151-0.31827 0.31827-0.94770 0.74868
   8   0  -5   -8.97   73.28   1 0.03334 0.53032-0.36543 0.36543-0.93024 0.76499
   8   0  -411066.80  335.51   1 0.08911 0.48008-0.40984 0.40984-0.90779 0.77559
   8   0  -3  -52.12   76.68   1 0.14430 0.42982-0.45360 0.45360-0.87944 0.78069
   8   0  -2  503.37  102.38   1 0.19729 0.38237-0.49219 0.49219-0.84783 0.78200
   8   0  -1 3308.65  258.53   1 0.24728 0.33706-0.52896 0.52896-0.81181 0.77883
   8   0   0262618.3 1700.41   1 0.29494 0.29494-0.56035 0.56035-0.77395 0.77395
   8   0   1  493.16  219.99   1 0.33930 0.25612-0.58796 0.58796-0.73428 0.76726
   8   0   219367.83  532.27   1 0.38005 0.22063-0.61342 0.61342-0.69228 0.75830
   8   0   3  441.78  186.18   1 0.41753 0.18868-0.63394 0.63394-0.65097 0.75000
   8   0   430634.50  597.30   1 0.45171 0.16004-0.65133 0.65133-0.60967 0.74171
   8   0   5   36.42  106.11   1 0.48240 0.13483-0.66710 0.66710-0.56767 0.73265
   8   0   6 1977.99  206.12   1 0.51052 0.11224-0.67912 0.67912-0.52740 0.72538
   8   0   7   96.80   86.77   1 0.53599 0.09230-0.68893 0.68893-0.48794 0.71892
   8   0   8 8483.38  351.44   1 0.55905 0.07477-0.69677 0.69677-0.44939 0.71337
   8   0   9   14.20   85.77   1 0.57951 0.05990-0.70380 0.70380-0.41087 0.70785
   8   0  10  -28.23   87.20   1 0.59840 0.04658-0.70839 0.70839-0.37429 0.70428
   8   0  11   73.10   98.96   1 0.61551 0.03502-0.71163 0.71163-0.33869 0.70167
   8   0  12 6832.84  388.43   1 0.63103 0.02507-0.71370 0.71370-0.30402 0.70000
   8   0  13  161.04  173.40   1 0.64495 0.01836-0.71582 0.71582-0.26764 0.69803
   8   0  1410263.41  460.21   1 0.65761 0.01130-0.71588 0.71588-0.23462 0.69812
   8   0  15   95.32  118.23   1 0.66908 0.00543-0.71508 0.71508-0.20240 0.69901
   8   0  16  -52.72  115.22   1 0.67946 0.00065-0.71351 0.71351-0.17092 0.70063
   8   0  17   48.76  117.06   1 0.68884-0.00311-0.71123 0.71123-0.14012 0.70294
   8   0  18  275.91  182.34   1 0.69673-0.00643-0.70904 0.70904-0.10870 0.70513
   8  -1 -24   -6.28  101.63   1-0.51022 0.96753 0.17954-0.24868-0.84109 0.04509
   8  -1 -23  689.37  200.51   1-0.50402 0.96692 0.17183-0.24097-0.84642 0.08359
   8  -1 -22  175.76  110.32   1-0.49649 0.96498 0.16254-0.23168-0.85268 0.12302
   8   1 -22   49.43   66.44   1-0.51871 0.98719 0.19019-0.12105-0.83352 0.10386
   8  -1 -21  -54.82   97.82   1-0.48747 0.96155 0.15151-0.22065-0.85988 0.16348
   8   1 -21  108.43  127.83   1-0.50925 0.98332 0.17832-0.10918-0.84193 0.14544
   8  -1 -20   33.70  110.18   1-0.47684 0.95650 0.13865-0.20779-0.86798 0.20474
   8   1 -20   90.19  124.69   1-0.49785 0.97750 0.16420-0.09506-0.85157 0.18824
   8   1 -19   -2.34   80.65   1-0.48422 0.96946 0.14756-0.07842-0.86241 0.23233
   8  -1 -19  -11.53  101.59   1-0.46440 0.94965 0.12379-0.19293-0.87692 0.24684
   8  -1 -18  865.50  214.43   1-0.44996 0.94080 0.10679-0.17593-0.88663 0.28971
   8   1 -18 1079.25  187.94   1-0.46810 0.95893 0.12819-0.05905-0.87432 0.27741
   8  -1 -17 2960.78  311.91   1-0.43332 0.92974 0.08749-0.15663-0.89698 0.33322
   8   1 -17 2452.69  463.29   1-0.44912 0.94554 0.10580-0.03666-0.88718 0.32342
   8   1 -16 3558.72  448.67   1-0.42690 0.92890 0.08012-0.01098-0.90074 0.37014
   8  -1 -16 3694.37  377.96   1-0.41425 0.91625 0.06574-0.13488-0.90778 0.37719
   8  -1 -15  792.62  152.45   1-0.39252 0.90011 0.04143-0.11057-0.91880 0.42137
   8   1 -15  481.05  135.32   1-0.40102 0.90862 0.05089 0.01824-0.91465 0.41722
   8   1 -14  130.61  134.65   1-0.37115 0.88437 0.01737 0.05177-0.92840 0.46389
   8  -1 -14  -23.22  105.30   1-0.36808 0.88130 0.01402-0.08317-0.92968 0.46517
   8   1 -13  437.09  167.85   1-0.33672 0.85554-0.01957 0.08872-0.94139 0.51006
   8  -1 -13  287.57  115.55   1-0.34039 0.85921-0.01569-0.05345-0.94015 0.50881
   8  -1 -1222423.86  540.24   1-0.30947 0.83388-0.04812-0.02101-0.94969 0.55153
   8   1 -1221187.75  465.85   1-0.29751 0.82192-0.06045 0.12960-0.95280 0.55464
   8   1 -11 6117.18  308.85   1-0.25176 0.78197-0.10710 0.17628-0.96184 0.59785
   8  -1 -11 5970.77  339.07   1-0.27521 0.80522-0.08317 0.01402-0.95777 0.59280
   8   1 -10 6930.21  278.79   1-0.20263 0.73838-0.15506 0.22424-0.96689 0.63600
   8  -1 -10 6677.15  329.95   1-0.23657 0.77233-0.12211 0.05293-0.96390 0.63301
   8  -1  -9 3607.85  248.65   1-0.19580 0.73710-0.16159 0.09241-0.96723 0.66942
   8   1  -9 3525.91  218.23   1-0.14886 0.69016-0.20567 0.27485-0.96723 0.66942
   8  -1  -8  101.42   96.76   1-0.15206 0.69890-0.20272 0.13354-0.96735 0.70264
   8   1  -8   71.78   77.01   1-0.09190 0.63846-0.25913 0.32832-0.96145 0.69611
   8  -1  -7  -21.43   94.16   1-0.10666 0.65884-0.24595 0.17676-0.96339 0.73121
   8   1  -7   -7.11   65.45   1-0.03089 0.58307-0.31217 0.38136-0.94952 0.71734
   8  -1  -617124.21  473.74   1-0.05806 0.61587-0.28883 0.21964-0.95561 0.75660
   8   1  -616117.37  646.29   1 0.03334 0.52479-0.36543 0.43457-0.93023 0.73193
   8  -1  -5  -75.70   95.61   1-0.00696 0.57062-0.33216 0.26302-0.94319 0.77794
   8   1  -5   -8.41   72.61   1 0.09601 0.46765-0.41520 0.48434-0.90464 0.73939
   8  -1  -4 2062.68  201.89   1 0.04356 0.52563-0.37371 0.30457-0.92651 0.79432
   8   1  -4 1767.45  146.92   1 0.15832 0.41026-0.46399 0.53310-0.87157 0.73991
   8  -1  -3 2399.92  271.41   1 0.09408 0.48064-0.41371 0.34457-0.90553 0.80638
   8   1  -3 2432.40  150.34   1 0.21708 0.35704-0.50613 0.57524-0.83468 0.73594
   8  -1  -2  814.61  157.60   1 0.14375 0.43591-0.45319 0.38408-0.87974 0.81391
   8   1  -2  676.46  107.43   1 0.27199 0.30682-0.54545 0.61449-0.79277 0.72681
   8  -1  -114620.73  476.93   1 0.19205 0.39315-0.48846 0.41935-0.85118 0.81827
   8   1  -112513.73  378.77   1 0.32320 0.26115-0.57813 0.64716-0.74920 0.71622
   8  -1   056214.66 1020.41   1 0.23847 0.35226-0.52088 0.45177-0.81963 0.81963
   8   1   056447.69  964.22   1 0.36997 0.21964-0.60767 0.67668-0.70275 0.70275
   8  -1   122296.12  630.42   1 0.28208 0.31334-0.55205 0.48302-0.78464 0.81762
   8   1   126373.12  903.77   1 0.41212 0.18303-0.63107 0.70008-0.65719 0.69020
   8  -1   2 7516.86  355.38   1 0.32378 0.27717-0.57849 0.50945-0.74866 0.81463
   8   1   2 8586.82  348.24   1 0.44992 0.15076-0.65045 0.71947-0.61194 0.67796
   8  -1   3 3979.45  298.71   1 0.36279 0.24371-0.60190 0.53287-0.71139 0.81034
   8   1   3 4003.22  276.70   1 0.48357 0.12260-0.66762 0.73665-0.56606 0.66505
   8  -1   4  301.69  147.74   1 0.39872 0.21303-0.62383 0.55481-0.67219 0.80423
   8   1   4  179.30  145.16   1 0.51358 0.09813-0.68036 0.74939-0.52282 0.65481
   8  -1   5   38.13  111.76   1 0.43225 0.18504-0.64160 0.57258-0.63364 0.79868
   8   1   5  114.03  103.69   1 0.54030 0.07693-0.69047 0.75951-0.48094 0.64592
   8  -1   615096.01  883.07   1 0.46315 0.15968-0.65684 0.58783-0.59500 0.79306
   8   1   614984.65  423.08   1 0.56390 0.05883-0.69934 0.76842-0.43923 0.63722
   8  -1   7   69.36  119.25   1 0.49098 0.13731-0.67089 0.60186-0.55572 0.78670
   8   1   7  348.34  183.70   1 0.58511 0.04318-0.70526 0.77435-0.40029 0.63127
   8  -1   8  840.93  184.59   1 0.51699 0.11683-0.68172 0.61269-0.51765 0.78163
   8   1   8  901.19  154.79   1 0.60408 0.02977-0.70957 0.77865-0.36275 0.62674
   8  -1   9  120.43  148.78   1 0.54081 0.09854-0.69065 0.62162-0.48011 0.77709
   8   1   9   30.47   87.01   1 0.62106 0.01835-0.71247 0.78156-0.32656 0.62355
   8  -1  10  199.29  107.92   1 0.56261 0.08227-0.69789 0.62886-0.44317 0.77315
   8   1  10  139.95  109.54   1 0.63630 0.00867-0.71418 0.78327-0.29163 0.62162
   8  -1  11 6466.40  390.88   1 0.58202 0.06852-0.70447 0.63538-0.40616 0.76914
   8   1  11 6020.85  365.21   1 0.64987 0.00222-0.71595 0.78517-0.25508 0.61926
   8  -1  12  254.35  156.01   1 0.60022 0.05587-0.70878 0.63969-0.37061 0.76659
   8   1  12   91.06  115.34   1 0.66210-0.00439-0.71567 0.78490-0.22231 0.61960
   8  -1  13  670.91  204.98   1 0.61686 0.04479-0.71185 0.64276-0.33577 0.76475
   8   1  13  489.51  172.58   1 0.67310-0.00978-0.71458 0.78381-0.19052 0.62092
   8  -1  14  215.79  108.39   1 0.63205 0.03516-0.71380 0.64472-0.30163 0.76360
   8   1  14  219.68  158.17   1 0.68299-0.01407-0.71276 0.78198-0.15963 0.62313
   8  -1  15   74.69  123.72   1 0.64574 0.02878-0.71585 0.64663-0.26565 0.76225
   8   1  15  -57.04  108.23   1 0.69189-0.01737-0.71028 0.77950-0.12954 0.62615
   8  -1  16  212.23  137.61   1 0.65830 0.02182-0.71586 0.64663-0.23277 0.76248
   8   1  16   46.65  109.81   1 0.69932-0.02013-0.70793 0.77712-0.09886 0.62902
   8  -1  17 2405.92  345.09   1 0.66973 0.01599-0.71501 0.64579-0.20052 0.76334
   8   1  17 2372.45  321.45   1 0.70646-0.02171-0.70426 0.77345-0.07018 0.63348
   8  -1  18 6524.74  490.16   1 0.68011 0.01121-0.71338 0.64416-0.16887 0.76480
   8   1  18 5092.98  431.42   1 0.71282-0.02252-0.70007 0.76926-0.04210 0.63853
   8  -2 -23  301.02  150.20   1-0.48885 0.95175 0.15319-0.29147-0.85880 0.09598
   8  -2 -22  951.95  228.36   1-0.48128 0.94977 0.14400-0.28228-0.86465 0.13509
   8  -2 -21  614.85  214.66   1-0.47233 0.94640 0.13324-0.27152-0.87129 0.17488
   8  -2 -20  641.86  208.02   1-0.46186 0.94152 0.12078-0.25906-0.87868 0.21544
   8  -2 -19 1400.87  257.73   1-0.44972 0.93497 0.10650-0.24478-0.88679 0.25671
   8  -2 -18 2604.00  296.34   1-0.43576 0.92659 0.09030-0.22858-0.89551 0.29860
   8   2 -17  724.97  144.34   1-0.44932 0.94574 0.10604 0.03223-0.88705 0.32329
   8  -2 -17  873.86  190.90   1-0.41981 0.91623 0.07204-0.21032-0.90474 0.34099
   8   2 -16  -43.17   85.09   1-0.42438 0.92638 0.07724 0.06103-0.90218 0.37158
   8  -2 -16  193.74  147.83   1-0.40170 0.90370 0.05164-0.18992-0.91431 0.38372
   8  -2 -15  -14.32   96.44   1-0.38144 0.88906 0.02862-0.16691-0.92394 0.42625
   8   2 -15   95.90   86.43   1-0.39492 0.90252 0.04409 0.09418-0.91765 0.42022
   8   2 -14   50.25   79.43   1-0.36034 0.87356 0.00565 0.13263-0.93280 0.46829
   8  -2 -14  -67.48   97.90   1-0.35848 0.87170 0.00365-0.14194-0.93352 0.46901
   8   2 -13  505.39  113.52   1-0.32000 0.83882-0.03716 0.17545-0.94668 0.51535
   8  -2 -13  605.91  138.91   1-0.33287 0.85169-0.02364-0.11464-0.94267 0.51134
   8   2 -12  228.41  126.50   1-0.27345 0.79786-0.08494 0.22323-0.95812 0.55997
   8  -2 -12  168.34  134.82   1-0.30450 0.82891-0.05326-0.08502-0.95102 0.55286
   8  -2 -11 4083.52  295.83   1-0.27329 0.80330-0.08510-0.05318-0.95815 0.59318
   8   2 -11 3657.99  214.45   1-0.21841 0.74862-0.13984 0.27820-0.96578 0.60179
   8  -2 -10  210.58  113.82   1-0.23835 0.77411-0.12036-0.01799-0.96368 0.63279
   8   2 -10  184.43  130.27   1-0.15897 0.69472-0.19630 0.33466-0.96756 0.63667
   8  -2  -9 5268.18  285.04   1-0.20162 0.74291-0.15603 0.01767-0.96695 0.66914
   8   2  -9 5068.26  222.77   1-0.09458 0.63551-0.25675 0.39513-0.96183 0.66332
   8  -2  -8 6717.05  316.98   1-0.16231 0.70914-0.19319 0.05483-0.96764 0.70292
   8   2  -8 6419.47  224.65   1-0.02461 0.57117-0.31750 0.45588-0.94793 0.68258
   8  -2  -7 1647.49  184.78   1-0.12173 0.67392-0.23236 0.09398-0.96498 0.73279
   8   2  -7 1546.30  204.86   1 0.04996 0.50264-0.37886 0.51714-0.92410 0.69275
   8  -2  -6   -2.51   98.81   1-0.07800 0.63582-0.27141 0.13303-0.95929 0.76028
   8   2  -6  228.05  101.52   1 0.12433 0.43318-0.43858 0.57680-0.89004 0.69256
   8  -2  -5 1334.05  197.46   1-0.03277 0.59621-0.31057 0.17219-0.94998 0.78414
   8   2  -5 1180.31  112.89   1 0.19458 0.36847-0.49027 0.62849-0.84957 0.68500
   8  -2  -4   34.72   95.72   1 0.01421 0.55498-0.34976 0.21148-0.93672 0.80452
   8   2  -4   78.35   49.02   1 0.26046 0.30727-0.53781 0.67588-0.80181 0.66989
   8  -2  -3 2346.44  219.93   1 0.06064 0.51408-0.38740 0.24912-0.91991 0.82076
   8   2  -3 2388.28  153.38   1 0.32109 0.25218-0.57682 0.71490-0.75110 0.65216
   8  -2  -2 3264.64  255.79   1 0.10694 0.47331-0.42364 0.28536-0.89949 0.83339
   8   2  -2 3592.57  193.93   1 0.37575 0.20278-0.61098 0.74900-0.69678 0.63076
   8  -2  -163415.63 1112.58   1 0.15212 0.43308-0.45941 0.32119-0.87509 0.84218
   8   2  -163344.81  937.45   1 0.42341 0.16066-0.63703 0.77505-0.64413 0.61112
   8   2   0  639.08  180.72   1 0.46492 0.12469-0.65768 0.79570-0.59270 0.59270
   8  -2   1 2485.16  269.18   1 0.23938 0.35689-0.52151 0.38329-0.81897 0.85188
   8   2   1 2128.78  185.65   1 0.50115 0.09397-0.67525 0.81331-0.54118 0.57418
   8  -2   271265.10  982.37   1 0.27979 0.32116-0.55056 0.41249-0.78650 0.85246
   8   2   268093.24  753.11   1 0.53213 0.06851-0.68752 0.82558-0.49410 0.56010
   8  -2   322485.08  581.22   1 0.31889 0.28761-0.57546 0.43739-0.75309 0.85203
   8  -2   4 5077.34  322.17   1 0.35579 0.25624-0.59780 0.45973-0.71835 0.85028
   8   2   4 4543.08  250.52   1 0.58234 0.02927-0.70455 0.84272-0.40555 0.53754
   8   2   5  215.14  136.88   1 0.60265 0.01452-0.70928 0.84745-0.36567 0.53066
   8  -2   6 1299.59  179.53   1 0.42236 0.20047-0.63648 0.49846-0.64535 0.84341
   8   2   6 1531.64  198.69   1 0.62047 0.00226-0.71239 0.85056-0.32787 0.52586
   8  -2   7 4490.67  432.62   1 0.45250 0.17587-0.65172 0.51369-0.60868 0.83975
   8   2   7 4970.64  304.04   1 0.63618-0.00788-0.71417 0.85234-0.29193 0.52291
   8  -2   8 2950.61  357.30   1 0.47979 0.15403-0.66592 0.52786-0.57126 0.83524
   8   2   8 2803.53  249.56   1 0.65008-0.01479-0.71595 0.85440-0.25454 0.51940
   8  -2   9   73.87  112.16   1 0.50565 0.13370-0.67713 0.53907-0.53460 0.83158
   8   2   9  100.83   88.87   1 0.66232-0.02143-0.71566 0.85411-0.22168 0.51964
   8  -2  10  149.25  111.87   1 0.52956 0.11532-0.68656 0.54850-0.49818 0.82815
   8   2  10  232.45  135.03   1 0.67323-0.02673-0.71456 0.85301-0.19013 0.52120
   8  -2  11  725.06  181.61   1 0.55163 0.09878-0.69436 0.55630-0.46211 0.82508
   8   2  11  437.14  149.54   1 0.68296-0.03086-0.71277 0.85121-0.15972 0.52390
   8  -2  12 2128.12  294.91   1 0.57137 0.08472-0.70155 0.56338-0.42586 0.82184
   8   2  12 2190.01  262.50   1 0.69166-0.03396-0.71035 0.84880-0.13033 0.52761
   8  -2  13  -30.19  117.38   1 0.59009 0.07156-0.70649 0.56832-0.39070 0.81968
   8   2  13   33.70   93.71   1 0.69892-0.03640-0.70811 0.84648-0.10040 0.53116
   8  -2  14 1947.94  274.22   1 0.60731 0.05990-0.71019 0.57202-0.35606 0.81804
   8   2  14 1732.06  254.24   1 0.70586-0.03778-0.70460 0.84298-0.07271 0.53660
   8  -2  15   -2.39  114.71   1 0.62314 0.04963-0.71276 0.57459-0.32195 0.81693
   8   2  15  106.42  105.86   1 0.71204-0.03841-0.70064 0.83902-0.04571 0.54273
   8  -2  16 1668.17  311.56   1 0.63767 0.04066-0.71429 0.57612-0.28838 0.81635
   8   2  16 1341.64  232.47   1 0.71754-0.03835-0.69624 0.83462-0.01932 0.54948
   8  -2  17  114.16  141.89   1 0.65075 0.03497-0.71596 0.57751-0.25280 0.81562
   8   2  17  -37.64  109.39   1 0.72241-0.03766-0.69143 0.82981 0.00652 0.55677
   8   2  18  193.47  170.10   1 0.72668-0.03638-0.68622 0.82460 0.03189 0.56453
   8  -3 -23   87.90  123.90   1-0.47134 0.93424 0.13205-0.33947-0.87200 0.10928
   8  -3 -22  729.12  220.35   1-0.46370 0.93219 0.12296-0.33038-0.87741 0.14785
   8  -3 -21  656.54  243.65   1-0.45474 0.92882 0.11239-0.31981-0.88349 0.18709
   8  -3 -20   79.60  180.52   1-0.44436 0.92402 0.10025-0.30767-0.89022 0.22697
   8  -3 -19  786.71  266.19   1-0.43242 0.91766 0.08645-0.29387-0.89751 0.26743
   8  -3 -18 1935.72  279.06   1-0.41880 0.90963 0.07089-0.27831-0.90530 0.30838
   8  -3 -17  724.78  221.29   1-0.40336 0.89978 0.05350-0.26092-0.91347 0.34971
   8  -3 -16  261.67  123.00   1-0.38598 0.88798 0.03419-0.24161-0.92187 0.39128
   8  -3 -15  329.48  140.74   1-0.36673 0.87435 0.01256-0.22000-0.93024 0.43255
   8  -3 -14  254.72   93.24   1-0.34504 0.85826-0.01074-0.19669-0.93852 0.47401
   8  -3 -13 4360.00  298.64   1-0.32104 0.83986-0.03608-0.17135-0.94637 0.51504
   8  -3 -12  781.93  144.28   1-0.29463 0.81905-0.06341-0.14402-0.95350 0.55535
   8  -3 -11  296.61  137.46   1-0.26578 0.79579-0.09266-0.11477-0.95956 0.59459
   8  -3 -10 9617.54  387.16   1-0.23368 0.76944-0.12494-0.08259-0.96424 0.63335
   8  -3  -9 2088.72  239.78   1-0.20007 0.74137-0.15751-0.05002-0.96703 0.66922
   8  -3  -8 4503.91  291.52   1-0.16421 0.71105-0.19142-0.01611-0.96767 0.70295
   8  -3  -7 2775.52  248.51   1-0.12743 0.67962-0.22718 0.01961-0.96547 0.73329
   8  -3  -615134.43  452.86   1-0.08761 0.64542-0.26293 0.05536-0.96082 0.76181
   8  -3  -5  633.86  127.13   1-0.04632 0.60976-0.29897 0.09140-0.95313 0.78729
   8  -3  -410370.54  396.13   1-0.00324 0.57244-0.33527 0.12785-0.94211 0.80991
   8  -3  -3 2684.83  292.20   1 0.03954 0.53518-0.37046 0.16304-0.92800 0.82885
   8  -3  -2  646.56  173.94   1 0.08255 0.49770-0.40471 0.19729-0.91070 0.84460
   8  -3  -152202.31  820.39   1 0.12534 0.46044-0.43766 0.23024-0.89035 0.85730
   8  -3   0  490.96  171.06   1 0.16674 0.42400-0.47017 0.26284-0.86668 0.86668
   8   3   0  597.74  137.30   1 0.57853 0.01084-0.70354 0.91080-0.41270 0.41270
   8  -3   1  902.80  192.90   1 0.20779 0.38849-0.49962 0.29229-0.84095 0.87386
   8   3   1 1012.75  130.72   1 0.60188-0.00694-0.70912 0.91638-0.36724 0.40024
   8  -3   2 6179.70  628.30   1 0.24757 0.35424-0.52706 0.31973-0.81296 0.87879
   8   3   2 6197.24  240.62   1 0.62137-0.02087-0.71252 0.91977-0.32588 0.39188
   8  -3   3  -92.73  116.76   1 0.28510 0.32140-0.55401 0.34690-0.78216 0.88111
   8   3   3   -5.62   74.26   1 0.63836-0.03109-0.71546 0.92313-0.28389 0.38322
   8  -3   4 1122.00  196.71   1 0.32173 0.29031-0.57722 0.37011-0.75053 0.88245
   8   3   4 1204.18  149.27   1 0.65229-0.03941-0.71596 0.92363-0.24880 0.38123
   8  -3   5 9846.28  449.82   1 0.35653 0.26104-0.59824 0.39113-0.71762 0.88253
   8   3   5 8725.33  336.78   1 0.66433-0.04585-0.71552 0.92319-0.21604 0.38158
   8  -3   6 6255.21  491.71   1 0.38890 0.23393-0.61840 0.41136-0.68288 0.88093
   8   3   6 5942.93  314.23   1 0.67485-0.05077-0.71432 0.92199-0.18521 0.38385
   8  -3   7 4198.59  498.30   1 0.41987 0.20850-0.63518 0.42814-0.64826 0.87932
   8   3   7 3381.72  265.59   1 0.68411-0.05443-0.71250 0.92016-0.15596 0.38771
   8  -3   8 3544.51  411.68   1 0.44892 0.18498-0.64997 0.44293-0.61318 0.87726
   8   3   8 3191.07  272.82   1 0.69231-0.05702-0.71014 0.91781-0.12804 0.39290
   8  -3   9 1507.14  233.61   1 0.47531 0.16404-0.66389 0.45679-0.57733 0.87431
   8   3   9 1547.91  265.70   1 0.69914-0.05884-0.70801 0.91558-0.09958 0.39780
   8  -3  10   99.57  112.69   1 0.50063 0.14425-0.67503 0.46794-0.54193 0.87190
   8   3  10  -28.24   90.16   1 0.70561-0.05976-0.70475 0.91231-0.07374 0.40509
   8  -3  11  215.30  159.42   1 0.52420 0.12621-0.68453 0.47743-0.50658 0.86955
   8   3  11  234.73  140.26   1 0.71139-0.05998-0.70110 0.90867-0.04868 0.41317
   8  -3  12 1157.11  222.72   1 0.54610 0.10984-0.69250 0.48540-0.47139 0.86736
   8   3  12  788.30  142.85   1 0.71655-0.05958-0.69711 0.90467-0.02428 0.42190
   8  -3  13  815.90  210.27   1 0.56575 0.09590-0.69990 0.49264-0.43595 0.86492
   8   3  13  462.66  160.07   1 0.72114-0.05862-0.69277 0.90034-0.00044 0.43120
   8  -3  14  461.86  202.64   1 0.58457 0.08264-0.70513 0.49787-0.40132 0.86330
   8   3  14  427.83  156.60   1 0.72522-0.05715-0.68812 0.89569 0.02291 0.44098
   8  -3  15 3104.94  326.29   1 0.60198 0.07079-0.70914 0.50189-0.36705 0.86202
   8   3  15 3245.53  296.49   1 0.72882-0.05519-0.68316 0.89073 0.04585 0.45116
   8  -3  16  920.45  232.02   1 0.61806 0.06027-0.71203 0.50478-0.33316 0.86113
   8   3  16 1305.08  243.62   1 0.73161-0.05258-0.67822 0.88570 0.06891 0.46126
  -8  -3 -17   50.11  104.76   1-0.74112 0.05480 0.66646-0.87396-0.08098-0.48288
   8  -3  17  150.16  141.73   1 0.63289 0.05100-0.71388 0.50663-0.29968 0.86065
   8   3  17   47.67  110.84   1 0.73432-0.04972-0.67264 0.88012 0.09118 0.47213
   8  -4 -22  132.17  151.29   1-0.44392 0.91241 0.09974-0.37630-0.89049 0.16093
   8  -4 -21    4.25  118.88   1-0.43492 0.90899 0.08933-0.36588-0.89602 0.19962
   8  -4 -20 3038.43  369.31   1-0.42456 0.90422 0.07745-0.35401-0.90207 0.23883
   8  -4 -19  377.30  157.52   1-0.41275 0.89800 0.06405-0.34061-0.90858 0.27850
   8  -4 -18   49.26  119.84   1-0.39938 0.89022 0.04906-0.32562-0.91546 0.31855
   8  -4 -17  489.80  154.09   1-0.38435 0.88077 0.03240-0.30896-0.92261 0.35886
   8  -4 -16  186.93  114.83   1-0.36778 0.86981 0.01371-0.29029-0.92980 0.39893
   8  -4 -15  -11.88   99.82   1-0.34909 0.85671-0.00642-0.27015-0.93706 0.43937
   8  -4 -14   62.91   41.64   1-0.32842 0.84164-0.02834-0.24824-0.94410 0.47959
   8  -4 -13    4.67   92.59   1-0.30569 0.82451-0.05202-0.22455-0.95070 0.51937
   8  -4 -12 1164.89  240.98   1-0.28085 0.80527-0.07745-0.19912-0.95661 0.55846
   8  -4 -11 9038.93  421.36   1-0.25310 0.78332-0.10577-0.17094-0.96163 0.59765
   8  -4 -10 5672.07  369.15   1-0.22405 0.75980-0.13436-0.14235-0.96527 0.63437
   8  -4  -9 3028.63  305.37   1-0.19292 0.73422-0.16434-0.11237-0.96735 0.66954
   8  -4  -8 1191.75  200.09   1-0.15982 0.70666-0.19551-0.08120-0.96758 0.70287
   8  -4  -7 5278.47  331.42   1-0.12611 0.67830-0.22838-0.04837-0.96536 0.73318
   8  -4  -6  118.65  148.15   1-0.08947 0.64728-0.26129-0.01546-0.96110 0.76209
   8  -4  -5 2343.43  254.18   1-0.05145 0.61489-0.29455 0.01778-0.95424 0.78840
   8  -4  -4  323.59   95.07   1-0.01237 0.58144-0.32782 0.05106-0.94465 0.81198
   8  -4  -3 2128.48  259.61   1 0.02792 0.54680-0.36101 0.08445-0.93213 0.83299
   8  -4  -2  325.01  184.41   1 0.06793 0.51231-0.39320 0.11664-0.91693 0.85083
   8  -4  -1  159.87  191.59   1 0.10799 0.47778-0.42445 0.14788-0.89898 0.86593
   8  -4   0  741.43  192.71   1 0.14688 0.44385-0.45552 0.17908-0.87801 0.87801
   8  -4   124597.27  610.87   1 0.18591 0.41037-0.48406 0.20762-0.85505 0.88796
   8  -4   2  387.71  158.53   1 0.22406 0.37776-0.51097 0.23453-0.82987 0.89570
   8  -4   3 1092.74  217.51   1 0.26022 0.34627-0.53765 0.26151-0.80200 0.90094
   8  -4   4 1206.92  230.69   1 0.29602 0.31601-0.56105 0.28490-0.77303 0.90496
   8  -4   5  161.97  138.48   1 0.33037 0.28721-0.58253 0.30639-0.74263 0.90754
   8   4   5  164.90  100.07   1 0.71479-0.09672-0.69855 0.97531-0.03282 0.19849
   8  -4   6  243.17  193.91   1 0.36314 0.25997-0.60211 0.32596-0.71104 0.90893
   8   4   6    6.49   80.33   1 0.71837-0.09475-0.69549 0.97224-0.01509 0.21390
   8  -4   7 3533.85  333.52   1 0.39368 0.23469-0.62105 0.34500-0.67772 0.90878
   8   4   7 3162.06  242.27   1 0.72171-0.09253-0.69218 0.96894 0.00263 0.22930
   8  -4   8 1294.90  228.37   1 0.42316 0.21074-0.63690 0.36085-0.64442 0.90849
   8   4   8  596.60  124.12   1 0.72480-0.09006-0.68864 0.96540 0.02038 0.24469
   8  -4   9  408.12  138.56   1 0.45097 0.18847-0.65097 0.37492-0.61061 0.90769
   8   4   9  229.65  114.84   1 0.72766-0.08736-0.68487 0.96163 0.03815 0.26006
   8  -4  10 5756.76  388.26   1 0.47627 0.16861-0.66433 0.38820-0.57604 0.90601
   8   4  10 5114.89  304.82   1 0.72994-0.08429-0.68115 0.95780 0.05656 0.27479
   8  -4  11   31.77  132.35   1 0.50079 0.14962-0.67510 0.39897-0.54169 0.90467
   8   4  11   34.12   95.66   1 0.73231-0.08109-0.67689 0.95353 0.07434 0.29014
  -8  -4 -12  -18.50   70.11   1-0.74079 0.08234 0.66718-0.94385-0.07809-0.31993
   8  -4  12   44.38  140.34   1 0.52375 0.13219-0.68435 0.40823-0.50728 0.90325
   8   4  12   96.33  103.13   1 0.73443-0.07765-0.67238 0.94903 0.09216 0.30546
  -8  -4 -13  542.89  145.06   1-0.74284 0.07881 0.66244-0.93911-0.09674-0.33444
   8  -4  13  657.80  245.80   1 0.54519 0.11628-0.69218 0.41606-0.47290 0.90187
   8   4  13  653.60  187.80   1 0.73631-0.07397-0.66763 0.94427 0.11002 0.32074
  -8  -4 -14 3177.75  564.93   1-0.74461 0.07501 0.65744-0.93411-0.11537-0.34898
   8  -4  14 5635.11  425.34   1 0.56519 0.10181-0.69868 0.42255-0.43863 0.90060
   8   4  14 4799.95  325.81   1 0.73795-0.07004-0.66261 0.93926 0.12792 0.33598
  -8  -4 -15  122.24   69.71   1-0.74610 0.07093 0.65220-0.92887-0.13399-0.36354
   8  -4  15  210.86  187.59   1 0.58308 0.08969-0.70474 0.42840-0.40414 0.89912
   8   4  15  -48.44   97.09   1 0.73933-0.06586-0.65735 0.93399 0.14586 0.35117
  -8  -4 -16  341.01  101.76   1-0.74732 0.06657 0.64669-0.92336-0.15260-0.37810
   8  -4  16   99.17  133.69   1 0.60038 0.07795-0.70881 0.43247-0.37029 0.89827
   8   4  16  216.99  156.03   1 0.74046-0.06142-0.65181 0.92846 0.16386 0.36631
   8  -5 -21  324.58  144.45   1-0.41300 0.88707 0.06433-0.41003-0.90845 0.21205
   8  -5 -20   40.78  142.18   1-0.40265 0.88231 0.05270-0.39840-0.91383 0.25059
   8  -5 -19  115.26  143.60   1-0.39093 0.87618 0.03966-0.38536-0.91956 0.28948
   8  -5 -18  187.86  128.56   1-0.37802 0.86886 0.02487-0.37060-0.92546 0.32823
   8  -5 -16 3334.52  341.90   1-0.34696 0.84899-0.00870-0.33702-0.93783 0.40696
   8  -5 -15   70.74  107.23   1-0.32891 0.83653-0.02782-0.31789-0.94395 0.44625
   8  -5 -13   60.41  107.14   1-0.28740 0.80622-0.07080-0.27492-0.95518 0.52385
   8  -5 -12 1629.82  262.94   1-0.26384 0.78826-0.09460-0.25112-0.95991 0.56176
   8  -5 -11  858.48  215.24   1-0.23769 0.76790-0.12101-0.22488-0.96377 0.59978
   8  -5 -10  -15.61  110.13   1-0.21042 0.74618-0.14756-0.19833-0.96640 0.63551
   8  -5  -9 2996.52  297.09   1-0.18133 0.72263-0.17533-0.17056-0.96766 0.66985
   8  -5  -8  377.53  174.65   1-0.15050 0.69734-0.20416-0.14173-0.96729 0.70258
   8  -5  -7  -24.21  118.88   1-0.11932 0.67151-0.23454-0.11140-0.96475 0.73257
   8  -5  -6 2150.33  283.37   1-0.08531 0.64312-0.26497-0.08098-0.96047 0.76146
   8  -5  -5  718.46  191.06   1-0.05004 0.61349-0.29576-0.05018-0.95394 0.78810
   8  -5  -4  -57.08  120.20   1-0.01376 0.58283-0.32666-0.01928-0.94503 0.81236
   8  -5  -3 2442.39  268.42   1 0.02373 0.55099-0.35759 0.01189-0.93357 0.83442
   8  -5  -222237.39  816.95   1 0.06108 0.51917-0.38776 0.04205-0.91973 0.85363
   8  -5  -1 9159.84  599.59   1 0.09863 0.48715-0.41723 0.07153-0.90343 0.87038
   8  -5   0 4006.41  357.70   1 0.13512 0.45562-0.44673 0.10118-0.88440 0.88440
   8  -5   1 3610.35  323.24   1 0.17210 0.42417-0.47408 0.12853-0.86349 0.89641
   8  -5   2  291.16  205.01   1 0.20849 0.39332-0.50011 0.15456-0.84048 0.90631
   8  -5   315767.89  554.23   1 0.24407 0.36328-0.52469 0.17914-0.81555 0.91429
   8  -5   4 3155.40  344.48   1 0.27772 0.33431-0.54921 0.20403-0.78818 0.92010
   8  -5   5  911.98  232.74   1 0.31122 0.30636-0.57067 0.22549-0.75991 0.92482
   8  -5   6  -14.80  131.78   1 0.34344 0.27967-0.59045 0.24527-0.73034 0.92823
   8  -5   7  466.88  186.83   1 0.37361 0.25476-0.60975 0.26469-0.69900 0.93006
   8  -5   8   -8.57  112.90   1 0.40304 0.23086-0.62618 0.28112-0.66741 0.93148
   8  -5   9  135.83  156.55   1 0.43102 0.20842-0.64097 0.29590-0.63511 0.93219
   8  -5  10  559.06  187.96   1 0.45753 0.18746-0.65415 0.30909-0.60228 0.93237
   8  -5  11  -16.08   67.18   1 0.48163 0.16878-0.66675 0.32159-0.56873 0.93171
   8  -5  12  519.59  211.80   1 0.50520 0.15073-0.67694 0.33178-0.53526 0.93123
   8  -5  13 1514.48  284.46   1 0.52737 0.13410-0.68573 0.34058-0.50163 0.93060
   8  -5  14  297.96  187.45   1 0.54816 0.11883-0.69320 0.34804-0.46794 0.92991
   8  -5  15  136.48  126.59   1 0.56688 0.10589-0.70023 0.35481-0.43394 0.92892
   8  -6 -20  307.21  180.52   1-0.37902 0.85866 0.02596-0.44084-0.92502 0.26143
   8  -6 -19  816.36  295.69   1-0.36737 0.85261 0.01326-0.42814-0.92997 0.29956
   8  -6 -18  160.91  183.26   1-0.35436 0.84520-0.00077-0.41409-0.93510 0.33787
   8  -6 -17  257.23  166.50   1-0.33991 0.83635-0.01619-0.39867-0.94031 0.37626
   8  -6 -16  100.27  115.73   1-0.32397 0.82599-0.03301-0.38185-0.94549 0.41461
   8  -6 -15   34.75  118.60   1-0.30645 0.81408-0.05124-0.36363-0.95050 0.45281
   8  -6 -14   57.62  122.39   1-0.28733 0.80055-0.07087-0.34399-0.95520 0.49069
   8  -6 -13   85.52  125.38   1-0.26654 0.78536-0.09189-0.32297-0.95943 0.52809
   8  -6 -12 1498.42  221.10   1-0.24337 0.76804-0.11542-0.29965-0.96304 0.56596
   8  -6 -11  303.98  181.60   1-0.21926 0.74947-0.13901-0.27606-0.96571 0.60172
   8  -6 -10  887.40  213.38   1-0.19349 0.72925-0.16379-0.25128-0.96733 0.63643
   8  -6  -9 6449.55  412.49   1-0.16611 0.70740-0.18964-0.22543-0.96769 0.66989
   8  -6  -8   71.90  126.71   1-0.13718 0.68402-0.21643-0.19864-0.96661 0.70189
   8  -6  -7 4440.17  366.01   1-0.10812 0.66030-0.24464-0.17049-0.96356 0.73138
   8  -6  -6  104.12  121.78   1-0.07634 0.63415-0.27287-0.14226-0.95901 0.76000
   8  -6  -5 1693.90  307.93   1-0.04341 0.60685-0.30147-0.11366-0.95248 0.78664
   8  -6  -4  543.90  219.16   1-0.00952 0.57859-0.33022-0.08492-0.94385 0.81118
   8  -6  -3  311.17  225.67   1 0.02551 0.54921-0.35905-0.05579-0.93296 0.83381
   8  -6  -2 6327.05  409.65   1 0.06049 0.51975-0.38729-0.02754-0.91996 0.85386
   8  -6  -1 1600.10  252.94   1 0.09576 0.49002-0.41501 0.00017-0.90476 0.87171
   8  -6   0   39.03  136.17   1 0.13002 0.46071-0.44289 0.02823-0.88709 0.88709
   8  -6   1   87.70  186.03   1 0.16503 0.43125-0.46892 0.05426-0.86768 0.90059
   8  -6   2 1330.93  231.48   1 0.19965 0.40217-0.49387 0.07921-0.84630 0.91213
   8  -6   3 5898.82  409.64   1 0.23368 0.37367-0.51761 0.10294-0.82308 0.92182
   8  -6   4 8261.94  446.26   1 0.26590 0.34614-0.54143 0.12721-0.79759 0.92951
   8  -6   5  881.38  275.14   1 0.29832 0.31925-0.56251 0.14830-0.77108 0.93599
   8  -6   6 3147.97  351.52   1 0.32971 0.29340-0.58213 0.16791-0.74323 0.94112
   8  -6   7 6099.49  435.71   1 0.35997 0.26868-0.60025 0.18603-0.71421 0.94509
   8  -6   8 1066.15  254.21   1 0.38825 0.24565-0.61803 0.20396-0.68358 0.94765
   8  -6   9  266.56   91.83   1 0.41604 0.22341-0.63315 0.21908-0.65270 0.94978
   8  -6  10  129.78  141.79   1 0.44253 0.20246-0.64679 0.23272-0.62114 0.95123
   8  -6  11 2439.22  387.80   1 0.46770 0.18282-0.65899 0.24491-0.58904 0.95215
   8  -6  12  408.72  249.31   1 0.49056 0.16537-0.67071 0.25652-0.55631 0.95228
   8  -6  13  115.31  127.58   1 0.51311 0.14836-0.68017 0.26598-0.52352 0.95249
   8  -6  14   91.63  126.31   1 0.53437 0.13262-0.68834 0.27415-0.49053 0.95249
   8  -7 -18   98.95  143.26   1-0.32878 0.81961-0.02796-0.45605-0.94399 0.34676
   8  -7 -17  -63.92  117.51   1-0.31457 0.81100-0.04282-0.44119-0.94826 0.38421
   8  -7 -16   88.36  130.09   1-0.29897 0.80100-0.05896-0.42505-0.95243 0.42156
   8  -7 -15  481.76  233.10   1-0.28193 0.78956-0.07636-0.40765-0.95638 0.45869
   8  -7 -14  -76.88  127.62   1-0.26342 0.77665-0.09502-0.38899-0.95998 0.49547
   8  -7 -13  863.38  205.53   1-0.24270 0.76183-0.11607-0.36818-0.96312 0.53296
   8  -7 -12 -188.84  141.41   1-0.22121 0.74588-0.13712-0.34713-0.96553 0.56846
   8  -7 -11 1282.52  272.79   1-0.19822 0.72843-0.15928-0.32497-0.96712 0.60314
   8  -7 -10  201.71  217.72   1-0.17373 0.70949-0.18249-0.30175-0.96773 0.63683
   8  -7  -9  290.11  225.00   1-0.14781 0.68910-0.20665-0.27760-0.96718 0.66937
   8  -7  -8  100.36  157.56   1-0.12194 0.66850-0.23217-0.25216-0.96500 0.69965
   8  -7  -7 1598.71  262.16   1-0.09326 0.64545-0.25792-0.22641-0.96165 0.72947
   8  -7  -6  202.96  155.58   1-0.06339 0.62121-0.28419-0.20013-0.95666 0.75765
   8  -7  -5 1794.58  279.61   1-0.03248 0.59592-0.31082-0.17351-0.94991 0.78406
   8  -7  -4 2423.91  345.60   1-0.00015 0.56935-0.33785-0.14613-0.94119 0.80899
   8  -7  -3  275.15  201.54   1 0.03219 0.54253-0.36450-0.11948-0.93064 0.83149
   8  -7  -2 4090.57  389.77   1 0.06507 0.51518-0.39093-0.09304-0.91811 0.85201
   8  -7  -1 2289.34  360.35   1 0.09828 0.48750-0.41696-0.06701-0.90359 0.87054
   8  -7   0  225.68  210.82   1 0.13048 0.46026-0.44323-0.04053-0.88685 0.88685
   8  -7   1  -13.56  141.68   1 0.16362 0.43265-0.46789-0.01587-0.86850 0.90141
   8  -7   2   20.13  144.35   1 0.19652 0.40529-0.49165 0.00788-0.84832 0.91415
   8  -7   3 2836.19  362.65   1 0.22900 0.37835-0.51439 0.03062-0.82641 0.92515
   8  -7   4  938.82  229.11   1 0.25972 0.35232-0.53732 0.05406-0.80238 0.93431
   8  -7   5 3697.45  376.44   1 0.29096 0.32662-0.55780 0.07454-0.77730 0.94221
   8  -7   6  373.04  169.19   1 0.32135 0.30176-0.57699 0.09373-0.75087 0.94876
   8  -7   7  169.77  196.43   1 0.35080 0.27785-0.59485 0.11159-0.72324 0.95411
   8  -7   8  205.54  203.28   1 0.37839 0.25552-0.61248 0.12939-0.69403 0.95810
   8  -7   9 -107.64  132.27   1 0.40573 0.23372-0.62764 0.14455-0.66441 0.96149
   8  -7  10 2519.05  320.71   1 0.43193 0.21305-0.64143 0.15834-0.63403 0.96412
   8  -7  11 1266.42  227.92   1 0.45696 0.19356-0.65388 0.17079-0.60300 0.96610
   8  -7  12  373.23  201.45   1 0.47977 0.17617-0.66592 0.18269-0.57128 0.96725
   8  -8 -16   57.81  135.04   1-0.27210 0.77412-0.08631-0.46685-0.95839 0.42751
   8  -8 -15  175.68  185.87   1-0.25475 0.76280-0.10413-0.44930-0.96138 0.46503
   8  -8 -14  974.26  262.94   1-0.23682 0.75041-0.12186-0.43157-0.96387 0.50062
   8  -8 -13  853.22  231.81   1-0.21753 0.73666-0.14069-0.41274-0.96585 0.53569
   8  -8 -12   30.12  133.92   1-0.19687 0.72154-0.16057-0.39286-0.96718 0.57011
   8  -8 -11  306.61  194.32   1-0.17485 0.70506-0.18145-0.37198-0.96773 0.60374
   8  -8 -10 7654.15  472.04   1-0.15149 0.68724-0.20324-0.35019-0.96733 0.63643
   8  -8  -9  515.00  208.22   1-0.12839 0.66932-0.22631-0.32721-0.96555 0.66703
   8  -8  -8 7502.86  463.81   1-0.10242 0.64898-0.24975-0.30376-0.96287 0.69752
   8  -8  -7  480.96  242.28   1-0.07529 0.62747-0.27380-0.27972-0.95883 0.72665
   8  -8  -6  316.21  168.26   1-0.04709 0.60490-0.29831-0.25520-0.95330 0.75429
   8  -8  -5  453.29  145.00   1-0.01793 0.58138-0.32314-0.23037-0.94617 0.78033
   8  -8  -4 2224.65  253.34   1 0.01249 0.55669-0.34835-0.20477-0.93728 0.80508
   8  -8  -3  807.12  272.84   1 0.04298 0.53174-0.37324-0.17987-0.92673 0.82758
   8  -8  -2  167.81  151.51   1 0.07398 0.50627-0.39798-0.15513-0.91440 0.84830
   8  -8  -1  683.22  211.39   1 0.10532 0.48045-0.42239-0.13072-0.90026 0.86721
   8  -8   0  634.24  189.47   1 0.13563 0.45510-0.44711-0.10576-0.88413 0.88413
   8  -8   1 1405.18  248.00   1 0.16704 0.42923-0.47039-0.08248-0.86650 0.89941
   8  -8   2 1262.57  217.96   1 0.19830 0.40351-0.49291-0.05996-0.84717 0.91300
   8  -8   3  864.13  216.96   1 0.22926 0.37809-0.51457-0.03831-0.82623 0.92497
   8  -8   4  499.53  210.06   1 0.25847 0.35356-0.53648-0.01580-0.80334 0.93527
   8  -8   5  853.70  227.96   1 0.28847 0.32910-0.55619 0.00390-0.77937 0.94428
   8  -8   6   82.02  144.65   1 0.31778 0.30533-0.57477 0.02248-0.75408 0.95197
   8  -8   7   90.21  144.98   1 0.34629 0.28236-0.59216 0.03987-0.72760 0.95847
   8  -8   8  284.77  204.01   1 0.37303 0.26087-0.60943 0.05733-0.69959 0.96366
   8  -8   9 -195.38  135.26   1 0.39975 0.23970-0.62439 0.07229-0.67106 0.96815
   8  -8  10  958.91  234.63   1 0.42546 0.21952-0.63810 0.08600-0.64171 0.97180
   8  -9 -13   -3.51  126.29   1-0.19043 0.70956-0.16671-0.45590-0.96744 0.53727
   8  -9 -12  359.18  200.41   1-0.17052 0.69519-0.18551-0.43710-0.96773 0.57065
   8  -9 -11    2.67  126.60   1-0.14937 0.67958-0.20520-0.41740-0.96725 0.60326
   8  -9  -9  -31.56  131.22   1-0.10507 0.64600-0.24738-0.37533-0.96320 0.66468
   8  -9  -8 3015.58  356.59   1-0.08035 0.62691-0.26934-0.35337-0.95968 0.69433
   8  -9  -7  114.33  151.75   1-0.05459 0.60678-0.29183-0.33087-0.95490 0.72272
   8  -9  -6  791.97  260.07   1-0.02786 0.58568-0.31474-0.30796-0.94876 0.74975
   8  -9  -5 1641.00  278.57   1 0.00027 0.56339-0.33821-0.28405-0.94107 0.77582
   8  -9  -4 1907.53  286.78   1 0.02847 0.54072-0.36146-0.26079-0.93194 0.79975
   8  -9  -3 5178.33  826.09   1 0.05729 0.51743-0.38473-0.23752-0.92124 0.82209
   8  -9  -2   27.73  141.19   1 0.08659 0.49365-0.40788-0.21438-0.90891 0.84281
   8  -9  -1  285.11  203.37   1 0.11625 0.46953-0.43076-0.19150-0.89494 0.86189
   8  -9   0   16.11  137.27   1 0.14481 0.44592-0.45398-0.16800-0.87916 0.87916
   8  -9   1   61.21  145.07   1 0.17461 0.42167-0.47590-0.14608-0.86198 0.89490
   8  -9   2  412.43  252.82   1 0.20432 0.39749-0.49717-0.12481-0.84324 0.90907
   8  -9   3 1521.30  280.96   1 0.23381 0.37354-0.51770-0.10428-0.82299 0.92173
   8  -9   4 1873.66  325.23   1 0.26155 0.35048-0.53854-0.08278-0.80097 0.93290
   8  -9   5 2934.71  370.66   1 0.29030 0.32728-0.55737-0.06395-0.77785 0.94276
   8  -9   6   74.65  137.41   1 0.31848 0.30463-0.57520-0.04611-0.75346 0.95135
   8  -9   7  188.15  208.39   1 0.34599 0.28266-0.59198-0.02934-0.72789 0.95877
   8 -10  -8  -85.14  153.81   1-0.05600 0.60256-0.29062-0.40128-0.95519 0.68984
   8 -10  -7  338.31  187.94   1-0.03146 0.58365-0.31168-0.38021-0.94966 0.71748
   8 -10  -6  113.09  154.76   1-0.00606 0.56387-0.33311-0.35878-0.94286 0.74385
   8 -10  -5    0.97  145.04   1 0.02061 0.54305-0.35503-0.33637-0.93462 0.76937
   8 -10  -4   17.80  141.20   1 0.04735 0.52184-0.37677-0.31463-0.92509 0.79289
   8 -10  -3   51.90   77.32   1 0.07467 0.50005-0.39852-0.29287-0.91411 0.81496
   8 -10  -2  -98.77  133.46   1 0.10244 0.47781-0.42017-0.27122-0.90164 0.83554
   8 -10  -1  236.53  131.67   1 0.12930 0.45590-0.44234-0.24875-0.88747 0.85455
   8 -10   0  524.13  205.39   1 0.15751 0.43323-0.46339-0.22770-0.87204 0.87204
   8 -10   1 1764.26  302.28   1 0.18580 0.41048-0.48398-0.20711-0.85512 0.88803
   8 -10   2   78.69  145.38   1 0.21405 0.38776-0.50401-0.18708-0.83674 0.90257
   9   0 -21  151.50  137.90   1-0.42763 0.97563 0.08096-0.08096-0.90031 0.20391
   9   0 -20  -79.78   92.60   1-0.41379 0.96737 0.06522-0.06522-0.90803 0.24478
   9   0 -19   54.54   94.52   1-0.39784 0.95701 0.04734-0.04734-0.91623 0.28615
   9   0 -18 1136.51  224.54   1-0.37969 0.94447 0.02670-0.02670-0.92472 0.32749
   9   0 -17   36.68   86.02   1-0.35891 0.92929 0.00411-0.00411-0.93335 0.36930
   9   0 -16 2647.15  266.96   1-0.33543 0.91141-0.02094 0.02094-0.94182 0.41095
   9   0 -15  151.96  157.20   1-0.30906 0.89064-0.04854 0.04854-0.94979 0.45210
   9   0 -14  686.41  155.65   1-0.27966 0.86683-0.07867 0.07867-0.95686 0.49235
   9   0 -13  -56.82   95.84   1-0.24579 0.83882-0.11302 0.11302-0.96270 0.53254
   9   0 -12  743.46  164.68   1-0.21011 0.80868-0.14786 0.14786-0.96642 0.56935
   9   0 -11  -80.75   99.46   1-0.17136 0.77547-0.18472 0.18472-0.96773 0.60374
   9   0 -10  112.90  104.42   1-0.13085 0.74010-0.22406 0.22406-0.96574 0.63406
   9   0  -9   23.71   97.04   1-0.08648 0.70136-0.26393 0.26393-0.96065 0.66213
   9   0  -8 1138.68  170.90   1-0.03999 0.66049-0.30441 0.30441-0.95170 0.68635
   9   0  -7   49.70  101.67   1 0.00952 0.61699-0.34589 0.34589-0.93822 0.70687
   9   0  -610842.05  360.89   1 0.05821 0.57383-0.38547 0.38547-0.92087 0.72258
   9   0  -5   60.70   97.39   1 0.10709 0.53048-0.42375 0.42375-0.89942 0.73417
   9   0  -4 6546.70  314.25   1 0.15580 0.48663-0.46213 0.46213-0.87301 0.74136
   9   0  -3   20.85   93.71   1 0.20286 0.44510-0.49615 0.49615-0.84420 0.74546
   9   0  -2 1262.72  169.73   1 0.24756 0.40498-0.52915 0.52915-0.81160 0.74564
   9   0  -1  -38.11  105.31   1 0.29091 0.36717-0.55776 0.55776-0.77734 0.74436
   9   0   010831.37  391.60   1 0.33181 0.33181-0.58341 0.58341-0.74129 0.74129
   9   0   1   27.71  111.28   1 0.36992 0.29892-0.60764 0.60764-0.70279 0.73580
   9   0   2 7000.06  466.90   1 0.40549 0.26889-0.62751 0.62751-0.66468 0.73070
   9   0   3   29.82  107.03   1 0.43838 0.24154-0.64471 0.64471-0.62623 0.72525
   9   0   4 5887.18  317.27   1 0.46866 0.21679-0.65944 0.65944-0.58777 0.71981
   9   0   5  313.05  155.01   1 0.49612 0.19481-0.67311 0.67311-0.54842 0.71341
   9   0   612065.50  431.84   1 0.52154 0.17492-0.68350 0.68350-0.51068 0.70867
   9   0   7   -2.52   94.55   1 0.54481 0.15718-0.69205 0.69205-0.47353 0.70452
   9   0   8 2160.25  254.28   1 0.56570 0.14182-0.69988 0.69988-0.43604 0.70003
   9   0   9   63.56  108.04   1 0.58510 0.12798-0.70526 0.70526-0.40031 0.69729
   9   0  10 2125.59  262.15   1 0.60283 0.11582-0.70931 0.70931-0.36532 0.69530
   9   0  11   64.19  115.67   1 0.61901 0.10519-0.71218 0.71218-0.33108 0.69406
   9   0  12   68.06   99.97   1 0.63378 0.09598-0.71396 0.71396-0.29758 0.69356
   9   0  13  119.74  153.00   1 0.64718 0.08993-0.71589 0.71589-0.26199 0.69238
   9   0  14  -46.23  103.88   1 0.65939 0.08333-0.71581 0.71581-0.22979 0.69329
   9   0  15    4.61  115.23   1 0.67050 0.07782-0.71492 0.71492-0.19824 0.69485
   9   0  16  566.87  182.67   1 0.68060 0.07332-0.71328 0.71328-0.16731 0.69702
   9  -1 -22  435.83  150.36   1-0.43113 0.97354 0.08496-0.15410-0.89827 0.16871
   9  -1 -21   21.99   96.66   1-0.41981 0.96781 0.07204-0.14118-0.90474 0.20834
   9  -1 -20  -77.58   96.46   1-0.40675 0.96034 0.05730-0.12644-0.91173 0.24849
   9  -1 -19   10.23   97.35   1-0.39182 0.95099 0.04065-0.10979-0.91914 0.28906
   9  -1 -18 3077.80  331.22   1-0.37499 0.93977 0.02155-0.09069-0.92677 0.32954
   9   1 -17  585.90  157.11   1-0.35596 0.92634 0.00094 0.06820-0.93449 0.37044
   9  -1 -17  657.43  190.87   1-0.35581 0.92619 0.00077-0.06992-0.93455 0.37050
   9   1 -16  226.33   82.25   1-0.32976 0.90573-0.02693 0.09608-0.94368 0.41280
   9  -1 -16  144.56  109.18   1-0.33429 0.91027-0.02215-0.04699-0.94220 0.41133
   9  -1 -15  499.71  150.94   1-0.31029 0.89186-0.04727-0.02187-0.94946 0.45177
   9   1 -15  317.77  128.89   1-0.30010 0.88167-0.05780 0.12694-0.95215 0.45446
   9   1 -14  105.97   88.69   1-0.26521 0.85269-0.09368 0.16286-0.95962 0.49637
   9  -1 -14  142.09  100.62   1-0.28369 0.87086-0.07458 0.00543-0.95601 0.49149
   9  -1 -13  -43.72   84.33   1-0.25328 0.84630-0.10560 0.03642-0.96161 0.53144
   9   1 -13   43.92   87.87   1-0.22811 0.82113-0.13040 0.19958-0.96486 0.53469
   9   1 -12   48.01   87.77   1-0.18723 0.78580-0.16975 0.23893-0.96753 0.57046
   9  -1 -12  140.20  126.73   1-0.22135 0.81991-0.13698 0.06780-0.96552 0.56844
   9  -1 -11 1294.41  197.91   1-0.18678 0.79089-0.17018 0.10100-0.96754 0.60356
   9   1 -11 1420.87  161.24   1-0.14272 0.74683-0.21134 0.28052-0.96693 0.60294
   9  -1 -10 3235.34  246.01   1-0.14969 0.75935-0.20490 0.13572-0.96726 0.63636
   9   1 -10 3068.18  238.34   1-0.09586 0.70511-0.25560 0.32479-0.96201 0.63032
   9  -1  -9 1233.69  187.30   1-0.11138 0.72626-0.24171 0.17252-0.96393 0.66541
   9   1  -9 1286.79  182.75   1-0.04503 0.65991-0.30008 0.36927-0.95284 0.65433
   9  -1  -8 2909.41  242.45   1-0.06983 0.69034-0.27858 0.20939-0.95787 0.69252
   9   1  -8 2759.04  205.27   1 0.00972 0.61127-0.34605 0.41519-0.93816 0.67376
   9  -1  -7  433.35  178.72   1-0.02666 0.65279-0.31577 0.24658-0.94846 0.71627
   9   1  -7  171.31  125.44   1 0.06354 0.56297-0.38972 0.45886-0.91873 0.68738
   9  -1  -6 9865.94  359.57   1 0.01882 0.61322-0.35356 0.28442-0.93522 0.73692
   9   1  -6 9560.61  315.92   1 0.11757 0.51447-0.43177 0.50091-0.89428 0.69598
   9  -1  -5 1811.18  196.65   1 0.06357 0.57400-0.38974 0.32060-0.91872 0.75347
   9   1  -5 1989.03  202.89   1 0.17168 0.46521-0.47377 0.54288-0.86374 0.69917
   9  -1  -4 2250.02  207.77   1 0.10843 0.53467-0.42478 0.35564-0.89877 0.76657
   9   1  -4 2134.14  192.78   1 0.22312 0.41931-0.51033 0.57944-0.83052 0.69887
   9  -1  -3  362.06  177.53   1 0.15285 0.49512-0.45995 0.39084-0.87468 0.77594
   9   1  -3  327.59  108.30   1 0.27165 0.37535-0.54523 0.61426-0.79304 0.69410
   9  -1  -211356.78  391.62   1 0.19628 0.45722-0.49148 0.42237-0.84847 0.78265
   9   1  -211382.67  364.49   1 0.31785 0.33469-0.57481 0.64385-0.75402 0.68806
   9  -1  -1  105.68  113.47   1 0.23841 0.42063-0.52084 0.45173-0.81967 0.78676
   9   1  -1  237.84  172.65   1 0.36075 0.29733-0.60071 0.66975-0.71344 0.68045
   9  -1   0  -19.72  114.82   1 0.27823 0.38539-0.54954 0.48051-0.78777 0.78777
   9   1   0  221.38  141.67   1 0.40023 0.26307-0.62465 0.69366-0.67053 0.67053
   9  -1   120623.34  513.75   1 0.31691 0.35224-0.57423 0.50520-0.75486 0.78784
   9   1   120353.16  465.06   1 0.43624 0.23260-0.64363 0.71264-0.62882 0.66183
   9  -1   2   77.14   96.33   1 0.35352 0.32117-0.59646 0.52742-0.72058 0.78655
   9   1   2   -3.55  104.98   1 0.46895 0.20543-0.65957 0.72859-0.58739 0.65341
   9  -1   3  100.81  100.09   1 0.38763 0.29228-0.61769 0.54868-0.68424 0.78327
   9   1   3  130.66  107.52   1 0.49846 0.18142-0.67411 0.74314-0.54507 0.64406
   9  -1   410427.63  917.62   1 0.41985 0.26561-0.63516 0.56615-0.64829 0.78033
   9   1   410845.73  382.23   1 0.52514 0.16027-0.68489 0.75392-0.50512 0.63711
   9  -1   5 1525.98  219.76   1 0.44987 0.24112-0.65043 0.58142-0.61200 0.77704
   9   1   5 1340.64  206.41   1 0.54922 0.14171-0.69356 0.76259-0.46617 0.63116
   9  -1   6 3454.99  358.63   1 0.47727 0.21919-0.66478 0.59575-0.57469 0.77267
   9   1   6 3501.15  259.20   1 0.57074 0.12566-0.70137 0.77045-0.42699 0.62498
   9  -1   7  142.94  141.04   1 0.50306 0.19893-0.67605 0.60702-0.53839 0.76938
   9   1   7   62.84   90.93   1 0.59033 0.11163-0.70655 0.77563-0.39023 0.62122
   9  -1   8  311.08  134.19   1 0.52691 0.18061-0.68556 0.61653-0.50235 0.76633
   9   1   8  274.21  117.29   1 0.60803 0.09949-0.71033 0.77941-0.35456 0.61855
   9  -1   9  159.77  142.35   1 0.54893 0.16412-0.69346 0.62443-0.46666 0.76364
   9   1   9  105.25   97.89   1 0.62404 0.08904-0.71288 0.78197-0.31993 0.61692
   9  -1  10 3556.34  327.34   1 0.56875 0.14990-0.70079 0.63170-0.43059 0.76057
   9   1  10 3009.40  293.15   1 0.63853 0.08011-0.71435 0.78343-0.28630 0.61628
   9  -1  11  162.65  177.31   1 0.58743 0.13677-0.70584 0.63676-0.39585 0.75883
   9   1  11  161.50  168.04   1 0.65160 0.07430-0.71596 0.78519-0.25060 0.61478
   9  -1  12 2266.81  295.84   1 0.60462 0.12514-0.70967 0.64059-0.36163 0.75761
   9   1  12 1633.29  250.11   1 0.66340 0.06811-0.71559 0.78481-0.21868 0.61597
   9  -1  13   41.25  111.99   1 0.62043 0.11489-0.71238 0.64330-0.32796 0.75693
   9   1  13  185.05  116.16   1 0.67407 0.06304-0.71444 0.78366-0.18757 0.61797
   9  -1  14  748.97  181.26   1 0.63495 0.10593-0.71407 0.64498-0.29483 0.75681
   9   1  14  986.84  261.56   1 0.68373 0.05898-0.71259 0.78181-0.15721 0.62071
   9  -1  15 1244.47  269.12   1 0.64815 0.10017-0.71592 0.64669-0.25952 0.75613
   9   1  15 1318.60  246.64   1 0.69246 0.05586-0.71009 0.77931-0.12752 0.62413
   9  -2 -22  144.11  156.03   1-0.41944 0.96186 0.07163-0.20991-0.90494 0.17538
   9  -2 -21 1047.12  269.01   1-0.40855 0.95654 0.05932-0.19759-0.91080 0.21440
   9  -2 -20 1376.93  228.54   1-0.39606 0.94964 0.04535-0.18363-0.91710 0.25386
   9  -2 -19   54.19  101.61   1-0.38204 0.94122 0.02928-0.16757-0.92368 0.29327
   9  -2 -18  499.32  179.22   1-0.36601 0.93079 0.01178-0.15008-0.93053 0.33330
   9  -2 -17   74.65  107.79   1-0.34803 0.91841-0.00755-0.13073-0.93745 0.37340
   9  -2 -16  112.55   94.10   1-0.32798 0.90395-0.02880-0.10948-0.94424 0.41337
   9  -2 -15  184.02  107.56   1-0.30575 0.88732-0.05197-0.08631-0.95069 0.45300
   9  -2 -14 2753.70  302.45   1-0.28125 0.86842-0.07705-0.06123-0.95653 0.49202
   9  -2 -13  159.04  144.72   1-0.25344 0.84646-0.10544-0.03291-0.96158 0.53142
   9  -2 -12 1113.03  202.42   1-0.22433 0.82290-0.13408-0.00427-0.96524 0.56816
   9  -2 -11  183.48  158.33   1-0.19293 0.79704-0.16433 0.02597-0.96735 0.60336
   9  -2 -10 6071.36  357.11   1-0.15932 0.76897-0.19598 0.05762-0.96757 0.63668
   9  -2  -9  766.76  178.63   1-0.12481 0.73969-0.22957 0.09118-0.96525 0.66673
   9  -2  -8  513.17  123.32   1-0.08716 0.70766-0.26333 0.12495-0.96075 0.69540
   9  -2  -7 4386.21  277.56   1-0.04793 0.67406-0.29758 0.15920-0.95348 0.72130
   9  -2  -6  800.51  172.66   1-0.00638 0.63843-0.33265 0.19437-0.94302 0.74472
   9  -2  -5  202.11  137.09   1 0.03472 0.60285-0.36656 0.22828-0.92974 0.76449
   9  -2  -4 1009.38  179.97   1 0.07628 0.56683-0.39979 0.26151-0.91342 0.78122
   9   2  -4 1121.46  125.25   1 0.31779 0.32367-0.57478 0.71285-0.75407 0.62214
   9  -2  -3 1492.43  186.54   1 0.11786 0.53077-0.43199 0.29371-0.89414 0.79499
   9   2  -3 1582.73  151.22   1 0.36688 0.27981-0.60588 0.74391-0.70590 0.60687
   9  -2  -2   70.48   88.36   1 0.15872 0.49479-0.46428 0.32606-0.87134 0.80551
   9   2  -2  -14.32   67.15   1 0.41078 0.24145-0.63035 0.76838-0.65871 0.59269
   9  -2  -1 2015.90  244.36   1 0.19906 0.45998-0.49345 0.35523-0.84668 0.81376
   9   2  -1 1511.72  158.26   1 0.44998 0.20778-0.65049 0.78851-0.61185 0.57884
   9  -2   0 4900.43  306.52   1 0.23835 0.42623-0.52080 0.38258-0.81972 0.81972
   9   2   0 4971.87  247.44   1 0.48512 0.17816-0.66831 0.80638-0.56391 0.56391
   9  -2   1  182.14   98.67   1 0.27554 0.39362-0.54778 0.40971-0.78993 0.82291
   9   2   1   69.82   92.34   1 0.51573 0.15309-0.68122 0.81928-0.51957 0.55256
   9  -2   2 1173.81  193.91   1 0.31203 0.36266-0.57118 0.43311-0.75919 0.82515
   9   2   2 1329.37  188.35   1 0.54275 0.13159-0.69134 0.82940-0.47693 0.54292
   9  -2   3 5999.06  327.81   1 0.34683 0.33341-0.59248 0.45441-0.72709 0.82604
   9   2   3 6192.22  311.86   1 0.56669 0.11304-0.70018 0.83835-0.43428 0.53328
   9  -2   4   94.01   95.76   1 0.37938 0.30607-0.61305 0.47502-0.69298 0.82502
   9   2   4   96.70  108.22   1 0.58774 0.09754-0.70592 0.84409-0.39525 0.52724
   9  -2   5 3215.27  325.74   1 0.41051 0.28048-0.63021 0.49219-0.65901 0.82406
   9   2   5 3090.45  246.51   1 0.60642 0.08442-0.71002 0.84819-0.35791 0.52290
   9  -2   6 2195.11  273.81   1 0.43978 0.25675-0.64542 0.50739-0.62451 0.82257
   9   2   6 2029.44  238.20   1 0.62305 0.07335-0.71275 0.85092-0.32215 0.52014
   9  -2   7  372.52  134.12   1 0.46720 0.23487-0.65875 0.52073-0.58970 0.82077
   9   2   7  592.34  169.76   1 0.63789 0.06407-0.71430 0.85247-0.28783 0.51882
   9  -2   8 3458.43  312.80   1 0.49217 0.21535-0.67141 0.53335-0.55404 0.81802
   9   2   8 3194.78  278.17   1 0.65125 0.05784-0.71596 0.85441-0.25150 0.51636
   9  -2   9 3658.39  298.90   1 0.51602 0.19703-0.68133 0.54327-0.51912 0.81610
   9   2   9 3727.96  313.81   1 0.66306 0.05163-0.71561 0.85406-0.21963 0.51759
   9  -2  10  167.96  171.28   1 0.53821 0.18037-0.68973 0.55166-0.48435 0.81432
   9   2  10   93.74  104.76   1 0.67366 0.04664-0.71450 0.85295-0.18882 0.51990
   9  -2  11  104.08  130.31   1 0.55882 0.16529-0.69670 0.55864-0.44979 0.81277
   9   2  11   98.80   94.29   1 0.68319 0.04271-0.71271 0.85116-0.15897 0.52315
   9  -2  12 2285.24  309.88   1 0.57736 0.15240-0.70322 0.56505-0.41487 0.81085
   9   2  12 2262.36  287.39   1 0.69176 0.03974-0.71032 0.84877-0.12997 0.52726
   9  -2  13 3252.19  345.56   1 0.59505 0.14027-0.70765 0.56948-0.38096 0.80994
   9   2  13 2618.36  388.32   1 0.69894 0.03736-0.70810 0.84648-0.10034 0.53110
   9  -2  14   51.84  123.63   1 0.61142 0.12947-0.71094 0.57277-0.34744 0.80942
   9   2  14   27.95  106.64   1 0.70583 0.03602-0.70462 0.84300-0.07281 0.53670
   9  -2  15  185.06  123.40   1 0.62653 0.11991-0.71319 0.57502-0.31432 0.80929
   9   2  15  -67.49  103.74   1 0.71200 0.03540-0.70066 0.83904-0.04587 0.54290
   9  -3 -21  158.35  118.01   1-0.39433 0.94233 0.04343-0.25085-0.91793 0.22153
   9  -3 -20  266.34  173.90   1-0.38226 0.93584 0.03011-0.23752-0.92356 0.26032
   9  -3 -19   88.54  117.02   1-0.36882 0.92801 0.01484-0.22227-0.92937 0.29896
   9  -3 -18  587.08  194.73   1-0.35352 0.91830-0.00167-0.20575-0.93542 0.33819
   9  -3 -17  525.32  191.24   1-0.33646 0.90683-0.01986-0.18757-0.94148 0.37743
   9  -3 -16   53.26  104.89   1-0.31754 0.89351-0.03973-0.16769-0.94741 0.41654
   9  -3 -15  322.19  170.44   1-0.29668 0.87825-0.06131-0.14612-0.95300 0.45531
   9  -3 -14  491.84  165.13   1-0.27383 0.86099-0.08456-0.12287-0.95805 0.49354
   9  -3 -13  -26.95  107.46   1-0.24803 0.84105-0.11081-0.09672-0.96239 0.53222
   9  -3 -12  175.29  153.80   1-0.22112 0.81969-0.13720-0.07033-0.96554 0.56846
   9  -3 -11  149.72  146.75   1-0.19220 0.79631-0.16503-0.04250-0.96737 0.60339
   9  -3 -10   58.41  101.64   1-0.16132 0.77097-0.19411-0.01341-0.96762 0.63672
   9  -3  -9  336.20  156.84   1-0.12984 0.74471-0.22499 0.01742-0.96566 0.66715
   9  -3  -819843.15  541.70   1-0.09532 0.71582-0.25609 0.04852-0.96194 0.69659
   9  -3  -7  479.91  146.76   1-0.05932 0.68545-0.28774 0.08017-0.95586 0.72368
   9  -3  -6  -12.74   90.98   1-0.02209 0.65385-0.31963 0.11206-0.94728 0.74827
   9  -3  -5  932.78  157.68   1 0.01688 0.62069-0.35196 0.14454-0.93585 0.77061
   9  -3  -4  311.54  100.04   1 0.05545 0.58765-0.38327 0.17584-0.92196 0.78977
   9  -3  -3  955.92  173.95   1 0.09431 0.55433-0.41388 0.20646-0.90543 0.80628
   9  -3  -2 2922.50  269.54   1 0.13261 0.52090-0.44484 0.23751-0.88573 0.81990
   9  -3  -1  996.19  176.71   1 0.17092 0.48812-0.47322 0.26589-0.86419 0.83128
   9  -3   0 6694.44  350.08   1 0.20859 0.45599-0.50018 0.29285-0.84041 0.84041
   9  -3   1  868.79  176.32   1 0.24535 0.42477-0.52556 0.31823-0.81460 0.84752
   9  -3   219093.03  579.37   1 0.28015 0.39455-0.55079 0.34369-0.78621 0.85217
   9  -3   3 7137.07  389.67   1 0.31456 0.36568-0.57276 0.36565-0.75695 0.85590
   9  -3   4 1517.10  234.81   1 0.34753 0.33824-0.59290 0.38579-0.72641 0.85834
   9   3   4  967.67  160.80   1 0.65211 0.03456-0.71596 0.92363-0.24927 0.38170
   9  -3   5 1620.63  253.70   1 0.37845 0.31254-0.61252 0.40548-0.69396 0.85900
   9   3   5 1178.35  191.17   1 0.66377 0.02851-0.71556 0.92323-0.21763 0.38317
   9  -3   6 9780.46  456.33   1 0.40831 0.28822-0.62903 0.42199-0.66150 0.85956
   9   3   6 9489.58  372.46   1 0.67408 0.02379-0.71444 0.92211-0.18754 0.38618
   9  -3   7   71.37  115.99   1 0.43656 0.26551-0.64379 0.43675-0.62843 0.85950
   9   3   7   20.33   82.58   1 0.68326 0.02023-0.71270 0.92037-0.15876 0.39051
   9  -3   8  709.30  159.73   1 0.46320 0.24441-0.65687 0.44983-0.59494 0.85901
   9   3   8  531.18  148.88   1 0.69144 0.01764-0.71042 0.91809-0.13110 0.39595
   9  -3   9   75.71  122.35   1 0.48751 0.22554-0.66937 0.46228-0.56059 0.85757
   9   3   9   11.18   40.68   1 0.69830 0.01577-0.70838 0.91595-0.10276 0.40098
   9  -3  10 2505.64  318.78   1 0.51098 0.20760-0.67931 0.47222-0.52670 0.85668
   9   3  10 2985.59  291.16   1 0.70484 0.01478-0.70517 0.91274-0.07691 0.40826
   9  -3  11   58.46  126.34   1 0.53295 0.19116-0.68782 0.48072-0.49280 0.85578
   9   3  11  -32.01  103.85   1 0.71071 0.01447-0.70157 0.90914-0.05174 0.41622
   9  -3  12  250.30  186.47   1 0.55348 0.17616-0.69497 0.48788-0.45897 0.85494
   9   3  12  174.06  132.53   1 0.71596 0.01478-0.69760 0.90517-0.02716 0.42478
   9  -3  13    2.69  139.71   1 0.57199 0.16333-0.70172 0.49447-0.42473 0.85370
   9   3  13  -67.08   94.48   1 0.72066 0.01564-0.69328 0.90084-0.00309 0.43384
   9  -3  14 1949.75  321.12   1 0.58981 0.15108-0.70642 0.49917-0.39125 0.85323
   9   3  14 2235.99  305.34   1 0.72483 0.01702-0.68861 0.89618 0.02053 0.44335
   9  -3  15   46.63  133.66   1 0.60637 0.14007-0.71001 0.50276-0.35802 0.85299
   9   3  15  -26.54  105.62   1 0.72851 0.01889-0.68362 0.89119 0.04379 0.45323
   9  -4 -20  -19.00  117.44   1-0.36597 0.91956 0.01174-0.28832-0.93055 0.26696
   9  -4 -19   -7.66  113.43   1-0.35277 0.91195-0.00248-0.27409-0.93570 0.30529
   9  -4 -18   41.01  167.86   1-0.33803 0.90282-0.01819-0.25839-0.94095 0.34372
   9  -4 -17   43.51  110.11   1-0.32170 0.89207-0.03539-0.24118-0.94617 0.38212
   9  -4 -16 2350.76  293.73   1-0.30368 0.87965-0.05411-0.22247-0.95123 0.42036
   9  -4 -15  350.02  146.10   1-0.28392 0.86549-0.07434-0.20224-0.95595 0.45826
   9  -4 -14  128.91  102.52   1-0.26152 0.84900-0.09738-0.17933-0.96027 0.49701
   9  -4 -13 1150.25  218.22   1-0.23819 0.83122-0.12051-0.15619-0.96370 0.53354
   9  -4 -12  162.09  107.42   1-0.21305 0.81162-0.14502-0.13169-0.96621 0.56913
   9  -4 -11  169.30  105.53   1-0.18612 0.79023-0.17080-0.10591-0.96756 0.60357
   9  -4 -10  432.24  132.67   1-0.15745 0.76710-0.19771-0.07900-0.96753 0.63663
   9  -4  -9 2030.33  255.99   1-0.12843 0.74330-0.22627-0.05048-0.96555 0.66704
   9  -4  -8 6272.73  373.26   1-0.09648 0.71698-0.25506-0.02169-0.96209 0.69674
   9  -4  -7  113.88  104.19   1-0.06316 0.68929-0.28440 0.00764-0.95662 0.72444
   9  -4  -6  -39.67   99.35   1-0.02867 0.66043-0.31406 0.03730-0.94896 0.74995
   9  -4  -5  375.41  148.58   1 0.00753 0.63004-0.34424 0.06768-0.93884 0.77360
   9  -4  -4 3350.84  293.16   1 0.04346 0.59964-0.37363 0.09707-0.92655 0.79435
   9  -4  -3 2962.24  270.75   1 0.07982 0.56882-0.40257 0.12601-0.91189 0.81275
   9  -4  -2  735.09  191.21   1 0.11632 0.53784-0.43082 0.15425-0.89490 0.82880
   9  -4  -1  539.33  175.41   1 0.15196 0.50708-0.45929 0.18285-0.87518 0.84227
   9  -4   0  828.83  178.09   1 0.18785 0.47673-0.48546 0.20902-0.85383 0.85383
   9  -4   1  542.68  161.42   1 0.22315 0.44697-0.51035 0.23391-0.83050 0.86342
   9  -4   216918.44  552.62   1 0.25667 0.41802-0.53528 0.25914-0.80472 0.87068
   9  -4   3 1023.87  218.20   1 0.29026 0.38998-0.55734 0.28120-0.77788 0.87683
   9  -4   4 3378.08  338.29   1 0.32271 0.36306-0.57783 0.30168-0.74964 0.88157
   9  -4   5 4918.56  380.54   1 0.35392 0.33739-0.59670 0.32055-0.72019 0.88510
   9  -4   6 1095.01  235.81   1 0.38321 0.31333-0.61521 0.33916-0.68895 0.88701
   9  -4   7 1271.56  211.58   1 0.41172 0.29035-0.63086 0.35481-0.65764 0.88870
   9  -4   8  257.19  127.98   1 0.43882 0.26878-0.64493 0.36888-0.62568 0.88976
   9  -4   9 -104.11  110.74   1 0.46451 0.24864-0.65748 0.38144-0.59324 0.89032
   9  -4  10  335.01  165.98   1 0.48795 0.23063-0.66957 0.39344-0.55997 0.88995
   9  -4  11 2236.61  294.13   1 0.51081 0.21330-0.67924 0.40311-0.52696 0.88994
   9  -4  12 1988.49  283.31   1 0.53230 0.19733-0.68758 0.41145-0.49383 0.88980
   9  -4  13  -59.58  125.31   1 0.55248 0.18269-0.69465 0.41852-0.46067 0.88964
   9  -4  14  242.70  205.06   1 0.57070 0.17018-0.70135 0.42501-0.42706 0.88904
   9  -5 -19   -4.42  119.80   1-0.33419 0.89338-0.02225-0.32346-0.94224 0.31183
   9  -5 -18  589.21  208.48   1-0.31992 0.88470-0.03725-0.30847-0.94671 0.34948
   9  -5 -17  860.54  205.81   1-0.30417 0.87455-0.05360-0.29212-0.95110 0.38705
   9  -5 -16  -74.83  134.49   1-0.28690 0.86287-0.07131-0.27441-0.95530 0.42443
   9  -5 -15  126.82  134.98   1-0.26804 0.84961-0.09039-0.25533-0.95915 0.46146
   9  -5 -14   64.70  123.96   1-0.24678 0.83426-0.11205-0.23384-0.96257 0.49931
   9  -5 -13   85.39  118.19   1-0.22472 0.81774-0.13371-0.21218-0.96520 0.53503
   9  -5 -12 2359.07  317.06   1-0.20103 0.79960-0.15659-0.18930-0.96698 0.56991
   9  -5 -11   38.77  111.82   1-0.17574 0.77985-0.18060-0.16529-0.96772 0.60373
   9  -5 -10  937.28  213.01   1-0.14890 0.75855-0.20564-0.14025-0.96723 0.63633
   9  -5  -9 5195.18  365.90   1-0.12191 0.73679-0.23220-0.11375-0.96499 0.66647
   9  -5  -8   94.35  116.92   1-0.09210 0.71261-0.25895-0.08700-0.96148 0.69613
   9  -5  -7  493.96  154.64   1-0.06104 0.68717-0.28624-0.05970-0.95621 0.72402
   9  -5  -6  784.03  205.93   1-0.02888 0.66064-0.31388-0.03207-0.94902 0.75001
   9  -5  -5  116.93  109.19   1 0.00491 0.63267-0.34207-0.00363-0.93966 0.77441
   9  -5  -4   86.27  110.37   1 0.03852 0.60458-0.36963 0.02393-0.92837 0.79617
   9  -5  -3  394.56  146.04   1 0.07262 0.57601-0.39691 0.05120-0.91497 0.81583
   9  -5  -2 2524.52  304.56   1 0.10698 0.54718-0.42367 0.07797-0.89947 0.83337
   9  -5  -1  440.37  143.04   1 0.14055 0.51849-0.45080 0.10524-0.88148 0.84857
   9  -5   0  773.04  199.16   1 0.17466 0.48992-0.47594 0.13039-0.86195 0.86195
   9  -5   1  942.57  196.54   1 0.20839 0.46172-0.50004 0.15449-0.84054 0.87346
   9  -5   2 3639.48  321.78   1 0.24156 0.43409-0.52299 0.17744-0.81738 0.88321
   9  -5   3  246.46  179.35   1 0.27298 0.40726-0.54610 0.20092-0.79199 0.89093
   9  -5   418534.40  600.73   1 0.30460 0.38117-0.56650 0.22132-0.76569 0.89761
   9  -5   5  534.79  183.71   1 0.33523 0.35609-0.58549 0.24031-0.73811 0.90302
   9  -5   6  611.15  241.36   1 0.36476 0.33209-0.60305 0.25786-0.70942 0.90731
   9  -5   7 2002.85  286.72   1 0.39244 0.30963-0.62036 0.27530-0.67906 0.91012
   9  -5   8   81.54  132.81   1 0.41959 0.28802-0.63503 0.28997-0.64859 0.91266
   9  -5   9  717.40  199.59   1 0.44549 0.26766-0.64827 0.30321-0.61747 0.91456
   9  -5  10 2393.55  335.72   1 0.47012 0.24856-0.66012 0.31506-0.58585 0.91594
   9  -5  11  182.14  185.23   1 0.49259 0.23152-0.67159 0.32643-0.55345 0.91642
   9  -5  12  129.89  137.88   1 0.51468 0.21496-0.68080 0.33564-0.52116 0.91713
   9  -5  13 1626.30  316.20   1 0.53553 0.19964-0.68876 0.34360-0.48868 0.91764
   9  -6 -18  118.63  182.40   1-0.29944 0.86422-0.05847-0.35639-0.95231 0.35508
   9  -6 -17   10.55  137.05   1-0.28419 0.85457-0.07406-0.34080-0.95590 0.39184
   9  -6 -16  204.30  154.24   1-0.26754 0.84352-0.09089-0.32398-0.95924 0.42837
   9  -6 -15 1120.27  231.53   1-0.24867 0.83061-0.11017-0.30490-0.96230 0.46595
   9  -6 -14  400.96  211.33   1-0.22914 0.81662-0.12939-0.28568-0.96475 0.50149
   9  -6 -13   40.18  107.19   1-0.20815 0.80117-0.14975-0.26531-0.96656 0.53639
   9  -6 -10   94.45  113.50   1-0.13648 0.74613-0.21707-0.19800-0.96656 0.63567
   9  -6  -9 3501.38  332.54   1-0.11122 0.72609-0.24186-0.17328-0.96391 0.66539
   9  -6  -8  149.92  118.87   1-0.08323 0.70374-0.26680-0.14833-0.96014 0.69479
   9  -6  -7 5074.14  382.88   1-0.05409 0.68023-0.29226-0.12287-0.95480 0.72262
   9  -6  -6  801.07  208.78   1-0.02394 0.65570-0.31807-0.09706-0.94776 0.74875
   9  -6  -5  379.01  204.52   1 0.00775 0.62983-0.34442-0.07041-0.93878 0.77353
   9  -6  -4  780.60  178.36   1 0.03931 0.60379-0.37027-0.04456-0.92808 0.79588
   9  -6  -3  651.65  163.03   1 0.07139 0.57725-0.39593-0.01890-0.91549 0.81634
   9  -6  -2 2809.18  330.82   1 0.10380 0.55036-0.42122 0.00638-0.90099 0.83489
   9  -6  -1  690.18  199.35   1 0.13542 0.52363-0.44695 0.03229-0.88424 0.85133
   9  -6   0  278.90  199.07   1 0.16781 0.49677-0.47095 0.05629-0.86605 0.86605
   9  -6   1  403.79  205.41   1 0.19997 0.47014-0.49410 0.07944-0.84609 0.87900
   9  -6   2  227.97  149.34   1 0.23175 0.44390-0.51628 0.10162-0.82446 0.89029
   9  -6   3 7095.79  451.93   1 0.26185 0.41839-0.53874 0.12452-0.80074 0.89969
   9  -6   4  817.72  252.35   1 0.29246 0.39331-0.55876 0.14454-0.77604 0.90796
   9  -6   5  862.71  245.97   1 0.32227 0.36904-0.57756 0.16334-0.75003 0.91494
   9  -6   6  875.04  255.10   1 0.35119 0.34566-0.59508 0.18086-0.72287 0.92076
   9  -6   7 4381.19  418.71   1 0.37836 0.32371-0.61247 0.19839-0.69405 0.92512
   9  -6   8  915.78  240.07   1 0.40525 0.30235-0.62738 0.21331-0.66494 0.92901
   9  -6   9 4139.99  404.79   1 0.43105 0.28210-0.64098 0.22691-0.63508 0.93216
   9  -6  10  418.86  183.79   1 0.45572 0.26296-0.65328 0.23921-0.60458 0.93467
   9  -6  11  470.42  174.40   1 0.47831 0.24579-0.66526 0.25107-0.57326 0.93624
   9  -7 -16   65.74  148.57   1-0.24511 0.82151-0.11370-0.37055-0.96280 0.43336
   9  -7 -15  142.94  150.68   1-0.22770 0.80964-0.13080-0.35345-0.96490 0.46856
   9  -7 -13  125.91  131.43   1-0.18888 0.78190-0.16818-0.31607-0.96748 0.53732
   9  -7 -12  151.70  130.46   1-0.16747 0.76604-0.18837-0.29588-0.96771 0.57063
   9  -7 -11  910.24  226.00   1-0.14476 0.74887-0.20946-0.27479-0.96704 0.60305
   9  -7 -10   25.22  131.08   1-0.12228 0.73153-0.23187-0.25246-0.96503 0.63334
   9  -7  -9   67.33  138.21   1-0.09700 0.71188-0.25459-0.22974-0.96217 0.66365
   9  -7  -8 2416.45  363.25   1-0.07059 0.69109-0.27791-0.20641-0.95800 0.69265
   9  -7  -7 5699.49  437.01   1-0.04312 0.66925-0.30172-0.18261-0.95241 0.72023
   9  -7  -6   87.77  148.01   1-0.01471 0.64647-0.32586-0.15847-0.94530 0.74629
   9  -7  -5 3367.74  326.68   1 0.01512 0.62246-0.35051-0.13346-0.93643 0.77118
   9  -7  -4  260.26  208.94   1 0.04486 0.59824-0.37476-0.10921-0.92603 0.79383
   9  -7  -3 5477.27  420.67   1 0.07513 0.57351-0.39888-0.08509-0.91391 0.81476
   9  -7  -2 1727.68  250.28   1 0.10576 0.54841-0.42273-0.06125-0.90006 0.83396
   9  -7  -1  -15.80  151.33   1 0.13557 0.52347-0.44707-0.03670-0.88416 0.85125
   9  -7   0   98.76  140.47   1 0.16633 0.49825-0.46987-0.01389-0.86692 0.86692
   9  -7   1 3811.68  380.77   1 0.19698 0.47314-0.49197 0.00820-0.84803 0.88094
   9  -7   2   49.55  138.39   1 0.22736 0.44830-0.51326 0.02949-0.82756 0.89339
   9  -7   3 2236.96  360.97   1 0.25609 0.42415-0.53489 0.05163-0.80517 0.90411
   9  -7   4   98.54  142.29   1 0.28560 0.40017-0.55434 0.07108-0.78175 0.91367
   9  -7   5 5128.16  443.79   1 0.31447 0.37684-0.57271 0.08945-0.75703 0.92194
   9  -7   6  227.20  150.92   1 0.34260 0.35425-0.58995 0.10669-0.73115 0.92904
   9  -7   7    2.26  126.95   1 0.36907 0.33300-0.60715 0.12406-0.70366 0.93472
   9  -7   8 4959.18  667.38   1 0.39549 0.31212-0.62205 0.13896-0.67574 0.93982
   9  -7   9 2776.97  447.90   1 0.42095 0.29220-0.63574 0.15265-0.64701 0.94409
   9  -8 -13 1093.95  278.40   1-0.16720 0.76023-0.18862-0.36481-0.96770 0.53754
   9  -8 -12 1617.16  320.37   1-0.14672 0.74529-0.20765-0.34578-0.96713 0.57005
   9  -8 -11  -21.72  122.74   1-0.12665 0.73027-0.22789-0.32562-0.96541 0.60055
   9  -8 -10 1116.58  257.00   1-0.10376 0.71301-0.24855-0.30496-0.96304 0.63135
   9  -8  -9  117.30  150.10   1-0.07976 0.69464-0.26986-0.28365-0.95958 0.66106
   9  -8  -8  228.96  199.51   1-0.05472 0.67522-0.29172-0.26179-0.95493 0.68958
   9  -8  -7  652.99  204.97   1-0.02872 0.65485-0.31402-0.23950-0.94898 0.71680
   9  -8  -6  604.83  219.95   1-0.00115 0.63320-0.33701-0.21610-0.94149 0.74319
   9  -8  -5  699.77  233.43   1 0.02633 0.61125-0.35971-0.19340-0.93268 0.76744
   9  -8  -4 2258.96  370.04   1 0.05445 0.58865-0.38246-0.17065-0.92236 0.79016
   9  -8  -3  580.91  190.67   1 0.08308 0.56555-0.40513-0.14798-0.91047 0.81132
   9  -8  -2   20.15  132.95   1 0.11209 0.54207-0.42758-0.12553-0.89699 0.83089
   9  -8  -1  531.31  219.10   1 0.14024 0.51881-0.45056-0.10231-0.88165 0.84874
   9  -8   0   11.67  128.94   1 0.16946 0.49511-0.47216-0.08071-0.86506 0.86506
   9  -8   1  -48.73  140.65   1 0.19866 0.47146-0.49316-0.05971-0.84694 0.87986
   9  -8   2   25.66  144.18   1 0.22767 0.44798-0.51348-0.03939-0.82734 0.89317
   9  -8   3  961.70  250.29   1 0.25504 0.42520-0.53419-0.01810-0.80597 0.90491
   9  -8   4 1081.79  249.62   1 0.28341 0.40236-0.55292 0.00062-0.78355 0.91547
   9  -8   5 2922.24  389.83   1 0.31126 0.38005-0.57070 0.01841-0.75987 0.92478
   9  -8   6  297.74  151.41   1 0.33850 0.35835-0.58748 0.03519-0.73503 0.93292
   9  -9  -8  117.32  144.46   1-0.03602 0.65652-0.30780-0.31491-0.95076 0.68541
   9  -9  -7  705.50  202.52   1-0.01132 0.63746-0.32870-0.29400-0.94436 0.71218
   9  -9  -6  605.09  227.90   1 0.01479 0.61725-0.35024-0.27201-0.93654 0.73824
   9  -9  -5  409.91  146.82   1 0.04086 0.59672-0.37153-0.25073-0.92752 0.76227
   9  -9  -4 1131.80  265.99   1 0.06752 0.57558-0.39287-0.22938-0.91710 0.78490
   9  -9  -3  134.11   86.81   1 0.09467 0.55396-0.41416-0.20809-0.90526 0.80611
   9  -9  -2  162.34  134.16   1 0.12219 0.53197-0.43528-0.18697-0.89195 0.82586
   9  -9  -1   94.00  133.84   1 0.14880 0.51024-0.45695-0.16503-0.87695 0.84404
   9  -9   0  135.21  131.11   1 0.17660 0.48798-0.47734-0.14464-0.86078 0.86078
   9  -9   1  -62.82  120.82   1 0.20441 0.46571-0.49724-0.12474-0.84318 0.87609
   9  -9   2   22.58  125.83   1 0.23212 0.44354-0.51653-0.10545-0.82420 0.89002
  10   0 -15  -14.33   74.39   1-0.21536 0.87120-0.14279 0.14279-0.96603 0.46969
  10   0 -14  976.96  171.15   1-0.18481 0.84619-0.17205 0.17205-0.96759 0.50434
  10   0 -13   43.96  129.97   1-0.15175 0.81867-0.20301 0.20301-0.96734 0.53718
  10   0 -12 3453.14  277.56   1-0.11751 0.78945-0.23619 0.23619-0.96457 0.56655
  10   0 -11 -104.80   93.63   1-0.07969 0.75726-0.26993 0.26993-0.95957 0.59472
  10   0 -10  427.03  125.50   1-0.03992 0.72311-0.30447 0.30447-0.95168 0.61999
  10   0  -9  -23.14   93.46   1 0.00319 0.68618-0.34064 0.34064-0.94018 0.64273
  10   0  -8   99.98  132.00   1 0.04550 0.64940-0.37528 0.37528-0.92579 0.66139
  10   0  -7  -71.76   98.31   1 0.08849 0.61193-0.40936 0.40936-0.90806 0.67672
  10   0  -6 3496.48  265.92   1 0.13214 0.57306-0.44449 0.44449-0.88598 0.68849
  10   0  -5  -29.52   99.99   1 0.17487 0.53587-0.47609 0.47609-0.86183 0.69726
  10   0  -4  124.71  150.06   1 0.21678 0.49949-0.50592 0.50592-0.83489 0.70323
  10   0  -3  -82.27   99.97   1 0.25669 0.46405-0.53529 0.53529-0.80471 0.70576
  10   0  -2 1239.88  194.71   1 0.29592 0.43036-0.56098 0.56098-0.77312 0.70716
  10   0  -1  -26.09  106.59   1 0.33331 0.39851-0.58433 0.58433-0.73990 0.70692
  10   0   0  687.74  148.71   1 0.36850 0.36850-0.60682 0.60682-0.70424 0.70424
  10   0   1  390.65  171.65   1 0.40174 0.34081-0.62547 0.62547-0.66886 0.70187
  10   0   214239.00  466.58   1 0.43281 0.31527-0.64188 0.64188-0.63296 0.69898
  10   0   3   26.77   46.37   1 0.46174 0.29188-0.65617 0.65617-0.59684 0.69586
  10   0   4   90.81   98.18   1 0.48831 0.27080-0.66972 0.66972-0.55948 0.69147
  10   0   5   16.82   97.56   1 0.51308 0.25155-0.68016 0.68016-0.52355 0.68854
  10   0   6 5294.56  619.77   1 0.53597 0.23419-0.68892 0.68892-0.48797 0.68595
  10   0   7  -91.51  107.36   1 0.55707 0.21862-0.69614 0.69614-0.45281 0.68380
  10   0   8  211.87  167.53   1 0.57615 0.20505-0.70289 0.70289-0.41710 0.68109
  10   0   9   97.60  148.08   1 0.59401 0.19274-0.70741 0.70741-0.38302 0.68000
  10   0  10  444.71  172.58   1 0.61044 0.18188-0.71077 0.71077-0.34951 0.67949
  10   0  11  -11.83  106.05   1 0.62553 0.17235-0.71307 0.71307-0.31659 0.67957
  10   0  12   84.99  112.56   1 0.63939 0.16405-0.71441 0.71441-0.28424 0.68022
  10   0  13  -57.00  109.48   1 0.65205 0.15887-0.71596 0.71596-0.24942 0.67981
  10  -1 -18  126.59  101.36   1-0.29572 0.93445-0.06229-0.00685-0.95323 0.35600
  10  -1 -17  -21.29   93.43   1-0.27474 0.91907-0.08364 0.01449-0.95787 0.39382
  10  -1 -16    5.96   93.39   1-0.25043 0.90072-0.10843 0.03925-0.96204 0.43260
  10  -1 -15  248.42  116.36   1-0.22512 0.88096-0.13331 0.06413-0.96516 0.46882
  10  -1 -14   13.20   81.61   1-0.19760 0.85898-0.15987 0.09069-0.96715 0.50390
  10  -1 -13   80.68   84.87   1-0.16790 0.83482-0.18797 0.11879-0.96771 0.53755
  10  -1 -12   -2.75   79.54   1-0.13737 0.80931-0.21811 0.14891-0.96620 0.56818
  10  -1 -11  241.45  119.27   1-0.10341 0.78098-0.24886 0.17967-0.96300 0.59814
  10  -1 -10   11.31   78.31   1-0.06763 0.75082-0.28050 0.21131-0.95746 0.62577
  10  -1  -9 2563.94  264.81   1-0.03026 0.71909-0.31270 0.24351-0.94936 0.65084
  10  -1  -8 2307.65  250.20   1 0.00981 0.68509-0.34613 0.27699-0.93813 0.67373
  10  -1  -7  611.84  154.85   1 0.04917 0.65125-0.37823 0.30909-0.92440 0.69305
  10   1  -7  650.70  138.79   1 0.14710 0.55256-0.45568 0.52479-0.87789 0.64750
  10  -1  -6  404.45  143.48   1 0.08908 0.61687-0.40982 0.34068-0.90780 0.70950
  10   1  -6  455.22  120.01   1 0.19350 0.51169-0.48950 0.55861-0.85025 0.65277
  10  -1  -5   93.09  123.98   1 0.12928 0.58146-0.44232 0.37321-0.88748 0.72291
  10   1  -5   37.41   44.57   1 0.23870 0.47204-0.52104 0.59015-0.81947 0.65490
  10  -1  -4 3343.64  272.92   1 0.16899 0.54728-0.47181 0.40270-0.86534 0.73369
  10   1  -4 3324.35  254.35   1 0.28154 0.43366-0.55170 0.62074-0.78508 0.65315
  10  -1  -3   46.51   87.16   1 0.20810 0.51371-0.49984 0.43073-0.84074 0.74200
  10   1  -3   54.18   94.54   1 0.32295 0.39779-0.57797 0.64701-0.74942 0.65048
  10  -1  -2 1236.28  219.61   1 0.24628 0.48107-0.52619 0.45708-0.81392 0.74809
  10   1  -2 1253.06  166.58   1 0.36189 0.36439-0.60137 0.67041-0.71230 0.64634
  10  -1  -1 2155.50  220.78   1 0.28246 0.44936-0.55230 0.48326-0.78433 0.75134
  10   1  -1 1783.03  283.61   1 0.39820 0.33326-0.62354 0.69255-0.67277 0.63976
  10  -1   0 2735.45  255.28   1 0.31808 0.41928-0.57496 0.50592-0.75381 0.75381
  10   1   0 2371.35  226.24   1 0.43179 0.30522-0.64136 0.71037-0.63419 0.63419
  10  -1   110280.09  429.93   1 0.35209 0.39080-0.59561 0.52658-0.72198 0.75497
  10   1   1 8499.50  680.85   1 0.46272 0.27983-0.65664 0.72565-0.59557 0.62858
  10  -1   2  140.55  129.29   1 0.38406 0.36402-0.61569 0.54667-0.68805 0.75407
  10   1   2  254.08  157.73   1 0.49105 0.25699-0.67092 0.73996-0.55562 0.62161
  10  -1   3 2330.98  333.37   1 0.41456 0.33906-0.63237 0.56336-0.65440 0.75343
  10   1   3 2671.95  268.16   1 0.51691 0.23666-0.68169 0.75072-0.51777 0.61676
  10  -1   4 5432.68  378.17   1 0.44324 0.31591-0.64715 0.57814-0.62025 0.75229
  10   1   4 5155.26  330.39   1 0.54052 0.21858-0.69055 0.75958-0.48058 0.61257
  10  -1   5  657.64  187.48   1 0.47014 0.29456-0.66013 0.59111-0.58582 0.75087
  10   1   5  361.00  130.20   1 0.56206 0.20257-0.69772 0.76675-0.44415 0.60914
  10  -1   6  426.04  165.21   1 0.49480 0.27536-0.67255 0.60352-0.55030 0.74828
  10   1   6  217.84  107.48   1 0.58147 0.18861-0.70432 0.77341-0.40720 0.60519
  10  -1   7  283.46  192.61   1 0.51819 0.25750-0.68219 0.61316-0.51582 0.74680
  10   1   7    9.41   98.25   1 0.59932 0.17632-0.70858 0.77767-0.37244 0.60343
  10  -1   8 2108.08  288.02   1 0.53996 0.24126-0.69035 0.62132-0.48150 0.74548
  10   1   8 1860.53  237.46   1 0.61559 0.16561-0.71164 0.78073-0.33852 0.60251
  10  -1   9  413.23  188.66   1 0.56018 0.22657-0.69713 0.62810-0.44743 0.74441
  10   1   9  376.77  155.36   1 0.63042 0.15634-0.71363 0.78272-0.30542 0.60241
  10  -1  10 2928.61  322.74   1 0.57847 0.21385-0.70352 0.63444-0.41281 0.74279
  10   1  10 3096.18  336.48   1 0.64402 0.15008-0.71578 0.78501-0.26995 0.60102
  10  -1  11   23.02  109.66   1 0.59582 0.20205-0.70782 0.63873-0.37943 0.74241
  10   1  11   26.81  103.02   1 0.65625 0.14346-0.71592 0.78514-0.23828 0.60246
  10  -1  12  194.72  122.06   1 0.61188 0.19156-0.71102 0.64194-0.34645 0.74243
  10   1  12  464.56  173.26   1 0.66739 0.13792-0.71526 0.78448-0.20732 0.60461
  10  -1  13   -5.91  114.35   1 0.62672 0.18228-0.71322 0.64413-0.31389 0.74287
  10   1  13  -39.13  111.41   1 0.67752 0.13340-0.71388 0.78310-0.17701 0.60741
  10  -2 -19  249.46  155.52   1-0.31022 0.94335-0.04734-0.09094-0.94948 0.31907
  10  -2 -18 3275.15  363.28   1-0.29262 0.93135-0.06546-0.07282-0.95398 0.35675
  10  -2 -17  648.59  195.96   1-0.27319 0.91752-0.08520-0.05308-0.95817 0.39412
  10  -2 -16   70.28   95.69   1-0.25080 0.90109-0.10806-0.03029-0.96198 0.43255
  10  -2 -15   -8.55  107.76   1-0.22755 0.88339-0.13094-0.00741-0.96492 0.46857
  10  -2 -14  231.85  153.87   1-0.20235 0.86373-0.15532 0.01696-0.96691 0.50365
  10  -2 -13  180.29  107.54   1-0.17521 0.84213-0.18110 0.04274-0.96772 0.53756
  10  -2 -12  175.68  159.40   1-0.14618 0.81865-0.20815 0.06979-0.96710 0.57003
  10  -2 -10 4863.03  338.11   1-0.08398 0.76717-0.26614 0.12776-0.96026 0.62857
  10  -2  -9   22.37  106.55   1-0.04985 0.73867-0.29593 0.15755-0.95390 0.65538
  10  -2  -8 1219.51  216.37   1-0.01444 0.70889-0.32609 0.18771-0.94522 0.67987
  10  -2  -7  418.65  167.38   1 0.02315 0.67728-0.35711 0.21883-0.93377 0.70242
  10  -2  -6 4516.09  336.79   1 0.06012 0.64584-0.38699 0.24871-0.92011 0.72182
  10  -2  -5  161.29  114.49   1 0.09750 0.61399-0.41636 0.27808-0.90395 0.73870
  10  -2  -4  369.14  150.39   1 0.13482 0.58145-0.44650 0.30828-0.88456 0.75290
  10  -2  -3   67.34   99.81   1 0.17199 0.54982-0.47400 0.33578-0.86355 0.76481
  10  -2  -2 1419.50  219.51   1 0.20867 0.51868-0.50024 0.36202-0.84036 0.77453
  10  -2  -1   37.80  102.38   1 0.24459 0.48830-0.52504 0.38682-0.81517 0.78225
  10  -2   0 1468.82  241.06   1 0.27865 0.45871-0.54982 0.41174-0.78743 0.78743
  10  -2   1  612.95  144.02   1 0.31249 0.43041-0.57147 0.43339-0.75879 0.79177
  10  -2   2   94.07  107.50   1 0.34500 0.40344-0.59139 0.45331-0.72885 0.79481
  10  -2   3 4360.49  360.54   1 0.37564 0.37798-0.61092 0.47289-0.69689 0.79592
  10  -2   4  301.64  145.31   1 0.40521 0.35395-0.62735 0.48933-0.66499 0.79703
  10   2   4   79.29  133.55   1 0.59778 0.16118-0.70825 0.84642-0.37553 0.50752
  10  -2   5 4596.90  477.16   1 0.43323 0.33147-0.64209 0.50407-0.63247 0.79751
  10  -2   6  458.76  161.58   1 0.45969 0.31054-0.65519 0.51717-0.59949 0.79755
  10   2   6  392.10  132.68   1 0.62981 0.14027-0.71357 0.85174-0.30684 0.50483
  10  -2   7  314.95  141.66   1 0.48403 0.29166-0.66783 0.52976-0.56543 0.79641
  10   2   7  504.11  197.82   1 0.64372 0.13357-0.71577 0.85422-0.27070 0.50245
  10  -2   8  248.14  154.68   1 0.50739 0.27383-0.67785 0.53978-0.53203 0.79601
  10   2   8   84.34  103.12   1 0.65597 0.12693-0.71592 0.85437-0.23905 0.50391
  10  -2   9   17.33  106.45   1 0.52929 0.25746-0.68646 0.54839-0.49861 0.79559
  10   2   9  217.97  162.14   1 0.66703 0.12147-0.71529 0.85374-0.20835 0.50632
  10  -2  10  648.27  204.33   1 0.54977 0.24251-0.69374 0.55568-0.46526 0.79523
  10   2  10  547.25  189.03   1 0.67703 0.11707-0.71396 0.85241-0.17852 0.50959
  10  -2  11  595.75  217.55   1 0.56835 0.22953-0.70067 0.56250-0.43131 0.79429
  10   2  11  422.10  159.85   1 0.68608 0.11363-0.71200 0.85045-0.14945 0.51363
  10  -2  12  432.94  187.67   1 0.58615 0.21728-0.70553 0.56735-0.39830 0.79428
  10  -3 -19   95.73  121.61   1-0.30167 0.93480-0.05618-0.15125-0.95175 0.32134
  10  -3 -18    4.60  107.07   1-0.28510 0.92383-0.07314-0.13429-0.95570 0.35847
  10  -3 -17   69.99  110.45   1-0.26688 0.91120-0.09156-0.11587-0.95937 0.39531
  10  -3 -16  801.41  212.52   1-0.24598 0.89628-0.11283-0.09470-0.96268 0.43324
  10  -3 -15  181.53  146.33   1-0.22435 0.88019-0.13406-0.07347-0.96524 0.46889
  10  -3 -14 1110.80  242.10   1-0.20097 0.86235-0.15664-0.05089-0.96698 0.50373
  10  -3 -13  569.87  168.60   1-0.17587 0.84279-0.18049-0.02704-0.96772 0.53755
  10  -3 -12  181.86  158.53   1-0.14906 0.82152-0.20549-0.00204-0.96723 0.57016
  10  -3 -11  204.30  161.86   1-0.12194 0.79951-0.23217 0.02460-0.96499 0.60014
  10  -3 -10 1696.11  253.08   1-0.09187 0.77506-0.25916 0.05159-0.96145 0.62976
  10  -3  -9  344.55  151.25   1-0.06039 0.74922-0.28681 0.07923-0.95608 0.65756
  10  -3  -8  497.93  180.98   1-0.02768 0.72213-0.31490 0.10733-0.94872 0.68337
  10  -3  -7   44.28  100.63   1 0.00715 0.69328-0.34393 0.13650-0.93896 0.70761
  10  -3  -6  151.81  150.44   1 0.04152 0.66444-0.37206 0.16464-0.92727 0.72897
  10  -3  -5  660.65  138.31   1 0.07645 0.63504-0.39992 0.19250-0.91335 0.74810
  10  -3  -4 6003.70  353.80   1 0.11168 0.60534-0.42727 0.21985-0.89719 0.76499
  10  -3  -3  322.96  156.53   1 0.14653 0.57528-0.45526 0.24793-0.87821 0.77947
  10  -3  -2  258.51  156.43   1 0.18149 0.54585-0.48088 0.27355-0.85779 0.79196
  10  -3  -1 1980.70  263.29   1 0.21602 0.51687-0.50539 0.29806-0.83541 0.80249
  10  -3   0   65.11  102.45   1 0.24888 0.48847-0.53004 0.32293-0.81061 0.81061
  10  -3   1  951.68  236.79   1 0.28200 0.46090-0.55200 0.34489-0.78470 0.81769
  10  -3   2 2555.60  312.74   1 0.31411 0.43432-0.57248 0.36537-0.75735 0.82332
  10  -3   3 2304.21  295.44   1 0.34509 0.40888-0.59145 0.38434-0.72876 0.82770
  10  -3   4 3768.28  338.02   1 0.37433 0.38483-0.61017 0.40313-0.69825 0.83029
  10  -3   5  287.26  168.21   1 0.40279 0.36190-0.62605 0.41901-0.66769 0.83273
  10  -3   6 2048.66  298.93   1 0.42992 0.34032-0.64040 0.43336-0.63643 0.83449
  10  -3   7  546.70  217.09   1 0.45567 0.32010-0.65326 0.44622-0.60464 0.83571
  10  -3   8 8194.44 1011.20   1 0.47939 0.30183-0.66574 0.45865-0.57180 0.83578
  10  -3   9  -37.85  117.82   1 0.50239 0.28435-0.67577 0.46868-0.53937 0.83634
  10  -3  10  235.19  176.80   1 0.52407 0.26821-0.68448 0.47738-0.50678 0.83675
  10  -3  11 1040.54  242.84   1 0.54445 0.25336-0.69193 0.48483-0.47413 0.83710
  10  -3  12  846.56  254.99   1 0.56357 0.23976-0.69818 0.49109-0.44148 0.83745
  10  -4 -18 1237.90  254.40   1-0.27391 0.91264-0.08448-0.19209-0.95803 0.36080
  10  -4 -17  -54.49  119.99   1-0.25575 0.90050-0.10314-0.17357-0.96122 0.39870
  10  -4 -16 1007.56  239.76   1-0.23697 0.88727-0.12172-0.15499-0.96386 0.43442
  10  -4 -15  437.08  165.80   1-0.21664 0.87247-0.14156-0.13515-0.96593 0.46958
  10  -4 -14   43.41  104.13   1-0.19473 0.85611-0.16261-0.11410-0.96728 0.50402
  10  -4 -13  374.40  192.85   1-0.17127 0.83819-0.18481-0.09190-0.96773 0.53756
  10  -4 -12  720.56  188.44   1-0.14628 0.81874-0.20806-0.06865-0.96711 0.57003
  10  -4 -11  206.17  153.51   1-0.12117 0.79874-0.23287-0.04388-0.96492 0.60007
  10  -4 -10  762.65  206.76   1-0.09320 0.77640-0.25797-0.01878-0.96164 0.62995
  10  -4  -9 1144.75  226.46   1-0.06393 0.75276-0.28372 0.00696-0.95677 0.65825
  10  -4  -8  654.57  193.06   1-0.03350 0.72796-0.30994 0.03318-0.95016 0.68481
  10  -4  -7   68.20  110.34   1-0.00104 0.70147-0.33711 0.06055-0.94146 0.71011
  10  -4  -6 1373.24  225.70   1 0.03105 0.67491-0.36357 0.08701-0.93104 0.73274
  10  -4  -5  403.19  140.07   1 0.06377 0.64772-0.38990 0.11333-0.91864 0.75339
  10  -4  -4  615.08  150.41   1 0.09690 0.62012-0.41589 0.13933-0.90423 0.77203
  10  -4  -3 1751.50  255.34   1 0.12970 0.59211-0.44264 0.16620-0.88726 0.78852
  10  -4  -2  269.60  132.57   1 0.16291 0.56443-0.46737 0.19093-0.86891 0.80309
  10  -4  -1 1396.43  238.55   1 0.19592 0.53697-0.49122 0.21478-0.84871 0.81579
  10  -4   010811.09  491.46   1 0.22851 0.50991-0.51405 0.23761-0.82675 0.82675
  10  -4   1  412.65  183.18   1 0.25947 0.48343-0.53715 0.26100-0.80258 0.83556
  10  -4   2   58.28  119.05   1 0.29081 0.45762-0.55770 0.28156-0.77742 0.84338
  10  -4   3  186.36  184.58   1 0.32128 0.43269-0.57694 0.30080-0.75093 0.84987
  10  -4   4   81.00  134.83   1 0.35077 0.40874-0.59483 0.31868-0.72327 0.85520
  10  -4   5 1523.16  256.01   1 0.37859 0.38611-0.61260 0.33655-0.69382 0.85886
  10  -4   6  116.08  139.76   1 0.40588 0.36436-0.62772 0.35167-0.66424 0.86230
  10  -4   7  361.18  196.03   1 0.43198 0.34379-0.64146 0.36541-0.63396 0.86503
  10  -4   8  449.43  209.59   1 0.45688 0.32443-0.65384 0.37779-0.60311 0.86718
  10  -4   9 3101.37  449.70   1 0.47979 0.30696-0.66593 0.38980-0.57125 0.86823
  10  -4  10 2957.15  383.38   1 0.50222 0.29006-0.67570 0.39957-0.53962 0.86959
  10  -4  11   -1.12  123.91   1 0.52344 0.27436-0.68424 0.40811-0.50775 0.87072
  10  -5 -16  516.33  207.33   1-0.22444 0.87474-0.13398-0.21191-0.96523 0.43579
  10  -5 -15  470.48  191.97   1-0.20518 0.86102-0.15261-0.19328-0.96675 0.47040
  10  -5 -14   78.77  120.67   1-0.18450 0.84587-0.17234-0.17355-0.96760 0.50434
  10  -5 -13   -8.34  121.19   1-0.16240 0.82932-0.19311-0.15278-0.96764 0.53747
  10  -5 -12 -106.99  120.08   1-0.13891 0.81137-0.21484-0.13105-0.96671 0.56964
  10  -5 -11  799.95  193.09   1-0.11548 0.79305-0.23802-0.10793-0.96437 0.59951
  10  -5 -10   -5.94  118.48   1-0.08928 0.77248-0.26145-0.08449-0.96107 0.62939
  10  -5  -9  121.17  128.63   1-0.06188 0.75071-0.28551-0.06044-0.95637 0.65785
  10  -5  -8 1105.62  221.55   1-0.03340 0.72785-0.31003-0.03591-0.95013 0.68478
  10  -5  -7  592.93  208.04   1-0.00299 0.70342-0.33548-0.01021-0.94204 0.71069
  10  -5  -6 3902.92  311.74   1 0.02710 0.67885-0.36035 0.01465-0.93242 0.73412
  10  -5  -5 2622.22  410.28   1 0.05785 0.65364-0.38518 0.03948-0.92102 0.75577
  10  -5  -4  680.14  197.03   1 0.08907 0.62794-0.40981 0.06411-0.90780 0.77560
  10  -5  -3  159.36  185.20   1 0.12059 0.60196-0.43407 0.08836-0.89277 0.79362
  10  -5  -2 1413.20  234.89   1 0.15147 0.57587-0.45893 0.11338-0.87546 0.80963
  10  -5  -1 4031.41  376.78   1 0.18294 0.54995-0.48192 0.13637-0.85689 0.82398
  10  -5   0 4786.00  397.63   1 0.21417 0.52425-0.50409 0.15854-0.83666 0.83666
  10  -5   1   88.93   67.93   1 0.24501 0.49895-0.52533 0.17978-0.81485 0.84777
  10  -5   3   77.83  128.18   1 0.30390 0.45007-0.56606 0.22088-0.76629 0.86524
  10  -5   4  287.70  152.02   1 0.33282 0.42669-0.58403 0.23885-0.74035 0.87228
  10  -5   5 2250.05  346.59   1 0.36086 0.40419-0.60078 0.25559-0.71332 0.87823
  10  -5   6 4895.46  672.38   1 0.38728 0.38295-0.61749 0.27243-0.68462 0.88267
  10  -5   7 1387.26  258.36   1 0.41336 0.36241-0.63173 0.28667-0.65576 0.88683
  10  -5   8  660.72  223.63   1 0.43839 0.34292-0.64472 0.29965-0.62621 0.89028
  10  -5   9 1145.84  304.28   1 0.46234 0.32451-0.65646 0.31139-0.59606 0.89315
  10  -6 -15  891.54  236.67   1-0.19053 0.84636-0.16662-0.24845-0.96743 0.47109
  10  -6 -14  185.16  184.76   1-0.17087 0.83225-0.18518-0.22989-0.96773 0.50447
  10  -6 -10  313.01  143.50   1-0.08103 0.76423-0.26875-0.14639-0.95979 0.62810
  10  -6  -9  248.15  191.32   1-0.05524 0.74406-0.29128-0.12386-0.95504 0.65652
  10  -6  -8  671.02  210.19   1-0.02843 0.72288-0.31426-0.10087-0.94890 0.68356
  10  -6  -7  -63.97  124.12   1 0.00017 0.70026-0.33812-0.07671-0.94109 0.70975
  10  -6  -6 2657.32  307.11   1 0.02851 0.67744-0.36150-0.05333-0.93193 0.73363
  10  -6  -5  -18.93  110.05   1 0.05750 0.65398-0.38491-0.02993-0.92116 0.75591
  10  -6  -4   -0.31  111.06   1 0.08699 0.63003-0.40819-0.00664-0.90874 0.77654
  10  -6  -3  967.21  214.22   1 0.11683 0.60572-0.43120 0.01636-0.89465 0.79550
  10  -6  -2  265.56  121.72   1 0.14602 0.58133-0.45488 0.04022-0.87849 0.81266
  10  -6  -1  622.02  196.22   1 0.17599 0.55690-0.47690 0.06224-0.86115 0.82824
  10  -6   0 1172.15  219.76   1 0.20584 0.53258-0.49825 0.08359-0.84223 0.84223
  10  -6   1  232.61  128.22   1 0.23545 0.50851-0.51882 0.10416-0.82181 0.85473
  10  -6   2  -68.93  114.01   1 0.26346 0.48498-0.53981 0.12559-0.79949 0.86545
  10  -6   3  229.06  177.83   1 0.29223 0.46174-0.55861 0.14440-0.77623 0.87518
  10  -6   4 1747.72  291.91   1 0.32039 0.43912-0.57639 0.16217-0.75174 0.88366
  10  -6   5   11.59  129.81   1 0.34783 0.41721-0.59308 0.17886-0.72612 0.89103
  10  -6   6  147.65  143.38   1 0.37374 0.39649-0.60983 0.19576-0.69886 0.89692
  10  -6   7 3237.88  413.31   1 0.39954 0.37623-0.62427 0.21020-0.67129 0.90236
  10  -7 -11   99.36  156.11   1-0.09250 0.77006-0.25860-0.22573-0.96154 0.59668
  10  -7 -10 1115.59  283.57   1-0.06911 0.75231-0.27920-0.20512-0.95773 0.62605
  10  -7  -9 1437.71  279.44   1-0.04472 0.73354-0.30035-0.18398-0.95277 0.65426
  10  -7  -8  899.22  254.17   1-0.01938 0.71384-0.32192-0.16240-0.94656 0.68121
  10  -7  -7 3272.75  358.46   1 0.00763 0.69280-0.34432-0.13965-0.93881 0.70747
  10  -7  -6  -70.16  128.01   1 0.03441 0.67154-0.36630-0.11767-0.92985 0.73155
  10  -7  -5   52.49  131.10   1 0.06183 0.64966-0.38835-0.09562-0.91943 0.75418
  10  -7  -4  -71.34  119.88   1 0.08974 0.62727-0.41034-0.07364-0.90750 0.77530
  10  -7  -3  308.95  191.31   1 0.11804 0.60451-0.43212-0.05185-0.89405 0.79490
  10  -7  -2 1164.35  284.02   1 0.14565 0.58170-0.45460-0.02916-0.87870 0.81287
  10  -7  -1 2768.66  346.04   1 0.17419 0.55870-0.47560-0.00817-0.86224 0.82932
  10  -7   0  775.77  252.98   1 0.20271 0.53572-0.49604 0.01226-0.84430 0.84430
  10  -7   1  312.77  187.39   1 0.23107 0.51288-0.51582 0.03205-0.82494 0.85785
  10  -7   2 1002.58  282.62   1 0.25785 0.49058-0.53607 0.05281-0.80382 0.86978
  10  -7   3   35.28  133.83   1 0.28562 0.46835-0.55435 0.07110-0.78173 0.88067
  10  -7   4 -119.38  141.02   1 0.31291 0.44660-0.57173 0.08848-0.75841 0.89034
  10  -7   5 2046.29  339.69   1 0.33962 0.42543-0.58815 0.10490-0.73398 0.89888
  10  -8  -7  133.00  151.40   1 0.01875 0.68167-0.35350-0.19961-0.93524 0.70389
  10  -8  -6  293.48  160.69   1 0.04415 0.66181-0.37419-0.17893-0.92629 0.72800
  10  -8  -5  988.87  247.87   1 0.07014 0.64134-0.39495-0.15816-0.91601 0.75076
  10  -8  -4 -104.87  127.24   1 0.09663 0.62038-0.41569-0.13743-0.90435 0.77215
  10  -8  -3  356.97  196.09   1 0.12351 0.59904-0.43628-0.11684-0.89129 0.79214
  10  -8  -2  185.88  145.50   1 0.14964 0.57771-0.45757-0.09530-0.87648 0.81065
  10  -8  -1   -1.79  134.30   1 0.17684 0.55605-0.47752-0.07535-0.86063 0.82772
  10  -8   0  163.98  195.45   1 0.20407 0.53435-0.49700-0.05587-0.84340 0.84340
  11   0  -6  253.23  161.53   1 0.20009 0.57895-0.49418 0.49418-0.84601 0.64852
  11   0  -5  243.96  164.68   1 0.23748 0.54710-0.52020 0.52020-0.82035 0.65578
  11   0  -4    3.08   98.78   1 0.27308 0.51586-0.54617 0.54617-0.79191 0.65998
  11   0  -3   37.56  102.05   1 0.30846 0.48602-0.56894 0.56894-0.76233 0.66339
  11   0  -2 2798.72  257.98   1 0.34243 0.45759-0.58985 0.58985-0.73130 0.66534
  11   0  -1  129.24  101.08   1 0.37465 0.43052-0.61035 0.61035-0.69792 0.66491
  11   0   0 8115.57  525.67   1 0.40535 0.40535-0.62743 0.62743-0.66483 0.66483
  11   0   2 3703.06  463.12   1 0.46151 0.36027-0.65607 0.65607-0.59713 0.66315
  11   0   3  221.76  153.11   1 0.48676 0.34051-0.66904 0.66904-0.56163 0.66062
  11   0   4 1606.73  228.34   1 0.51046 0.32234-0.67910 0.67910-0.52748 0.65947
  11   0   5   38.09  108.57   1 0.53252 0.30581-0.68766 0.68766-0.49349 0.65847
  11   0   6  904.19  204.70   1 0.55302 0.29084-0.69482 0.69482-0.45975 0.65773
  11   0   7  -31.41  100.62   1 0.57172 0.27759-0.70165 0.70164-0.42523 0.65622
  11   0   8  377.33  161.43   1 0.58931 0.26556-0.70630 0.70630-0.39221 0.65620
  11   0   9   84.88  114.33   1 0.60560 0.25483-0.70986 0.70986-0.35962 0.65661
  11  -1 -13   33.07   88.07   1-0.08528 0.82554-0.26499 0.19580-0.96046 0.52927
  11  -1 -12   46.46   81.28   1-0.05427 0.80016-0.29211 0.22292-0.95484 0.55681
  11  -1 -11   24.12   84.88   1-0.02180 0.77331-0.31988 0.25069-0.94720 0.58234
  11  -1 -10  102.04   87.07   1 0.01359 0.74416-0.34926 0.28012-0.93692 0.60642
  11  -1  -9   -9.97   51.81   1 0.04816 0.71512-0.37742 0.30828-0.92478 0.62734
  11  -1  -8  -81.16   92.42   1 0.08346 0.68535-0.40543 0.33629-0.91030 0.64590
  11  -1  -7  284.41  116.20   1 0.11922 0.65512-0.43302 0.36388-0.89346 0.66211
  11  -1  -6 1644.68  235.42   1 0.15527 0.62377-0.46174 0.39263-0.87331 0.67582
  11  -1  -5    4.03  136.58   1 0.19095 0.59363-0.48768 0.41857-0.85188 0.68731
  11  -1  -4 2260.22  258.05   1 0.22619 0.56392-0.51245 0.44334-0.82838 0.69672
  11  -1  -3 3587.34  305.79   1 0.25978 0.53469-0.53736 0.46832-0.80234 0.70339
  11  -1  -2 1334.18  235.70   1 0.29352 0.50650-0.55944 0.49040-0.77515 0.70919
  11  -1  -1  924.41  200.08   1 0.32614 0.47941-0.57994 0.51091-0.74651 0.71353
  11  -1   0  171.10  150.82   1 0.35752 0.45358-0.59881 0.52978-0.71665 0.71665
  11  -1   1 1623.36  323.95   1 0.38719 0.42905-0.61744 0.54843-0.68471 0.71772
  11  -1   2 1299.32  238.64   1 0.41574 0.40604-0.63300 0.56399-0.65303 0.71905
  11  -1   3   28.52  110.38   1 0.44281 0.38451-0.64693 0.57792-0.62079 0.71982
  11  -1   4  286.79  129.95   1 0.46837 0.36449-0.65930 0.59029-0.58816 0.72020
  11  -1   5 1077.50  246.93   1 0.49204 0.34630-0.67135 0.60232-0.55423 0.71922
  11  -1   6  572.81  154.07   1 0.51459 0.32927-0.68077 0.61173-0.52128 0.71927
  11  -1   7  403.83  143.06   1 0.53573 0.31366-0.68883 0.61980-0.48836 0.71934
  11  -1   8  482.12  180.23   1 0.55549 0.29943-0.69563 0.62660-0.45553 0.71951
  11  -1   9  362.00  181.95   1 0.57351 0.28692-0.70215 0.63307-0.42196 0.71895
  11  -2 -16   60.13  103.88   1-0.17354 0.89773-0.18268 0.04432-0.96773 0.43829
  11  -2 -15  -43.67   98.18   1-0.14993 0.87967-0.20468 0.06632-0.96727 0.47093
  11  -2 -14  183.37  138.64   1-0.12611 0.86075-0.22838 0.09000-0.96536 0.50100
  11  -2 -13   -7.44   91.79   1-0.09920 0.83946-0.25263 0.11425-0.96246 0.53127
  11  -2 -12  222.40  140.48   1-0.07078 0.81667-0.27775 0.13937-0.95804 0.56001
  11  -2 -11  -43.25   90.50   1-0.04098 0.79250-0.30355 0.16517-0.95193 0.58707
  11  -2 -10    8.29   88.06   1-0.00995 0.76709-0.32986 0.19148-0.94397 0.61228
  11  -2  -9  405.06  138.03   1 0.02354 0.73974-0.35743 0.21915-0.93364 0.63619
  11  -2  -8   86.77   93.54   1 0.05630 0.71252-0.38394 0.24566-0.92163 0.65723
  11  -2  -7   46.71  100.15   1 0.08967 0.68467-0.41028 0.27200-0.90753 0.67619
  11  -2  -6 1141.35  197.48   1 0.12342 0.65645-0.43621 0.29793-0.89133 0.69303
  11  -2  -5  197.05  155.30   1 0.15718 0.62740-0.46315 0.32493-0.87222 0.70765
  11  -2  -4 2843.39  294.92   1 0.19086 0.59926-0.48761 0.34939-0.85194 0.72028
  11  -2  -3  132.91  162.84   1 0.22420 0.57145-0.51108 0.37285-0.82977 0.73103
  11  -2  -2 4932.22  370.51   1 0.25595 0.54407-0.53479 0.39672-0.80528 0.73931
  11  -2  -1  407.75  204.78   1 0.28807 0.51748-0.55594 0.41786-0.77970 0.74672
  11  -2   0  115.87  118.20   1 0.31929 0.49180-0.57571 0.43764-0.75272 0.75272
  11  -2   1 2512.29  291.51   1 0.34947 0.46716-0.59406 0.45599-0.72453 0.75751
  11  -2   2  122.35  113.84   1 0.37808 0.44371-0.61230 0.47428-0.69435 0.76037
  11  -2   3 2250.60  326.20   1 0.40588 0.42144-0.62772 0.48970-0.66424 0.76326
  11  -2   4 4472.40  381.37   1 0.43241 0.40045-0.64168 0.50365-0.63344 0.76548
  11  -2   5  929.21  205.78   1 0.45764 0.38076-0.65421 0.51618-0.60213 0.76718
  11  -2   6 1591.61  330.12   1 0.48103 0.36283-0.66649 0.52842-0.56955 0.76754
  11  -2   7  145.79  168.31   1 0.50360 0.34579-0.67627 0.53821-0.53761 0.76860
  11  -2   8 2232.54  318.72   1 0.52487 0.33005-0.68479 0.54672-0.50553 0.76951
  11  -2   9  113.05  124.54   1 0.54489 0.31556-0.69208 0.55402-0.47339 0.77037
  11  -3 -16  455.90  198.87   1-0.17427 0.89846-0.18199-0.02554-0.96773 0.43829
  11  -3 -15  409.79  173.49   1-0.15237 0.88210-0.20243-0.00510-0.96736 0.47102
  11  -3 -14  -29.88   98.84   1-0.13044 0.86507-0.22444 0.01687-0.96571 0.50135
  11  -3 -13   48.64   99.01   1-0.10552 0.84578-0.24697 0.03940-0.96325 0.53206
  11  -3 -11  -30.79   93.07   1-0.05162 0.80313-0.29440 0.08683-0.95428 0.58942
  11  -3 -10  -85.73   96.81   1-0.02284 0.77998-0.31900 0.11143-0.94747 0.61579
  11  -3  -9 1033.74  210.80   1 0.00829 0.75499-0.34487 0.13745-0.93861 0.64116
  11  -3  -8  136.35  128.98   1 0.03883 0.72999-0.36988 0.16246-0.92826 0.66386
  11  -3  -7  131.48  153.33   1 0.07005 0.70429-0.39488 0.18746-0.91605 0.68470
  11  -3  -6  263.88  176.66   1 0.10178 0.67810-0.41966 0.21224-0.90195 0.70365
  11  -3  -5   47.29   98.50   1 0.13352 0.65105-0.44553 0.23820-0.88525 0.72068
  11  -3  -4  218.13  149.23   1 0.16555 0.62456-0.46930 0.26197-0.86737 0.73572
  11  -3  -3  -44.41   98.92   1 0.19748 0.59818-0.49233 0.28500-0.84770 0.74896
  11  -3  -2  170.92  145.89   1 0.22910 0.57209-0.51446 0.30713-0.82633 0.76051
  11  -3  -1 1319.27  241.80   1 0.25916 0.54640-0.53694 0.32983-0.80282 0.76983
  11  -3   0 1259.65  226.82   1 0.28975 0.52134-0.55702 0.34991-0.77830 0.77830
  11  -3   1    9.59  105.99   1 0.31958 0.49705-0.57589 0.36878-0.75247 0.78545
  11  -3   2  157.34  116.47   1 0.34852 0.47365-0.59349 0.38638-0.72546 0.79142
  11  -3   3  318.49  155.90   1 0.37594 0.45138-0.61109 0.40405-0.69657 0.79560
  11  -3   4  436.90  147.85   1 0.40284 0.43002-0.62607 0.41903-0.66764 0.79967
  11  -3   5  183.21  166.70   1 0.42862 0.40978-0.63973 0.43269-0.63798 0.80302
  11  -3   6  196.43  128.82   1 0.45325 0.39068-0.65208 0.44505-0.60773 0.80578
  11  -3   7  135.89  127.55   1 0.47610 0.37329-0.66425 0.45715-0.57627 0.80725
  11  -3   8    9.87  121.11   1 0.49836 0.35656-0.67407 0.46697-0.54521 0.80919
  11  -4 -14   89.45  112.25   1-0.12915 0.86378-0.22562-0.05114-0.96561 0.50125
  11  -4 -13 -125.11  115.05   1-0.10588 0.84614-0.24666-0.03010-0.96330 0.53210
  11  -4 -12  268.99  166.90   1-0.08132 0.82721-0.26848-0.00827-0.95984 0.56181
  11  -4 -11  357.62  169.75   1-0.05557 0.80709-0.29099 0.01422-0.95511 0.59025
  11  -4 -10   61.60  114.06   1-0.02870 0.78585-0.31403 0.03727-0.94897 0.61729
  11  -4  -9   26.40  109.46   1 0.00040 0.76288-0.33832 0.06176-0.94102 0.64358
  11  -4  -8  654.68  215.74   1 0.02899 0.73982-0.36189 0.08533-0.93176 0.66736
  11  -4  -7  177.94  149.86   1 0.05830 0.71604-0.38554 0.10898-0.92084 0.68949
  11  -4  -6  590.39  170.67   1 0.08817 0.69170-0.40911 0.13255-0.90821 0.70991
  11  -4  -5 2265.91  284.73   1 0.11844 0.66696-0.43243 0.15587-0.89385 0.72860
  11  -4  -4  398.52  199.14   1 0.14845 0.64167-0.45669 0.18024-0.87715 0.74549
  11  -4  -3   51.26  106.03   1 0.17890 0.61675-0.47901 0.20257-0.85938 0.76063
  11  -4  -2  498.93  163.67   1 0.20924 0.59195-0.50064 0.22420-0.83998 0.77415
  11  -4  -1  616.48  195.12   1 0.23930 0.56743-0.52145 0.24501-0.81903 0.78612
  11  -4   0  174.59  124.17   1 0.26779 0.54330-0.54268 0.26653-0.79610 0.79610
  11  -4   1  103.24  120.13   1 0.29694 0.51969-0.56163 0.28549-0.77225 0.80524
  11  -4   2 3873.58  366.77   1 0.32541 0.49675-0.57949 0.30335-0.74718 0.81314
  11  -4   3  160.27  125.26   1 0.35311 0.47460-0.59621 0.32007-0.72099 0.81994
  11  -4   4  188.94  170.65   1 0.37933 0.45353-0.61302 0.33697-0.69304 0.82508
  11  -4   5   61.98   94.86   1 0.40523 0.43317-0.62737 0.35132-0.66497 0.83002
  11  -4   6  145.78  130.24   1 0.43014 0.41380-0.64051 0.36446-0.63617 0.83422
  11  -5 -11  299.43  179.55   1-0.05412 0.80564-0.29224-0.05371-0.95481 0.58995
  11  -5 -10  397.16  180.27   1-0.02889 0.78604-0.31387-0.03207-0.94902 0.61733
  11  -5  -9  -80.73  113.48   1-0.00154 0.76483-0.33669-0.00900-0.94161 0.64416
  11  -5  -8  -27.51  119.91   1 0.02534 0.74347-0.35891 0.01320-0.93302 0.66862
  11  -5  -7 1703.36  297.37   1 0.05294 0.72140-0.38126 0.03555-0.92294 0.69160
  11  -5  -6   61.36  116.50   1 0.08114 0.69874-0.40361 0.05790-0.91132 0.71302
  11  -5  -5    3.03  112.15   1 0.10978 0.67562-0.42581 0.08011-0.89812 0.73287
  11  -5  -4   50.54  118.18   1 0.13813 0.65199-0.44899 0.10344-0.88279 0.75113
  11  -5  -3 1439.38  267.60   1 0.16714 0.62851-0.47046 0.12491-0.86644 0.76770
  11  -5  -2  871.31  252.75   1 0.19616 0.60503-0.49139 0.14584-0.84855 0.78272
  11  -5  -1  248.20  171.10   1 0.22505 0.58168-0.51166 0.16611-0.82918 0.79627
  11  -5   0   84.31  122.89   1 0.25241 0.55868-0.53242 0.18724-0.80796 0.80796
  11  -5   1  -99.91  117.38   1 0.28070 0.53593-0.55115 0.20597-0.78576 0.81874
  11  -5   2  582.35  208.84   1 0.30848 0.51369-0.56895 0.22377-0.76231 0.82827
  11  -5   3  327.44  178.97   1 0.33565 0.49206-0.58575 0.24057-0.73771 0.83666
  11  -5   4  428.19  192.35   1 0.36212 0.47112-0.60151 0.25633-0.71207 0.84399
  11  -6  -9  322.45  196.33   1 0.00141 0.76188-0.33915-0.07568-0.94072 0.64328
  11  -6  -8   14.52  124.20   1 0.02679 0.74202-0.36009-0.05474-0.93252 0.66813
  11  -6  -7   81.41  121.02   1 0.05288 0.72147-0.38120-0.03363-0.92297 0.69162
  11  -6  -6  208.12  177.38   1 0.07955 0.70032-0.40236-0.01247-0.91201 0.71371
  11  -6  -5   16.26  120.06   1 0.10670 0.67870-0.42345 0.00861-0.89960 0.73436
  11  -6  -4  584.33  201.92   1 0.13351 0.65660-0.44552 0.03086-0.88525 0.75360
  11  -6  -3  104.64  124.08   1 0.16115 0.63450-0.46607 0.05141-0.86994 0.77120
  11  -6  -2  305.21  127.84   1 0.18887 0.61232-0.48619 0.07153-0.85319 0.78736
  11  -6  -1  138.01  122.37   1 0.21657 0.59016-0.50577 0.09111-0.83503 0.80212
  11  -6   0  -46.15  113.29   1 0.24411 0.56816-0.52472 0.11006-0.81552 0.81552
  11  -6   1 1191.64  223.63   1 0.27008 0.54655-0.54419 0.12997-0.79429 0.82727
  12  -1   1  137.36  107.34   1 0.42280 0.46714-0.63671 0.56770-0.64484 0.67785
  12  -1   3   38.35  107.89   1 0.47178 0.42919-0.66226 0.59323-0.58208 0.68107
  12  -2  -8  496.70  181.53   1 0.12294 0.71978-0.43585 0.29757-0.89157 0.62718
  12  -2  -6  -26.84   97.95   1 0.18402 0.66886-0.48270 0.34448-0.85622 0.65874
  12  -2  -5   93.30  143.25   1 0.21455 0.64387-0.50437 0.36614-0.83640 0.67183
  12  -2  -4  908.08  204.39   1 0.24485 0.61911-0.52522 0.38700-0.81497 0.68331
  12  -2  -3  120.87  111.67   1 0.27361 0.59460-0.54652 0.40844-0.79148 0.69254
  12  -2  -2   64.94  105.34   1 0.30301 0.57075-0.56549 0.42742-0.76707 0.70110
  12  -2  -1  363.73  156.26   1 0.33169 0.54760-0.58334 0.44527-0.74140 0.70842
  12  -2   0  780.22  172.44   1 0.35956 0.52527-0.60001 0.46194-0.71462 0.71462
  12  -2   1   67.64  110.93   1 0.38607 0.50388-0.61681 0.47879-0.68591 0.71892
  12  -2   2 1016.03  223.46   1 0.41201 0.48347-0.63101 0.49299-0.65731 0.72333
  12  -2   3   33.74  118.78   1 0.43690 0.46412-0.64396 0.50594-0.62802 0.72705
  12  -3 -10   47.30  108.81   1 0.04585 0.78581-0.37556 0.16814-0.92566 0.59516
  12  -3  -9  722.36  207.04   1 0.07367 0.76353-0.39773 0.19031-0.91453 0.61708
  12  -3  -8   84.46  114.04   1 0.10208 0.74064-0.41990 0.21248-0.90180 0.63741
  12  -3  -7   73.62  115.38   1 0.13076 0.71659-0.44344 0.23611-0.88670 0.65631
  12  -3  -6 1602.59  279.29   1 0.15983 0.69305-0.46510 0.25777-0.87070 0.67321
  12  -3  -5  789.61  201.02   1 0.18902 0.66940-0.48630 0.27897-0.85310 0.68853
  12  -3  -4 1353.18  269.00   1 0.21817 0.64579-0.50688 0.29955-0.83394 0.70228
  12  -3  -3  -70.87  113.92   1 0.24711 0.62239-0.52675 0.31942-0.81330 0.71456
  12  -3  -2    1.04  113.83   1 0.27453 0.59922-0.54712 0.34001-0.79075 0.72478
  12  -3  -1   63.19  120.81   1 0.30272 0.57657-0.56531 0.35820-0.76731 0.73433
  12  -3   0  404.69  193.55   1 0.33031 0.55452-0.58250 0.37539-0.74268 0.74268
  12  -3   1  352.20  181.12   1 0.35719 0.53317-0.59863 0.39152-0.71697 0.74995
  12  -4  -7  110.24  166.04   1 0.11624 0.73202-0.43075 0.15419-0.89494 0.66360
  12  -4  -6  490.09  213.62   1 0.14354 0.70934-0.45303 0.17659-0.87986 0.68237
  12  -4  -5   65.83  161.25   1 0.17137 0.68705-0.47355 0.19711-0.86393 0.69936
  12  -4  -4   -2.72  109.88   1 0.19929 0.66466-0.49362 0.21718-0.84653 0.71487
  12  -4  -3    6.20  112.59   1 0.22717 0.64233-0.51312 0.23668-0.82770 0.72896
  12  -4  -2  239.74  169.78   1 0.25356 0.62019-0.53319 0.25705-0.80709 0.74113
;
_shelx_hkl_checksum              55098
_shelx_res_file
;
    shelx.res created by SHELXL-2014/7
TITL shelx in P 21/c
CELL  0.71073   9.7840  10.2910  21.5800   90.000   99.528   90.000
ZERR     4.00   0.0010   0.0010   0.0200    0.000    0.011    0.000
LATT   1
SYMM  - X, 1/2 + Y, 1/2 - Z
SFAC  C    H    N    O    S
UNIT  100 88 8 8 4
MERG   2
EQIV $1 x,3/2-y,1/2+z
HTAB C1 N1
HTAB C17 O1
HTAB N2 O2_$1
HTAB C7 O1_$1
HTAB C13 O2_$1
FMAP   2
ACTA
BOND
BOND   $H
CONF
WPDB   1
L.S.  40
PLAN -5
WGHT    0.093800    0.362400
FVAR       6.03118
MOLE    1
S1    5    0.154729    0.724280    0.087851    11.00000    0.05545    0.06672 =
         0.05419    0.01127   -0.00152    0.01441
O1    4    0.322253    0.751044    0.001081    11.00000    0.06768    0.10730 =
         0.06676    0.03856    0.01315    0.03058
O2    4    0.669996    0.990588   -0.320543    11.00000    0.07655    0.04619 =
         0.03633    0.00447    0.00416   -0.01132
N1    3    0.317577    0.603448    0.175589    11.00000    0.04191    0.04467 =
         0.04352    0.00333    0.00308    0.00044
N2    3    0.424146    0.646186    0.088188    11.00000    0.04850    0.05574 =
         0.04148    0.00855    0.00392    0.00468
AFIX  43
H2    2    0.498036    0.608462    0.106887    11.00000   -1.20000
AFIX   0
C1    1    0.300713    0.538776    0.302974    11.00000    0.03640    0.04884 =
         0.05045   -0.00246    0.00906    0.00069
AFIX  43
H1    2    0.386519    0.541427    0.289827    11.00000   -1.20000
AFIX   0
C2    1    0.292581    0.499769    0.363887    11.00000    0.04434    0.05068 =
         0.05053    0.00150    0.00576   -0.00175
AFIX  43
H2A   2    0.373294    0.475868    0.390557    11.00000   -1.20000
AFIX   0
C3    1    0.166918    0.495474    0.386106    11.00000    0.05515    0.04149 =
         0.05894   -0.00237    0.01901   -0.00730
C4    1    0.049294    0.528065    0.343996    11.00000    0.04336    0.07244 =
         0.07707    0.00757    0.02462   -0.00240
AFIX  43
H4    2   -0.036656    0.523536    0.356926    11.00000   -1.20000
AFIX   0
C5    1    0.055983    0.567489    0.282745    11.00000    0.03665    0.07069 =
         0.07077    0.00815    0.00648    0.00055
AFIX  43
H5    2   -0.025052    0.589737    0.255883    11.00000   -1.20000
AFIX   0
C6    1    0.182145    0.573964    0.261328    11.00000    0.03808    0.03830 =
         0.05090   -0.00360    0.00738   -0.00204
C7    1    0.159384    0.459802    0.453232    11.00000    0.08168    0.07005 =
         0.06438    0.00412    0.02901   -0.01139
AFIX 137
H7A   2    0.066658    0.433412    0.456355    11.00000   -1.50000
H7B   2    0.184489    0.533698    0.479838    11.00000   -1.50000
H7C   2    0.222208    0.389588    0.466238    11.00000   -1.50000
AFIX   0
C8    1    0.192911    0.621064    0.197304    11.00000    0.04087    0.03881 =
         0.04983   -0.00441    0.00373   -0.00107
C9    1    0.094729    0.683968    0.155961    11.00000    0.04741    0.06432 =
         0.06003    0.00335    0.00365    0.00899
AFIX  43
H9    2    0.006056    0.702851    0.163594    11.00000   -1.20000
AFIX   0
C10   1    0.310894    0.652247    0.119260    11.00000    0.04642    0.03980 =
         0.04559    0.00074    0.00094    0.00172
C11   1    0.425306    0.696865    0.029314    11.00000    0.05879    0.05180 =
         0.04605    0.01091    0.00471    0.00470
C12   1    0.554981    0.684179    0.002307    11.00000    0.05308    0.04459 =
         0.04187    0.00587    0.00316    0.00183
C13   1    0.670900    0.612479    0.029199    11.00000    0.06254    0.05326 =
         0.04338    0.01512    0.00306    0.00959
AFIX  43
H13   2    0.670889    0.569503    0.067109    11.00000   -1.20000
AFIX   0
C14   1    0.785416    0.605205   -0.000294    11.00000    0.05617    0.05464 =
         0.05044    0.01187    0.00067    0.01376
AFIX  43
H14   2    0.861418    0.556810    0.018439    11.00000   -1.20000
AFIX   0
C15   1    0.791706    0.668155   -0.057619    11.00000    0.05322    0.04281 =
         0.04526    0.00197    0.00011    0.00350
C16   1    0.674529    0.740953   -0.085003    11.00000    0.04990    0.03826 =
         0.03886    0.00244    0.00104    0.00007
C17   1    0.560485    0.747840   -0.054732    11.00000    0.05069    0.04416 =
         0.04126    0.00645   -0.00076    0.00602
AFIX  43
H17   2    0.484386    0.796688   -0.072965    11.00000   -1.20000
AFIX   0
C18   1    0.921180    0.660582   -0.086268    11.00000    0.05480    0.06627 =
         0.06048    0.01066    0.00431    0.00914
AFIX 137
H18A  2    0.996757    0.631585   -0.055183    11.00000   -1.50000
H18B  2    0.942134    0.744932   -0.101224    11.00000   -1.50000
H18C  2    0.907471    0.600384   -0.120723    11.00000   -1.50000
AFIX   0
C19   1    0.672240    0.810142   -0.146462    11.00000    0.04210    0.04226 =
         0.03828    0.00433   -0.00028    0.00012
C20   1    0.672638    0.944563   -0.149797    11.00000    0.04282    0.04284 =
         0.03637   -0.00197    0.00101   -0.00329
AFIX  43
H20   2    0.673490    0.992861   -0.113310    11.00000   -1.20000
AFIX   0
C21   1    0.671785    1.009135   -0.206831    11.00000    0.04513    0.03721 =
         0.04152    0.00088    0.00112   -0.00463
AFIX  43
H21   2    0.672501    1.099455   -0.208182    11.00000   -1.20000
AFIX   0
C22   1    0.669859    0.937374   -0.261480    11.00000    0.04227    0.04312 =
         0.03691    0.00342   -0.00063   -0.00448
C23   1    0.667485    0.803005   -0.259302    11.00000    0.07161    0.04187 =
         0.03871   -0.00401    0.00438   -0.00017
AFIX  43
H23   2    0.665116    0.754689   -0.295884    11.00000   -1.20000
AFIX   0
C24   1    0.668661    0.741051   -0.202299    11.00000    0.07683    0.03714 =
         0.04532    0.00184    0.00476    0.00382
AFIX  43
H24   2    0.667017    0.650731   -0.201197    11.00000   -1.20000
AFIX   0
C25   1    0.706965    1.124140   -0.323049    11.00000    0.09463    0.05137 =
         0.05118    0.01051    0.00393   -0.01446
AFIX  33
H25A  2    0.703384    1.149810   -0.366056    11.00000   -1.50000
H25B  2    0.643244    1.175976   -0.304249    11.00000   -1.50000
H25C  2    0.799183    1.136639   -0.300532    11.00000   -1.50000
AFIX   0
HKLF 4
REM  shelx in P 21/c
REM R1 =  0.0570 for    3399 Fo > 4sig(Fo)  and  0.0789 for all    4741 data
REM    273 parameters refined using      0 restraints
END
WGHT      0.0948      0.3519
REM Highest difference peak  0.283,  deepest hole -0.264,  1-sigma level  0.049
Q1    1   0.9476  0.5695 -0.0850  11.00000  0.05    0.25
Q2    1   0.9114  0.6862 -0.1385  11.00000  0.05    0.23
Q3    1   0.1266  0.3671  0.4617  11.00000  0.05    0.21
Q4    1   0.2020  0.6383  0.0691  11.00000  0.05    0.20
Q5    1   0.6619  0.7756 -0.1240  11.00000  0.05    0.19
;
_shelx_res_checksum              39133
loop_
_space_group_symop_operation_xyz
'x, y, z'
'-x, y+1/2, -z+1/2'
'-x, -y, -z'
'x, -y-1/2, z-1/2'
loop_
_atom_site_type_symbol
_atom_site_label
_atom_site_fract_x
_atom_site_fract_y
_atom_site_fract_z
_atom_site_U_iso_or_equiv
_atom_site_adp_type
_atom_site_calc_flag
_atom_site_occupancy
S S1 0.15473(6) 0.72428(6) 0.08785(3) 0.0600(2) Uani d 1
O O1 0.32225(19) 0.7510(2) 0.00108(9) 0.0804(6) Uani d 1
O O2 0.67000(17) 0.99059(14) -0.32054(6) 0.0536(4) Uani d 1
N N1 0.31758(17) 0.60345(16) 0.17559(7) 0.0438(4) Uani d 1
N N2 0.42415(19) 0.64619(18) 0.08819(7) 0.0490(4) Uani d 1
H H2 0.4980 0.6085 0.1069 0.059 Uiso calc 1
C C1 0.3007(2) 0.5388(2) 0.30297(9) 0.0450(5) Uani d 1
H H1 0.3865 0.5414 0.2898 0.054 Uiso calc 1
C C2 0.2926(2) 0.4998(2) 0.36389(10) 0.0488(5) Uani d 1
H H2A 0.3733 0.4759 0.3906 0.059 Uiso calc 1
C C3 0.1669(2) 0.4955(2) 0.38611(11) 0.0508(5) Uani d 1
C C4 0.0493(2) 0.5281(3) 0.34400(12) 0.0626(6) Uani d 1
H H4 -0.0367 0.5235 0.3569 0.075 Uiso calc 1
C C5 0.0560(2) 0.5675(2) 0.28275(12) 0.0596(6) Uani d 1
H H5 -0.0251 0.5897 0.2559 0.072 Uiso calc 1
C C6 0.1821(2) 0.57396(19) 0.26133(9) 0.0424(4) Uani d 1
C C7 0.1594(3) 0.4598(3) 0.45323(12) 0.0701(7) Uani d 1
H H7A 0.0667 0.4334 0.4564 0.105 Uiso calc 1
H H7B 0.1845 0.5337 0.4798 0.105 Uiso calc 1
H H7C 0.2222 0.3896 0.4662 0.105 Uiso calc 1
C C8 0.1929(2) 0.62106(19) 0.19730(10) 0.0436(4) Uani d 1
C C9 0.0947(2) 0.6840(2) 0.15596(11) 0.0578(6) Uani d 1
H H9 0.0061 0.7029 0.1636 0.069 Uiso calc 1
C C10 0.3109(2) 0.6522(2) 0.11926(9) 0.0447(5) Uani d 1
C C11 0.4253(2) 0.6969(2) 0.02931(10) 0.0527(5) Uani d 1
C C12 0.5550(2) 0.6842(2) 0.00231(9) 0.0470(5) Uani d 1
C C13 0.6709(2) 0.6125(2) 0.02920(10) 0.0537(5) Uani d 1
H H13 0.6709 0.5695 0.0671 0.064 Uiso calc 1
C C14 0.7854(2) 0.6052(2) -0.00029(10) 0.0547(6) Uani d 1
H H14 0.8614 0.5568 0.0184 0.066 Uiso calc 1
C C15 0.7917(2) 0.6682(2) -0.05762(9) 0.0480(5) Uani d 1
C C16 0.6745(2) 0.74095(19) -0.08500(9) 0.0431(5) Uani d 1
C C17 0.5605(2) 0.7478(2) -0.05473(9) 0.0463(5) Uani d 1
H H17 0.4844 0.7967 -0.0730 0.056 Uiso calc 1
C C18 0.9212(2) 0.6606(3) -0.08627(11) 0.0611(6) Uani d 1
H H18A 0.9968 0.6316 -0.0552 0.092 Uiso calc 1
H H18B 0.9421 0.7449 -0.1012 0.092 Uiso calc 1
H H18C 0.9075 0.6004 -0.1207 0.092 Uiso calc 1
C C19 0.6722(2) 0.81014(19) -0.14646(9) 0.0417(4) Uani d 1
C C20 0.67264(19) 0.94456(19) -0.14980(8) 0.0413(4) Uani d 1
H H20 0.6735 0.9929 -0.1133 0.050 Uiso calc 1
C C21 0.6718(2) 1.00913(19) -0.20683(9) 0.0420(4) Uani d 1
H H21 0.6725 1.0995 -0.2082 0.050 Uiso calc 1
C C22 0.6699(2) 0.93737(19) -0.26148(8) 0.0416(4) Uani d 1
C C23 0.6675(2) 0.8030(2) -0.25930(9) 0.0513(5) Uani d 1
H H23 0.6651 0.7547 -0.2959 0.062 Uiso calc 1
C C24 0.6687(3) 0.7411(2) -0.20230(10) 0.0537(6) Uani d 1
H H24 0.6670 0.6507 -0.2012 0.064 Uiso calc 1
C C25 0.7070(3) 1.1241(2) -0.32305(11) 0.0667(7) Uani d 1
H H25A 0.7034 1.1498 -0.3661 0.100 Uiso calc 1
H H25B 0.6432 1.1760 -0.3042 0.100 Uiso calc 1
H H25C 0.7992 1.1366 -0.3005 0.100 Uiso calc 1
loop_
_atom_site_aniso_label
_atom_site_aniso_U_11
_atom_site_aniso_U_22
_atom_site_aniso_U_33
_atom_site_aniso_U_12
_atom_site_aniso_U_13
_atom_site_aniso_U_23
S1 0.0555(4) 0.0667(4) 0.0542(3) 0.0144(3) -0.0015(3) 0.0113(3)
O1 0.0677(11) 0.1073(15) 0.0668(11) 0.0306(11) 0.0131(9) 0.0386(10)
O2 0.0766(10) 0.0462(8) 0.0363(7) -0.0113(7) 0.0042(7) 0.0045(6)
N1 0.0419(9) 0.0447(9) 0.0435(8) 0.0004(7) 0.0031(7) 0.0033(7)
N2 0.0485(10) 0.0557(10) 0.0415(9) 0.0047(9) 0.0039(7) 0.0085(8)
C1 0.0364(10) 0.0488(11) 0.0505(10) 0.0007(9) 0.0091(8) -0.0025(9)
C2 0.0443(11) 0.0507(12) 0.0505(11) -0.0017(9) 0.0058(9) 0.0015(9)
C3 0.0552(12) 0.0415(11) 0.0589(12) -0.0073(10) 0.0190(10) -0.0024(9)
C4 0.0434(12) 0.0724(16) 0.0771(16) -0.0024(12) 0.0246(11) 0.0076(13)
C5 0.0366(11) 0.0707(15) 0.0708(14) 0.0006(11) 0.0065(10) 0.0082(12)
C6 0.0381(10) 0.0383(10) 0.0509(11) -0.0020(8) 0.0074(8) -0.0036(8)
C7 0.0817(18) 0.0700(16) 0.0644(15) -0.0114(14) 0.0290(13) 0.0041(12)
C8 0.0409(10) 0.0388(10) 0.0498(10) -0.0011(8) 0.0037(8) -0.0044(8)
C9 0.0474(12) 0.0643(14) 0.0600(13) 0.0090(11) 0.0036(10) 0.0034(11)
C10 0.0464(11) 0.0398(10) 0.0456(10) 0.0017(9) 0.0009(8) 0.0007(8)
C11 0.0588(13) 0.0518(12) 0.0460(11) 0.0047(11) 0.0047(10) 0.0109(9)
C12 0.0531(12) 0.0446(11) 0.0419(10) 0.0018(10) 0.0032(9) 0.0059(8)
C13 0.0625(14) 0.0533(12) 0.0434(10) 0.0096(11) 0.0031(9) 0.0151(9)
C14 0.0562(13) 0.0546(13) 0.0504(12) 0.0138(11) 0.0007(10) 0.0119(10)
C15 0.0532(12) 0.0428(10) 0.0453(10) 0.0035(10) 0.0001(9) 0.0020(8)
C16 0.0499(11) 0.0383(10) 0.0389(9) 0.0001(9) 0.0010(8) 0.0024(8)
C17 0.0507(11) 0.0442(11) 0.0413(10) 0.0060(9) -0.0008(8) 0.0065(8)
C18 0.0548(13) 0.0663(15) 0.0605(13) 0.0091(12) 0.0043(10) 0.0107(11)
C19 0.0421(10) 0.0423(10) 0.0383(9) 0.0001(9) -0.0003(8) 0.0043(8)
C20 0.0428(10) 0.0428(10) 0.0364(9) -0.0033(9) 0.0010(7) -0.0020(7)
C21 0.0451(10) 0.0372(9) 0.0415(10) -0.0046(8) 0.0011(8) 0.0009(7)
C22 0.0423(10) 0.0431(10) 0.0369(9) -0.0045(9) -0.0006(7) 0.0034(7)
C23 0.0716(14) 0.0419(11) 0.0387(10) -0.0002(10) 0.0044(9) -0.0040(8)
C24 0.0768(15) 0.0371(10) 0.0453(11) 0.0038(11) 0.0048(10) 0.0018(8)
C25 0.0946(19) 0.0514(13) 0.0512(12) -0.0145(13) 0.0039(12) 0.0105(10)
loop_
_atom_type_symbol
_atom_type_description
_atom_type_scat_dispersion_real
_atom_type_scat_dispersion_imag
_atom_type_scat_source
C C 0.0033 0.0016 'International Tables Vol C Tables 4.2.6.8 and 6.1.1.4'
H H 0.0000 0.0000 'International Tables Vol C Tables 4.2.6.8 and 6.1.1.4'
N N 0.0061 0.0033 'International Tables Vol C Tables 4.2.6.8 and 6.1.1.4'
O O 0.0106 0.0060 'International Tables Vol C Tables 4.2.6.8 and 6.1.1.4'
S S 0.1246 0.1234 'International Tables Vol C Tables 4.2.6.8 and 6.1.1.4'
loop_
_geom_angle_atom_site_label_1
_geom_angle_atom_site_label_2
_geom_angle_atom_site_label_3
_geom_angle
C9 S1 C10 88.06(11)
C22 O2 C25 117.04(16)
C10 N1 C8 110.62(17)
C11 N2 C10 123.95(18)
C11 N2 H2 118.0
C10 N2 H2 118.0
C2 C1 C6 120.91(19)
C2 C1 H1 119.5
C6 C1 H1 119.5
C1 C2 C3 121.8(2)
C1 C2 H2A 119.1
C3 C2 H2A 119.1
C4 C3 C2 116.9(2)
C4 C3 C7 121.5(2)
C2 C3 C7 121.7(2)
C3 C4 C5 121.9(2)
C3 C4 H4 119.1
C5 C4 H4 119.1
C6 C5 C4 120.9(2)
C6 C5 H5 119.6
C4 C5 H5 119.6
C5 C6 C1 117.6(2)
C5 C6 C8 121.95(19)
C1 C6 C8 120.38(18)
C3 C7 H7A 109.5
C3 C7 H7B 109.5
H7A C7 H7B 109.5
C3 C7 H7C 109.5
H7A C7 H7C 109.5
H7B C7 H7C 109.5
C9 C8 N1 113.87(19)
C9 C8 C6 127.9(2)
N1 C8 C6 118.23(17)
C8 C9 S1 111.76(18)
C8 C9 H9 124.1
S1 C9 H9 124.1
N1 C10 N2 120.73(18)
N1 C10 S1 115.69(16)
N2 C10 S1 123.58(15)
O1 C11 N2 120.1(2)
O1 C11 C12 122.10(19)
N2 C11 C12 117.83(18)
C13 C12 C17 117.7(2)
C13 C12 C11 124.79(19)
C17 C12 C11 117.51(18)
C14 C13 C12 120.19(19)
C14 C13 H13 119.9
C12 C13 H13 119.9
C13 C14 C15 122.5(2)
C13 C14 H14 118.7
C15 C14 H14 118.7
C14 C15 C16 117.4(2)
C14 C15 C18 120.07(19)
C16 C15 C18 122.44(19)
C17 C16 C15 119.38(18)
C17 C16 C19 119.78(17)
C15 C16 C19 120.83(18)
C16 C17 C12 122.73(19)
C16 C17 H17 118.6
C12 C17 H17 118.6
C15 C18 H18A 109.5
C15 C18 H18B 109.5
H18A C18 H18B 109.5
C15 C18 H18C 109.5
H18A C18 H18C 109.5
H18B C18 H18C 109.5
C20 C19 C24 117.65(17)
C20 C19 C16 121.30(17)
C24 C19 C16 121.05(18)
C19 C20 C21 121.39(17)
C19 C20 H20 119.3
C21 C20 H20 119.3
C22 C21 C20 119.49(18)
C22 C21 H21 120.3
C20 C21 H21 120.3
C23 C22 O2 115.35(17)
C23 C22 C21 120.02(17)
O2 C22 C21 124.63(18)
C24 C23 C22 119.52(18)
C24 C23 H23 120.2
C22 C23 H23 120.2
C23 C24 C19 121.90(19)
C23 C24 H24 119.0
C19 C24 H24 119.0
O2 C25 H25A 109.5
O2 C25 H25B 109.5
H25A C25 H25B 109.5
O2 C25 H25C 109.5
H25A C25 H25C 109.5
H25B C25 H25C 109.5
loop_
_geom_bond_atom_site_label_1
_geom_bond_atom_site_label_2
_geom_bond_distance
S1 C9 1.721(3)
S1 C10 1.732(2)
O1 C11 1.223(3)
O2 C22 1.387(2)
O2 C25 1.424(3)
N1 C10 1.307(3)
N1 C8 1.389(3)
N2 C11 1.375(3)
N2 C10 1.388(3)
N2 H2 0.8600
C1 C2 1.389(3)
C1 C6 1.393(3)
C1 H1 0.9300
C2 C3 1.392(3)
C2 H2A 0.9300
C3 C4 1.384(3)
C3 C7 1.508(3)
C4 C5 1.394(4)
C4 H4 0.9300
C5 C6 1.389(3)
C5 H5 0.9300
C6 C8 1.484(3)
C7 H7A 0.9600
C7 H7B 0.9600
C7 H7C 0.9600
C8 C9 1.362(3)
C9 H9 0.9300
C11 C12 1.487(3)
C12 C13 1.396(3)
C12 C17 1.403(3)
C13 C14 1.379(3)
C13 H13 0.9300
C14 C15 1.407(3)
C14 H14 0.9300
C15 C16 1.414(3)
C15 C18 1.501(3)
C16 C17 1.385(3)
C16 C19 1.502(3)
C17 H17 0.9300
C18 H18A 0.9600
C18 H18B 0.9600
C18 H18C 0.9600
C19 C20 1.385(3)
C19 C24 1.395(3)
C20 C21 1.398(3)
C20 H20 0.9300
C21 C22 1.389(3)
C21 H21 0.9300
C22 C23 1.384(3)
C23 C24 1.384(3)
C23 H23 0.9300
C24 H24 0.9300
C25 H25A 0.9600
C25 H25B 0.9600
C25 H25C 0.9600
loop_
_geom_hbond_atom_site_label_D
_geom_hbond_atom_site_label_H
_geom_hbond_atom_site_label_A
_geom_hbond_site_symmetry_A
_geom_hbond_distance_DH
_geom_hbond_distance_HA
_geom_hbond_distance_DA
_geom_hbond_angle_DHA
N2 H2 O2 4_576 0.86 2.33 3.175(2) 166
C7 H7B O1 4_576 0.96 2.59 3.452(3) 149
C13 H13 O2 4_576 0.93 2.50 3.413(4) 166
C7 H7C Cg 2_645 0.96 2.67 3.592(5) 149
loop_
_geom_torsion_atom_site_label_1
_geom_torsion_atom_site_label_2
_geom_torsion_atom_site_label_3
_geom_torsion_atom_site_label_4
_geom_torsion
C6 C1 C2 C3 -0.7(3)
C1 C2 C3 C4 2.0(3)
C1 C2 C3 C7 -176.8(2)
C2 C3 C4 C5 -2.0(4)
C7 C3 C4 C5 176.7(2)
C3 C4 C5 C6 0.8(4)
C4 C5 C6 C1 0.5(4)
C4 C5 C6 C8 -177.3(2)
C2 C1 C6 C5 -0.6(3)
C2 C1 C6 C8 177.27(18)
C10 N1 C8 C9 -0.2(3)
C10 N1 C8 C6 -178.77(17)
C5 C6 C8 C9 12.7(3)
C1 C6 C8 C9 -165.1(2)
C5 C6 C8 N1 -168.9(2)
C1 C6 C8 N1 13.3(3)
N1 C8 C9 S1 -0.1(2)
C6 C8 C9 S1 178.31(16)
C10 S1 C9 C8 0.28(18)
C8 N1 C10 N2 179.78(17)
C8 N1 C10 S1 0.4(2)
C11 N2 C10 N1 -179.10(19)
C11 N2 C10 S1 0.2(3)
C9 S1 C10 N1 -0.40(18)
C9 S1 C10 N2 -179.77(19)
C10 N2 C11 O1 -0.1(4)
C10 N2 C11 C12 179.34(19)
O1 C11 C12 C13 -173.2(2)
N2 C11 C12 C13 7.3(3)
O1 C11 C12 C17 6.0(3)
N2 C11 C12 C17 -173.44(19)
C17 C12 C13 C14 -0.4(3)
C11 C12 C13 C14 178.9(2)
C12 C13 C14 C15 0.1(4)
C13 C14 C15 C16 0.0(3)
C13 C14 C15 C18 177.8(2)
C14 C15 C16 C17 0.3(3)
C18 C15 C16 C17 -177.5(2)
C14 C15 C16 C19 -179.44(19)
C18 C15 C16 C19 2.8(3)
C15 C16 C17 C12 -0.6(3)
C19 C16 C17 C12 179.12(18)
C13 C12 C17 C16 0.7(3)
C11 C12 C17 C16 -178.67(19)
C17 C16 C19 C20 68.2(3)
C15 C16 C19 C20 -112.0(2)
C17 C16 C19 C24 -111.3(2)
C15 C16 C19 C24 68.4(3)
C24 C19 C20 C21 -1.0(3)
C16 C19 C20 C21 179.41(17)
C19 C20 C21 C22 0.3(3)
C25 O2 C22 C23 -164.7(2)
C25 O2 C22 C21 15.3(3)
C20 C21 C22 C23 0.6(3)
C20 C21 C22 O2 -179.45(18)
O2 C22 C23 C24 179.3(2)
C21 C22 C23 C24 -0.7(3)
C22 C23 C24 C19 0.0(4)
C20 C19 C24 C23 0.9(3)
C16 C19 C24 C23 -179.5(2)

_cod_database_fobs_code 1546649
