#------------------------------------------------------------------------------
#$Date: 2017-07-25 13:31:46 +0300 (Tue, 25 Jul 2017) $
#$Revision: 199274 $
#$URL: file:///home/coder/svn-repositories/cod/cif/1/54/66/1546680.cif $
#------------------------------------------------------------------------------
#
# This file is available in the Crystallography Open Database (COD),
# http://www.crystallography.net/. The original data for this entry
# were provided by IUCr Journals, http://journals.iucr.org/.
#
# The file may be used within the scientific community so long as
# proper attribution is given to the journal article from which the
# data were obtained.
#
data_1546680
loop_
_publ_author_name
'Ellouz, Mohamed'
'Sebbar, Nada Kheira'
'Ouzidan, Younes'
'Kaur, Manpreet'
'Essassi, El Mokhtar'
'Jasinski, Jerry P.'
_publ_section_title
;
 (<i>Z</i>)-4-<i>n</i>-Butyl-2-(4-chlorobenzylidene)-2<i>H</i>-1,4-benzothiazin-3(4<i>H</i>)-one
;
_journal_coeditor_code           SJ4118
_journal_issue                   6
_journal_name_full               IUCrData
_journal_page_first              x170870
_journal_paper_doi               10.1107/S2414314617008707
_journal_volume                  2
_journal_year                    2017
_chemical_formula_iupac          'C19 H18 Cl N O S'
_chemical_formula_moiety         'C19 H18 Cl N O S'
_chemical_formula_sum            'C19 H18 Cl N O S'
_chemical_formula_weight         343.85
_chemical_name_systematic
(<i>Z</i>)-4-<i>n</i>-Butyl-2-(4-chlorobenzylidene)-2<i>H</i>-1,4-benzothiazin-3(4<i>H</i>)-one
_space_group_crystal_system      triclinic
_space_group_IT_number           2
_space_group_name_Hall           '-P 1'
_space_group_name_H-M_alt        'P -1'
_symmetry_space_group_name_Hall  '-P 1'
_symmetry_space_group_name_H-M   'P -1'
_atom_sites_solution_hydrogens   geom
_atom_sites_solution_primary     dual
_audit_creation_method
;
Olex2 1.2
(compiled 2017.03.28 svn.r3405 for OlexSys, GUI svn.r5337)
;
_cell_angle_alpha                89.908(8)
_cell_angle_beta                 84.490(7)
_cell_angle_gamma                63.534(9)
_cell_formula_units_Z            2
_cell_length_a                   8.8898(8)
_cell_length_b                   8.9885(9)
_cell_length_c                   12.1973(10)
_cell_measurement_reflns_used    2206
_cell_measurement_temperature    293(2)
_cell_measurement_theta_max      70.8950
_cell_measurement_theta_min      5.4850
_cell_volume                     867.53(15)
_computing_cell_refinement
;
CrysAlis PRO (Rigaku Oxford Diffraction, 2015)
;
_computing_data_collection
;
CrysAlis PRO (Rigaku Oxford Diffraction, 2015)
;
_computing_data_reduction
;
CrysAlis PRO (Rigaku Oxford Diffraction, 2015)
;
_computing_molecular_graphics
;
<i>OLEX2</i> (Dolomanov <i>et al.</i>,  2009)
;
_computing_publication_material
;
<i>OLEX2</i> (Dolomanov <i>et al.</i>,  2009)
;
_computing_structure_refinement
;
SHELXL2014 (Sheldrick, 2015b)
;
_computing_structure_solution
;
SHELXT (Sheldrick, 2015a)
;
_diffrn_ambient_temperature      293(2)
_diffrn_detector_area_resol_mean 16.0416
_diffrn_measured_fraction_theta_full 0.996
_diffrn_measured_fraction_theta_max 0.972
_diffrn_measurement_device       'four-circle diffractometer'
_diffrn_measurement_device_type  'Rigaku Oxford Diffraction'
_diffrn_measurement_method       '\w scans'
_diffrn_radiation_monochromator  graphite
_diffrn_radiation_type           CuK\a
_diffrn_radiation_wavelength     1.54184
_diffrn_reflns_av_R_equivalents  0.0207
_diffrn_reflns_limit_h_max       10
_diffrn_reflns_limit_h_min       -10
_diffrn_reflns_limit_k_max       10
_diffrn_reflns_limit_k_min       -11
_diffrn_reflns_limit_l_max       14
_diffrn_reflns_limit_l_min       -14
_diffrn_reflns_number            5496
_diffrn_reflns_theta_full        67.684
_diffrn_reflns_theta_max         71.464
_diffrn_reflns_theta_min         3.644
_exptl_absorpt_coefficient_mu    3.091
_exptl_absorpt_correction_T_max  1.00000
_exptl_absorpt_correction_T_min  0.38193
_exptl_absorpt_correction_type   multi-scan
_exptl_absorpt_process_details
;
(CrysAlis PRO; Rigaku Oxford Diffraction, 2015)
;
_exptl_crystal_colour            colourless
_exptl_crystal_density_diffrn    1.316
_exptl_crystal_description       prism
_exptl_crystal_F_000             360
_exptl_crystal_size_max          0.34
_exptl_crystal_size_mid          0.32
_exptl_crystal_size_min          0.14
_refine_diff_density_max         0.300
_refine_diff_density_min         -0.324
_refine_ls_extinction_coef       0.0051(9)
_refine_ls_extinction_expression Fc^*^=kFc[1+0.001xFc^2^\l^3^/sin(2\q)]^-1/4^
_refine_ls_extinction_method
;
SHELXL2014 (Sheldrick, 2015b)
;
_refine_ls_goodness_of_fit_ref   1.034
_refine_ls_hydrogen_treatment    constr
_refine_ls_matrix_type           full
_refine_ls_number_parameters     210
_refine_ls_number_reflns         3279
_refine_ls_number_restraints     0
_refine_ls_restrained_S_all      1.034
_refine_ls_R_factor_all          0.0570
_refine_ls_R_factor_gt           0.0494
_refine_ls_shift/su_max          0.000
_refine_ls_shift/su_mean         0.000
_refine_ls_structure_factor_coef Fsqd
_refine_ls_weighting_details
'w=1/[\s^2^(Fo^2^)+(0.0787P)^2^+0.2112P] where P=(Fo^2^+2Fc^2^)/3'
_refine_ls_weighting_scheme      calc
_refine_ls_wR_factor_gt          0.1362
_refine_ls_wR_factor_ref         0.1458
_reflns_number_gt                2807
_reflns_number_total             3279
_reflns_threshold_expression     'I > 2\s(I)'
_cod_data_source_file            sj4118sup1.cif
_cod_data_source_block           I
_cod_database_code               1546680
_shelx_space_group_comment
;
The symmetry employed for this shelxl refinement is uniquely defined
by the following loop, which should always be used as a source of
symmetry information in preference to the above space-group names.
They are only intended as comments.
;
_shelx_hkl_file
;
   0   0  -1  496.54    6.01
   0   0  -2   28.15    2.01
   0   0   2   25.31    1.42
   0   0   3    2.86    0.65
   0   0  -3    3.10    0.91
   0   0  -4 3198.03   28.52
   0   0   4 2937.53   20.66
   0   0  -5   25.62    2.87
   0   0   5   27.10    2.12
   0   0   6   53.73    3.22
   0   0  -6   49.40    4.14
   0   0  -7   54.54    4.59
   0   0  -8   22.94    3.06
   0   0  -9  249.79   10.48
   0   0  10    2.33    0.83
   0   0  11  219.87    8.09
   0   0  12   49.81    3.61
   0   0  13    5.83    1.17
   0   0  14   12.37    1.36
   0  -1  14   -0.30    0.38
   0   1 -14    1.02    0.58
   0  -1  13    8.49    1.41
   0  -1  12   15.22    2.07
   0  -1  11   72.45    4.64
   0  -1  10  319.51    9.72
   0  -1  10  306.51    9.43
   0   1  -9  498.93   15.52
   0   1  -8   16.19    2.69
   0   1  -7   21.54    2.98
   0   1  -6  142.16    7.11
   0  -1   6  151.99    5.51
   0  -1   5   24.69    2.07
   0   1  -5   22.56    2.69
   0  -1   4  389.38    7.52
   0  -1   4  367.86    9.04
   0   1  -4  392.10    9.87
   0  -1   3  142.16    4.68
   0  -1   3  135.76    3.90
   0  -1   2  104.64    3.13
   0  -1   2  101.85    2.86
   0  -1   1 1345.07    8.24
   0  -1   0  287.88    3.40
   0  -1   0  283.41    2.56
   0  -1   0  284.99    3.27
   0  -1  -1 1598.07    9.02
   0  -1  -2  771.79    8.57
   0   1   2  746.27    8.11
   0  -1  -3 1507.07   15.22
   0   1   3 1447.43   14.77
   0   1   4  157.88    2.19
   0  -1  -4  165.05    5.98
   0  -1  -5   28.19    2.78
   0   1   5   34.62    2.45
   0  -1  -6  508.98   12.75
   0   1   6  607.26   11.02
   0  -1  -7  195.40    8.38
   0  -1  -8    6.41    1.69
   0   1   9   58.09    4.06
   0  -1 -10   86.74    4.79
   0   1  10   91.44    5.21
   0   1  11   35.26    3.27
   0  -1 -11   34.44    2.99
   0   1  12    3.45    1.05
   0  -1 -12    1.14    0.50
   0   1  13   34.73    2.56
   0  -1 -14    1.82    0.54
   0  -2  14    2.86    0.75
   0   2 -14    1.70    0.54
   0  -2  13   31.07    2.70
   0  -2  12    3.72    1.09
   0  -2  11  124.86    6.22
   0  -2  10   54.65    4.22
   0  -2  10   48.48    3.83
   0  -2   9   -0.24    0.75
   0  -2   9   -0.15    0.59
   0   2  -8   88.53    6.84
   0   2  -7  207.24    9.52
   0   2  -6 1127.34   21.16
   0  -2   6 1180.44   16.46
   0  -2   5   26.85    2.36
   0  -2   5   31.43    3.02
   0  -2   4  376.28    8.98
   0  -2   4  399.73    8.28
   0  -2   3  257.92    6.25
   0  -2   3  265.43    6.15
   0  -2   2 2085.23   15.20
   0  -2   1  548.80    6.98
   0  -2   1  565.33    7.06
   0  -2   0  738.00    7.82
   0  -2   0  739.95    7.61
   0  -2   0  717.96    5.81
   0  -2  -1  310.96    4.35
   0  -2  -1  326.06    5.38
   0  -2  -2  758.36    4.00
   0  -2  -2  749.53    9.13
   0  -2  -3   62.09    2.97
   0   2   3   68.59    3.18
   0   2   4  633.72   11.38
   0  -2  -5    0.19    0.56
   0  -2  -6  763.47   15.81
   0  -2  -7    9.34    1.87
   0  -2  -8   87.88    6.16
   0   2   9  104.78    5.51
   0  -2  -9  102.23    5.41
   0  -2 -10   13.71    2.04
   0   2  10   12.96    1.94
   0   2  11    6.42    1.45
   0  -2 -11    6.34    1.31
   0  -2 -12    1.83    0.67
   0   2  12    1.56    0.90
   0  -2 -13   36.25    2.55
   0  -2 -14    4.18    0.70
   0  -3  14   11.42    1.31
   0  -3  13   15.96    1.87
   0   3 -13   13.55    1.53
   0  -3  12    9.25    1.63
   0  -3  11   55.48    4.16
   0  -3  10   26.36    2.97
   0  -3   9  161.85    7.32
   0  -3   9  145.59    6.76
   0   3  -8   45.40    5.14
   0   3  -7   95.46    7.16
   0  -3   6  120.23    6.76
   0  -3   5  307.26    9.68
   0  -3   4   37.81    3.02
   0  -3   3  350.17    8.03
   0  -3   2    3.29    0.80
   0  -3   1 1474.66   14.04
   0  -3   1 1529.92   14.65
   0  -3   0 2457.37   13.35
   0  -3   0 2414.81   18.04
   0  -3  -1  269.70    5.88
   0  -3  -1  269.65    6.18
   0  -3  -1  270.47    4.88
   0  -3  -2   95.85    3.26
   0  -3  -2  102.24    4.01
   0  -3  -3    0.42    0.43
   0  -3  -3    0.47    0.35
   0   3   4 1464.08   18.29
   0  -3  -4 1480.50   18.53
   0   3   5   48.67    3.82
   0  -3  -5   52.01    3.84
   0  -3  -6   12.33    2.11
   0  -3  -7    8.15    1.71
   0   3   8  400.58   10.42
   0  -3  -8  402.18   10.99
   0   3   9    2.90    1.12
   0  -3  -9    3.16    1.20
   0   3  10   28.06    2.84
   0  -3 -10   26.72    2.91
   0   3  11   30.72    2.84
   0  -3 -11   31.90    3.01
   0  -3 -12   36.25    2.90
   0  -3 -13   19.64    1.82
   0  -4  13   15.89    1.78
   0  -4  12    5.41    1.38
   0  -4  11   18.27    2.44
   0  -4  10  161.45    7.46
   0  -4   9   29.93    3.29
   0  -4   8  425.91   12.19
   0  -4   7  202.92   10.15
   0   4  -7  261.30   12.77
   0  -4   6    0.76    0.81
   0  -4   5    0.07    0.57
   0  -4   4  718.80   14.52
   0  -4   3  107.15    5.11
   0  -4   2   48.12    3.18
   0  -4   1  231.31    6.67
   0  -4   1  229.99    6.74
   0  -4   0   20.56    1.96
   0  -4   0   19.53    1.97
   0  -4  -1  869.73   13.12
   0  -4  -1  867.95   12.69
   0  -4  -2   10.37    1.53
   0  -4  -2   11.88    1.56
   0  -4  -3  278.88    8.30
   0   4   4  176.68    6.85
   0  -4  -4  184.93    7.40
   0   4   5  103.81    5.91
   0  -4  -5  106.70    6.10
   0  -4  -6   24.86    3.13
   0  -4  -7   66.55    4.51
   0  -4  -8   39.03    3.63
   0  -4  -9   38.45    3.59
   0   4   9   38.18    3.25
   0  -4 -10   75.34    4.89
   0   4  10   82.73    4.63
   0   4  11   24.14    2.32
   0  -4 -11   22.12    2.49
   0  -4 -12   19.23    2.02
   0  -4 -13    4.79    0.85
   0  -5  13    5.56    0.91
   0  -5  13    4.27    0.74
   0  -5  12    1.22    0.65
   0  -5  11   49.91    3.75
   0  -5  10    9.56    1.91
   0  -5   9   28.45    3.29
   0  -5   8   21.81    2.82
   0  -5   7  209.49    8.59
   0  -5   6    2.08    0.96
   0  -5   5    8.69    1.99
   0  -5   4   28.38    3.28
   0  -5   3  172.27    7.35
   0  -5   2  146.69    6.51
   0  -5   1   -2.03    0.80
   0  -5   1   -0.16    0.67
   0  -5   0  220.23    7.74
   0  -5   0  229.08    7.69
   0  -5  -1   47.95    3.52
   0  -5  -1   48.25    3.65
   0  -5  -2  281.89    9.14
   0  -5  -2  295.13    9.08
   0  -5  -3   46.28    3.81
   0  -5  -3   48.83    4.00
   0  -5  -4   69.03    5.01
   0  -5  -4   66.93    5.01
   0  -5  -5   28.46    3.50
   0  -5  -6  237.23    8.73
   0  -5  -7    4.31    1.28
   0  -5  -8    2.32    0.79
   0  -5  -9   58.62    4.38
   0  -5 -10   29.81    2.93
   0  -5 -11   14.33    1.80
   0  -5 -12   29.75    2.16
   0  -6  12    9.30    1.19
   0  -6  11   31.89    2.70
   0  -6  11   31.61    2.50
   0  -6  10    7.24    1.47
   0  -6  10    7.53    1.48
   0  -6   9   46.14    3.97
   0  -6   8    5.29    1.42
   0  -6   7   45.13    4.06
   0  -6   6   51.03    4.19
   0  -6   6   55.95    4.17
   0  -6   5   19.04    2.47
   0  -6   5   19.92    2.38
   0  -6   4    0.62    0.69
   0  -6   4    1.30    0.69
   0  -6   3   21.02    2.19
   0  -6   2   40.16    3.90
   0  -6   1  238.01    9.22
   0  -6   0   97.43    5.87
   0  -6   0  105.03    6.09
   0  -6  -1  176.28    7.95
   0  -6  -1  156.32    7.27
   0  -6  -2    3.05    1.02
   0  -6  -3  153.63    7.02
   0  -6  -4    0.85    0.63
   0  -6  -5    4.54    1.21
   0  -6  -5    4.53    1.38
   0  -6  -6    9.45    1.82
   0  -6  -6   13.62    2.00
   0  -6  -7   73.26    4.90
   0  -6  -8    3.20    1.11
   0  -6  -9   46.06    3.51
   0  -6 -10   38.89    2.90
   0  -6 -11    0.36    0.35
   0  -7  10    6.55    1.17
   0  -7  10    6.96    1.08
   0  -7   9   29.51    2.60
   0  -7   9   28.75    2.42
   0  -7   9   27.81    2.74
   0  -7   8    0.33    0.46
   0  -7   8    1.00    0.59
   0  -7   7   -2.28    0.91
   0  -7   7   -0.29    0.84
   0  -7   7   -0.39    0.57
   0  -7   6    8.37    1.66
   0  -7   6    9.08    1.69
   0  -7   6    6.49    1.76
   0  -7   5    3.21    1.12
   0  -7   5    4.41    1.23
   0  -7   4  205.94    7.49
   0  -7   3   -0.40    0.64
   0  -7   3    0.03    1.00
   0  -7   3   -0.55    0.45
   0  -7   2    6.86    1.51
   0  -7   2    7.77    1.40
   0  -7   2    8.32    2.08
   0  -7   1   13.75    2.03
   0  -7   1   12.47    2.46
   0  -7   0  261.71    8.40
   0  -7   0  238.97   10.27
   0  -7  -1   87.01    6.08
   0  -7  -1  102.16    5.04
   0  -7  -2   24.90    3.18
   0  -7  -3   44.53    4.07
   0  -7  -4   14.69    2.23
   0  -7  -4   19.62    2.61
   0  -7  -5   -0.10    0.53
   0  -7  -5   -0.29    0.63
   0  -7  -6  133.74    6.02
   0  -7  -6  118.49    6.03
   0  -7  -7   -0.01    0.49
   0  -7  -8   10.95    1.59
   0  -7  -9   -0.42    0.48
   0  -8   8    0.99    0.63
   0  -8   7   29.54    2.88
   0  -8   6   21.98    2.74
   0  -8   5    2.21    1.05
   0  -8   4   -0.01    0.67
   0  -8   3  150.31    7.26
   0  -8   3  176.63    8.57
   0  -8   2    0.36    0.83
   0  -8   2   -0.17    0.64
   0  -8   1    3.33    0.99
   0  -8   1    2.53    1.19
   0  -8   0   14.63    2.64
   0  -8   0   15.69    2.09
   0  -8  -1    5.08    1.16
   0  -8  -1    5.51    1.66
   0  -8  -2   16.97    2.61
   0  -8  -3    0.29    0.74
   0  -8  -4   23.81    2.70
   0  -8  -4   16.54    2.31
   0  -8  -5    5.75    1.31
   0  -8  -5    6.61    1.36
   0  -8  -6   29.91    2.59
   0  -8  -7    1.19    0.57
   0  -8  -7    0.39    0.33
   0  -9   6    0.03    0.47
   0  -9   5    4.30    1.10
   0  -9   4    0.34    0.59
   0  -9   3    9.87    1.66
   0  -9   2    0.27    0.52
   0  -9   2   -0.03    0.59
   0  -9   1   26.03    3.24
   0  -9   0    6.24    1.61
   0  -9   0    8.24    1.31
   0  -9  -1    0.92    0.54
   0  -9  -1    1.91    1.20
   0  -9  -2    2.55    1.03
   0  -9  -2    1.01    0.45
   0  -9  -3    3.72    1.10
   0  -9  -3    2.89    0.90
   0  -9  -4    4.40    0.98
   0  -9  -5   14.87    1.61
   1  -9  -3   19.11    1.80
   1  -9  -2    6.55    1.13
   1  -9  -1    4.22    0.91
   1  -9   0   27.11    2.12
   1  -9   1    0.57    0.50
   1  -9   2    6.47    1.24
   1  -9   3    6.45    1.32
   1  -9   4   17.66    2.01
   1  -9   5    1.34    0.55
   1  -8  -6   11.50    1.38
   1  -8  -5   23.47    2.29
   1  -8  -4   -0.59    0.75
   1  -8  -3    7.47    1.52
   1  -8  -3   10.01    1.89
   1  -8  -2    2.13    0.82
   1  -8  -2    1.36    1.01
   1  -8  -1   27.33    3.02
   1  -8  -1   24.90    3.28
   1  -8  -1   28.37    2.54
   1  -8   0    3.00    1.39
   1  -8   0    4.29    1.27
   1  -8   1    9.17    2.17
   1  -8   2   16.63    2.73
   1  -8   2   14.19    2.10
   1  -8   3   -0.01    0.64
   1  -8   4    6.54    1.53
   1  -8   5   11.85    1.97
   1  -8   6   24.01    2.61
   1  -8   7    4.19    1.04
   1  -7  -8    5.31    0.87
   1  -7  -8    4.90    0.92
   1  -7  -7   22.77    2.09
   1  -7  -7   24.33    2.25
   1  -7  -6   22.90    2.46
   1  -7  -6   22.36    2.43
   1  -7  -5  174.93    7.11
   1  -7  -4    7.38    1.68
   1  -7  -3    0.64    0.96
   1  -7  -2  157.63    8.07
   1  -7  -1  192.76    9.35
   1  -7   0    3.80    1.43
   1  -7   0    2.02    0.98
   1  -7   1    0.05    0.71
   1  -7   1    0.70    0.65
   1  -7   1   -0.87    0.86
   1  -7   2   62.14    4.52
   1  -7   2   71.87    5.88
   1  -7   2   68.41    4.33
   1  -7   3   21.87    2.90
   1  -7   3   27.73    3.50
   1  -7   3   21.37    2.51
   1  -7   4  158.91    7.80
   1  -7   4  188.29    7.32
   1  -7   5    0.87    0.66
   1  -7   5    0.16    0.63
   1  -7   6   60.38    4.18
   1  -7   6   66.83    4.95
   1  -7   7    8.35    1.64
   1  -7   7   10.94    1.87
   1  -7   8    0.51    0.51
   1  -7   8    0.33    0.63
   1  -7   9    6.40    1.18
   1  -6 -10    1.24    0.48
   1  -6  -9   35.73    2.73
   1  -6  -8    7.02    1.14
   1  -6  -8    7.05    1.43
   1  -6  -7   14.33    2.06
   1  -6  -6    7.53    1.56
   1  -6  -5   77.56    5.02
   1  -6  -5   78.13    5.09
   1  -6  -4   18.47    2.54
   1  -6  -4   15.83    2.32
   1  -6  -3    5.13    1.45
   1  -6  -2  225.96    7.27
   1  -6  -2  211.64    8.93
   1  -6  -1   19.09    2.73
   1  -6  -1   18.16    2.13
   1  -6   0   19.10    2.84
   1  -6   0   22.92    2.45
   1  -6   1  143.02    7.84
   1  -6   1  146.73    6.33
   1  -6   1  157.85    6.17
   1  -6   2   76.56    4.80
   1  -6   2   83.31    5.93
   1  -6   2   87.32    4.59
   1  -6   3    4.83    1.19
   1  -6   3    5.18    1.33
   1  -6   4    4.15    1.04
   1  -6   4    4.44    1.28
   1  -6   5  165.53    7.75
   1  -6   5  182.13    7.34
   1  -6   6   31.62    3.44
   1  -6   6   32.65    3.25
   1  -6   7    8.55    1.70
   1  -6   7   10.00    1.87
   1  -6   7    8.91    1.77
   1  -6   8   34.96    3.21
   1  -6   8   28.81    3.13
   1  -6   8   25.95    2.93
   1  -6   9    3.28    1.26
   1  -6   9    2.78    0.99
   1  -6  10   14.38    1.95
   1  -6  10   14.65    1.91
   1  -6  11    2.26    0.67
   1  -6  11    1.72    0.56
   1  -5 -11   24.77    2.04
   1  -5 -10   15.67    1.94
   1  -5  -9    0.50    0.67
   1  -5  -8   17.51    2.39
   1  -5  -7   43.83    3.79
   1  -5  -6   35.33    3.43
   1  -5  -5   26.71    2.85
   1  -5  -5   20.70    2.61
   1  -5  -4    7.14    1.48
   1  -5  -4    7.62    1.56
   1  -5  -3   47.17    4.25
   1  -5  -2  112.26    6.24
   1  -5  -1  196.56    8.01
   1  -5   0   38.49    3.49
   1  -5   1    4.46    1.24
   1  -5   2   11.61    2.11
   1  -5   3   69.32    5.59
   1  -5   4  489.76   15.81
   1  -5   5   57.25    4.15
   1  -5   6   33.88    3.19
   1  -5   6   38.41    3.47
   1  -5   7   11.15    2.02
   1  -5   7    7.65    1.58
   1  -5   8  196.59    8.53
   1  -5   9   12.68    2.16
   1  -5  10   29.35    3.08
   1  -5  11    0.86    0.60
   1  -5  12   33.11    2.52
   1  -5  12   30.77    2.42
   1  -4 -12   13.17    1.50
   1  -4 -11   27.31    2.52
   1  -4 -10   20.08    2.42
   1  -4  -9   59.34    4.32
   1  -4  -8   32.85    3.32
   1  -4  -7   14.74    2.22
   1  -4  -6  178.52    7.38
   1  -4  -5  607.99   15.69
   1  -4  -4   19.43    2.40
   1  -4  -4   17.70    2.51
   1  -4  -3    6.13    1.28
   1  -4  -3    2.98    0.95
   1  -4  -3    4.23    1.09
   1  -4  -2  168.75    6.09
   1  -4  -2  159.61    6.36
   1  -4  -2  161.06    5.44
   1  -4  -1  563.08   11.53
   1  -4  -1  586.09   10.88
   1  -4   0   17.32    1.89
   1  -4   0   15.51    1.74
   1  -4   0   14.19    1.80
   1  -4   1    2.54    0.70
   1  -4   1    3.64    1.03
   1  -4   2  233.89    7.34
   1  -4   2  222.84    8.20
   1  -4   3  477.53   12.99
   1  -4   3  510.48   11.75
   1  -4   4   94.23    5.49
   1  -4   4   84.90    5.95
   1  -4   5   25.52    3.47
   1  -4   5   23.51    3.03
   1  -4   6  616.04   17.45
   1  -4   6  513.43   15.72
   1  -4   7  122.51    6.37
   1  -4   8   -0.41    0.96
   1  -4   8    0.20    0.55
   1  -4   9   74.41    5.23
   1  -4   9   82.18    5.21
   1  -4  10    4.93    1.36
   1  -4  11    0.26    0.65
   1  -4  12    4.30    1.08
   1  -4  13    0.34    0.32
   1  -3 -13   32.77    2.16
   1  -3 -12   10.77    1.56
   1  -3 -11    1.38    0.72
  -1   3  10   64.40    4.08
   1  -3 -10   64.31    4.31
  -1   3   9  304.86    9.05
   1  -3  -9  286.97    9.44
   1  -3  -8    3.66    1.19
  -1   3   8    4.61    1.23
   1  -3  -7   65.22    5.28
   1  -3  -7   70.33    5.57
   1  -3  -7   72.84    4.63
   1  -3  -6   19.34    2.76
   1  -3  -6   17.70    2.62
   1  -3  -5   79.98    5.07
   1  -3  -5   72.86    4.95
   1  -3  -4  194.93    7.27
   1  -3  -4  205.26    7.30
  -1   3   3  946.01   12.79
   1  -3  -3  910.34   14.21
   1  -3  -3  948.47   13.52
   1  -3  -2  375.53    7.80
   1  -3  -2  354.16    8.19
   1  -3  -1    1.73    0.55
   1  -3  -1    1.13    0.42
   1  -3  -1    1.35    0.40
   1  -3  -1    0.74    0.36
   1  -3   0  392.86    7.75
   1  -3   0  374.21    6.98
   1  -3   0  368.58    7.73
   1  -3   0  369.19    7.00
   1  -3   1  211.32    5.88
   1  -3   1  207.84    6.24
   1  -3   1  207.73    5.22
   1  -3   1  209.96    5.45
   1  -3   2 1857.72   17.68
   1  -3   3   63.50    3.47
   1  -3   3   58.19    3.50
   1  -3   4   57.12    3.87
   1  -3   5  842.51   16.97
   1  -3   6  805.94   18.32
   1  -3   6  733.04   17.34
   1  -3   7   52.40    4.93
  -1   3  -7   42.54    4.99
   1  -3   8   59.31    4.27
   1  -3   8   63.34    4.62
   1  -3   9   65.07    4.64
   1  -3   9   71.14    5.04
   1  -3  10   63.92    4.67
   1  -3  10   63.82    4.57
   1  -3  11    4.51    1.31
   1  -3  12   30.16    2.91
   1  -3  13    6.03    1.18
   1  -3  14   10.14    1.20
   1  -2 -13   11.46    1.43
   1  -2 -12  123.06    4.95
   1  -2 -12  122.64    5.30
   1  -2 -11    0.57    0.64
  -1   2  10   31.39    2.96
   1  -2 -10   31.98    3.08
   1  -2  -9   62.77    4.31
  -1   2   9   64.16    4.20
   1  -2  -8    6.99    1.37
   1  -2  -7   95.96    6.08
   1  -2  -6   39.78    3.65
   1  -2  -5    2.83    0.75
   1  -2  -4  164.50    6.03
   1  -2  -4  160.20    6.01
   1  -2  -3  280.07    6.96
  -1   2   3  290.74    6.60
   1  -2  -3  283.31    6.90
   1  -2  -2   77.57    3.24
   1  -2  -2   77.10    3.13
  -1   2   2   82.07    2.84
   1  -2  -1  214.69    4.69
   1  -2  -1  220.35    5.00
   1  -2   0    8.70    0.87
   1  -2   0    9.83    1.09
   1  -2   0    8.85    0.93
   1  -2   0    9.62    1.02
   1  -2   1    0.30    0.29
   1  -2   1    0.69    0.38
   1  -2   1    0.96    0.32
   1  -2   2   13.70    1.57
   1  -2   2   14.04    1.30
   1  -2   3  581.45    9.89
   1  -2   3  575.05    8.62
   1  -2   3  569.76   10.77
   1  -2   4 2210.58   22.78
   1  -2   4 2204.81   22.84
   1  -2   5   -0.01    0.62
   1  -2   5    0.01    0.62
  -1   2  -6    7.39    1.71
   1  -2   6    9.02    1.69
   1  -2   7  180.41    8.16
   1  -2   7  181.34    7.82
   1  -2   8  541.78   14.90
  -1   2  -8  497.25   16.37
   1  -2   9    0.35    0.41
   1  -2   9   -0.02    0.63
   1  -2  10   67.99    4.65
   1  -2  10   68.05    4.87
   1  -2  11   17.85    2.41
   1  -2  11   17.85    2.39
   1  -2  12   80.64    4.83
   1  -2  13   14.53    1.90
   1  -2  14   10.10    1.32
  -1   2 -14   11.30    1.26
   1  -1 -14   17.00    1.44
   1  -1 -13   -0.15    0.41
   1  -1 -13   -0.38    0.51
   1  -1 -12    4.99    1.03
   1  -1 -11    7.27    1.45
  -1   1  10    4.33    1.06
   1  -1 -10    4.65    1.21
   1  -1  -9  213.39    7.65
  -1   1   9  225.77    7.83
   1  -1  -8   -1.30    0.86
   1  -1  -7  118.20    6.58
   1  -1  -6  970.10   17.73
   1  -1  -5  762.01   14.52
   1  -1  -4   24.47    2.29
   1  -1  -3  112.99    2.30
   1  -1  -3  120.94    4.36
   1  -1  -2 1832.71    9.97
   1  -1  -2 1850.85   13.92
  -1   1   2 1835.05   13.08
   1  -1  -1  474.49    5.82
   1  -1  -1  476.50    5.65
   1  -1   0   80.91    2.27
   1  -1   0   87.26    1.86
   1  -1   0   79.10    2.48
   1  -1   0   85.80    2.28
   1  -1   1 1126.70    7.96
   1  -1   1 1120.20    8.69
   1  -1   1 1120.07    8.35
   1  -1   2  195.21    4.51
   1  -1   2  188.89    4.15
   1  -1   3  713.36   11.09
   1  -1   3  693.22   10.81
   1  -1   4  263.45    7.63
  -1   1  -5 2015.08   25.24
   1  -1   5 2116.80   22.93
   1  -1   6   88.28    4.98
  -1   1  -6   85.38    5.63
   1  -1   6   84.82    4.78
   1  -1   7    9.85    1.75
   1  -1   7   10.75    1.88
  -1   1  -7    8.43    1.93
  -1   1  -8   75.55    5.98
   1  -1   9  191.24    7.36
  -1   1  -9  202.07   10.15
   1  -1  10    2.85    1.16
   1  -1  10    2.68    0.82
   1  -1  11  119.27    6.01
   1  -1  11  122.46    5.96
   1  -1  12   29.18    2.95
   1  -1  13    8.33    1.44
   1  -1  14   36.88    2.56
   1   0 -14    8.95    1.20
   1   0 -13    6.07    1.03
   1   0 -13    3.86    0.98
   1   0 -12   16.19    1.93
   1   0 -11   46.51    3.42
  -1   0  10    6.65    1.42
   1   0 -10    6.96    1.45
  -1   0   9  335.58    9.53
   1   0  -9  338.64    9.23
   1   0  -8    2.84    1.02
   1   0  -7   16.13    2.44
   1   0  -6   63.15    4.63
   1   0  -5    3.69    1.15
  -1   0   4  922.59    7.83
   1   0  -4  869.14   14.71
  -1   0   3  226.18    3.23
   1   0  -3  210.61    6.33
   1   0  -2 5616.65   27.08
   1   0  -1  106.19    2.29
   1   0  -1  102.00    2.34
   1   0   0  165.12    2.60
   1   0   0  166.33    1.74
   1   0   0  165.37    2.79
   1   0   1  726.82    6.50
  -1   0  -2  357.26    6.80
  -1   0  -3   70.72    3.71
   1   0   3   76.34    3.67
  -1   0  -4   53.77    3.66
   1   0   4   52.81    3.36
   1   0   5 3388.69   28.41
   1   0   5 3369.98   24.57
   1   0   6   11.47    1.76
   1   0   6   11.41    1.52
  -1   0  -6   11.34    2.02
  -1   0  -7  206.90    8.97
   1   0   7  214.91    8.03
  -1   0  -8   50.80    4.69
  -1   0  -9  128.82    7.61
   1   0  10  298.56    9.29
   1   0  10  298.18    9.54
   1   0  11    2.25    1.12
   1   0  11    2.14    0.85
   1   0  12   30.00    2.90
   1   0  13    5.37    1.25
   1   0  14   60.75    3.26
   1   1 -14    4.68    0.92
  -1  -1  13    5.38    1.02
  -1  -1  12   98.85    4.88
  -1  -1  11  137.23    6.08
   1   1 -11  131.00    5.65
   1   1 -10   13.46    1.90
  -1  -1  10   12.76    1.92
  -1  -1   9  188.37    7.21
   1   1  -8  648.87   16.69
   1   1  -7    8.75    1.93
   1   1  -6  118.54    6.48
   1   1  -5   81.73    5.06
   1   1  -4  255.59    8.09
  -1  -1   4  235.11    3.97
  -1  -1   4  249.94    7.58
  -1  -1   3  283.27    6.80
   1   1  -3  292.49    7.70
  -1  -1   2    0.77    0.33
  -1  -1   1  829.49    6.55
  -1  -1   0   73.87    1.31
  -1  -1   0   76.37    1.68
   1   1   0   74.78    1.12
  -1  -1  -1 2112.01    8.25
   1   1   1 2142.99    9.32
   1   1   2  452.46    4.52
  -1  -1  -2  466.30    6.45
  -1  -1  -3 1042.51   12.52
   1   1   4   14.24    1.82
  -1  -1  -4   15.57    1.88
  -1  -1  -5  174.69    6.81
   1   1   5  176.20    6.37
   1   1   6   34.20    3.01
  -1  -1  -6   41.47    3.62
  -1  -1  -7  490.39   13.18
   1   1   7  490.09   12.06
  -1  -1  -8  279.39   10.57
  -1  -1  -9  100.54    6.56
   1   1  10   22.12    2.46
   1   1  10   25.34    2.94
   1   1  11  221.90    8.26
   1   1  12   51.74    3.89
   1   1  13    3.27    0.98
   1   1  14    3.32    0.72
  -1  -2  14   15.03    1.40
   1   2 -14   15.44    1.54
  -1  -2  13    0.86    0.56
   1   2 -13   -0.44    0.70
  -1  -2  12   11.79    1.74
  -1  -2  11    0.93    0.68
  -1  -2  10   31.91    3.09
  -1  -2   9   75.67    4.64
   1   2  -8   79.04    6.10
   1   2  -7   30.23    3.63
   1   2  -6   32.50    3.47
   1   2  -5  649.86   14.33
  -1  -2   5  646.42   13.36
  -1  -2   4   58.40    3.48
  -1  -2   3   13.80    1.47
  -1  -2   2    7.26    0.92
  -1  -2   1  117.60    3.19
  -1  -2   0  511.05    6.30
  -1  -2   0  510.95    5.80
  -1  -2  -1 4793.22   18.50
  -1  -2  -2  129.74    3.37
   1   2   2  137.68    2.36
   1   2   3 1088.58    5.53
  -1  -2  -4  939.96   13.44
   1   2   4  926.06   13.87
  -1  -2  -5   13.27    1.87
   1   2   5   10.87    1.72
  -1  -2  -6   11.21    1.87
  -1  -2  -7   18.27    2.54
   1   2   7   20.97    2.53
  -1  -2  -8   15.31    2.48
   1   2   9  231.82    8.27
  -1  -2  -9  215.97    7.61
  -1  -2 -10   72.71    4.49
   1   2  10   71.42    4.74
   1   2  11   -0.07    0.59
  -1  -2 -11   -0.11    0.53
   1   2  12   16.60    2.21
   1   2  13    6.67    1.28
   1   3 -14   18.63    1.48
  -1  -3  14   20.46    1.61
  -1  -3  13    0.06    0.44
   1   3 -13   -0.38    0.55
  -1  -3  12   73.83    4.38
   1   3 -12   63.30    3.75
  -1  -3  11   71.89    4.65
  -1  -3  10   84.45    5.12
  -1  -3   9  417.55   11.42
   1   3  -8  131.56    8.31
   1   3  -7   44.51    4.62
   1   3  -6  511.97   14.67
  -1  -3   6  489.48   13.28
  -1  -3   5  349.88   10.10
  -1  -3   4  293.46    8.14
  -1  -3   3  651.15   10.81
  -1  -3   2  608.11    9.42
  -1  -3   1  540.08    8.32
  -1  -3   1  539.21    7.87
  -1  -3   0  143.63    4.18
  -1  -3   0  144.00    4.01
  -1  -3  -1  640.88    8.53
  -1  -3  -1  636.51    4.98
  -1  -3  -2  511.31    8.13
  -1  -3  -3  360.90    7.54
  -1  -3  -4  238.03    6.92
   1   3   4  243.59    7.41
  -1  -3  -5 1959.91   21.99
   1   3   5 1998.11   24.09
  -1  -3  -6   39.84    3.45
   1   3   6   44.12    4.08
  -1  -3  -7   36.88    3.63
  -1  -3  -8    7.15    1.76
   1   3   9  503.57   12.30
  -1  -3  -9  488.87   12.26
   1   3  10   64.65    4.45
  -1  -3 -10   69.67    4.63
  -1  -3 -11   70.17    4.46
   1   3  11   72.57    4.60
   1   3  12   41.19    3.23
  -1  -3 -12   47.20    3.34
  -1  -4  13    1.40    0.52
  -1  -4  12   31.68    2.83
   1   4 -12   26.90    2.24
  -1  -4  11    4.46    1.24
   1   4 -11    4.65    1.05
  -1  -4  10    0.62    0.58
  -1  -4   9   13.90    2.23
  -1  -4   8   80.00    5.13
   1   4  -7  312.06   13.40
  -1  -4   7  274.01   11.54
  -1  -4   6   40.44    4.06
  -1  -4   5  126.14    6.43
  -1  -4   4   96.89    5.18
  -1  -4   3 1683.96   19.59
  -1  -4   2  649.03   11.38
  -1  -4   1    8.32    1.24
  -1  -4   1    9.60    1.31
  -1  -4   0   17.07    1.76
  -1  -4   0   18.24    1.77
  -1  -4  -1  350.59    7.86
  -1  -4  -1  377.61    8.02
  -1  -4  -2   90.67    4.14
  -1  -4  -2   85.83    4.06
  -1  -4  -3  127.88    5.26
   1   4   4  223.37    7.58
  -1  -4  -4  222.11    7.52
   1   4   5  145.64    6.94
  -1  -4  -5  154.03    6.83
  -1  -4  -6    0.76    0.66
   1   4   6    0.35    0.74
  -1  -4  -7   26.35    3.25
  -1  -4  -8  143.44    6.90
   1   4   8  148.99    6.57
   1   4   9  122.16    6.08
  -1  -4  -9  111.28    6.18
   1   4  10    7.34    1.57
  -1  -4 -10    6.84    1.59
  -1  -4 -11   96.73    5.23
   1   4  11   92.18    4.89
   1   4  12   47.34    3.13
  -1  -4 -12   51.05    3.44
  -1  -4 -13   15.65    1.52
  -1  -5  13    4.84    0.89
  -1  -5  12   25.51    2.38
  -1  -5  11    2.80    1.09
  -1  -5  10   12.15    2.04
  -1  -5   9   12.42    2.12
  -1  -5   8   23.74    2.99
  -1  -5   7    6.99    1.57
  -1  -5   6  216.65   10.22
  -1  -5   6  238.17    8.54
  -1  -5   5  201.23    9.03
  -1  -5   4   34.41    3.50
  -1  -5   3    6.15    1.46
  -1  -5   2   42.71    3.36
  -1  -5   1   19.88    2.21
  -1  -5   1   25.00    2.46
  -1  -5   0  237.86    7.57
  -1  -5   0  231.82    7.46
  -1  -5  -1   41.61    3.20
  -1  -5  -1   40.72    3.13
  -1  -5  -2  111.86    5.37
  -1  -5  -2  100.85    5.13
  -1  -5  -3  298.83    9.22
  -1  -5  -3  285.57    9.05
  -1  -5  -4   23.46    2.82
   1   5   4   18.87    2.45
   1   5   5    9.25    1.82
  -1  -5  -5   10.62    2.05
   1   5   6    9.94    2.01
  -1  -5  -7   38.06    3.56
  -1  -5  -8    5.95    1.61
   1   5   9   -0.59    0.75
  -1  -5  -9    0.26    0.63
  -1  -5 -10   21.61    2.64
   1   5  10   17.08    2.11
   1   5  11    2.95    0.81
  -1  -5 -11    5.05    1.22
  -1  -5 -12    1.95    0.66
  -1  -6  12   22.49    1.96
  -1  -6  11    0.61    0.70
  -1  -6  10   32.58    3.18
  -1  -6   9   62.91    4.70
  -1  -6   8  127.70    6.88
  -1  -6   7   21.65    2.84
  -1  -6   6   92.05    5.67
  -1  -6   5   30.22    3.10
  -1  -6   4  179.28    7.15
  -1  -6   3   -0.39    1.03
  -1  -6   2   34.25    3.54
  -1  -6   1  124.65    6.37
  -1  -6   0   53.40    4.17
  -1  -6   0   52.71    4.08
  -1  -6  -1  345.56   10.63
  -1  -6  -1  358.09   10.83
  -1  -6  -2   20.02    2.65
  -1  -6  -2   24.22    2.89
  -1  -6  -3   52.09    4.45
  -1  -6  -3   47.26    4.21
  -1  -6  -4  149.81    6.39
  -1  -6  -5  310.46    9.24
  -1  -6  -6    1.02    0.55
  -1  -6  -7   33.50    3.46
  -1  -6  -8    0.17    0.75
  -1  -6  -9   23.42    2.73
  -1  -6 -10    5.67    1.34
  -1  -6 -11   28.52    2.36
  -1  -7  11    0.35    0.32
  -1  -7  10   57.79    3.71
  -1  -7   9   26.96    2.49
  -1  -7   9   24.76    2.74
  -1  -7   8   60.97    4.54
  -1  -7   7   18.32    2.64
  -1  -7   6    0.62    0.79
  -1  -7   5    9.95    1.88
  -1  -7   4   78.40    5.01
  -1  -7   3   46.07    3.68
  -1  -7   3   46.32    4.28
  -1  -7   2    0.82    0.63
  -1  -7   2    0.73    0.89
  -1  -7   1   10.04    2.04
  -1  -7   0    4.22    1.45
  -1  -7  -1  464.41   13.10
  -1  -7  -2  321.57   10.67
  -1  -7  -3    9.05    1.76
  -1  -7  -4   39.76    3.58
  -1  -7  -5   23.44    2.70
  -1  -7  -6   20.21    2.63
  -1  -7  -6   24.33    2.61
  -1  -7  -7    0.01    0.78
  -1  -7  -8   -0.07    0.52
  -1  -7  -9   15.09    1.89
  -1  -7 -10    1.01    0.54
  -1  -8   9    9.69    1.26
  -1  -8   9    7.21    1.21
  -1  -8   8   17.47    2.02
  -1  -8   8   15.86    2.03
  -1  -8   7    1.07    0.94
  -1  -8   7    0.99    0.59
  -1  -8   6   53.46    4.35
  -1  -8   6   49.72    3.91
  -1  -8   5   26.31    2.90
  -1  -8   4    7.36    1.59
  -1  -8   3   34.86    3.89
  -1  -8   3   26.74    3.09
  -1  -8   2   95.79    6.72
  -1  -8   2   99.98    5.68
  -1  -8   1    5.81    1.42
  -1  -8   1    5.85    1.66
  -1  -8   0   26.55    2.68
  -1  -8   0   27.53    3.60
  -1  -8  -1   59.59    5.10
  -1  -8  -2   19.81    2.88
  -1  -8  -3   10.87    2.03
  -1  -8  -4   13.39    2.17
  -1  -8  -4   11.68    1.95
  -1  -8  -5  105.64    5.49
  -1  -8  -5  104.93    5.64
  -1  -8  -6    1.61    0.88
  -1  -8  -6   -0.43    0.55
  -1  -8  -7   67.31    4.03
  -1  -8  -8   -0.48    0.58
  -1  -8  -9   32.55    2.09
  -1  -9   7    0.94    0.56
  -1  -9   6   31.26    2.83
  -1  -9   5    9.13    1.72
  -1  -9   4   65.29    4.48
  -1  -9   3   21.38    2.57
  -1  -9   3   30.19    3.25
  -1  -9   2   11.86    1.87
  -1  -9   2   16.41    2.74
  -1  -9   1   -0.44    0.68
  -1  -9   1   -0.54    0.72
  -1  -9   0   22.61    2.26
  -1  -9   0   21.88    3.19
  -1  -9  -1    2.88    1.29
  -1  -9  -2    4.01    1.39
  -1  -9  -3   13.52    2.08
  -1  -9  -3   14.60    2.06
  -1  -9  -4    9.28    1.59
  -1  -9  -4    9.46    1.54
  -1  -9  -5   16.33    1.84
  -1  -9  -5   20.16    2.09
  -1  -9  -6    5.81    1.03
  -1 -10   1   -0.56    0.55
  -1 -10   0   10.17    1.72
  -1 -10  -1   10.75    1.71
  -1 -10  -2   -0.16    0.50
   2  -8  -4    8.39    1.27
   2  -8  -4    7.92    1.26
   2  -8  -3    3.74    0.97
   2  -8  -2   21.78    2.36
   2  -8  -1    1.49    0.68
   2  -8  -1    3.54    0.95
   2  -8   0   -1.40    0.68
   2  -8   0    0.00    0.40
   2  -8   1    8.95    1.57
   2  -8   2    5.37    1.27
   2  -8   3    6.50    1.42
   2  -8   4    6.61    1.36
   2  -8   5    5.98    1.41
   2  -8   6   10.94    1.56
   2  -7  -7   38.30    2.20
   2  -7  -7   40.03    2.51
   2  -7  -6   27.45    2.31
   2  -7  -5    8.11    1.59
   2  -7  -4    9.38    1.70
   2  -7  -3   42.96    3.90
   2  -7  -2    9.21    1.94
   2  -7  -2    8.62    2.07
   2  -7  -2    9.50    1.50
   2  -7  -1    0.45    0.98
   2  -7  -1    1.33    0.85
   2  -7  -1    2.60    1.40
   2  -7   0  103.43    7.04
   2  -7   0  112.68    5.62
   2  -7   0  109.80    6.18
   2  -7   1   -0.48    0.64
   2  -7   1   -0.28    0.92
   2  -7   2    6.62    1.83
   2  -7   2    5.75    1.29
   2  -7   3   16.50    2.52
   2  -7   4   15.20    2.11
   2  -7   4   12.18    2.16
   2  -7   5    3.64    1.00
   2  -7   5    3.00    0.95
   2  -7   6   -0.03    0.65
   2  -7   6    0.15    0.67
   2  -7   7    4.76    1.15
   2  -7   8   13.84    1.73
   2  -7   9    8.19    1.16
   2  -6  -9    1.83    0.53
   2  -6  -9    1.56    0.53
   2  -6  -8    5.68    1.08
   2  -6  -8    5.52    0.98
   2  -6  -7    6.65    1.21
   2  -6  -7    7.69    1.43
   2  -6  -6   41.22    3.27
   2  -6  -5    5.81    1.47
   2  -6  -3   29.37    3.40
   2  -6  -2   18.39    2.94
   2  -6  -2   18.17    2.20
   2  -6  -1  196.85    9.41
   2  -6   0   -0.04    0.74
   2  -6   0    0.47    0.56
   2  -6   0    0.10    0.67
   2  -6   1   44.22    3.63
   2  -6   1   46.48    3.92
   2  -6   1   40.03    4.46
   2  -6   2  172.75    7.49
   2  -6   2  185.26    9.35
   2  -6   2  174.73    6.84
   2  -6   3  229.12    9.00
   2  -6   3  251.63    8.29
   2  -6   4   16.68    2.53
   2  -6   4   15.12    2.12
   2  -6   5   19.33    2.74
   2  -6   5   24.46    2.74
   2  -6   6    1.95    1.09
   2  -6   6    1.39    0.87
   2  -6   7   28.23    3.05
   2  -6   7   22.58    2.75
   2  -6   8   24.24    2.49
   2  -6   8   19.50    2.46
   2  -6   9   15.76    2.09
   2  -6  10    0.87    0.69
   2  -6  11   30.05    2.04
   2  -5 -10   48.79    2.81
   2  -5  -9   16.86    1.85
   2  -5  -9   16.14    1.89
   2  -5  -8    1.12    0.68
   2  -5  -7   19.99    2.42
   2  -5  -7   19.38    2.17
   2  -5  -6   25.21    2.85
   2  -5  -5    2.67    0.97
   2  -5  -4    2.51    1.01
   2  -5  -3  100.51    6.00
   2  -5  -2   61.00    4.74
   2  -5  -1   34.04    3.63
   2  -5  -1   30.93    2.74
   2  -5   0   49.13    3.39
   2  -5   0   45.84    3.36
   2  -5   0   46.41    4.30
   2  -5   1   68.60    3.95
   2  -5   1   62.39    4.05
   2  -5   1   62.95    5.06
   2  -5   1   61.66    4.23
   2  -5   2    6.13    1.65
   2  -5   2    4.10    1.08
   2  -5   2    5.24    1.27
   2  -5   2    4.21    1.03
   2  -5   3   27.22    2.58
   2  -5   3   24.78    2.75
   2  -5   3   23.56    2.67
   2  -5   4    6.02    1.47
   2  -5   4    7.86    1.69
   2  -5   4    8.50    1.53
   2  -5   5   77.02    4.72
   2  -5   5   70.13    4.94
   2  -5   5   72.85    5.01
   2  -5   6   41.63    3.68
   2  -5   6   41.87    3.87
   2  -5   6   38.00    3.64
   2  -5   7    2.84    1.07
   2  -5   7    2.29    1.04
   2  -5   7    0.74    0.54
   2  -5   8    2.98    1.17
   2  -5   8    4.05    1.16
   2  -5   9   33.97    3.47
   2  -5   9   37.34    3.42
   2  -5  10   58.15    4.24
   2  -5  10   62.28    4.10
   2  -5  11    7.20    1.22
   2  -5  11    6.15    1.24
   2  -5  12   10.09    1.24
   2  -4 -12   25.65    1.69
   2  -4 -11    1.17    0.65
   2  -4 -10   51.54    3.46
   2  -4  -9   49.21    3.68
   2  -4  -9   51.20    3.42
   2  -4  -8   66.28    4.46
   2  -4  -7   35.47    3.38
   2  -4  -6    4.52    1.31
   2  -4  -5  112.29    5.79
   2  -4  -5  104.75    5.76
   2  -4  -4  149.97    7.75
   2  -4  -3   72.92    5.04
   2  -4  -3   81.73    5.03
   2  -4  -2    2.29    0.87
   2  -4  -2    3.21    0.98
   2  -4  -1   62.76    3.94
   2  -4  -1   57.10    4.03
   2  -4   0  405.59    9.81
   2  -4   0  368.74   10.01
   2  -4   1  305.81    9.30
   2  -4   1  274.84    8.59
   2  -4   2   28.86    3.26
   2  -4   2   29.11    3.18
   2  -4   3   40.68    4.13
   2  -4   3   36.96    3.53
   2  -4   4  237.00   10.56
   2  -4   5   67.17    5.98
   2  -4   6  209.96    7.94
   2  -4   6  202.74    7.94
   2  -4   7  284.40    9.32
   2  -4   8  288.67   10.18
   2  -4   8  321.64    9.65
   2  -4   9    0.33    0.70
   2  -4   9    0.96    0.63
   2  -4  10   11.68    1.90
   2  -4  11   85.18    4.85
   2  -4  12    0.09    0.43
   2  -4  13    0.64    0.33
   2  -4  13    1.80    0.51
   2  -3 -12   10.89    1.36
   2  -3 -11    0.91    0.46
   2  -3 -10   18.43    2.29
   2  -3  -9   -0.11    0.54
   2  -3  -8  100.41    5.62
   2  -3  -7  135.14    6.54
   2  -3  -6   59.87    4.24
   2  -3  -6   54.39    4.81
   2  -3  -6   52.79    4.86
   2  -3  -5   49.56    4.40
   2  -3  -5   50.74    4.40
   2  -3  -4  832.36   16.42
   2  -3  -4  767.29   15.83
   2  -3  -3   29.59    2.89
   2  -3  -3   26.56    2.68
   2  -3  -2  114.48    5.15
   2  -3  -2  119.48    5.16
   2  -3  -1   69.26    3.78
   2  -3  -1   77.44    3.92
   2  -3   0    1.84    0.63
   2  -3   0    0.94    0.57
   2  -3   1    4.40    0.89
   2  -3   1    5.25    1.15
   2  -3   1    4.39    1.00
   2  -3   2  196.43    7.34
   2  -3   2  195.03    7.44
   2  -3   3 1126.32   19.23
   2  -3   3 1111.05   17.01
   2  -3   4   15.88    2.05
   2  -3   4   10.57    2.11
   2  -3   5   25.26    3.29
   2  -3   6   15.30    2.84
  -2   3  -7  686.00   20.23
   2  -3   8    4.14    1.20
   2  -3   8    3.02    0.91
   2  -3   9   26.51    3.14
   2  -3   9   26.74    3.00
   2  -3  10   24.58    2.84
   2  -3  10   22.36    2.82
   2  -3  11   39.67    3.45
   2  -3  11   43.48    3.69
   2  -3  12    9.77    1.66
   2  -3  13   14.66    1.68
   2  -2 -13   18.38    1.63
   2  -2 -12    3.15    0.90
   2  -2 -11    4.59    1.14
   2  -2 -10   13.69    1.96
   2  -2  -9    0.05    0.69
  -2   2   8   18.06    2.13
   2  -2  -8   20.46    2.48
   2  -2  -7    1.00    0.75
   2  -2  -7    0.17    0.45
   2  -2  -6  197.46    8.74
   2  -2  -6  185.35    8.38
   2  -2  -5  291.27    9.71
   2  -2  -5  311.58   10.17
   2  -2  -4  112.13    5.47
   2  -2  -4  112.90    5.39
   2  -2  -3   51.96    3.35
   2  -2  -3   51.84    3.29
   2  -2  -2 1082.28   13.98
   2  -2  -2 1036.41   13.15
   2  -2  -1  729.33    8.06
   2  -2  -1  712.30   10.45
   2  -2   0   18.27    1.55
   2  -2   0   22.66    1.41
   2  -2   0   20.08    1.69
   2  -2   1  557.48   11.16
   2  -2   1  553.79    9.98
   2  -2   1  555.31    7.70
   2  -2   1  575.62    9.17
   2  -2   2  418.97    9.59
   2  -2   2  418.98    9.52
   2  -2   2  408.09    9.40
   2  -2   2  437.71    8.04
   2  -2   3   23.56    2.47
   2  -2   3   23.46    2.45
   2  -2   3   24.75    2.31
   2  -2   3   22.91    2.17
   2  -2   4   88.20    5.26
   2  -2   4  100.26    5.26
   2  -2   4   89.72    5.25
   2  -2   5   28.57    3.18
   2  -2   5   28.66    3.17
   2  -2   6    1.93    1.15
   2  -2   6    1.63    0.76
  -2   2  -6    2.35    0.97
  -2   2  -7    0.54    0.73
   2  -2   7    2.06    1.04
   2  -2   8   34.42    4.04
   2  -2   8   34.33    3.92
  -2   2  -8   32.30    4.25
   2  -2   9  240.15    9.20
   2  -2   9  230.81    8.68
   2  -2  10   48.28    4.09
   2  -2  10   50.38    4.12
   2  -2  11    1.79    0.81
   2  -2  11    1.97    0.93
   2  -2  12    2.40    0.76
   2  -2  12    2.60    1.02
   2  -2  13   70.01    3.95
   2  -2  14    0.34    0.29
   2  -1 -13   90.64    3.82
   2  -1 -13   94.26    3.71
   2  -1 -12    5.16    1.09
   2  -1 -12    2.65    0.80
   2  -1 -11   19.32    2.21
   2  -1 -11   20.76    2.31
   2  -1 -10   23.56    2.59
   2  -1  -9   72.16    4.54
  -2   1   8   37.96    3.05
   2  -1  -8   39.62    3.30
   2  -1  -7    4.32    1.38
   2  -1  -6  252.83    9.36
   2  -1  -6  256.70    9.24
   2  -1  -5    3.40    1.05
   2  -1  -4  954.23   14.98
   2  -1  -3   33.38    2.00
   2  -1  -3   33.00    2.34
   2  -1  -3   33.51    2.49
   2  -1  -2    2.08    0.46
   2  -1  -2    4.72    0.80
   2  -1  -2    3.56    0.75
   2  -1  -1 2138.97   17.03
   2  -1  -1 2123.34   16.21
   2  -1  -1 2163.06   14.32
   2  -1   0 1658.15   11.61
   2  -1   0 1641.91   15.40
   2  -1   0 1643.98   17.21
   2  -1   0 1664.35    7.88
   2  -1   0 1610.82   13.44
   2  -1   1  431.32    5.51
   2  -1   1  409.04    6.83
   2  -1   1  409.19    5.80
   2  -1   1  398.41    7.64
   2  -1   1  411.11    7.58
   2  -1   1  411.22    8.43
   2  -1   2    9.13    1.31
   2  -1   2    7.13    1.00
   2  -1   2    7.83    1.24
   2  -1   2    8.22    1.28
   2  -1   3    4.39    1.06
   2  -1   3    2.63    0.94
   2  -1   4  330.01    9.76
   2  -1   4  326.07    9.04
   2  -1   5  987.50   17.12
  -2   1  -5 1010.82   18.32
   2  -1   5 1033.25   18.30
   2  -1   6  765.55   15.90
   2  -1   6  777.15   16.68
  -2   1  -6  721.23   16.62
   2  -1   7   40.14    3.92
  -2   1  -7   36.52    4.07
   2  -1   7   39.98    3.96
   2  -1   8  202.34    9.11
  -2   1  -8  191.95    9.81
   2  -1   8  204.21    9.06
   2  -1   9  235.95    8.51
   2  -1  10   13.64    2.13
   2  -1  11  207.40    8.15
   2  -1  12    1.69    1.00
   2  -1  12    0.91    0.78
   2  -1  13    0.35    0.49
   2  -1  14    1.96    0.61
   2   0 -14    0.18    0.33
   2   0 -13   26.42    2.14
   2   0 -13   24.48    2.15
   2   0 -12    4.90    1.17
   2   0 -12    3.75    0.98
   2   0 -11    1.36    0.78
   2   0 -10    0.02    0.54
   2   0  -9  107.79    5.40
   2   0  -8   15.07    2.40
   2   0  -7   51.13    4.35
   2   0  -6  389.05   11.35
   2   0  -5   13.34    1.98
   2   0  -4 2665.13   24.59
   2   0  -4 2750.79   19.88
   2   0  -3  268.12    6.12
   2   0  -3  264.77    5.79
   2   0  -3  279.51    6.71
   2   0  -2    3.23    0.70
   2   0  -2    3.35    0.64
   2   0  -2    3.74    0.69
   2   0  -2    2.94    0.65
   2   0  -1 2291.93   14.65
   2   0  -1 2353.80   15.42
   2   0  -1 2348.32   10.69
   2   0  -1 2365.95   11.73
   2   0  -1 2280.05   17.61
   2   0   0 9993.83   30.79
   2   0   0 9999.00   32.80
   2   0   1 2774.19   17.54
   2   0   1 2826.24   15.63
   2   0   2 1114.82   11.83
  -2   0  -3 1416.20   16.80
   2   0   3 1419.56   18.46
   2   0   3 1439.93   15.12
   2   0   4  168.58    5.74
   2   0   4  184.75    7.22
  -2   0  -4  174.14    6.56
   2   0   5 1538.92   22.13
   2   0   5 1478.20   18.52
   2   0   6  226.56    8.87
   2   0   6  224.06    7.81
  -2   0  -6  229.92    9.02
  -2   0  -7  432.30   13.18
   2   0   7  450.55   11.74
   2   0   7  448.34   13.08
  -2   0  -8  161.56    8.46
   2   0   8  175.94    8.40
  -2   0  -9  139.66    8.08
   2   0   9  127.04    6.06
   2   0  10    4.80    1.32
   2   0  10    5.41    1.40
   2   0  11  178.10    7.34
   2   0  11  184.36    7.61
   2   0  12   15.50    2.15
   2   0  12   18.01    2.24
   2   0  13    5.46    1.27
   2   0  14    4.83    0.99
   2   1 -14    1.21    0.44
   2   1 -13    0.99    0.65
   2   1 -13    1.16    0.55
   2   1 -12   32.68    2.63
   2   1 -12   30.68    2.77
   2   1 -11   72.29    4.26
   2   1 -10   34.76    3.03
   2   1  -9  125.81    5.77
   2   1  -8    2.72    1.28
   2   1  -7  192.59    8.48
   2   1  -6   35.08    3.53
   2   1  -5  916.66   16.88
   2   1  -4  235.10    7.89
  -2  -1   3  419.17    8.94
   2   1  -3  454.33    9.98
   2   1  -2   88.97    3.93
   2   1  -2   85.72    2.88
  -2  -1   2   80.30    3.14
   2   1  -1 9497.47   32.83
  -2  -1   1 9541.29   23.62
   2   1   0 2494.10   15.36
  -2  -1   0 2509.00    9.23
   2   1   0 2471.15   12.07
   2   1   1    3.17    0.58
  -2  -1  -2 1876.52   12.04
   2   1   2 1855.59   13.35
   2   1   3  405.09    6.64
   2   1   3  402.11    8.24
  -2  -1  -3  411.80    7.83
   2   1   3  412.76   10.07
   2   1   4   42.03    3.22
  -2  -1  -4   43.02    3.00
   2   1   4   46.45    3.54
   2   1   5  228.81    8.29
  -2  -1  -5  232.93    7.80
   2   1   6    8.87    1.86
  -2  -1  -6    8.44    1.65
   2   1   7  126.54    6.80
  -2  -1  -7  121.04    6.61
   2   1   8  243.08    9.61
  -2  -1  -8  239.43    9.83
   2   1   9  713.66   14.75
  -2  -1  -9  699.08   17.44
   2   1  10   31.44    3.06
   2   1  10   35.73    3.40
   2   1  11  140.17    6.68
   2   1  11  143.89    6.55
   2   1  12    1.05    0.74
   2   1  12   -0.06    0.43
   2   1  13   80.27    4.39
   2   1  14   11.93    1.48
   2   2 -14    0.30    0.37
   2   2 -13   23.06    2.16
   2   2 -12    2.82    0.89
   2   2 -12    4.93    1.01
  -2  -2  11  119.60    5.48
   2   2 -11  116.39    5.34
   2   2 -10    0.36    0.53
  -2  -2  10    1.71    0.70
  -2  -2   9  243.07    7.93
   2   2  -9  246.74    8.13
   2   2  -8   90.44    6.28
   2   2  -7   18.02    2.75
   2   2  -6  217.96    9.06
  -2  -2   5  303.60    9.29
   2   2  -5  293.82    9.52
  -2  -2   4  355.17    8.91
   2   2  -4  344.40    9.53
  -2  -2   3   47.49    2.75
   2   2  -3   51.40    3.26
  -2  -2   2   44.38    2.23
  -2  -2   1 7073.11   24.61
   2   2  -1 7096.76   17.63
   2   2   0 7104.99   15.55
  -2  -2   0 7111.55   23.68
   2   2   1  472.97    6.65
  -2  -2  -1  474.76    4.73
  -2  -2  -2  192.34    3.55
   2   2   2  189.51    3.98
   2   2   3  804.46    8.44
  -2  -2  -3  814.26    9.94
   2   2   4   36.12    2.88
   2   2   4   41.30    1.99
  -2  -2  -4   42.76    2.73
  -2  -2  -5  363.17    9.18
   2   2   5  358.70   10.16
  -2  -2  -6   23.88    2.63
   2   2   6   22.53    2.76
   2   2   7    9.66    1.95
  -2  -2  -7    9.18    1.86
   2   2   8  174.38    8.28
  -2  -2  -8  156.45    7.88
   2   2   9  108.24    5.84
   2   2  10   25.85    2.95
   2   2  11    9.36    1.78
   2   2  12   -0.13    0.63
   2   2  13    7.92    1.43
   2   2  14    2.30    0.67
   2   3 -14    1.16    0.47
  -2  -3  13   17.10    1.67
   2   3 -13   15.23    1.70
  -2  -3  12    1.96    0.77
   2   3 -12    0.87    0.55
  -2  -3  11    0.50    0.60
   2   3 -11    1.23    0.66
   2   3 -11   -0.15    0.41
  -2  -3  10   20.19    2.45
   2   3 -10   17.74    2.17
   2   3  -9  139.36    6.26
  -2  -3   9  142.19    6.40
   2   3  -8    0.28    0.75
   2   3  -7    3.85    1.36
  -2  -3   6  104.63    6.17
   2   3  -6  104.62    6.51
   2   3  -5  252.39    9.30
  -2  -3   5  262.85    8.73
  -2  -3   4  397.19    9.45
  -2  -3   3  264.69    6.89
  -2  -3   2  145.25    4.57
   2   3  -2  148.79    2.65
  -2  -3   1   27.35    1.91
  -2  -3   0   45.85    2.08
  -2  -3   0   47.24    2.40
  -2  -3  -1    9.86    1.15
  -2  -3  -1    9.71    0.96
   2   3   2  814.08    8.80
  -2  -3  -2  833.57    9.36
   2   3   3  763.14    7.85
  -2  -3  -3  746.82    9.89
   2   3   4  348.39    8.98
  -2  -3  -4  348.58    7.68
   2   3   5   33.64    3.18
  -2  -3  -5   32.01    2.64
  -2  -3  -6  196.99    7.26
   2   3   6  209.10    8.83
  -2  -3  -7  270.17    9.31
   2   3   7  303.92   10.83
  -2  -3  -8  215.85    8.92
   2   3   9   74.26    4.92
  -2  -3  -9   69.95    4.51
   2   3  10   32.99    3.33
   2   3  11   36.80    3.49
   2   3  12   -0.08    0.54
   2   3  13   11.03    1.59
   2   3  14    6.84    0.91
  -2  -4  13   14.97    1.55
   2   4 -13   15.35    1.44
  -2  -4  12    1.61    0.72
   2   4 -12    2.30    0.74
   2   4 -11  119.16    5.35
  -2  -4  11  125.28    5.86
  -2  -4  10    7.36    1.62
   2   4 -10    7.73    1.54
  -2  -4   9   38.02    3.48
   2   4  -9   38.08    3.27
  -2  -4   8  148.61    6.75
   2   4  -8  165.57    7.07
   2   4  -7  422.61   14.81
  -2  -4   7  438.70   14.48
  -2  -4   6   79.95    5.66
   2   4  -6   78.42    6.05
  -2  -4   5    1.63    0.79
  -2  -4   4  387.67   10.21
  -2  -4   3  700.05   12.57
  -2  -4   2  406.74    8.90
  -2  -4   1  104.78    4.33
  -2  -4   0  428.70    8.58
  -2  -4   0  425.08    7.86
  -2  -4  -1 1003.16   13.19
  -2  -4  -1 1016.20   12.30
   2   4   2    1.66    0.56
  -2  -4  -2    1.43    0.54
  -2  -4  -3  575.22   10.27
  -2  -4  -4  571.41   11.15
  -2  -4  -5  211.53    7.48
   2   4   5  216.94    8.45
  -2  -4  -6   95.71    5.55
   2   4   6   99.80    6.45
  -2  -4  -7  142.85    7.29
   2   4   7  167.91    9.06
  -2  -4  -8  242.93    8.83
   2   4   8  249.20    8.75
   2   4   9  106.03    5.91
  -2  -4  -9  105.33    5.99
   2   4  10   11.31    1.91
  -2  -4 -10    9.46    1.74
   2   4  11   96.74    5.29
  -2  -4 -11  111.35    5.60
   2   4  12   25.90    2.53
   2   4  13   19.45    1.88
  -2  -5  13    1.90    0.48
  -2  -5  12    0.44    0.42
  -2  -5  11   40.75    3.31
  -2  -5  10  181.35    7.52
  -2  -5   9   33.26    3.40
  -2  -5   8   24.05    2.90
  -2  -5   7   31.68    3.22
  -2  -5   6    1.94    1.00
  -2  -5   5    4.72    1.33
  -2  -5   4   47.70    4.02
  -2  -5   3   79.76    4.84
  -2  -5   2    0.50    0.55
  -2  -5   1  276.24    8.20
  -2  -5   0  690.14   12.58
  -2  -5   0  708.89   12.21
  -2  -5  -1  124.43    5.38
  -2  -5  -1  142.34    5.52
  -2  -5  -2    9.98    1.51
  -2  -5  -2    9.34    1.52
  -2  -5  -3   53.84    3.86
  -2  -5  -3   57.13    3.75
  -2  -5  -4  129.75    6.12
  -2  -5  -5   19.36    2.60
   2   5   5   23.07    3.02
   2   5   6    3.53    1.22
  -2  -5  -6    5.13    1.50
   2   5   7    6.46    1.49
   2   5   7    6.44    1.42
  -2  -5  -8   30.26    3.35
   2   5   8   29.98    3.12
   2   5   9   47.42    3.87
  -2  -5  -9   45.76    4.14
   2   5  10   18.18    2.38
  -2  -5 -10   21.59    2.72
  -2  -5 -11   24.05    2.55
   2   5  11   24.92    2.47
   2   5  12   40.78    2.75
  -2  -5 -12   46.38    2.98
  -2  -6  12    1.03    0.46
  -2  -6  11    5.92    1.24
  -2  -6  10    6.84    1.47
  -2  -6   9    2.85    0.95
  -2  -6   8   25.39    3.06
  -2  -6   7   62.39    4.72
  -2  -6   6    1.88    0.80
  -2  -6   5  171.30    7.35
  -2  -6   4   69.51    5.35
  -2  -6   3   21.24    2.79
  -2  -6   2   12.47    2.12
  -2  -6   1   47.08    3.89
  -2  -6   0   17.77    2.38
  -2  -6   0   13.77    2.08
  -2  -6  -1   61.32    4.39
  -2  -6  -1   57.28    4.15
  -2  -6  -2   51.57    4.01
  -2  -6  -2   50.43    4.13
  -2  -6  -3   10.47    1.98
  -2  -6  -3   12.57    2.05
  -2  -6  -4   16.42    2.60
  -2  -6  -4   21.93    2.85
   2   6   4   18.91    2.71
   2   6   5    1.98    0.50
   2   6   6   59.63    4.34
  -2  -6  -7    6.30    1.47
  -2  -6  -8    0.79    0.79
   2   6   9   35.92    3.17
  -2  -6  -9   33.33    3.45
   2   6  10   48.62    3.34
  -2  -6 -10   43.86    3.62
   2   6  11   14.33    1.54
  -2  -6 -11   16.21    1.91
  -2  -6 -12    6.88    0.96
  -2  -7  11   27.88    2.23
  -2  -7  10    0.38    0.50
  -2  -7   9   35.21    3.34
  -2  -7   8    1.44    1.11
  -2  -7   7   40.52    3.88
  -2  -7   6    0.80    0.54
  -2  -7   5    0.43    0.48
  -2  -7   4    0.90    0.58
  -2  -7   3   33.12    3.21
   2   7  -2   40.37    3.23
  -2  -7   2   40.59    3.44
  -2  -7   1    2.58    0.94
   2   7   0  470.81   10.45
   2   7   1  342.46    8.92
   2   7   2  154.52    6.08
  -2  -7  -3  115.88    5.91
   2   7   3  115.99    5.44
   2   7   4   12.80    1.89
  -2  -7  -4   13.37    2.03
   2   7   5   87.70    5.09
  -2  -7  -5   82.18    4.88
   2   7   6  185.92    7.59
  -2  -7  -7   23.17    2.80
  -2  -7  -8    1.10    0.75
  -2  -7  -9   19.21    2.36
  -2  -7 -10   37.87    2.91
  -2  -7 -11    2.84    0.69
  -2  -8  10    5.22    0.92
  -2  -8   9    6.86    1.30
  -2  -8   9    8.85    1.26
  -2  -8   8    2.98    0.99
  -2  -8   7    8.64    1.69
  -2  -8   6   20.26    2.66
  -2  -8   5   24.27    2.89
   2   8  -4   21.89    2.62
  -2  -8   4   19.78    2.64
  -2  -8   3   40.00    4.10
  -2  -8   3   38.00    3.52
   2   8  -3   38.92    3.37
   2   8  -2    1.15    0.55
  -2  -8   2    2.99    1.42
  -2  -8   1   -0.59    0.82
  -2  -8   0   15.81    2.02
  -2  -8   0   12.60    2.41
  -2  -8  -1    7.42    1.84
  -2  -8  -2    0.86    0.66
  -2  -8  -3    2.15    1.02
  -2  -8  -4    7.12    1.58
  -2  -8  -5   34.92    3.18
  -2  -8  -6    0.96    0.64
  -2  -8  -7    1.73    0.83
  -2  -8  -8   36.79    2.98
  -2  -8  -9    6.70    1.16
  -2  -9   8    2.22    0.67
  -2  -9   7   28.56    2.53
  -2  -9   6    4.49    1.34
  -2  -9   5   38.26    3.52
  -2  -9   4   31.60    3.23
  -2  -9   3   34.55    3.65
  -2  -9   3   30.74    3.10
  -2  -9   2    2.03    1.12
  -2  -9   2    1.24    0.81
  -2  -9   1   70.82    4.32
  -2  -9   1   66.63    5.40
  -2  -9   0    2.86    1.49
  -2  -9  -1   32.58    3.64
  -2  -9  -2    2.61    0.99
  -2  -9  -3    0.99    0.86
  -2  -9  -4   26.85    2.81
  -2  -9  -4   23.77    2.63
  -2  -9  -5   14.87    1.89
  -2  -9  -5   15.51    2.03
  -2  -9  -6   19.16    2.07
  -2  -9  -7    0.53    0.42
  -2 -10   5    3.09    0.84
  -2 -10   4    0.78    0.53
  -2 -10   3   26.31    2.36
  -2 -10   2   -0.46    0.78
  -2 -10   2   -0.17    0.44
  -2 -10   1   10.17    1.89
  -2 -10   0    5.44    1.39
  -2 -10  -1    0.11    0.60
  -2 -10  -2    5.69    1.34
  -2 -10  -3    1.99    0.69
  -2 -10  -3    2.65    0.85
  -2 -10  -4   18.84    1.84
   3  -8   1    0.73    0.40
   3  -8   2   13.14    1.71
   3  -8   3    1.71    0.65
   3  -7  -5   37.20    2.49
   3  -7  -5   40.06    2.69
   3  -7  -4    1.55    0.72
   3  -7  -4    1.46    0.63
   3  -7  -3   14.26    2.01
   3  -7  -3   15.02    2.02
   3  -7  -2   67.69    4.49
   3  -7  -2   74.58    3.93
   3  -7  -2   72.74    4.58
   3  -7  -1   61.48    4.38
   3  -7  -1   61.73    3.83
   3  -7   0   -0.61    0.78
   3  -7   0   -0.79    0.68
   3  -7   1    0.23    0.69
   3  -7   1    0.72    0.60
   3  -7   2   41.49    3.60
   3  -7   3    1.34    0.77
   3  -7   4    0.20    0.54
   3  -7   5    0.35    0.61
   3  -7   6   37.70    3.10
   3  -7   7   -2.38    0.69
   3  -6  -7   17.97    1.56
   3  -6  -7   19.19    1.84
   3  -6  -6   37.42    2.73
   3  -6  -6   37.20    2.93
   3  -6  -5   57.23    3.84
   3  -6  -4    2.25    0.83
   3  -6  -3    5.47    1.15
   3  -6  -3    5.98    1.56
   3  -6  -2   30.97    3.48
   3  -6  -2   32.31    2.94
   3  -6  -1    5.29    1.67
   3  -6  -1    4.64    1.15
   3  -6   0   38.68    3.76
   3  -6   0   40.99    3.50
   3  -6   1    1.73    0.87
   3  -6   1    1.88    0.95
   3  -6   2   33.11    3.15
   3  -6   3    0.76    0.79
   3  -6   4   86.83    5.04
   3  -6   5    4.74    1.24
   3  -6   6    2.03    1.05
   3  -6   7   14.43    2.10
   3  -6   8   33.85    3.00
   3  -6   9   42.50    3.03
   3  -6  10    3.61    0.80
   3  -5  -9    8.02    1.03
   3  -5  -9    9.82    1.13
   3  -5  -8    1.10    0.60
   3  -5  -8    3.09    0.83
   3  -5  -7   38.34    2.75
   3  -5  -7   33.93    2.88
   3  -5  -6    8.49    1.51
   3  -5  -5   37.33    3.34
   3  -5  -4   -0.34    0.76
   3  -5  -3   -0.66    0.56
   3  -5  -3   -0.55    0.86
   3  -5  -2   22.03    2.44
   3  -5  -2   20.96    2.91
   3  -5  -1   70.33    5.14
   3  -5  -1   64.30    5.34
   3  -5  -1   71.32    4.52
   3  -5   0  157.26    7.53
   3  -5   0  142.75    8.11
   3  -5   1   12.39    1.81
   3  -5   1   13.65    2.14
   3  -5   1   12.52    2.41
   3  -5   2    2.38    0.97
   3  -5   2    2.46    0.73
   3  -5   2    2.59    0.81
   3  -5   2    1.11    0.69
   3  -5   2    3.60    1.43
   3  -5   3  160.33    6.46
   3  -5   3  155.27    7.28
   3  -5   3  151.57    7.14
   3  -5   4  199.52    7.42
   3  -5   4  195.16    8.37
   3  -5   4  191.53    8.27
   3  -5   5   23.66    2.68
   3  -5   5   27.94    3.25
   3  -5   5   26.48    3.17
   3  -5   6  102.47    6.06
   3  -5   6   95.62    5.55
   3  -5   7    7.66    1.57
   3  -5   7    7.16    1.53
   3  -5   7    5.77    1.48
   3  -5   8    0.94    0.74
   3  -5   8    1.53    0.92
   3  -5   9   -0.25    0.56
   3  -5  10   44.78    3.32
   3  -5  11   46.11    2.82
   3  -4 -10   38.67    2.53
   3  -4  -9   16.08    1.76
   3  -4  -9   19.56    2.07
   3  -4  -8   19.47    2.23
   3  -4  -8   15.06    1.89
   3  -4  -7   -0.38    0.60
   3  -4  -6   22.44    2.63
   3  -4  -6   20.72    2.37
   3  -4  -5   18.08    2.29
   3  -4  -4   65.14    4.62
   3  -4  -3   13.91    2.19
   3  -4  -3   16.63    2.10
   3  -4  -2  121.30    6.35
   3  -4  -2  124.45    6.83
   3  -4  -2  125.05    5.60
   3  -4  -1   18.94    2.20
   3  -4  -1   17.29    2.58
   3  -4  -1   19.35    2.50
   3  -4   1  155.25    8.67
   3  -4   2  319.61    8.30
   3  -4   2  319.44    9.34
   3  -4   2  332.10   12.35
   3  -4   3   46.32    4.51
   3  -4   3   43.34    3.12
   3  -4   3   44.77    3.62
   3  -4   3   43.09    3.57
   3  -4   4  146.29    6.80
   3  -4   4  143.51    6.85
   3  -4   4  154.95    6.19
   3  -4   5   17.35    2.42
   3  -4   5   18.18    2.27
   3  -4   5   17.47    2.48
   3  -4   5   18.77    2.45
   3  -4   6  295.60    9.56
   3  -4   6  310.84   10.50
   3  -4   7    5.67    1.47
   3  -4   7    4.95    1.44
   3  -4   8    0.81    0.54
   3  -4   9   -0.38    0.67
   3  -4  10   10.96    1.97
   3  -4  11    5.94    1.25
   3  -4  12   11.93    1.48
   3  -3 -12    3.19    0.60
   3  -3 -11    7.28    1.15
   3  -3 -10    8.49    1.42
   3  -3  -9  138.23    5.96
   3  -3  -8    6.24    1.29
   3  -3  -8    4.77    1.30
   3  -3  -7  198.99    7.82
   3  -3  -6  113.62    6.00
   3  -3  -5  121.08    6.13
   3  -3  -5  120.36    5.70
   3  -3  -4    8.71    1.93
   3  -3  -4   13.89    2.37
   3  -3  -4   15.78    2.46
   3  -3  -3  245.21   10.35
   3  -3  -3  249.05    8.93
   3  -3  -3  239.15    8.80
   3  -3  -2   12.01    2.38
   3  -3  -2   15.05    2.08
   3  -3  -2   13.62    2.02
   3  -3  -1  392.67   10.47
   3  -3  -1  385.08    9.91
   3  -3   0    1.46    0.58
   3  -3   0    1.77    0.55
   3  -3   0    2.07    1.10
   3  -3   1  120.11    6.92
   3  -3   1  119.94    5.28
   3  -3   2  191.68    8.48
   3  -3   3  505.03   13.63
   3  -3   4  497.80   14.86
   3  -3   5   24.93    3.54
   3  -3   6  296.87    9.17
   3  -3   7  465.06   12.29
   3  -3   8  296.49    9.60
   3  -3   8  316.15   10.47
   3  -3   9    2.50    0.96
   3  -3   9    1.59    0.91
   3  -3   9    0.81    0.69
   3  -3  10    2.24    0.97
   3  -3  10    2.47    0.78
   3  -3  11   29.40    2.86
   3  -3  11   28.43    2.79
   3  -3  12   69.05    3.85
   3  -3  13   35.96    2.35
   3  -3  13   33.09    2.15
   3  -2 -12   21.76    1.86
   3  -2 -11    3.79    1.01
   3  -2 -10    1.04    0.51
   3  -2  -9   28.80    2.86
   3  -2  -8    0.02    0.53
   3  -2  -8    0.16    0.50
   3  -2  -7    0.74    1.08
   3  -2  -6   99.28    5.43
   3  -2  -6   83.89    5.99
   3  -2  -5  154.82    7.60
   3  -2  -5  166.55    8.18
   3  -2  -4    5.27    1.45
   3  -2  -4    6.75    1.52
   3  -2  -3   17.36    2.55
   3  -2  -3   18.39    2.31
   3  -2  -3   20.23    2.28
   3  -2  -2   95.36    4.48
   3  -2  -2   92.80    5.72
   3  -2  -2   95.45    4.84
   3  -2  -1  217.19    8.66
   3  -2  -1  226.69    6.36
   3  -2  -1  224.54    7.05
   3  -2   0   17.10    2.45
   3  -2   0   11.78    1.59
   3  -2   0   14.56    1.56
   3  -2   1   66.93    3.32
   3  -2   1   61.88    3.62
   3  -2   1   66.45    4.57
   3  -2   2   11.44    1.86
   3  -2   2    9.01    1.66
   3  -2   3  210.67    7.87
   3  -2   3  205.20    8.12
   3  -2   4  453.77   12.90
   3  -2   4  450.33   13.12
   3  -2   5   80.07    5.75
   3  -2   5   74.83    5.72
   3  -2   6  238.88   10.51
   3  -2   6  211.79   10.20
  -3   2  -6  232.27   10.55
   3  -2   8   19.38    2.61
   3  -2   8   14.41    2.21
   3  -2   9    1.84    0.91
   3  -2   9    2.78    1.05
   3  -2  10   51.25    4.18
   3  -2  10   51.96    4.27
   3  -2  11    7.41    1.54
   3  -2  11    6.75    1.54
   3  -2  12    1.35    0.75
   3  -2  12    5.06    1.30
   3  -2  13    3.22    0.89
   3  -1 -13   15.05    1.40
   3  -1 -12   17.96    1.86
   3  -1 -11   -0.19    0.55
   3  -1 -11    1.30    0.69
   3  -1 -10    0.79    0.53
   3  -1 -10    1.34    0.85
   3  -1  -9   73.15    4.57
   3  -1  -9   82.45    4.86
   3  -1  -8    0.35    0.49
   3  -1  -7  123.26    7.10
   3  -1  -7  152.11    6.59
   3  -1  -6    1.96    0.89
   3  -1  -6    2.93    1.11
   3  -1  -5   15.54    2.24
   3  -1  -5   13.48    2.09
   3  -1  -4  174.53    6.94
   3  -1  -4  174.96    6.95
   3  -1  -4  179.64    6.78
   3  -1  -3  428.88   10.91
   3  -1  -3  453.92    9.38
   3  -1  -3  451.12   10.41
   3  -1  -2   10.11    1.50
   3  -1  -2   10.95    1.74
   3  -1  -2    9.60    1.46
   3  -1  -2   10.72    1.27
   3  -1  -1  136.09    4.05
   3  -1  -1  128.88    5.90
   3  -1  -1  130.60    5.35
   3  -1  -1  122.38    4.59
   3  -1   0   25.93    2.48
   3  -1   0   22.42    1.87
   3  -1   0   23.47    2.03
   3  -1   0   24.77    1.62
   3  -1   1  155.10    5.36
   3  -1   1  161.11    6.48
   3  -1   1  160.86    4.06
   3  -1   1  154.89    5.13
   3  -1   2  333.32    9.09
   3  -1   2  326.97    8.90
   3  -1   3  369.38   10.46
   3  -1   4  135.68    7.00
   3  -1   5 1192.21   20.40
   3  -1   5 1175.98   22.07
  -3   1  -5 1218.44   21.07
  -3   1  -6  133.80    7.37
   3  -1   6  137.49    7.96
  -3   1  -7   16.61    2.81
   3  -1   7   21.92    3.25
   3  -1   8   11.52    1.91
   3  -1   9   47.15    4.05
   3  -1  10  102.49    5.93
   3  -1  11    0.22    0.76
   3  -1  11    1.26    0.88
   3  -1  12   21.97    2.54
   3  -1  12   18.87    2.42
   3  -1  13   -0.04    0.45
   3  -1  14    9.46    1.21
   3   0 -13    2.10    0.58
   3   0 -13    1.29    0.51
   3   0 -12   40.11    2.86
   3   0 -12   43.96    2.99
   3   0 -11    1.07    0.47
   3   0 -11    1.48    0.82
   3   0 -10    1.99    0.85
   3   0 -10    1.76    0.82
   3   0  -9   42.73    3.48
   3   0  -9   44.11    3.60
   3   0  -8    1.34    0.74
   3   0  -8   -0.07    0.59
   3   0  -7  187.99    8.51
   3   0  -6   45.05    3.87
   3   0  -6   41.82    3.83
   3   0  -5   92.35    5.12
   3   0  -5   88.72    5.14
   3   0  -4  427.15    9.55
   3   0  -4  403.17    9.94
   3   0  -4  396.87    8.88
   3   0  -3    1.87    0.82
   3   0  -3    1.40    0.58
   3   0  -3    1.22    0.44
   3   0  -2  342.48    8.87
   3   0  -2  342.49    7.61
   3   0  -2  367.28    6.41
   3   0  -2  370.42    8.35
   3   0  -1 1206.74   16.57
   3   0  -1 1184.35   13.37
   3   0   0  174.30    6.28
   3   0   0  177.67    5.60
   3   0   0  183.08    3.11
   3   0   0  169.23    4.78
   3   0   1  702.50    9.90
   3   0   1  721.24   11.41
   3   0   2  268.74    8.12
   3   0   2  266.69    7.16
  -3   0  -3  673.20   11.67
   3   0   3  680.90   14.38
   3   0   4 1500.35   23.17
  -3   0  -4 1472.67   19.14
  -3   0  -5 1622.29   22.87
   3   0   5 1501.32   24.81
  -3   0  -6  169.27    7.84
   3   0   6  178.41    8.91
  -3   0  -7  237.43    9.81
   3   0   7  254.43   11.06
  -3   0  -8  239.61   10.25
   3   0   8  250.16   10.86
   3   0   9   -2.13    0.92
   3   0  10   69.63    4.83
   3   0  11   67.52    4.70
   3   0  12  149.08    6.64
   3   0  13    8.22    1.44
   3   0  13    7.43    1.33
   3   0  14   18.27    1.77
   3   1 -13   10.32    1.25
   3   1 -13    9.86    1.32
   3   1 -12   -0.20    0.53
   3   1 -12    0.37    0.49
   3   1 -11   24.70    2.45
   3   1 -11   23.13    2.54
   3   1 -10    1.22    0.61
   3   1 -10    1.15    0.57
   3   1  -9  165.98    6.77
   3   1  -9  174.79    7.15
   3   1  -8  110.20    5.51
   3   1  -7   24.30    2.89
   3   1  -7   32.33    3.51
   3   1  -6   93.13    5.34
   3   1  -6  120.91    6.39
   3   1  -5  109.79    5.58
   3   1  -5   96.86    5.03
   3   1  -5  107.65    5.14
   3   1  -4  237.06    7.39
   3   1  -4  249.70    7.56
   3   1  -4  232.13    7.06
   3   1  -3  923.10   13.83
   3   1  -3  949.14   12.63
   3   1  -2   83.12    3.92
   3   1  -2   79.92    2.79
   3   1  -1  383.88    7.86
   3   1  -1  387.85    6.79
   3   1  -1  406.64    5.74
   3   1   0 1813.59   16.44
  -3  -1   0 1820.84    8.02
   3   1   0 1838.05   14.06
  -3  -1  -1   13.17    0.67
   3   1   1   13.34    1.75
   3   1   1   12.42    1.42
   3   1   1   11.51    1.12
   3   1   2    3.05    0.76
  -3  -1  -2    2.96    0.39
   3   1   2    1.87    0.90
   3   1   3  922.51   17.31
   3   1   3  896.14   12.24
   3   1   3  930.74   14.18
  -3  -1  -3  940.26   10.59
   3   1   4   78.82    5.38
  -3  -1  -4   66.41    3.54
   3   1   5  575.57   15.19
  -3  -1  -5  528.95   11.55
   3   1   6   75.76    5.61
  -3  -1  -6   64.42    4.39
   3   1   7  128.73    7.52
  -3  -1  -7  114.54    6.31
   3   1   8   16.65    2.76
  -3  -1  -8   12.45    2.24
   3   1   9   57.95    4.27
   3   1   9   52.00    3.98
   3   1  10    1.52    0.74
   3   1  10    1.97    0.84
   3   1  11   31.58    3.15
   3   1  11   30.63    3.10
   3   1  12    4.90    1.26
   3   1  12    5.90    1.33
   3   1  13    4.22    1.03
   3   1  14   76.77    3.63
   3   2 -13    8.85    1.13
   3   2 -13    7.74    1.17
   3   2 -12   19.01    1.92
   3   2 -12   18.09    2.07
   3   2 -11   23.79    2.39
   3   2 -11   23.42    2.55
   3   2 -10   54.67    3.79
   3   2 -10   52.05    3.94
   3   2  -9  190.77    7.30
   3   2  -9  197.95    7.61
   3   2  -8  119.64    5.74
   3   2  -8  104.61    6.08
   3   2  -7    8.93    1.86
   3   2  -6    8.65    1.87
   3   2  -5    1.35    0.86
   3   2  -5    0.37    0.42
  -3  -2   4   72.80    4.40
   3   2  -4   62.46    3.42
   3   2  -4   75.25    4.59
   3   2  -3   16.33    1.55
  -3  -2   3   15.35    1.75
   3   2  -3   17.54    2.08
   3   2  -2 1589.86   12.98
  -3  -2   2 1606.94   14.46
  -3  -2   1 1610.63   12.10
   3   2  -1 1636.88   13.88
   3   2  -1 1647.29   12.16
  -3  -2   0    8.55    0.82
   3   2   0    8.84    0.86
   3   2   0    9.20    1.30
  -3  -2  -1   57.48    2.13
   3   2   1   56.77    2.83
  -3  -2  -2  254.24    2.88
   3   2   2  255.52    5.87
  -3  -2  -3   39.48    1.62
   3   2   3   42.74    2.49
   3   2   4  240.20    7.71
   3   2   4  252.68    6.30
  -3  -2  -4  238.78    6.03
   3   2   4  240.27    9.27
   3   2   5  612.93   13.97
  -3  -2  -5  603.76   11.30
   3   2   5  623.02   15.40
  -3  -2  -6  162.80    6.61
   3   2   6  187.20    8.67
  -3  -2  -7    9.76    1.81
   3   2   7   13.86    2.43
  -3  -2  -8   15.41    2.36
   3   2   8   15.41    2.72
   3   2   9  336.88   10.58
   3   2   9  337.73    9.79
   3   2  10  210.92    7.90
   3   2  10  212.36    8.44
   3   2  11    0.61    0.74
   3   2  11   -0.57    0.53
   3   2  12   12.00    1.86
   3   2  12    8.86    1.48
   3   2  13   23.02    2.33
   3   2  14   19.29    1.80
   3   3 -13    1.30    0.37
   3   3 -13    2.39    0.72
   3   3 -12   53.61    3.13
   3   3 -12   55.17    3.50
   3   3 -11    8.12    1.46
   3   3 -11    9.66    1.64
   3   3 -10   54.51    3.84
   3   3 -10   45.77    3.68
   3   3  -9   67.34    4.39
   3   3  -9   65.54    4.45
   3   3  -8  205.61    7.78
   3   3  -8  217.26    7.92
   3   3  -7   12.37    2.39
   3   3  -6   26.01    3.29
  -3  -3   5   12.45    2.00
   3   3  -5   14.15    2.18
  -3  -3   4  257.05    7.90
   3   3  -4  257.47    8.74
   3   3  -3  100.18    3.44
  -3  -3   3  101.97    4.39
  -3  -3   2  388.19    7.66
   3   3  -2  410.20    5.74
  -3  -3   1   92.85    3.50
  -3  -3   0 1118.34   11.73
  -3  -3  -1  129.89    4.00
  -3  -3  -1  131.25    2.99
   3   3   1  137.03    4.56
  -3  -3  -2   96.63    2.74
   3   3   2   98.66    3.66
   3   3   3  149.81    4.50
  -3  -3  -3  150.69    3.91
   3   3   4    0.84    0.75
  -3  -3  -4    0.28    0.21
   3   3   4    0.43    0.24
   3   3   5  399.92   11.28
  -3  -3  -5  402.32    8.57
   3   3   6   27.76    3.41
  -3  -3  -6   29.56    2.63
   3   3   6   32.60    3.61
   3   3   7  202.91    9.50
   3   3   8  169.15    7.27
   3   3   8  189.31    9.39
   3   3   9  241.24    9.07
   3   3  10  332.42   10.63
   3   3  11    7.81    1.74
   3   3  12   49.82    3.81
   3   3  13   -0.76    0.63
   3   3  14    4.62    0.83
   3   4 -13    4.55    0.79
   3   4 -12   12.78    1.59
   3   4 -12   12.12    1.35
  -3  -4  11    0.34    0.39
   3   4 -11    0.50    0.58
   3   4 -11    0.12    0.55
   3   4 -10    4.97    1.30
   3   4 -10    5.90    1.35
  -3  -4  10    5.80    1.26
   3   4  -9  133.45    6.26
  -3  -4   9  131.94    6.16
   3   4  -9  131.11    6.31
  -3  -4   8    7.54    1.51
   3   4  -8    5.95    1.40
   3   4  -8    6.21    1.39
   3   4  -7  205.34    7.90
   3   4  -7  214.19   10.16
   3   4  -6  158.33    8.38
  -3  -4   6  156.44    8.05
   3   4  -5   24.73    3.11
  -3  -4   5   24.09    2.91
  -3  -4   4   32.16    3.04
  -3  -4   3  955.80   14.81
  -3  -4   2  695.38   11.64
  -3  -4   1  172.36    5.58
  -3  -4   0  797.41   11.64
  -3  -4  -1  264.95    5.71
  -3  -4  -1  279.39    6.92
   3   4   1  275.61    7.05
  -3  -4  -2   93.19    4.11
  -3  -4  -2   87.62    3.37
   3   4   2   89.27    3.70
  -3  -4  -3  632.25    9.79
  -3  -4  -4  899.69   12.82
   3   4   5  313.62   10.40
  -3  -4  -5  312.43    8.34
   3   4   6    2.65    1.21
   3   4   7   16.80    2.95
   3   4   7   14.60    2.63
   3   4   8  184.04    7.75
   3   4   9  159.89    7.40
   3   4  10   25.44    3.00
   3   4  11    1.34    0.89
   3   4  12   22.96    2.48
   3   4  13   24.67    2.20
  -3  -5  12   65.48    3.30
   3   5 -11    6.27    1.19
  -3  -5  11    8.96    1.50
   3   5 -10   60.11    3.86
  -3  -5  10   57.94    4.03
   3   5 -10   57.79    3.81
   3   5  -9   27.02    2.79
  -3  -5   9   22.22    2.67
   3   5  -8   32.54    3.26
  -3  -5   8   27.59    2.98
   3   5  -7   13.30    2.07
  -3  -5   7   11.77    1.94
   3   5  -6  147.90    8.69
  -3  -5   6  162.69    6.74
  -3  -5   5    8.41    1.89
  -3  -5   4    5.87    1.57
  -3  -5   3  138.37    6.34
  -3  -5   2   21.41    2.35
  -3  -5   1   37.96    3.03
  -3  -5   0    8.91    1.48
  -3  -5  -1   98.51    4.81
  -3  -5  -1   90.59    4.12
  -3  -5  -2   30.87    2.74
  -3  -5  -2   33.73    2.59
  -3  -5  -3   19.82    2.32
  -3  -5  -3   18.85    2.01
  -3  -5  -4  207.71    7.14
  -3  -5  -5   96.58    5.25
   3   5   5   85.07    5.82
   3   5   6   11.05    2.34
   3   5   7   13.04    2.16
   3   5   7   13.86    2.09
   3   5   8    1.12    0.62
  -3  -5  -8    1.43    0.71
   3   5   9   11.66    2.01
  -3  -5  -9   12.76    2.23
   3   5  10   88.81    5.23
  -3  -5 -10  101.71    5.70
   3   5  11    2.38    0.92
   3   5  12   10.83    1.62
   3   5  13    4.42    0.80
  -3  -6  12   21.45    1.71
  -3  -6  11   11.80    1.60
  -3  -6  10   -0.16    0.76
  -3  -6   9   21.33    2.61
   3   6  -8  119.59    6.12
  -3  -6   8  110.18    6.06
   3   6  -7    2.39    1.03
  -3  -6   7    3.21    1.22
   3   6  -6    1.34    0.82
  -3  -6   6   -0.85    0.66
   3   6  -5   25.18    2.85
  -3  -6   5   22.12    2.59
  -3  -6   4  175.77    8.57
  -3  -6   4  178.14    7.04
  -3  -6   3   13.40    2.23
  -3  -6   2   57.69    4.40
  -3  -6   1   13.51    2.09
  -3  -6   0  149.16    6.77
  -3  -6  -1   38.25    3.45
  -3  -6  -1   35.89    3.07
  -3  -6  -2    4.87    1.22
  -3  -6  -2    6.54    1.39
  -3  -6  -3  137.89    6.91
  -3  -6  -3  139.24    6.37
  -3  -6  -4   35.69    3.68
   3   6   5   33.85    3.06
   3   6   5   34.44    3.14
   3   6   6    1.49    0.77
   3   6   6   -0.80    0.74
   3   6   7   32.78    3.25
   3   6   7   31.57    3.32
   3   6   8    0.89    0.50
  -3  -6  -8   -0.74    1.17
   3   6   9    2.81    0.99
  -3  -6  -9    2.80    1.14
   3   6  10    2.72    0.94
  -3  -6 -10    4.07    1.24
  -3  -6 -11   32.91    2.68
   3   6  11   29.70    2.49
   3   6  12    2.04    0.59
  -3  -7  11   -0.07    0.42
  -3  -7  10   17.78    2.08
  -3  -7   9   20.54    2.46
  -3  -7   8   94.92    5.60
  -3  -7   7    4.15    1.32
  -3  -7   6   42.14    3.85
  -3  -7   5   20.30    2.72
  -3  -7   4   62.93    4.56
  -3  -7   3   15.71    2.26
  -3  -7   2    0.65    0.62
   3   7  -1  102.96    5.10
  -3  -7   1  106.98    5.50
   3   7   0  167.91    6.40
   3   7   1  406.82    9.92
   3   7   2  198.75    7.05
   3   7   3   62.24    4.09
   3   7   4   46.01    3.63
  -3  -7  -5  153.56    6.42
   3   7   5  138.40    6.53
   3   7   6   37.93    3.59
  -3  -7  -7    1.18    0.83
  -3  -7  -8    5.41    1.39
  -3  -7  -9    9.56    1.78
  -3  -7 -10    4.35    1.03
  -3  -7 -11    0.94    0.48
  -3  -8  10   61.20    3.11
  -3  -8   9    0.38    0.47
  -3  -8   8   87.60    5.00
  -3  -8   7   26.80    2.99
  -3  -8   6   23.35    2.87
  -3  -8   5    5.50    1.40
  -3  -8   4    1.16    0.88
   3   8  -3   14.91    2.19
  -3  -8   3   12.80    2.11
   3   8  -2   70.01    4.52
   3   8  -1   12.82    1.88
   3   8   0   63.51    4.17
   3   8   1  291.49    8.91
   3   8   2   78.10    4.68
   3   8   3    0.55    0.51
  -3  -8  -3    1.05    0.81
   3   8   4   11.45    1.88
  -3  -8  -4   10.49    1.85
  -3  -8  -5   76.72    4.68
   3   8   5   67.84    4.53
   3   8   6    9.92    1.72
  -3  -8  -7   15.54    2.29
  -3  -8  -8    3.42    1.11
  -3  -8  -9   27.89    2.48
  -3  -8 -10    1.88    0.59
   3   9  -8    5.27    0.88
  -3  -9   8    5.66    0.98
   3   9  -7    0.06    0.48
   3   9  -6   -0.09    0.39
   3   9  -5    1.07    0.59
   3   9  -4   18.78    2.30
   3   9  -3    4.24    1.18
  -3  -9   3    2.63    0.91
   3   9  -2   13.22    1.95
  -3  -9   2   13.66    2.47
   3   9  -1    4.46    1.12
  -3  -9   1    4.48    1.53
  -3  -9   0   27.09    3.43
   3   9   0   28.37    2.80
   3   9   1    0.43    0.61
  -3  -9  -1    1.44    1.13
   3   9   2    2.41    0.81
  -3  -9  -2    3.58    1.25
   3   9   3    3.14    0.95
  -3  -9  -3    4.34    1.26
  -3  -9  -4    4.26    1.20
  -3  -9  -5    4.74    1.15
  -3  -9  -5    3.53    1.10
  -3  -9  -6   10.44    1.71
  -3  -9  -7   11.64    1.65
  -3  -9  -8    0.27    0.40
  -3 -10   6   19.26    1.79
  -3 -10   5    9.99    1.44
  -3 -10   4   77.66    4.18
  -3 -10   3    0.75    0.69
  -3 -10   3    1.49    0.74
  -3 -10   2   27.15    2.42
  -3 -10   2   29.07    3.07
  -3 -10   1   -0.49    0.56
  -3 -10   0   14.63    2.28
  -3 -10  -1    3.04    1.09
  -3 -10  -2    0.84    0.77
  -3 -10  -3   33.42    2.95
  -3 -10  -3   35.64    2.94
  -3 -10  -4    7.49    1.30
  -3 -10  -4    7.48    1.30
  -3 -10  -5   29.71    2.36
   4  -7  -2   25.80    2.21
   4  -7  -1   10.81    1.51
   4  -7  -1    9.54    1.36
   4  -7   0    9.40    1.44
   4  -7   0   10.03    1.42
   4  -7   1    9.81    1.33
   4  -7   1   10.28    1.62
   4  -7   2    8.27    1.54
   4  -7   3   29.43    2.75
   4  -7   4    5.78    1.21
   4  -6  -6    6.52    0.96
   4  -6  -5    1.60    0.61
   4  -6  -4    0.35    0.45
   4  -6  -4   -0.01    0.46
   4  -6  -3   15.03    2.05
   4  -6  -3   14.34    2.01
   4  -6  -3   13.57    1.70
   4  -6  -2   20.89    2.62
   4  -6  -2   21.30    2.52
   4  -6  -2   16.77    2.01
   4  -6  -1   46.25    3.92
   4  -6  -1   52.15    3.93
   4  -6  -1   42.61    3.39
   4  -6   0   24.93    2.87
   4  -6   0   26.08    2.80
   4  -6   1   15.03    2.20
   4  -6   2   -0.06    0.59
   4  -6   2   -0.22    0.92
   4  -6   3   15.50    2.38
   4  -6   4    9.17    1.82
   4  -6   5   21.59    2.60
   4  -6   6    1.54    0.82
   4  -6   6    2.54    0.83
   4  -6   7    4.70    1.06
   4  -6   8    0.36    0.39
   4  -5  -8    7.51    0.98
   4  -5  -7    5.78    1.03
   4  -5  -6   36.07    2.62
   4  -5  -6   35.21    2.87
   4  -5  -5   -0.85    0.79
   4  -5  -5   -0.63    0.87
   4  -5  -4   -0.64    0.91
   4  -5  -4    0.92    0.74
   4  -5  -4    0.96    0.71
   4  -5  -3   83.72    5.42
   4  -5  -3   85.48    5.60
   4  -5  -3   83.59    4.76
   4  -5  -2    0.87    0.78
   4  -5  -2    3.00    1.10
   4  -5  -2    2.30    0.92
   4  -5  -1    0.24    0.65
   4  -5  -1    1.39    0.89
   4  -5  -1    0.02    0.67
   4  -5   0    7.29    1.62
   4  -5   0    7.52    1.63
   4  -5   1   62.58    4.76
   4  -5   1   55.98    4.38
   4  -5   2    7.20    1.67
   4  -5   2    5.89    1.46
   4  -5   3   11.37    2.10
   4  -5   3   13.62    1.97
   4  -5   4    1.87    0.69
   4  -5   4    1.96    0.89
   4  -5   4    2.28    1.08
   4  -5   5    1.72    0.97
   4  -5   5    1.25    0.74
   4  -5   5    2.21    1.02
   4  -5   6    4.16    1.24
   4  -5   6    3.15    1.10
   4  -5   6    4.21    1.09
   4  -5   7   -0.46    0.72
   4  -5   7   -0.29    0.74
   4  -5   8    5.38    1.37
   4  -5   9    9.83    1.54
   4  -5  10    6.37    1.06
   4  -4  -9    8.44    1.04
   4  -4  -8   11.82    1.52
   4  -4  -7    2.21    0.89
   4  -4  -6   20.55    2.24
   4  -4  -6   25.91    2.80
   4  -4  -5    0.81    0.69
   4  -4  -5    0.19    0.82
   4  -4  -4    1.07    0.82
   4  -4  -4    2.36    1.18
   4  -4  -3   23.25    2.91
   4  -4  -3   21.37    2.51
   4  -4  -2   43.91    4.10
   4  -4  -2   38.17    3.35
   4  -4  -1   77.49    5.43
   4  -4  -1   86.54    5.07
   4  -4   0   13.89    2.25
   4  -4   0   11.85    1.98
   4  -4   1   -0.78    0.93
   4  -4   1   -0.05    0.61
   4  -4   1    0.50    0.35
   4  -4   2  255.71    7.96
   4  -4   2  273.00    9.25
   4  -4   2  263.71    8.82
   4  -4   2  253.99    9.22
   4  -4   3   56.54    3.80
   4  -4   3   57.93    4.35
   4  -4   4  119.18    5.61
   4  -4   4  108.75    6.22
   4  -4   4  119.93    5.93
   4  -4   5   17.59    2.24
   4  -4   5   16.14    2.42
   4  -4   6    1.85    0.85
   4  -4   6    1.32    0.94
   4  -4   7  137.01    6.63
   4  -4   7  169.58    7.68
   4  -4   8    0.15    0.69
   4  -4   8   -0.45    0.73
   4  -4   9   15.12    2.23
   4  -4   9   18.08    2.12
   4  -4  10    0.02    0.71
   4  -4  10    1.65    0.70
   4  -4  11  109.34    4.41
   4  -3 -10   19.16    1.68
   4  -3  -9    1.74    0.62
   4  -3  -9    2.22    0.79
   4  -3  -8   16.83    2.06
   4  -3  -8   12.78    1.78
   4  -3  -7   14.33    2.05
   4  -3  -7   16.77    2.14
   4  -3  -6    0.08    0.54
   4  -3  -6   -0.26    0.61
   4  -3  -5   77.03    4.78
   4  -3  -5   73.18    4.73
   4  -3  -4   88.52    5.30
   4  -3  -4   92.70    5.21
   4  -3  -3   20.04    2.56
   4  -3  -3   16.05    2.12
   4  -3  -2  146.77    6.96
   4  -3  -2  150.56    6.32
   4  -3  -1    6.62    1.49
   4  -3  -1    7.14    1.69
   4  -3  -1    3.94    1.00
   4  -3   0    0.92    0.60
   4  -3   0    2.77    1.05
   4  -3   0    2.12    0.87
   4  -3   1   39.01    4.47
   4  -3   2    8.01    2.15
   4  -3   3  158.48    6.93
   4  -3   3  166.93    6.35
   4  -3   4   24.32    2.39
   4  -3   4   25.07    2.62
   4  -3   4   23.04    2.78
   4  -3   5    8.98    1.52
   4  -3   5    7.07    1.62
   4  -3   5    6.65    1.40
   4  -3   6  177.48    7.27
   4  -3   6  173.56    7.42
   4  -3   7  170.62    7.41
   4  -3   7  187.95    8.31
   4  -3   8   66.24    4.78
   4  -3   8   94.60    5.57
   4  -3   9  107.93    5.52
   4  -3   9  113.76    5.96
   4  -3  10   15.60    2.22
   4  -3  10   14.53    1.83
   4  -3  10   16.97    2.14
   4  -3  11    0.43    0.64
   4  -3  11    1.37    0.73
   4  -3  12   28.14    2.18
   4  -2 -11    2.09    0.63
   4  -2 -10    1.90    0.70
   4  -2  -9    0.65    0.61
   4  -2  -8  114.11    5.36
   4  -2  -8  110.49    5.51
   4  -2  -7    1.63    0.81
   4  -2  -7    3.85    1.16
   4  -2  -6  100.12    5.56
   4  -2  -6  106.48    5.68
   4  -2  -5  100.87    5.19
   4  -2  -5  105.36    5.80
   4  -2  -5   97.69    5.31
   4  -2  -4  265.20   10.78
   4  -2  -3  160.76    8.48
   4  -2  -3  155.06    7.33
   4  -2  -2  223.86   10.09
   4  -2  -2  233.55    8.87
   4  -2  -1   87.02    6.30
   4  -2  -1   91.86    5.30
   4  -2   0   73.12    5.72
   4  -2   0   66.20    4.39
   4  -2   1  211.27    9.57
   4  -2   1  206.92    7.77
   4  -2   2   16.89    2.63
   4  -2   3   19.59    2.73
   4  -2   4  144.34    8.14
   4  -2   5  400.32   14.44
   4  -2   6   57.72    4.05
   4  -2   6   64.92    4.56
   4  -2   7    2.86    1.13
   4  -2   8   81.02    5.40
   4  -2   9   96.10    5.81
   4  -2  10   14.82    1.93
   4  -2  10   15.34    2.32
   4  -2  11   23.45    2.49
   4  -2  11   19.78    2.39
   4  -2  12   10.75    1.49
   4  -2  12    9.79    1.58
   4  -2  13    8.26    1.05
   4  -1 -12   -0.20    0.29
   4  -1 -11   -0.07    0.52
   4  -1 -10   13.07    1.75
   4  -1  -9    2.62    0.89
   4  -1  -8    2.21    0.81
   4  -1  -8    1.67    0.84
   4  -1  -7    4.43    1.22
   4  -1  -7    3.07    0.94
   4  -1  -6   19.09    2.33
   4  -1  -6   23.64    2.69
   4  -1  -5   11.08    2.18
   4  -1  -4  171.25    7.96
   4  -1  -4  176.16    7.99
   4  -1  -3   46.55    4.23
   4  -1  -3   44.55    3.78
   4  -1  -2   94.00    6.06
   4  -1  -2  102.88    5.82
   4  -1  -2   93.51    4.89
   4  -1  -1  196.46    8.74
   4  -1  -1  214.49    8.50
   4  -1  -1  198.63    7.03
   4  -1   0  119.98    6.73
   4  -1   0  125.91    5.44
   4  -1   1   -0.54    0.67
   4  -1   1    0.63    0.54
   4  -1   2  344.60    9.97
   4  -1   3  213.31    8.73
   4  -1   4   27.01    3.43
   4  -1   5   16.01    2.91
   4  -1   6   15.07    2.97
   4  -1   7  313.20    9.43
   4  -1   7  293.30    9.57
   4  -1   8   84.38    5.38
   4  -1   9    6.77    1.66
   4  -1  10   27.94    3.06
   4  -1  10   24.12    2.94
   4  -1  11  102.63    5.51
   4  -1  11  102.29    5.70
   4  -1  12   10.69    1.68
   4  -1  12   10.45    1.75
   4  -1  13    1.00    0.42
   4  -1  13    0.39    0.46
   4   0 -12    0.11    0.36
   4   0 -11    7.73    1.31
   4   0 -11    7.00    1.28
   4   0 -10   14.49    1.97
   4   0 -10   15.80    2.05
   4   0  -9    7.47    1.41
   4   0  -9    7.28    1.57
   4   0  -8    8.52    1.69
   4   0  -8   10.91    1.91
   4   0  -7    0.78    0.59
   4   0  -7    0.73    0.54
   4   0  -7    1.90    0.87
   4   0  -6  280.08   10.67
   4   0  -5  109.59    6.28
   4   0  -4  570.07   13.40
   4   0  -3   41.98    3.50
   4   0  -3   36.27    3.15
   4   0  -2  949.70   16.56
   4   0  -2  849.88   14.05
   4   0  -1  716.00   12.22
   4   0  -1  834.31   15.14
   4   0   0 1629.79   16.19
   4   0   0 1556.01   17.62
   4   0   1  423.48    9.66
   4   0   1  400.87    8.92
   4   0   2    9.91    1.72
   4   0   2   10.53    1.80
   4   0   3  552.17   14.25
   4   0   4   34.74    3.92
   4   0   5  161.60    9.02
   4   0   6   82.28    6.70
   4   0   7   50.57    5.21
   4   0   8   27.52    3.02
   4   0   9   79.27    5.24
   4   0  10   48.44    4.18
   4   0  11   31.21    3.29
   4   0  12   43.13    3.39
   4   0  12   44.94    3.62
   4   0  13   36.26    2.71
   4   0  13   41.68    3.04
   4   0  14   21.84    1.69
   4   1 -13   15.83    1.35
   4   1 -12   -1.88    0.68
   4   1 -12    0.53    0.51
   4   1 -11    6.42    1.30
   4   1 -11    6.49    1.29
   4   1 -10   17.44    2.14
   4   1 -10   17.71    2.27
   4   1  -9   32.97    3.06
   4   1  -9   37.61    3.44
   4   1  -8   23.05    2.61
   4   1  -8   20.42    2.57
   4   1  -7   30.39    2.97
   4   1  -7   28.07    2.90
   4   1  -6   24.15    2.92
   4   1  -5   42.75    3.67
   4   1  -4  987.58   16.25
   4   1  -4 1025.42   17.31
   4   1  -3   52.71    3.83
   4   1  -3   49.29    3.39
   4   1  -2  648.14   12.90
   4   1  -2  622.42   11.19
   4   1  -1  536.75   11.29
   4   1  -1  499.97    9.31
   4   1   0 1502.83   18.81
   4   1   0 1520.67   16.04
   4   1   1  129.42    4.63
   4   1   1  139.29    5.84
   4   1   2   61.76    3.78
   4   1   2   64.87    4.52
   4   1   3   87.76    4.57
   4   1   3   84.67    5.82
   4   1   4 1604.76   20.32
   4   1   4 1728.65   27.97
   4   1   5  667.44   18.05
   4   1   6  103.04    7.24
   4   1   7    8.50    2.30
   4   1   8  264.85    8.98
   4   1   9  103.59    5.93
   4   1  10    0.97    0.86
   4   1  11  111.56    6.00
   4   1  12    3.96    1.24
   4   1  13   25.74    2.37
   4   1  13   28.66    2.53
   4   1  14    9.45    1.22
   4   2 -13    4.16    0.75
   4   2 -12    6.89    1.13
   4   2 -12    5.88    1.14
   4   2 -11    0.09    0.47
   4   2 -11    0.39    0.55
   4   2 -10   30.07    2.80
   4   2 -10   33.40    3.13
   4   2  -9   83.10    4.85
   4   2  -9   77.86    4.97
   4   2  -8    4.03    1.09
   4   2  -8    5.28    1.41
   4   2  -7   47.86    3.72
   4   2  -7   39.47    3.82
   4   2  -7   47.75    3.80
   4   2  -6    9.93    1.87
   4   2  -5  175.20    7.65
   4   2  -5  161.61    6.73
   4   2  -4   97.53    5.57
   4   2  -4   96.81    4.69
   4   2  -3    1.74    0.76
   4   2  -3    1.10    0.38
   4   2  -2   13.20    1.86
   4   2  -2    5.09    0.96
   4   2  -1    5.87    1.14
   4   2  -1    4.31    0.80
   4   2   0  317.31    8.22
   4   2   0  302.09    6.40
   4   2   0  305.81    8.37
   4   2   1   13.41    1.72
   4   2   1   10.87    1.86
   4   2   2  765.76   11.48
   4   2   2  725.33   12.31
   4   2   3   14.72    1.83
   4   2   3   14.88    1.82
   4   2   3   15.62    2.63
   4   2   4   92.95    4.56
   4   2   4  100.49    6.70
   4   2   4  103.31    5.65
   4   2   5   72.63    5.93
   4   2   6   22.40    3.47
   4   2   7  395.45   14.39
   4   2   8  190.51    7.72
   4   2   8  179.66    7.19
   4   2   9    0.24    0.72
   4   2   9    0.63    0.58
   4   2  10    2.50    1.00
   4   2  10    4.55    1.21
   4   2  11   27.52    2.99
   4   2  11   31.74    3.10
   4   2  12   14.18    1.99
   4   2  12   16.18    2.06
   4   2  13   16.97    1.85
   4   2  13   20.41    2.00
   4   2  14   10.28    1.24
   4   3 -13   13.83    1.21
   4   3 -12    0.52    0.43
   4   3 -12    0.36    0.52
   4   3 -11   16.88    1.97
   4   3 -11   15.72    2.01
   4   3 -10   48.49    3.54
   4   3 -10   45.10    3.68
   4   3  -9  191.19    7.39
   4   3  -9  198.64    7.98
   4   3  -8   21.21    2.53
   4   3  -8   22.36    2.67
   4   3  -7   13.22    1.97
   4   3  -7   15.55    2.19
   4   3  -6  205.89    8.89
   4   3  -5    0.66    0.74
   4   3  -4  204.20    8.40
  -4  -3   4  209.05    7.78
   4   3  -3  128.86    6.40
  -4  -3   3  121.76    5.15
   4   3  -2 1260.17   18.98
  -4  -3   2 1203.99   14.12
  -4  -3   1   96.13    3.60
   4   3  -1  102.55    5.09
   4   3   0  496.83   10.58
  -4  -3   0  510.21    7.88
  -4  -3  -1   52.75    2.55
   4   3   1   48.91    3.16
  -4  -3  -2 1014.39   11.58
   4   3   2  998.83   13.77
   4   3   3   13.95    1.66
   4   3   4   91.67    5.12
   4   3   4   90.30    4.29
   4   3   5   43.88    4.58
   4   3   5   44.39    4.03
   4   3   6    6.90    1.69
   4   3   6    5.59    1.83
   4   3   7  220.82   10.68
   4   3   8  515.78   13.03
   4   3   8  533.21   12.08
   4   3   9   34.09    3.43
   4   3  10   52.68    4.34
   4   3  11   30.13    3.17
   4   3  12   13.96    2.00
   4   3  13   10.83    1.53
   4   3  14   10.21    1.13
   4   3  14   11.31    1.25
   4   4 -12   -0.17    0.34
   4   4 -12    0.14    0.32
   4   4 -11   16.16    1.97
   4   4 -11   15.45    1.80
   4   4 -10   12.31    1.92
   4   4 -10   12.06    1.76
   4   4  -9    2.87    1.14
   4   4  -9    2.75    1.02
   4   4  -8   24.30    2.79
   4   4  -8   22.10    2.72
   4   4  -7   52.98    4.07
   4   4  -7   57.31    4.27
  -4  -4   6   22.53    3.16
  -4  -4   5    3.16    1.29
  -4  -4   4  608.72   13.41
  -4  -4   3  224.95    7.42
  -4  -4   2   17.91    1.93
  -4  -4   1  903.44   12.80
   4   4  -1  900.09   16.13
  -4  -4   0  120.77    4.60
   4   4   0  110.62    5.28
  -4  -4  -1  365.91    8.04
   4   4   1  340.43    8.70
  -4  -4  -2  182.47    5.83
   4   4   2  167.84    5.81
   4   4   3  228.63    6.70
   4   4   4  366.54   10.66
   4   4   5   29.03    3.31
   4   4   6   25.02    3.63
   4   4   6   26.93    3.53
   4   4   7  227.91    8.33
   4   4   7  232.63    8.71
   4   4   8  406.86   11.75
   4   4   9    9.26    1.91
   4   4  10    7.90    1.78
   4   4  11   14.44    2.20
   4   4  12   11.67    1.78
   4   4  13   10.60    1.44
   4   5 -12    9.31    1.01
   4   5 -11   28.19    2.25
   4   5 -10   38.19    3.01
  -4  -5  10   40.22    3.01
   4   5 -10   38.85    3.10
   4   5  -9   26.00    2.71
   4   5  -9   29.74    3.00
  -4  -5   9   26.57    2.63
   4   5  -8   38.55    3.51
   4   5  -8   39.75    3.55
  -4  -5   8   39.66    3.34
   4   5  -7   20.16    2.62
  -4  -5   7   19.58    2.35
   4   5  -7   21.24    2.58
   4   5  -6    8.39    1.67
  -4  -5   6    8.39    1.54
   4   5  -6    9.03    1.74
  -4  -5   5    4.19    1.42
  -4  -5   4  178.21    7.89
  -4  -5   3   69.68    4.51
  -4  -5   2   76.33    4.52
  -4  -5   1   15.51    1.95
  -4  -5   0  479.41   10.57
   4   5   0  473.66   11.64
  -4  -5  -1   90.34    4.56
   4   5   1   82.08    4.53
  -4  -5  -2   40.54    3.13
   4   5   2   38.54    2.92
  -4  -5  -3   29.95    2.87
  -4  -5  -4  184.76    7.45
   4   5   5    9.74    2.11
   4   5   6   44.19    3.58
   4   5   6   43.62    3.64
   4   5   7   65.03    4.59
   4   5   7   63.72    4.75
   4   5   8    2.34    1.00
   4   5   9   -0.05    0.64
   4   5  10    0.40    1.02
   4   5  11   86.23    4.98
   4   5  12    6.21    1.21
   4   5  13    9.38    1.22
   4   6 -12    3.11    0.60
  -4  -6  11   33.46    2.29
   4   6 -10   15.97    1.77
  -4  -6  10   18.83    2.04
   4   6  -9    2.08    0.91
  -4  -6   9    1.67    0.77
   4   6  -8    0.08    0.55
  -4  -6   8   -0.46    0.53
   4   6  -7   46.66    3.98
  -4  -6   7   45.43    3.78
  -4  -6   6    3.69    1.02
   4   6  -6    5.14    1.47
   4   6  -5   49.59    4.11
  -4  -6   5   46.81    3.70
  -4  -6   4   46.09    3.82
   4   6  -4   46.49    3.77
  -4  -6   4   44.30    3.48
  -4  -6   3  125.87    6.83
  -4  -6   2   40.98    3.75
  -4  -6   1   81.31    5.08
  -4  -6   0   16.06    2.32
   4   6   0   15.66    2.31
  -4  -6  -1  189.32    7.65
  -4  -6  -2   81.46    5.13
  -4  -6  -3   30.38    3.24
  -4  -6  -4    1.44    0.98
   4   6   4    3.39    0.95
   4   6   5    8.99    1.62
   4   6   5   10.84    1.82
   4   6   6   64.39    4.47
   4   6   6   72.55    4.85
   4   6   7    3.73    1.20
   4   6   7    3.52    1.18
   4   6   8   14.84    2.22
  -4  -6  -8   19.18    2.68
   4   6   9   39.03    3.49
  -4  -6  -9   41.14    3.70
   4   6  10   31.90    3.02
   4   6  11   29.66    2.63
   4   6  12   24.57    1.99
  -4  -7  10    1.36    0.58
  -4  -7   9    0.28    0.49
  -4  -7   8    0.98    0.69
  -4  -7   7    2.42    0.99
  -4  -7   6   33.00    3.30
  -4  -7   5   12.81    2.12
  -4  -7   4   17.93    2.54
  -4  -7   4   14.93    2.19
  -4  -7   3   30.90    3.38
  -4  -7   3   35.64    3.31
  -4  -7   2    1.20    0.68
  -4  -7   2    3.21    0.94
   4   7  -1   -1.09    0.99
  -4  -7   1    0.79    0.66
   4   7   0  291.96    8.66
  -4  -7   0  277.20    9.77
   4   7   1  126.98    5.69
  -4  -7  -1  130.26    6.49
  -4  -7  -2   34.59    3.24
   4   7   2   32.65    2.96
   4   7   3   51.83    3.82
   4   7   4   34.69    3.15
   4   7   5    7.20    1.51
   4   7   5    5.78    1.48
   4   7   6   86.78    5.33
   4   7   6   78.53    5.16
   4   7   7   40.40    3.64
   4   7   7   37.55    3.65
   4   7   8   -0.85    0.95
  -4  -7  -8   -0.21    0.58
   4   7   9   11.54    1.78
  -4  -7  -9   13.70    2.12
   4   7  10    6.71    1.21
  -4  -7 -10    7.78    1.32
   4   7  11    6.48    0.99
  -4  -8   9   19.32    2.00
  -4  -8   8    0.97    0.65
  -4  -8   7   35.01    3.26
  -4  -8   6   11.12    1.91
  -4  -8   5    5.87    1.46
  -4  -8   4   20.31    2.62
   4   8  -3   43.64    3.76
  -4  -8   3   37.81    3.53
   4   8  -2   15.33    2.16
   4   8  -1   58.98    4.13
   4   8   0  115.28    5.69
   4   8   1    0.76    0.84
   4   8   2   69.02    4.44
   4   8   3    1.54    0.79
   4   8   4   58.11    4.23
   4   8   5    7.54    1.65
  -4  -8  -5    6.94    1.40
   4   8   6   36.42    3.40
  -4  -8  -7    0.25    0.64
  -4  -8  -8   14.63    2.03
  -4  -8  -9    3.39    0.95
   4   9  -8    2.17    0.63
   4   9  -7   12.45    1.62
   4   9  -6    1.53    0.80
   4   9  -5    1.48    0.83
   4   9  -4    2.15    0.95
   4   9  -3   13.73    2.05
   4   9  -2    0.36    0.56
   4   9  -1   23.84    2.64
   4   9   0   14.18    2.02
   4   9   1  124.79    5.93
   4   9   2   18.39    2.28
   4   9   3    0.52    0.72
  -4  -9  -3    1.83    0.83
   4   9   4    0.65    0.69
  -4  -9  -4    0.35    0.40
  -4  -9  -5   25.56    2.50
   4   9   5   24.35    2.62
  -4  -9  -6    0.15    0.64
  -4  -9  -7    0.96    0.55
  -4  -9  -8    8.37    1.25
  -4 -10   6    3.72    0.82
   4  10  -5    1.81    0.61
  -4 -10   5    2.08    0.66
  -4 -10   4   16.18    1.94
   4  10  -4   15.05    1.76
  -4 -10   3   30.94    2.63
  -4 -10   3   34.81    3.04
   4  10  -3   26.35    2.45
   4  10  -2    0.24    0.44
  -4 -10   2    1.89    0.70
  -4 -10   2    1.01    0.81
   4  10  -1   11.64    1.72
  -4 -10   1   14.63    2.31
   4  10   0    2.07    0.80
  -4 -10   0    2.12    1.01
   4  10   1    7.61    1.40
  -4 -10  -1    7.50    1.60
   4  10   2   -0.27    0.54
  -4 -10  -2    0.22    0.50
   4  10   3    4.15    1.05
  -4 -10  -3    5.00    1.15
  -4 -10  -4   38.12    2.85
   4  10   4   37.85    2.83
  -4 -10  -5    3.08    0.74
  -4 -10  -5    1.96    0.62
  -4 -10  -6   19.13    1.84
   5  -6  -3    0.60    0.48
   5  -6  -2   15.00    1.77
   5  -6  -1    7.14    1.28
   5  -6  -1    8.71    1.43
   5  -6   0   20.02    2.12
   5  -6   0   19.25    2.15
   5  -6   1    0.46    0.59
   5  -6   1   -2.44    0.79
   5  -6   2    4.29    0.94
   5  -6   2    4.50    1.06
   5  -6   3    9.72    1.66
   5  -6   4   14.33    1.94
   5  -6   5    3.79    0.97
   5  -5  -6    1.93    0.58
   5  -5  -5    5.84    1.09
   5  -5  -5    4.94    0.89
   5  -5  -4    4.00    0.94
   5  -5  -4    5.28    1.17
   5  -5  -3    7.76    1.54
   5  -5  -3    6.71    1.36
   5  -5  -2    6.79    1.38
   5  -5  -2    5.75    1.31
   5  -5  -1    0.05    0.59
   5  -5  -1    0.07    0.62
   5  -5   0   16.49    2.33
   5  -5   1   12.70    2.01
   5  -5   1   13.60    2.20
   5  -5   2   77.62    4.68
   5  -5   2   79.81    5.28
   5  -5   3    6.49    1.27
   5  -5   3    6.48    1.58
   5  -5   4    3.75    1.25
   5  -5   5   13.65    2.15
   5  -5   6   61.13    3.96
   5  -5   6   46.11    3.37
   5  -5   7    4.94    1.08
   5  -5   8    3.31    0.83
   5  -4  -7   31.61    2.33
   5  -4  -6   -0.22    0.60
   5  -4  -6    0.90    0.45
   5  -4  -5   37.05    3.19
   5  -4  -4    6.00    1.35
   5  -4  -4    8.59    1.64
   5  -4  -3    1.39    0.91
   5  -4  -3    1.61    0.79
   5  -4  -3    1.39    0.87
   5  -4  -2   26.39    3.15
   5  -4  -2   26.16    3.06
   5  -4  -2   24.23    2.80
   5  -4  -1    0.67    0.72
   5  -4  -1    0.03    0.68
   5  -4  -1   -0.22    0.71
   5  -4   0   70.50    4.86
   5  -4   1    6.57    1.64
   5  -4   2  122.17    5.84
   5  -4   2  122.67    6.31
   5  -4   2  117.24    6.62
   5  -4   3   32.90    2.98
   5  -4   3   36.10    3.73
   5  -4   3   36.81    3.43
   5  -4   3   37.42    3.33
   5  -4   4   33.60    3.55
   5  -4   4   38.12    3.22
   5  -4   4   36.30    3.53
   5  -4   4   40.64    3.57
   5  -4   5   20.64    2.41
   5  -4   5   21.99    2.78
   5  -4   5   28.25    3.20
   5  -4   6    9.21    1.69
   5  -4   6    9.78    1.87
   5  -4   7   75.50    4.53
   5  -4   7   87.83    5.23
   5  -4   8   37.33    3.09
   5  -4   8   44.88    3.46
   5  -4   9   50.27    3.27
   5  -4   9   58.66    3.40
   5  -4  10   16.64    1.59
   5  -3  -9   53.63    2.41
   5  -3  -8   13.84    1.55
   5  -3  -7   12.88    1.74
   5  -3  -6   -0.30    0.83
   5  -3  -5   49.58    3.97
   5  -3  -4    1.96    1.00
   5  -3  -4    0.69    0.62
   5  -3  -4    1.30    1.03
   5  -3  -3    7.12    1.67
   5  -3  -3    5.00    1.47
   5  -3  -3    3.54    1.24
   5  -3  -2    0.90    0.79
   5  -3  -2    1.53    0.92
   5  -3  -2   -0.23    0.60
   5  -3  -1  118.39    6.73
   5  -3  -1  120.11    6.74
   5  -3  -1  116.01    6.07
   5  -3  -1  125.24    5.87
   5  -3   0   46.29    4.13
   5  -3   0   52.93    4.30
   5  -3   0   44.48    3.82
   5  -3   0   46.96    3.55
   5  -3   1    4.07    0.99
   5  -3   1    4.02    1.17
   5  -3   2    5.35    1.10
   5  -3   2    5.56    1.21
   5  -3   2    5.72    1.21
   5  -3   2    5.67    1.51
   5  -3   3  363.06   11.48
   5  -3   3  339.79    9.07
   5  -3   3  343.96   10.61
   5  -3   3  350.02   10.48
   5  -3   3  351.54    9.91
   5  -3   4    2.67    0.88
   5  -3   4    2.24    1.08
   5  -3   4    3.18    0.98
   5  -3   4    2.29    0.86
   5  -3   4    3.72    1.30
   5  -3   5    0.59    0.57
   5  -3   5    0.50    0.64
   5  -3   5    0.00    0.73
   5  -3   6  177.03    7.10
   5  -3   6  180.96    8.37
   5  -3   6  176.24    7.46
   5  -3   7   19.68    2.44
   5  -3   7   22.54    2.96
   5  -3   8   18.14    2.30
   5  -3   8   16.49    2.31
   5  -3   9    7.18    1.48
   5  -3   9    9.12    1.61
   5  -3  10   29.69    2.52
   5  -3  10   29.28    2.35
   5  -3  11   16.57    1.57
   5  -3  11   14.72    1.32
   5  -2 -10   -0.42    0.43
   5  -2  -9    5.20    0.97
   5  -2  -9    4.96    0.94
   5  -2  -8    0.78    0.54
   5  -2  -8   -0.01    0.41
   5  -2  -7   -0.14    0.53
   5  -2  -6   11.04    1.85
   5  -2  -5    7.92    1.68
   5  -2  -5    7.11    1.54
   5  -2  -4    0.45    0.52
   5  -2  -4   -0.17    0.76
   5  -2  -4    0.48    0.84
   5  -2  -4    0.05    0.46
   5  -2  -3   50.44    4.11
   5  -2  -3   47.98    4.19
   5  -2  -3   48.05    3.93
   5  -2  -3   50.67    3.89
   5  -2  -2   34.33    3.44
   5  -2  -2   33.80    3.60
   5  -2  -2   33.41    3.18
   5  -2  -2   36.51    3.17
   5  -2  -1   36.45    3.50
   5  -2  -1   38.92    3.68
   5  -2  -1   36.64    3.06
   5  -2  -1   37.04    3.30
   5  -2   0    6.19    1.45
   5  -2   0    4.88    1.30
   5  -2   0    4.13    1.01
   5  -2   0    3.46    1.03
   5  -2   1   58.69    3.48
   5  -2   1   60.78    3.82
   5  -2   1   59.08    4.28
   5  -2   2  367.90    8.69
   5  -2   2  369.19   10.64
   5  -2   2  363.63    9.44
   5  -2   2  371.63   10.94
   5  -2   3  126.04    5.16
   5  -2   3  120.84    5.96
   5  -2   3  116.64    5.42
   5  -2   3  126.00    6.48
   5  -2   4    1.98    0.76
   5  -2   4    0.41    0.61
   5  -2   5    0.65    0.78
   5  -2   5    3.36    0.95
   5  -2   6  440.97   10.88
   5  -2   6  401.43   11.17
   5  -2   7   -0.96    0.73
   5  -2   7    0.73    0.65
   5  -2   8   13.56    2.16
   5  -2   8   11.15    1.88
   5  -2   9    3.74    1.15
   5  -2   9    4.97    1.36
   5  -2  10   66.19    4.15
   5  -2  10   66.98    3.94
   5  -2  10   71.79    4.51
   5  -2  11   18.91    1.97
   5  -2  11   18.23    1.73
   5  -2  11   20.80    2.19
   5  -2  12    0.78    0.45
   5  -1 -11    0.75    0.32
   5  -1 -10    4.37    0.91
   5  -1  -9   20.82    2.13
   5  -1  -8   21.93    2.27
   5  -1  -8   22.16    2.42
   5  -1  -7  128.52    5.90
   5  -1  -7  132.99    6.13
   5  -1  -6    0.01    0.52
   5  -1  -5   80.92    5.15
   5  -1  -4   33.78    3.12
   5  -1  -4   39.75    3.64
   5  -1  -4   32.25    3.16
   5  -1  -3  109.23    6.04
   5  -1  -3  100.37    5.36
   5  -1  -2   33.64    3.52
   5  -1  -1   63.71    4.64
   5  -1   0    0.34    0.43
   5  -1   1    3.55    1.14
   5  -1   2    1.60    0.70
   5  -1   3   99.43    6.41
   5  -1   4   91.10    6.70
   5  -1   5   35.89    3.05
   5  -1   5   36.39    3.24
   5  -1   6   12.76    2.08
   5  -1   6   11.49    1.81
   5  -1   7  175.37    7.42
   5  -1   7  168.18    7.57
   5  -1   8   48.50    4.18
   5  -1   9    7.07    1.58
   5  -1  10    1.51    0.75
   5  -1  11   14.14    1.67
   5  -1  11   17.84    2.24
   5  -1  12  102.71    4.71
   5   0 -11    0.37    0.38
   5   0 -10    4.72    1.09
   5   0  -9    6.98    1.31
   5   0  -8    5.32    1.11
   5   0  -8    4.64    1.17
   5   0  -7   -0.01    0.45
   5   0  -7    0.33    0.42
   5   0  -6    1.60    0.88
   5   0  -6    0.70    0.67
   5   0  -5   77.68    4.80
   5   0  -4   10.11    1.98
   5   0  -3   24.11    2.82
   5   0  -2   65.14    5.15
   5   0  -2   57.17    4.22
   5   0  -1  500.25   14.36
   5   0  -1  448.27   11.45
   5   0   0   32.37    3.61
   5   0   0   30.09    2.88
   5   0   1  117.42    6.76
   5   0   1   99.78    5.24
   5   0   2  102.14    5.81
   5   0   2  112.96    6.62
   5   0   3  210.11    9.29
   5   0   4  253.35   11.27
   5   0   5  206.32   10.87
   5   0   6   11.26    1.69
   5   0   6   13.52    2.02
   5   0   7   43.26    3.60
   5   0   7   38.23    3.54
   5   0   8   42.16    3.84
   5   0   9   15.04    2.36
   5   0  10   52.31    4.29
   5   0  11   10.08    1.72
   5   0  11    9.00    1.77
   5   0  12   10.81    1.50
   5   0  12   10.94    1.71
   5   0  13    8.43    1.09
   5   0  13   11.84    1.53
   5   1 -12    5.66    0.88
   5   1 -11    7.11    1.17
   5   1 -10   10.07    1.52
   5   1  -9   22.94    2.50
   5   1  -9   24.33    2.69
   5   1  -8   32.83    3.09
   5   1  -8   32.98    3.28
   5   1  -7    7.54    1.36
   5   1  -7    7.61    1.55
   5   1  -7    9.08    1.78
   5   1  -6   29.73    2.85
   5   1  -6   28.60    2.96
   5   1  -6   28.49    2.92
   5   1  -6   34.35    3.32
   5   1  -5  111.80    6.69
   5   1  -4  154.58    7.47
   5   1  -3   26.26    3.23
   5   1  -3   22.11    2.60
   5   1  -2  111.50    6.62
   5   1  -2  104.18    5.28
   5   1  -1  186.08    8.20
   5   1  -1  162.99    6.42
   5   1   0  252.61    9.18
   5   1   0  218.06    7.14
   5   1   1  558.63   13.44
   5   1   1  565.13   12.21
   5   1   2  304.87    9.90
   5   1   2  327.20   10.90
   5   1   3   42.14    3.75
   5   1   3   48.64    4.71
   5   1   4   10.91    2.40
   5   1   5  582.87   18.66
   5   1   6  143.66    9.65
   5   1   7   19.30    2.36
   5   1   7   22.27    2.64
   5   1   8    9.77    1.80
   5   1   9    3.58    1.24
   5   1  10  126.64    6.65
   5   1  11    4.37    1.26
   5   1  12    5.51    1.28
   5   1  13    0.35    0.36
   5   1  13   -0.26    0.38
   5   2 -12    0.28    0.29
   5   2 -11    4.73    0.97
   5   2 -10    7.70    1.44
   5   2 -10    8.37    1.53
   5   2  -9   48.63    3.68
   5   2  -9   48.02    3.44
   5   2  -9   51.12    4.00
   5   2  -8   53.04    3.95
   5   2  -8   54.69    3.97
   5   2  -8   48.49    4.06
   5   2  -7   35.78    3.33
   5   2  -7   32.67    3.20
   5   2  -7   31.36    3.24
   5   2  -6    3.15    0.96
   5   2  -6    2.06    0.90
   5   2  -6    2.54    0.87
   5   2  -6    3.56    1.09
   5   2  -5   27.75    3.20
   5   2  -4  221.42    9.24
   5   2  -4  235.46    8.66
   5   2  -3  120.53    6.71
   5   2  -3  126.36    5.68
   5   2  -2  221.25    8.73
   5   2  -2  236.27    7.44
   5   2  -1   39.76    3.56
   5   2  -1   43.34    3.06
   5   2   0   20.13    2.50
   5   2   0   18.51    1.93
   5   2   1    1.94    0.83
   5   2   1    2.12    0.65
   5   2   2   28.13    2.87
   5   2   2   31.23    3.58
   5   2   3  346.42    9.95
   5   2   3  354.52   13.45
   5   2   4   -0.08    0.51
   5   2   4    1.30    1.54
   5   2   5  295.41   13.37
   5   2   6   15.52    3.16
   5   2   7  146.88    6.53
   5   2   8    0.72    0.56
   5   2   8    1.24    0.60
   5   2   9    0.61    0.59
   5   2   9    3.05    1.07
   5   2  10    6.98    1.55
   5   2  10    8.24    1.67
   5   2  11   29.54    2.86
   5   2  11   31.96    3.15
   5   2  12   68.81    4.13
   5   2  13    3.41    0.79
   5   3 -12    3.06    0.69
   5   3 -11   29.84    2.38
   5   3 -10   22.26    2.40
   5   3 -10   24.39    2.31
   5   3 -10   25.93    2.75
   5   3  -9   60.21    4.10
   5   3  -9   57.15    3.94
   5   3  -9   57.57    4.30
   5   3  -8   73.96    4.78
   5   3  -8   77.65    5.11
   5   3  -7    2.44    0.82
   5   3  -7    0.97    0.75
   5   3  -6   18.06    2.37
   5   3  -6   20.39    2.55
   5   3  -5    1.72    0.84
   5   3  -4   32.11    3.58
   5   3  -3  181.90    8.29
   5   3  -2   62.35    4.67
   5   3  -1  316.27    9.99
   5   3   0   48.80    3.75
   5   3   1   28.57    2.80
   5   3   1   23.45    3.13
   5   3   2    2.18    0.80
   5   3   2    1.01    0.62
   5   3   3  275.41    9.02
   5   3   3  254.72    8.29
   5   3   3  280.97   12.31
   5   3   4   13.32    2.21
   5   3   4    9.97    1.71
   5   3   4    7.68    2.16
   5   3   5   41.95    3.56
   5   3   5   41.09    4.98
   5   3   5   39.75    4.16
   5   3   6   40.33    5.00
   5   3   7   29.01    3.05
   5   3   7   26.87    2.78
   5   3   8  177.38    7.79
   5   3   8  185.32    7.52
   5   3   9   -0.03    0.79
   5   3   9    0.10    0.62
   5   3  10   22.78    2.82
   5   3  10   20.24    2.49
   5   3  11    3.58    0.96
   5   3  11    4.78    1.16
   5   3  12   25.49    2.48
   5   3  12   26.69    2.38
   5   3  13   31.29    2.27
   5   4 -12   28.20    1.84
   5   4 -11   -0.62    0.35
   5   4 -11   -0.32    0.43
   5   4 -10    6.98    1.36
   5   4 -10    5.62    1.16
   5   4  -9   51.43    3.78
   5   4  -9   57.19    4.19
   5   4  -8   32.51    3.17
   5   4  -8   30.38    3.21
   5   4  -7   86.08    5.23
   5   4  -7   91.27    5.61
   5   4  -6   28.22    3.02
   5   4  -6   28.35    3.09
   5   4  -5   14.75    2.50
   5   4  -5   14.10    2.05
   5   4  -5   19.39    2.49
   5   4  -4   11.48    2.22
   5   4  -3  596.12   15.46
   5   4  -2  139.16    7.18
   5   4  -1  390.91   11.48
   5   4   0   26.88    2.85
   5   4   1    1.87    0.74
   5   4   2   78.37    4.56
   5   4   3   22.98    2.46
   5   4   4   45.01    4.01
   5   4   4   35.98    4.67
   5   4   5  386.33   15.26
   5   4   5  386.13   12.86
   5   4   6   30.84    3.01
   5   4   6   38.62    4.40
   5   4   7    0.20    0.75
   5   4   8   76.81    5.18
   5   4   9  538.82   13.98
   5   4  10    4.87    1.49
   5   4  11    2.67    1.02
   5   4  12    3.07    0.96
   5   4  13   39.16    2.51
   5   5 -11   10.74    1.32
   5   5 -11    9.25    1.27
   5   5 -10    2.20    0.73
   5   5  -9    1.23    0.55
   5   5  -8   -0.29    0.91
   5   5  -7   46.02    3.89
   5   5  -6   33.57    3.31
   5   5  -5    3.51    1.15
   5   5  -4    5.72    1.34
   5   5  -3   41.41    4.27
   5   5  -2   -0.31    0.58
   5   5  -1   14.01    2.34
  -5  -5   0   81.67    4.38
   5   5   0   72.92    4.98
  -5  -5  -1   12.27    1.68
   5   5   1   15.14    2.18
  -5  -5  -2   84.93    4.55
   5   5   2   74.28    4.54
  -5  -5  -3    0.01    0.39
  -5  -5  -4    3.63    1.15
   5   5   4    4.23    1.43
  -5  -5  -5   20.66    2.60
   5   5   5   21.47    2.41
   5   5   5   22.71    2.55
   5   5   6    0.15    0.48
   5   5   6    0.77    0.63
   5   5   7   30.89    3.21
   5   5   7   31.67    3.37
   5   5   8    9.01    1.87
   5   5   9    2.88    1.38
   5   5  10    0.62    0.60
   5   5  11    3.53    1.23
   5   5  12   13.20    1.70
   5   5  13    7.71    1.04
   5   6 -11    2.12    0.60
   5   6 -10    3.47    0.87
   5   6  -9   33.89    2.86
   5   6  -8   58.48    4.13
   5   6  -7    7.24    1.52
  -5  -6   7    6.99    1.42
   5   6  -6   20.23    2.63
  -5  -6   6   19.79    2.36
   5   6  -5   20.30    2.62
  -5  -6   5   19.79    2.36
  -5  -6   4   41.14    3.76
   5   6  -4   32.24    3.28
  -5  -6   4   33.65    2.96
  -5  -6   3   13.03    2.21
   5   6  -3   13.90    2.06
  -5  -6   3   13.01    1.83
  -5  -6   2   26.29    3.02
   5   6  -2   26.45    3.47
  -5  -6   2   26.10    3.00
  -5  -6   1  235.10    8.71
   5   6  -1  228.91    9.69
  -5  -6   0    8.24    1.67
   5   6   0    4.79    1.30
  -5  -6  -1   -0.34    0.48
   5   6   1   -0.37    0.47
  -5  -6  -2   18.93    2.42
  -5  -6  -3  367.66   11.13
   5   6   3  358.31    9.60
  -5  -6  -4   16.01    1.97
   5   6   4   15.73    2.16
   5   6   5   36.25    3.34
   5   6   5   34.66    3.31
   5   6   6    1.40    0.82
   5   6   6    0.70    0.55
   5   6   7   27.71    3.06
   5   6   7   27.88    3.19
   5   6   8    1.02    0.78
   5   6   9    2.15    0.97
   5   6  10    5.96    1.41
   5   6  11    5.92    1.28
   5   6  12    3.44    0.78
   5   7 -10    4.04    0.86
  -5  -7   9    3.56    0.85
  -5  -7   8   46.53    3.33
  -5  -7   7    3.41    0.98
  -5  -7   6    3.86    1.02
  -5  -7   5   16.50    2.23
  -5  -7   4   32.68    3.37
  -5  -7   4   28.75    2.92
  -5  -7   3   15.56    2.45
  -5  -7   3   16.94    2.27
   5   7  -2    1.15    0.63
  -5  -7   2   -0.18    0.70
   5   7  -1   75.92    4.62
  -5  -7   1   63.91    4.89
   5   7   0   -0.32    0.76
  -5  -7   0    0.09    0.53
   5   7   1  177.99    6.98
  -5  -7  -1  177.55    7.68
  -5  -7  -2   41.55    3.57
   5   7   2   38.90    3.27
   5   7   3    5.79    1.33
  -5  -7  -3    6.46    1.40
   5   7   4    0.09    0.52
   5   7   4    0.65    0.59
   5   7   5   94.05    5.45
   5   7   5   95.51    5.54
   5   7   6   41.47    3.71
   5   7   6   34.74    3.52
   5   7   7   -1.04    0.96
   5   7   7   -0.41    0.88
   5   7   8   -0.97    0.98
  -5  -7  -8    0.44    0.46
   5   7   9   24.72    2.62
   5   7  10    9.28    1.45
   5   7  11    2.77    0.68
   5   8  -9    9.82    1.22
  -5  -8   8   53.73    3.37
  -5  -8   7    0.45    0.46
  -5  -8   6    9.33    1.72
  -5  -8   5    0.37    0.65
   5   8  -4    1.06    0.65
   5   8  -3    1.83    0.87
  -5  -8   3    4.24    1.31
   5   8  -2   17.52    2.32
  -5  -8   2   19.12    2.76
   5   8  -1   46.87    3.73
  -5  -8   1   46.32    4.29
   5   8   0  167.60    7.01
  -5  -8   0  146.83    7.52
  -5  -8  -1  227.56    9.07
   5   8   1  219.74    7.99
   5   8   2    6.88    1.49
   5   8   3    3.41    1.16
   5   8   4   12.49    2.07
   5   8   4   10.88    1.86
   5   8   5  103.50    5.74
   5   8   5   99.84    5.68
   5   8   6    9.45    1.89
   5   8   6   11.03    1.93
   5   8   7    0.89    0.74
   5   8   7    1.06    0.69
   5   8   8    4.86    1.14
  -5  -8  -8    4.15    0.92
   5   8   9    5.56    1.07
  -5  -8  -9    4.89    1.04
   5   9  -8   37.43    2.25
   5   9  -7    5.14    1.03
   5   9  -6   18.38    2.12
   5   9  -5    5.22    1.34
   5   9  -4    3.81    1.22
   5   9  -3    5.28    1.44
   5   9  -2   11.51    1.89
   5   9  -1   16.77    2.27
   5   9   0    1.87    0.86
   5   9   1   28.90    3.01
   5   9   2   16.17    2.24
   5   9   3   24.53    2.69
   5   9   4    4.78    1.25
  -5  -9  -4    4.43    1.08
   5   9   5   10.21    1.85
  -5  -9  -5    7.02    1.26
   5   9   6   -0.60    0.67
  -5  -9  -7    2.15    0.85
  -5  -9  -8    3.77    0.82
   5  10  -5    4.32    0.96
   5  10  -4   12.32    1.64
   5  10  -3    0.03    0.44
  -5 -10   3   -0.27    0.57
   5  10  -2    6.77    1.37
  -5 -10   2    6.00    1.36
   5  10  -1    4.94    1.11
  -5 -10   0   22.27    2.73
   5  10   0   21.35    2.40
   5  10   1    0.29    0.58
  -5 -10  -1    0.91    0.59
   5  10   2    0.93    0.59
  -5 -10  -2    1.02    0.78
   5  10   3    4.04    1.09
  -5 -10  -3    2.22    0.78
   5  10   4    7.64    1.39
  -5 -10  -4    9.61    1.43
  -5 -10  -5    0.27    0.60
  -5 -10  -6   -0.17    0.42
  -5 -11   0    7.65    1.24
  -5 -11  -1    0.19    0.35
   6  -5  -3    6.55    1.02
   6  -5  -2    2.95    0.82
   6  -5  -1    8.24    1.27
   6  -5   0   -0.51    0.81
   6  -5   0    0.39    0.72
   6  -5   1    1.14    0.58
   6  -5   1    2.75    0.98
   6  -5   2    3.47    0.88
   6  -5   2    2.64    0.94
   6  -5   3    4.13    1.13
   6  -5   4    0.69    0.48
   6  -4  -6   15.41    1.39
   6  -4  -5    1.38    0.57
   6  -4  -5    0.62    0.28
   6  -4  -4    0.59    0.49
   6  -4  -4   -0.94    0.76
   6  -4  -3    0.33    0.49
   6  -4  -3   -0.22    0.51
   6  -4  -2   11.24    1.71
   6  -4  -2    9.25    1.64
   6  -4  -2    9.70    1.75
   6  -4  -1    5.10    1.08
   6  -4  -1    4.62    1.17
   6  -4  -1    5.07    1.40
   6  -4   0    4.18    1.05
   6  -4   0    4.85    1.45
   6  -4   1    3.13    0.95
   6  -4   1    3.56    1.08
   6  -4   2    4.77    1.18
   6  -4   2    5.57    1.45
   6  -4   3   15.44    1.98
   6  -4   3   15.77    2.41
   6  -4   4    9.09    1.60
   6  -4   4    9.48    1.86
   6  -4   5    9.95    1.67
   6  -4   5    8.43    1.55
   6  -4   6    3.78    1.01
   6  -4   7   -0.01    0.49
   6  -3  -7    2.28    0.66
   6  -3  -6   16.78    1.89
   6  -3  -5    0.35    0.54
   6  -3  -5   -0.71    0.58
   6  -3  -4   25.14    2.73
   6  -3  -4   23.63    2.47
   6  -3  -3   41.09    3.65
   6  -3  -3   39.70    3.48
   6  -3  -2    0.96    0.70
   6  -3  -2    1.27    0.85
   6  -3  -2    2.62    1.22
   6  -3  -2    2.05    0.83
   6  -3  -1    5.03    1.41
   6  -3  -1    2.03    0.84
   6  -3  -1    3.29    1.19
   6  -3  -1    3.20    1.19
   6  -3   0    6.70    1.54
   6  -3   0    7.24    1.74
   6  -3   0    8.46    1.59
   6  -3   0    7.59    1.81
   6  -3   1   66.85    4.97
   6  -3   1   69.42    5.19
   6  -3   1   75.93    4.66
   6  -3   2    2.24    0.84
   6  -3   2    0.77    0.65
   6  -3   2    1.18    0.63
   6  -3   2    0.10    0.59
   6  -3   3   45.99    3.68
   6  -3   3   45.13    3.77
   6  -3   3   40.88    4.01
   6  -3   3   44.59    3.64
   6  -3   4   28.13    3.09
   6  -3   4   33.10    3.06
   6  -3   4   31.04    3.46
   6  -3   4   29.64    2.94
   6  -3   5    9.21    1.55
   6  -3   5    8.48    1.83
   6  -3   5   12.31    1.99
   6  -3   5   12.48    2.17
   6  -3   6   45.42    3.35
   6  -3   6   48.09    4.07
   6  -3   7   26.04    2.46
   6  -3   7   30.94    3.11
   6  -3   8   16.74    1.87
   6  -3   8   19.33    2.29
   6  -3   9   23.22    2.15
   6  -2  -8   12.51    1.37
   6  -2  -7   -0.23    0.54
   6  -2  -7    1.16    0.58
   6  -2  -6    1.07    0.60
   6  -2  -6    1.69    0.69
   6  -2  -5   12.12    1.96
   6  -2  -5    9.80    1.55
   6  -2  -5    6.51    1.33
   6  -2  -4   10.48    1.88
   6  -2  -4    9.09    1.63
   6  -2  -4    9.41    1.67
   6  -2  -3   48.61    4.20
   6  -2  -3   46.53    3.96
   6  -2  -3   47.09    4.09
   6  -2  -3   49.23    3.88
   6  -2  -2  107.12    6.34
   6  -2  -2  112.88    6.36
   6  -2  -2  115.11    6.31
   6  -2  -2  118.87    5.99
   6  -2  -1    0.15    0.58
   6  -2  -1   -0.46    0.77
   6  -2  -1    1.20    0.74
   6  -2  -1   -0.50    0.79
   6  -2   0    0.49    0.55
   6  -2   0   -1.03    1.28
   6  -2   0   -0.37    0.63
   6  -2   0    0.61    0.85
   6  -2   1   12.76    2.22
   6  -2   1   16.54    2.56
   6  -2   1   18.89    2.32
   6  -2   2    9.16    1.61
   6  -2   2    9.33    1.88
   6  -2   2    9.69    1.68
   6  -2   2    6.84    1.50
   6  -2   3    4.96    1.29
   6  -2   3    3.36    1.13
   6  -2   3    4.76    1.24
   6  -2   3    3.77    1.36
   6  -2   4    0.02    0.65
   6  -2   4    0.24    0.63
   6  -2   4   -0.36    0.92
   6  -2   4    0.25    0.67
   6  -2   5    6.44    1.64
   6  -2   5    3.39    0.98
   6  -2   6    1.62    1.13
   6  -2   6    1.99    1.29
   6  -2   7  130.04    6.89
   6  -2   8   45.23    3.88
   6  -2   9    0.43    0.54
   6  -2   9    1.34    0.66
   6  -2  10   54.80    3.19
   6  -2  10   54.76    3.27
   6  -1  -9    4.61    0.87
   6  -1  -8    2.74    0.70
   6  -1  -8    5.11    1.12
   6  -1  -7    4.77    1.12
   6  -1  -7    5.87    1.32
   6  -1  -6   17.58    2.24
   6  -1  -6   14.70    2.19
   6  -1  -5   11.59    2.04
   6  -1  -5   12.37    2.04
   6  -1  -4   32.55    3.41
   6  -1  -4   34.94    3.22
   6  -1  -4   29.03    3.10
   6  -1  -3   32.53    3.48
   6  -1  -3   35.22    3.41
   6  -1  -3   35.30    3.33
   6  -1  -2  209.20    8.86
   6  -1  -2  221.59    8.86
   6  -1  -2  214.07    8.54
   6  -1  -2  220.76    8.05
   6  -1  -1   24.43    2.98
   6  -1  -1   21.46    2.82
   6  -1  -1   19.47    2.59
   6  -1  -1   25.03    2.63
   6  -1   0   10.59    1.93
   6  -1   0    8.06    1.42
   6  -1   0    9.25    1.80
   6  -1   1    4.87    1.30
   6  -1   1    7.77    1.43
   6  -1   1    6.47    1.61
   6  -1   2   15.75    2.43
   6  -1   2   17.08    2.13
   6  -1   2   13.39    2.33
   6  -1   3  113.19    6.18
   6  -1   3  134.50    7.27
   6  -1   3  120.49    5.63
   6  -1   4   58.04    4.35
   6  -1   4   56.59    3.93
   6  -1   5   44.82    3.61
   6  -1   5   46.46    3.89
   6  -1   6   11.50    2.06
   6  -1   6   10.61    1.93
   6  -1   7   43.95    4.05
   6  -1   7   42.57    3.85
   6  -1   8    3.01    1.17
   6  -1   9   90.17    5.31
   6  -1  10    1.26    0.66
   6  -1  10    1.47    0.90
   6  -1  11   -0.24    0.32
   6  -1  11    0.82    0.57
   6  -1  12   16.92    1.56
   6   0 -10    5.20    0.85
   6   0  -9    3.13    0.83
   6   0  -8   16.69    1.85
   6   0  -8   16.49    1.95
   6   0  -7   -0.06    0.55
   6   0  -6  111.70    5.71
   6   0  -5    0.49    0.68
   6   0  -4  173.62    7.73
   6   0  -3   15.83    2.43
   6   0  -3   13.38    2.05
   6   0  -2  120.76    6.45
   6   0  -2  116.48    6.14
   6   0  -2  111.26    6.05
   6   0  -2  123.32    5.89
   6   0  -1   -0.38    0.54
   6   0  -1    0.50    0.68
   6   0  -1    2.07    1.08
   6   0  -1    2.50    1.23
   6   0  -1   -0.16    0.42
   6   0   0  270.24    9.54
   6   0   0  249.56    9.24
   6   0   0  260.56    7.90
   6   0   1    3.75    1.19
   6   0   1    2.94    0.78
   6   0   2   36.56    3.47
   6   0   2   38.92    2.99
   6   0   3    1.39    0.76
   6   0   3    0.20    0.46
   6   0   3   -0.02    0.53
   6   0   4  316.80    9.75
   6   0   4  322.37    9.05
   6   0   4  307.45    9.32
   6   0   5   21.71    2.45
   6   0   5   19.13    2.49
   6   0   6   35.36    3.22
   6   0   6   42.05    3.75
   6   0   7    6.72    1.67
   6   0   7    9.61    2.00
   6   0   8   20.37    2.70
   6   0   9   12.41    2.11
   6   0  10   -0.23    0.88
   6   0  11   26.70    2.72
   6   0  12   11.26    1.48
   6   1 -11    2.91    0.60
   6   1 -10   12.73    1.50
   6   1  -9    0.09    0.52
   6   1  -8    1.85    0.59
   6   1  -8    1.34    0.60
   6   1  -7    2.25    0.79
   6   1  -7    1.69    0.72
   6   1  -6    0.03    0.48
   6   1  -6    0.58    0.66
   6   1  -6   -0.40    0.71
   6   1  -5   31.45    3.17
   6   1  -5   28.80    3.09
   6   1  -4  178.15    7.61
   6   1  -4  170.14    7.42
   6   1  -3    0.38    0.67
   6   1  -3   -0.23    0.72
   6   1  -2   18.25    3.08
   6   1  -2   13.04    2.22
   6   1  -1  420.62   14.29
   6   1  -1  400.76   11.66
   6   1   0  164.19    8.86
   6   1   0  153.75    7.14
   6   1   1    7.14    1.85
   6   1   2   32.37    3.84
   6   1   3  244.34   10.50
   6   1   3  235.33   10.48
   6   1   4   71.24    6.45
   6   1   4   66.30    4.13
   6   1   5    0.67    0.64
   6   1   5   -0.08    0.51
   6   1   6   11.34    1.94
   6   1   6   10.38    1.61
   6   1   7  143.84    6.59
   6   1   7  134.94    6.67
   6   1   8   14.30    2.29
   6   1   9   -0.30    0.97
   6   1  10    6.89    1.54
   6   1  11   83.75    4.85
   6   1  12   11.46    1.63
   6   1  13    2.95    0.69
   6   2 -11    0.92    0.41
   6   2 -10   16.09    1.76
   6   2  -9    6.89    1.29
   6   2  -8    9.66    1.69
   6   2  -8    7.33    1.35
   6   2  -7   16.72    2.04
   6   2  -7   17.56    2.36
   6   2  -7   16.45    2.22
   6   2  -6   75.01    4.51
   6   2  -6   68.82    4.62
   6   2  -6   70.83    4.82
   6   2  -5    6.28    1.44
   6   2  -5    5.15    1.28
   6   2  -5    8.43    1.80
   6   2  -4  103.27    5.65
   6   2  -4   95.78    5.52
   6   2  -3   56.24    5.25
   6   2  -3   57.03    4.52
   6   2  -3   64.91    4.42
   6   2  -2  102.17    7.07
   6   2  -2   98.64    5.67
   6   2  -1    1.46    0.99
   6   2  -1    0.93    0.53
   6   2   0   24.51    3.23
   6   2   0   27.35    2.85
   6   2   1    4.44    1.30
   6   2   2   60.88    4.95
   6   2   3  199.95    8.90
   6   2   3  215.02   10.65
   6   2   4   -0.46    0.57
   6   2   4    0.12    1.03
   6   2   5   12.44    1.85
   6   2   6   -0.22    0.72
   6   2   6    0.28    0.38
   6   2   7   62.25    4.17
   6   2   7   59.30    4.34
   6   2   8   -0.06    0.73
   6   2   9   43.03    3.88
   6   2  10    0.73    0.71
   6   2  11   -0.34    0.63
   6   2  12    0.57    0.59
   6   2  13   49.72    2.59
   6   3 -11    1.60    0.59
   6   3 -10   47.65    3.10
   6   3 -10   45.97    2.74
   6   3  -9   74.36    4.28
   6   3  -9   69.35    3.95
   6   3  -8    2.22    1.01
   6   3  -8    1.17    0.83
   6   3  -7   13.28    2.13
   6   3  -7   12.94    2.10
   6   3  -6   46.66    3.87
   6   3  -6   45.42    3.65
   6   3  -6   42.72    3.80
   6   3  -5   98.97    5.58
   6   3  -5   87.20    5.38
   6   3  -4   66.53    4.44
   6   3  -4   67.33    4.41
   6   3  -4   62.54    4.47
   6   3  -3    2.53    1.28
   6   3  -2   13.86    2.44
   6   3  -1    0.43    0.55
   6   3   0   57.79    4.77
   6   3   1   40.49    4.00
   6   3   2  179.62    8.10
   6   3   3   44.81    4.10
   6   3   3   50.40    5.58
   6   3   4  361.45   11.62
   6   3   4  405.75   16.64
   6   3   5   19.29    2.72
   6   3   5   19.77    2.26
   6   3   6   21.31    2.51
   6   3   6   19.42    2.36
   6   3   7    0.88    0.61
   6   3   7    1.29    0.66
   6   3   8  130.20    6.65
   6   3   8  131.83    6.56
   6   3   9    0.41    0.60
   6   3   9    1.94    1.08
   6   3  10   15.32    2.17
   6   3  10   13.22    2.02
   6   3  11    4.68    1.08
   6   3  11    2.99    0.93
   6   3  12    0.00    0.33
   6   4 -11    0.97    0.49
   6   4 -11    1.75    0.49
   6   4 -10   15.07    1.73
   6   4 -10   14.74    1.62
   6   4  -9    4.19    1.13
   6   4  -9    3.13    0.96
   6   4  -8   12.23    1.93
   6   4  -8   11.25    1.83
   6   4  -7   22.52    2.67
   6   4  -7   24.79    2.84
   6   4  -6    0.38    0.54
   6   4  -6   -0.28    0.81
   6   4  -5    3.82    1.26
   6   4  -5    5.80    1.34
   6   4  -5    5.92    1.42
   6   4  -4  188.30    7.55
   6   4  -4  191.41    7.89
   6   4  -4  189.46    7.67
   6   4  -3    2.10    0.92
   6   4  -3    2.31    0.73
   6   4  -2   95.03    6.44
   6   4  -1   25.61    3.27
   6   4   0   77.72    5.41
   6   4   1   14.63    2.36
   6   4   2   18.63    2.67
   6   4   2   17.87    3.34
   6   4   3  137.11    6.95
   6   4   3  156.55   10.09
   6   4   4   40.41    3.84
   6   4   4   44.17    5.47
   6   4   5    0.72    0.60
   6   4   6   30.64    3.10
   6   4   6   34.53    3.11
   6   4   7  657.45   14.81
   6   4   7  686.73   14.21
   6   4   8   50.05    4.22
   6   4   8   46.31    3.78
   6   4   9   28.16    3.17
   6   4   9   30.54    3.02
   6   4  10   12.73    2.02
   6   4  11   43.89    3.39
   6   4  12    1.75    0.64
   6   5 -11   24.38    1.70
   6   5 -11   22.49    1.60
   6   5 -10   18.08    1.85
   6   5 -10   20.61    1.94
   6   5  -9    1.24    0.66
   6   5  -9    2.02    0.90
   6   5  -8    4.42    1.10
   6   5  -8    4.10    1.21
   6   5  -7   11.08    1.94
   6   5  -7   15.36    2.20
   6   5  -6    9.91    1.87
   6   5  -6   11.20    2.00
   6   5  -5    3.26    1.09
   6   5  -5    1.68    0.84
   6   5  -5    2.21    1.03
   6   5  -4  201.78    8.01
   6   5  -4  220.20    8.58
   6   5  -4  211.11    8.26
   6   5  -3  124.47    6.01
   6   5  -3  118.78    6.43
   6   5  -3  131.72    6.24
   6   5  -2  203.14    7.30
   6   5  -2  203.26    8.52
   6   5  -2  207.35    7.49
   6   5  -1   45.08    4.38
   6   5   0  105.92    6.46
   6   5   1  182.97    8.20
   6   5   2   -0.05    0.43
   6   5   2    0.24    1.05
   6   5   3   13.74    3.06
   6   5   4   31.09    2.92
   6   5   5    2.01    0.86
   6   5   5    2.02    0.83
   6   5   6    1.63    0.95
   6   5   6   -0.80    0.89
   6   5   7  107.31    6.08
   6   5   8  109.45    6.27
   6   5   9    0.54    0.85
   6   5  10   14.71    2.24
   6   5  11   14.21    1.94
   6   5  12    8.55    1.25
   6   6 -10    4.34    0.88
   6   6  -9    0.37    0.42
   6   6  -9    0.90    0.65
   6   6  -8    0.75    0.58
   6   6  -8    1.32    0.89
   6   6  -7    4.84    1.25
   6   6  -7    4.40    1.23
   6   6  -6    3.70    1.10
  -6  -6   5   12.43    2.04
   6   6  -5    8.73    1.70
  -6  -6   4   59.53    4.68
   6   6  -4   49.99    4.03
   6   6  -4   60.12    4.44
  -6  -6   3   42.11    4.10
   6   6  -3   43.62    3.68
   6   6  -3   38.86    3.85
   6   6  -3   42.66    3.57
   6   6  -2    2.58    1.02
  -6  -6   2    1.97    1.25
   6   6  -2    1.69    0.92
   6   6  -2    2.56    0.92
   6   6  -1   25.30    2.59
  -6  -6   1   23.70    3.08
   6   6   0    1.86    0.77
  -6  -6   0   11.88    2.12
   6   6   1    3.69    0.99
  -6  -6  -1    5.27    1.37
   6   6   2    5.10    1.13
  -6  -6  -2    7.30    1.51
   6   6   3   -0.13    0.52
  -6  -6  -3    0.70    0.52
  -6  -6  -4   16.70    2.08
   6   6   4   19.35    2.44
   6   6   5   14.72    2.20
   6   6   5   13.17    2.11
   6   6   6    8.42    1.75
   6   6   6   11.02    1.93
   6   6   7    1.17    0.95
   6   6   7    0.67    0.58
   6   6   8   31.22    3.27
   6   6   9    1.44    0.92
   6   6  10    1.73    0.74
   6   6  11    8.97    1.44
   6   7 -10    0.64    0.34
   6   7  -9    2.62    0.73
   6   7  -8   -0.32    0.46
   6   7  -7    2.06    0.85
   6   7  -6   19.02    2.37
  -6  -7   5   10.85    1.75
   6   7  -5   12.87    2.04
  -6  -7   4   39.59    3.69
   6   7  -4   37.52    3.44
   6   7  -3   48.11    3.89
  -6  -7   3   43.69    4.07
   6   7  -2   23.65    2.68
  -6  -7   2   17.37    2.67
   6   7  -1   -1.02    0.91
  -6  -7   1    1.19    0.69
   6   7   0  234.82    8.11
  -6  -7   0  226.18    9.17
   6   7   1   57.64    4.05
  -6  -7  -1   62.37    4.69
  -6  -7  -2   73.48    4.86
   6   7   2   71.76    4.57
  -6  -7  -3   38.65    3.42
   6   7   3   35.82    3.32
   6   7   4   37.43    3.42
  -6  -7  -4   37.98    3.23
   6   7   4   32.85    3.25
   6   7   5    3.55    1.16
   6   7   5    2.71    1.08
   6   7   6   79.79    5.14
   6   7   6   79.76    5.29
   6   7   7    1.02    0.70
   6   7   7    1.57    0.79
   6   7   8    0.10    0.56
   6   7   9    7.11    1.42
   6   7  10    3.03    0.87
   6   7  11   22.17    1.76
   6   8  -8    1.30    0.58
   6   8  -8    1.76    0.63
   6   8  -7    4.00    1.02
   6   8  -7    4.90    1.06
   6   8  -6    0.24    0.53
   6   8  -6   -0.52    0.68
   6   8  -5   -0.42    0.65
   6   8  -4   25.61    2.82
  -6  -8   4   23.79    2.74
   6   8  -3   85.01    5.19
  -6  -8   3   89.33    5.67
   6   8  -2   40.49    3.58
  -6  -8   2   42.58    4.02
   6   8  -1   41.95    3.63
  -6  -8   1   36.91    3.80
   6   8   0   24.00    2.75
  -6  -8   0   23.59    3.01
   6   8   1    3.19    1.01
  -6  -8  -1    0.78    0.72
  -6  -8  -2   34.10    3.39
   6   8   2   33.79    3.27
   6   8   3   -0.18    0.55
   6   8   3   -0.42    0.56
   6   8   4    5.28    1.41
   6   8   4    4.47    1.30
   6   8   5    7.54    1.68
   6   8   5    9.71    1.83
   6   8   6   37.33    3.35
   6   8   6   40.79    3.64
   6   8   7    1.83    0.70
  -6  -8  -7    0.97    0.42
   6   8   8   19.06    2.16
   6   8   9   -0.09    0.40
   6   9  -7   14.97    1.57
   6   9  -6    0.49    0.57
   6   9  -5    6.56    1.27
   6   9  -4    3.06    1.07
   6   9  -3   21.94    2.59
   6   9  -2   10.16    1.73
   6   9  -1    0.71    0.69
   6   9   0   14.47    2.14
   6   9   1   13.44    2.11
   6   9   2    0.37    0.62
   6   9   3    0.52    0.68
   6   9   4    7.13    1.59
   6   9   5    1.34    0.82
   6   9   6    0.92    0.55
  -6  -9  -7    1.72    0.62
   6  10  -5    1.42    0.42
   6  10  -4    3.35    0.86
   6  10  -3   17.14    1.97
   6  10  -2   -0.18    0.65
   6  10  -1   -1.06    0.91
   6  10   0   35.53    3.06
   6  10   1   41.47    3.26
   6  10   2    2.25    0.89
   6  10   3    4.47    1.09
  -6 -10  -3    3.83    0.96
  -6 -10  -4   19.50    1.91
   6  10   4   21.34    2.27
   6  10   5    1.78    0.72
  -6 -10  -5    4.37    0.99
   7  -4  -2    1.84    0.68
   7  -4  -1    1.60    0.69
   7  -4   0   19.88    2.09
   7  -4   1    3.23    0.98
   7  -3  -5    9.13    1.14
   7  -3  -4    3.98    0.91
   7  -3  -4    2.40    0.73
   7  -3  -3    2.21    0.74
   7  -3  -3    3.50    0.98
   7  -3  -2    0.55    0.42
   7  -3  -2   -0.99    0.77
   7  -3  -1    0.18    0.43
   7  -3  -1    1.06    0.60
   7  -3   0    4.37    1.16
   7  -3   0    6.40    1.70
   7  -3   0    3.85    0.96
   7  -3   1    0.24    0.59
   7  -3   1    1.02    0.71
   7  -3   1    1.48    1.31
   7  -3   2  139.16    6.36
   7  -3   2  145.59    7.13
   7  -3   2  145.24    6.15
   7  -3   3   17.06    2.16
   7  -3   3   21.55    2.88
   7  -3   3   18.46    2.20
   7  -3   4    0.97    0.49
   7  -3   4    4.70    1.35
   7  -3   4    3.14    1.38
   7  -3   5    0.97    0.58
   7  -3   6   93.23    4.60
   7  -3   7    3.73    0.94
   7  -3   8    3.59    0.80
   7  -2  -6    1.04    0.51
   7  -2  -6    1.45    0.47
   7  -2  -5    5.55    1.14
   7  -2  -5    5.26    1.01
   7  -2  -4    3.43    0.97
   7  -2  -4    3.43    0.87
   7  -2  -4    3.51    0.92
   7  -2  -3   11.34    1.80
   7  -2  -3    7.86    1.49
   7  -2  -3   10.66    1.69
   7  -2  -2   18.53    2.40
   7  -2  -2   15.12    2.23
   7  -2  -2   21.13    2.48
   7  -2  -1   11.42    1.92
   7  -2  -1    9.50    1.78
   7  -2  -1    8.83    1.68
   7  -2   0   22.48    2.54
   7  -2   0   21.52    2.83
   7  -2   0   22.02    3.17
   7  -2   0   20.76    2.49
   7  -2   1    9.93    1.89
   7  -2   1   13.08    1.94
   7  -2   1   14.42    2.50
   7  -2   2   89.96    5.62
   7  -2   2   96.98    6.26
   7  -2   2   85.88    5.01
   7  -2   3   44.61    3.40
   7  -2   3   46.00    3.94
   7  -2   3   52.02    4.54
   7  -2   3   48.77    3.73
   7  -2   4    7.41    1.51
   7  -2   4    4.61    1.05
   7  -2   5   28.53    3.04
   7  -2   5   35.94    3.21
   7  -2   6   17.20    2.32
   7  -2   6   26.68    2.93
   7  -2   7   17.68    2.28
   7  -2   8   78.89    4.31
   7  -2   9   25.94    2.13
   7  -1  -7    0.57    0.35
   7  -1  -7    1.09    0.45
   7  -1  -6   -0.69    0.57
   7  -1  -6   -0.68    0.61
   7  -1  -5    3.84    1.19
   7  -1  -5    2.81    0.94
   7  -1  -4    2.14    0.90
   7  -1  -4    2.54    0.89
   7  -1  -4    2.35    0.88
   7  -1  -3    9.90    1.90
   7  -1  -3   11.26    1.89
   7  -1  -3   12.88    2.07
   7  -1  -2    9.30    1.79
   7  -1  -2   10.23    1.99
   7  -1  -2   10.53    1.87
   7  -1  -1   39.09    3.67
   7  -1  -1   32.54    3.59
   7  -1  -1   37.79    3.42
   7  -1   0    1.50    0.83
   7  -1   0    0.61    0.77
   7  -1   0    2.32    1.08
   7  -1   1    0.31    0.88
   7  -1   1    1.99    0.87
   7  -1   2    9.10    1.93
   7  -1   2    9.71    1.70
   7  -1   2   12.23    2.47
   7  -1   3   22.70    2.59
   7  -1   3   24.74    3.09
   7  -1   3   24.24    3.39
   7  -1   3   22.55    2.58
   7  -1   4    1.62    0.68
   7  -1   5    8.95    1.57
   7  -1   6   33.53    3.22
   7  -1   6   30.61    3.17
   7  -1   7    8.80    1.68
   7  -1   8   19.41    2.40
   7  -1   8   17.59    2.21
   7  -1   9    0.56    0.66
   7  -1   9    0.02    0.51
   7  -1  10   11.53    1.39
   7  -1  10   12.81    1.52
   7   0  -9    1.22    0.41
   7   0  -8    0.76    0.54
   7   0  -7    7.24    1.25
   7   0  -7    8.21    1.44
   7   0  -6   14.35    1.91
   7   0  -6   12.65    1.97
   7   0  -5   40.68    3.53
   7   0  -5   39.73    3.51
   7   0  -4    0.70    0.72
   7   0  -4    0.29    0.59
   7   0  -3   20.19    2.77
   7   0  -3   24.73    2.80
   7   0  -3   19.55    2.54
   7   0  -2   13.30    2.29
   7   0  -2   12.93    2.19
   7   0  -2   11.39    1.89
   7   0  -1   79.30    5.32
   7   0  -1   83.11    5.64
   7   0  -1   85.22    4.98
   7   0   0    3.40    1.17
   7   0   0    2.52    1.20
   7   0   0    1.79    0.67
   7   0   1  138.98    6.52
   7   0   1  137.35    7.31
   7   0   1  137.29    7.72
   7   0   1  131.65    5.97
   7   0   2   71.80    5.39
   7   0   2   83.73    6.17
   7   0   2   72.56    4.49
   7   0   2   75.86    4.82
   7   0   3    2.73    0.61
   7   0   3    2.70    0.93
   7   0   4   42.06    3.44
   7   0   4   39.88    3.63
   7   0   5   60.06    4.18
   7   0   5   67.01    4.72
   7   0   6   70.82    4.59
   7   0   6   71.39    4.98
   7   0   7    3.92    1.23
   7   0   7   10.50    2.28
   7   0   8    0.13    0.71
   7   0   9    7.24    1.44
   7   0  10   48.19    3.41
   7   0  11   27.70    1.91
   7   0  11   27.73    2.24
   7   1  -9    2.56    0.76
   7   1  -8   30.40    2.25
   7   1  -7    0.22    0.47
   7   1  -6    1.31    0.70
   7   1  -5   51.02    3.90
   7   1  -4   46.34    3.97
   7   1  -3   16.27    2.47
   7   1  -3   19.52    2.48
   7   1  -3   18.23    2.39
   7   1  -2   19.93    2.70
   7   1  -2   22.57    2.80
   7   1  -2   22.08    2.56
   7   1  -1   13.69    2.20
   7   1  -1   14.46    2.37
   7   1  -1   13.06    1.95
   7   1   0   76.39    5.02
   7   1   0   76.47    5.43
   7   1   0   73.41    4.39
   7   1   1  117.78    5.95
   7   1   1  112.04    6.56
   7   1   1  102.99    5.22
   7   1   2    5.59    1.32
   7   1   2    5.37    1.21
   7   1   3   16.38    2.11
   7   1   3   15.76    2.16
   7   1   4   14.59    2.05
   7   1   4   16.49    2.28
   7   1   5   65.61    4.32
   7   1   5   68.49    4.69
   7   1   6    0.59    0.68
   7   1   6   -0.75    0.94
   7   1   7   67.48    4.54
   7   1   7   53.63    4.29
   7   1   8   -0.27    0.73
   7   1   9   20.68    2.64
   7   1  10    0.63    0.62
   7   1  11    2.86    0.95
   7   1  12   61.75    2.95
   7   2 -10    4.15    0.74
   7   2  -9    7.47    1.12
   7   2  -8    2.79    0.81
   7   2  -7   -0.63    0.55
   7   2  -7   -0.28    0.47
   7   2  -7    0.14    0.50
   7   2  -6   10.12    1.77
   7   2  -5   31.49    3.09
   7   2  -5   27.33    3.05
   7   2  -4   17.80    2.45
   7   2  -4   15.24    2.35
   7   2  -3   31.41    3.29
   7   2  -3   33.13    3.33
   7   2  -2   26.95    3.06
   7   2  -2   24.90    2.91
   7   2  -2   28.59    2.82
   7   2  -1   28.65    3.15
   7   2  -1   38.03    3.44
   7   2  -1   29.48    2.77
   7   2   0   13.17    2.12
   7   2   0   14.85    1.94
   7   2   1    3.41    0.95
   7   2   2    0.49    0.56
   7   2   2    0.58    0.61
   7   2   3   76.99    4.31
   7   2   3   74.39    4.58
   7   2   4   22.08    2.38
   7   2   4   18.28    2.34
   7   2   5    8.32    1.58
   7   2   5    3.51    0.90
   7   2   6    0.41    0.74
   7   2   6    0.61    0.56
   7   2   7   82.17    4.90
   7   2   7   76.94    5.09
   7   2   8    3.12    1.24
   7   2   9    6.39    1.59
   7   2  10   21.63    2.51
   7   2  11    2.35    0.77
   7   2  12    5.61    0.98
   7   3 -10    5.45    0.87
   7   3  -9   10.42    1.39
   7   3  -9    8.55    1.17
   7   3  -8   33.86    2.79
   7   3  -8   36.91    2.87
   7   3  -7    4.97    1.16
   7   3  -7    6.37    1.23
   7   3  -7    4.53    1.20
   7   3  -6    1.21    0.76
   7   3  -6    0.30    0.51
   7   3  -6    0.44    0.61
   7   3  -5   52.03    3.92
   7   3  -5   56.11    4.21
   7   3  -5   46.84    3.98
   7   3  -4  106.08    6.01
   7   3  -3   53.20    4.23
   7   3  -2    6.94    1.51
   7   3  -2   10.21    1.71
   7   3  -1   52.52    4.31
   7   3  -1   57.34    4.14
   7   3  -1   60.29    3.82
   7   3   0    0.76    0.50
   7   3   0    0.01    0.49
   7   3   1  103.75    5.67
   7   3   2   97.11    5.24
   7   3   3   59.75    4.07
   7   3   4    0.85    0.61
   7   3   5  108.74    5.67
   7   3   6    7.59    1.59
   7   3   7   25.37    2.89
   7   3   8   -0.97    1.00
   7   3   9   24.07    2.72
   7   3  10    5.04    1.31
   7   3  11   15.56    1.84
   7   4 -10    0.81    0.44
   7   4 -10    0.31    0.24
   7   4  -9   23.78    2.15
   7   4  -9   25.45    2.13
   7   4  -8   27.46    2.57
   7   4  -8   26.08    2.51
   7   4  -7   12.25    1.89
   7   4  -7    8.93    1.66
   7   4  -6   14.32    2.10
   7   4  -6   16.57    2.10
   7   4  -6   15.29    2.26
   7   4  -5    0.21    0.51
   7   4  -5    0.25    0.56
   7   4  -5    0.28    0.64
   7   4  -4    2.49    0.89
   7   4  -4    2.62    1.06
   7   4  -4    2.27    0.99
   7   4  -3    2.25    0.99
   7   4  -3    1.47    0.83
   7   4  -2   11.72    2.00
   7   4  -2   14.78    2.19
   7   4  -1   25.22    3.00
   7   4  -1   23.90    2.67
   7   4   0    0.77    0.46
   7   4   0    0.48    0.50
   7   4   1   12.64    2.05
   7   4   1    9.12    1.61
   7   4   2    4.83    1.24
   7   4   3   29.20    2.86
   7   4   3   28.00    2.75
   7   4   4    0.53    0.61
   7   4   5   40.62    3.51
   7   4   5   46.62    3.69
   7   4   6    9.87    1.81
   7   4   6   10.37    1.85
   7   4   7    3.85    1.28
   7   4   7    0.87    1.01
   7   4   8   31.11    3.18
   7   4   8   32.42    3.19
   7   4   9   59.25    4.22
   7   4   9   53.54    3.93
   7   4  10    1.34    0.69
   7   4  10    1.69    0.66
   7   4  11    0.94    0.43
   7   5 -10    8.97    1.08
   7   5 -10    8.01    0.95
   7   5  -9    0.04    0.45
   7   5  -9   -0.79    0.58
   7   5  -8    0.19    0.66
   7   5  -8    0.78    0.50
   7   5  -7   12.94    1.92
   7   5  -7   11.66    1.86
   7   5  -6    1.60    0.81
   7   5  -6    1.42    0.80
   7   5  -5    0.85    0.74
   7   5  -5    1.08    0.87
   7   5  -5    0.93    0.84
   7   5  -4   59.50    4.35
   7   5  -4   56.24    4.40
   7   5  -4   55.58    4.32
   7   5  -3   22.49    2.60
   7   5  -3   21.78    2.86
   7   5  -3   20.92    2.72
   7   5  -2   14.82    2.04
   7   5  -2   12.51    2.23
   7   5  -2   13.53    2.02
   7   5  -1  147.29    7.42
   7   5  -1  156.69    6.63
   7   5   0   19.93    2.67
   7   5   0   21.81    2.39
   7   5   1    7.71    1.65
   7   5   2    0.98    0.58
   7   5   3    1.96    0.76
  -7  -5  -3    3.86    1.23
   7   5   4   17.05    2.13
   7   5   5    0.64    0.47
   7   5   5   -1.02    1.17
   7   5   6    1.20    0.56
   7   5   6    2.99    1.02
   7   5   7    8.45    1.82
   7   5   8   88.60    5.41
   7   5   9    0.00    0.65
   7   5  10   22.64    2.42
   7   5  11    4.14    0.94
   7   6  -9   -1.85    0.61
   7   6  -8    7.33    1.22
   7   6  -8    7.95    1.36
   7   6  -7    4.54    1.18
   7   6  -7    4.68    1.30
   7   6  -6    6.68    1.46
   7   6  -6    7.39    1.64
  -7  -6   5    8.99    1.73
   7   6  -5    5.30    1.36
   7   6  -5    6.87    1.51
  -7  -6   4   24.29    3.12
   7   6  -4   19.05    2.51
   7   6  -4   22.24    2.70
   7   6  -4   20.22    2.59
  -7  -6   3    9.33    2.09
   7   6  -3    7.29    1.70
   7   6  -3    8.46    1.69
  -7  -6   2   20.62    3.07
   7   6  -2   19.61    2.80
   7   6  -2   14.88    2.10
  -7  -6   1   71.16    5.50
   7   6  -1   73.24    5.37
   7   6  -1   84.07    4.77
  -7  -6   0   95.51    6.19
  -7  -6  -1    8.66    1.88
  -7  -6  -2    9.50    1.79
  -7  -6  -3   26.26    2.80
   7   6   3   32.38    3.07
   7   6   4   11.06    1.83
   7   6   5   12.03    1.99
   7   6   5   11.92    1.97
   7   6   6    5.18    1.41
   7   6   6    1.56    0.92
   7   6   7   20.10    2.68
   7   6   8   26.57    2.99
   7   6   9    3.22    1.04
   7   6  10    1.81    0.77
   7   6  11    3.41    0.82
   7   7  -9    2.68    0.62
   7   7  -8    7.32    1.16
   7   7  -7    2.31    0.71
   7   7  -7    0.81    0.48
   7   7  -6    0.56    0.46
   7   7  -6   -0.30    0.66
   7   7  -5   13.02    1.87
  -7  -7   5   13.61    1.90
   7   7  -5   10.08    1.69
   7   7  -4    1.69    0.81
  -7  -7   4    3.94    1.15
   7   7  -4    2.71    0.94
   7   7  -3    0.71    0.61
  -7  -7   3    0.90    0.83
   7   7  -3    0.36    0.63
   7   7  -2   38.34    3.37
  -7  -7   2   36.20    3.79
   7   7  -1   57.02    4.06
  -7  -7   1   51.27    4.50
   7   7   0    0.56    0.54
  -7  -7   0    0.67    0.67
  -7  -7  -1   33.03    3.46
   7   7   1   38.13    3.35
   7   7   2    1.76    0.76
  -7  -7  -2    1.33    0.67
  -7  -7  -3   14.47    2.14
   7   7   3   18.63    2.46
   7   7   4    5.44    1.36
  -7  -7  -4    7.67    1.50
   7   7   4    4.92    1.35
   7   7   5   51.34    4.12
   7   7   5   55.09    4.27
   7   7   6   19.81    2.62
   7   7   6   21.92    2.74
   7   7   7    1.45    0.93
   7   7   8   -1.10    0.82
   7   7   9    0.93    0.72
   7   7  10    8.14    1.26
   7   8  -7    2.02    0.61
   7   8  -7    1.43    0.55
   7   8  -6    2.45    0.79
   7   8  -6    2.83    0.74
   7   8  -5    1.43    0.65
  -7  -8   5    0.71    0.47
   7   8  -5    0.15    0.46
   7   8  -4    0.64    0.50
  -7  -8   4    0.93    0.77
   7   8  -3    1.95    0.95
  -7  -8   3    1.68    0.80
   7   8  -2    9.17    1.68
  -7  -8   2    5.42    1.51
   7   8  -1   -0.02    0.56
  -7  -8   1   -0.60    0.91
  -7  -8   0   48.76    4.26
   7   8   0   53.14    3.95
  -7  -8  -1  145.68    7.07
   7   8   1  133.51    6.33
  -7  -8  -2   21.43    2.65
   7   8   2   19.28    2.41
   7   8   3    4.47    1.36
  -7  -8  -3    4.58    1.20
   7   8   3    3.55    1.22
   7   8   4    7.64    1.56
   7   8   4    6.02    1.46
   7   8   5   67.57    4.53
   7   8   5   79.12    4.99
   7   8   6   10.24    1.81
   7   8   6   10.90    1.81
   7   8   7    1.44    0.84
   7   8   8    5.82    1.22
   7   8   9    1.88    0.72
   7   9  -6    8.44    1.16
   7   9  -5    1.19    0.47
   7   9  -4    3.62    0.99
   7   9  -3    1.63    0.72
   7   9  -2    8.09    1.52
   7   9  -1    1.73    0.85
  -7  -9   1    1.22    0.75
   7   9   0    0.98    0.80
   7   9   1    3.41    1.08
   7   9   2    0.75    0.85
   7   9   2    0.94    0.76
   7   9   3    1.52    0.90
   7   9   3    1.77    0.78
   7   9   4    0.30    0.51
   7   9   4    0.65    0.62
   7   9   5    7.16    1.43
   7   9   5    6.48    1.33
   7   9   6    3.59    0.96
   7   9   7   -0.19    0.43
   7  10  -4    6.92    1.08
   7  10  -3    1.40    0.80
   7  10  -2    0.70    0.51
   7  10  -1   14.75    1.86
   7  10   0    1.70    0.79
   7  10   1    9.42    1.56
   7  10   2   -0.50    0.49
   7  10   3   22.98    2.38
   7  10   4    7.23    1.28
   8  -2  -3    3.35    0.81
   8  -2  -3    3.92    0.79
   8  -2  -2    6.07    1.13
   8  -2  -2    4.27    0.96
   8  -2  -1    0.34    0.49
   8  -2   0   -0.93    0.61
   8  -2   1   -0.45    0.72
   8  -2   2    0.72    0.79
   8  -2   3    4.41    1.06
   8  -2   4    3.33    1.20
   8  -2   5    5.84    1.04
   8  -2   6    9.48    1.27
   8  -1  -6    4.12    0.76
   8  -1  -5    0.82    0.49
   8  -1  -5    0.98    0.54
   8  -1  -4    4.93    1.10
   8  -1  -4    4.08    1.00
   8  -1  -3   28.92    2.65
   8  -1  -3   29.45    2.67
   8  -1  -2   43.92    3.37
   8  -1  -2   52.96    3.78
   8  -1  -2   46.46    3.46
   8  -1  -1    1.86    0.84
   8  -1  -1    1.09    0.67
   8  -1   0   10.90    1.60
   8  -1   0   14.04    2.58
   8  -1   0   11.83    1.85
   8  -1   1    6.30    1.34
   8  -1   2    4.37    1.16
   8  -1   3    1.02    0.66
   8  -1   4   -0.37    0.53
   8  -1   4   -1.84    1.15
   8  -1   5   12.43    1.80
   8  -1   5   17.12    2.23
   8  -1   6   11.13    1.71
   8  -1   7    0.44    0.51
   8  -1   8    0.99    0.57
   8   0  -7    5.26    0.81
   8   0  -7    5.47    0.83
   8   0  -6   11.72    1.43
   8   0  -5    1.82    0.69
   8   0  -5    1.07    0.49
   8   0  -4    7.44    1.44
   8   0  -4    6.27    1.35
   8   0  -3   20.03    2.45
   8   0  -3   22.34    2.52
   8   0  -2   69.44    4.62
   8   0  -2   77.81    4.68
   8   0  -1    1.46    0.77
   8   0  -1    3.42    1.57
   8   0  -1   -0.78    0.85
   8   0   0   10.08    1.79
   8   0   0   12.10    1.96
   8   0   1   24.34    2.65
   8   0   2   22.34    2.55
   8   0   3   -1.80    0.88
   8   0   3    0.67    0.65
   8   0   4    3.02    0.97
   8   0   4    1.49    0.92
   8   0   5    0.72    0.84
   8   0   5   -0.67    0.91
   8   0   6    0.09    0.60
   8   0   6    2.68    1.37
   8   0   7   32.34    3.10
   8   0   8   12.29    1.75
   8   0   8   12.25    1.79
   8   0   9    0.68    0.52
   8   0   9   -0.13    0.45
   8   1  -8    4.11    0.71
   8   1  -7    4.45    0.86
   8   1  -7    3.54    0.83
   8   1  -6   18.01    1.97
   8   1  -6   18.05    2.03
   8   1  -5    4.75    1.25
   8   1  -4   40.57    3.48
   8   1  -4   35.32    3.22
   8   1  -3    0.92    1.04
   8   1  -3    1.52    0.94
   8   1  -2    3.64    1.19
   8   1  -2    4.34    1.37
   8   1  -1   56.45    4.37
   8   1  -1   61.30    4.21
   8   1   0   46.55    3.61
   8   1   0   52.82    4.05
   8   1   1    2.75    1.06
   8   1   1    2.46    0.99
   8   1   1    1.47    0.66
   8   1   2    1.60    0.70
   8   1   2    2.00    0.76
   8   1   3  139.95    6.23
   8   1   3  136.29    6.56
   8   1   4   24.97    2.67
   8   1   4   23.37    2.75
   8   1   5   24.71    2.63
   8   1   5   24.86    2.86
   8   1   6    9.74    1.90
   8   1   6    9.84    1.80
   8   1   7    7.92    1.63
   8   1   8    2.52    0.94
   8   1   9    5.64    1.13
   8   1  10    3.83    0.92
   8   2  -8    1.92    0.58
   8   2  -7    2.73    0.72
   8   2  -7    2.40    0.78
   8   2  -6    4.85    1.12
   8   2  -6    5.24    1.22
   8   2  -5    7.16    1.43
   8   2  -5    8.64    1.59
   8   2  -4   16.37    2.22
   8   2  -3    2.22    0.89
   8   2  -2    0.72    0.57
   8   2  -1    3.18    1.12
   8   2   0    9.28    1.95
   8   2   0   10.24    1.73
   8   2   1    4.98    1.31
   8   2   1    7.77    1.64
   8   2   1    7.61    1.53
   8   2   2    9.80    1.82
   8   2   2   13.91    2.05
   8   2   2   13.17    1.91
   8   2   3    3.91    1.17
   8   2   3    5.60    1.30
   8   2   4   20.99    2.40
   8   2   4   18.75    2.48
   8   2   5   12.24    2.03
   8   2   5   10.76    1.70
   8   2   6    5.30    1.46
   8   2   6    2.64    0.99
   8   2   7    0.45    0.77
   8   2   8   -0.47    0.81
   8   2   9    6.11    1.31
   8   2  10    0.33    0.48
   8   2  11    1.17    0.57
   8   3  -8    5.47    0.95
   8   3  -7    1.79    0.59
   8   3  -7    0.78    0.48
   8   3  -7    1.36    0.74
   8   3  -6   39.19    3.00
   8   3  -6   39.11    3.20
   8   3  -6   36.47    3.02
   8   3  -5    8.31    1.60
   8   3  -5    7.43    1.52
   8   3  -5    8.06    1.53
   8   3  -4   25.92    2.92
   8   3  -4   20.76    2.69
   8   3  -4   24.92    2.65
   8   3  -3   -0.05    0.64
   8   3  -3   -0.15    0.76
   8   3  -3    1.15    0.79
   8   3  -2   31.31    3.45
   8   3  -2   36.33    3.53
   8   3  -2   40.46    3.36
   8   3  -1    2.64    1.06
   8   3  -1    0.40    0.56
   8   3   0    1.75    0.86
   8   3   0    1.78    0.80
   8   3   1    5.23    1.49
   8   3   1    8.42    1.51
   8   3   2   10.80    1.78
   8   3   2   11.67    1.96
   8   3   2   11.60    1.79
   8   3   3   16.28    2.23
   8   3   4   26.95    2.91
   8   3   5    1.18    0.83
   8   3   6    3.09    1.16
   8   3   7   36.41    3.42
   8   3   8    1.32    0.83
   8   3   9    0.16    0.68
   8   3  10   12.25    1.68
   8   3  11    3.99    0.82
   8   4  -8   19.43    1.71
   8   4  -8   18.92    1.74
   8   4  -8   18.96    1.67
   8   4  -7   20.66    2.03
   8   4  -7   16.88    1.65
   8   4  -7   18.95    2.08
   8   4  -7   19.83    1.99
   8   4  -6    9.08    1.45
   8   4  -6   12.39    1.67
   8   4  -6    9.46    1.66
   8   4  -6    9.20    1.56
   8   4  -5   11.99    1.85
   8   4  -5   10.46    1.93
   8   4  -5   10.14    1.63
   8   4  -4   32.37    3.29
   8   4  -4   28.08    3.05
   8   4  -4   38.68    3.19
   8   4  -3   16.96    2.49
   8   4  -3   16.88    2.42
   8   4  -3   20.37    2.35
   8   4  -2   31.62    3.51
   8   4  -2   29.19    3.15
   8   4  -1   14.14    2.39
   8   4  -1   12.24    2.01
   8   4   0    1.85    0.98
   8   4   1    6.02    1.60
   8   4   2   12.47    2.14
   8   4   3  110.18    5.69
   8   4   3  103.62    5.46
   8   4   4   76.11    4.75
   8   4   5    0.97    0.68
   8   4   5    1.20    0.68
   8   4   6    2.19    0.81
   8   4   6    2.15    0.97
   8   4   7  137.31    6.39
   8   4   8   32.65    3.05
   8   4   9    9.96    1.63
   8   4  10    3.82    0.92
   8   5  -8    9.90    1.28
   8   5  -7   11.74    1.55
   8   5  -7   12.76    1.69
  -8  -5   6    4.15    1.04
   8   5  -6    2.06    0.79
   8   5  -6    2.04    0.68
   8   5  -6    4.39    1.23
   8   5  -5    0.11    0.38
   8   5  -5   -0.53    0.73
   8   5  -5   -0.60    0.75
   8   5  -4   18.05    2.40
   8   5  -4   19.05    2.52
   8   5  -3    0.09    0.72
   8   5  -3    1.69    0.97
   8   5  -2   54.25    4.49
   8   5  -2   65.76    4.53
   8   5  -1    2.70    1.19
   8   5  -1    0.36    0.78
   8   5   0   23.91    3.04
   8   5   0   26.84    2.84
   8   5   1   11.30    2.13
   8   5   2    1.41    0.63
   8   5   3    0.01    0.47
  -8  -5  -3    3.30    1.39
   8   5   4   25.60    2.70
   8   5   5    4.63    1.19
   8   5   5    4.36    1.26
   8   5   6   78.25    4.93
   8   5   6   79.27    4.80
   8   5   7   54.31    4.06
   8   5   7   55.31    3.87
   8   5   8    6.65    1.32
   8   5   8   10.12    1.79
   8   5   9    2.37    0.75
   8   5  10    0.50    0.41
   8   6  -8    1.56    0.55
   8   6  -7    2.22    0.76
   8   6  -6    0.65    0.61
  -8  -6   5    0.56    0.56
   8   6  -5    0.09    0.61
  -8  -6   4   52.75    4.15
   8   6  -4   48.08    3.78
   8   6  -4   45.36    3.64
  -8  -6   3    8.76    2.12
   8   6  -3    5.87    1.42
   8   6  -3    6.03    1.38
  -8  -6   2   58.31    4.94
   8   6  -2   55.94    4.54
   8   6  -2   59.73    4.16
  -8  -6   1   38.97    4.06
   8   6  -1   37.05    3.78
   8   6  -1   42.92    3.49
  -8  -6   0    7.62    2.00
  -8  -6  -1    6.63    1.68
   8   6   2    5.79    1.21
  -8  -6  -2    4.38    1.35
   8   6   3    2.41    0.83
  -8  -6  -3    2.12    0.78
   8   6   4    8.08    1.50
   8   6   5    3.12    1.06
   8   6   6   -0.38    0.86
   8   6   7   72.88    4.66
   8   6   8   34.81    3.06
   8   6   9    4.64    1.04
   8   6  10    7.13    1.08
   8   7  -7    0.12    0.31
   8   7  -6    4.04    0.96
  -8  -7   5    5.43    1.15
   8   7  -5    5.13    1.15
  -8  -7   4   17.17    2.22
   8   7  -4   19.37    2.27
  -8  -7   3   35.38    3.45
   8   7  -3   37.87    3.14
  -8  -7   2    7.33    1.68
   8   7  -2    6.54    1.36
  -8  -7   1   13.76    2.37
  -8  -7   0    9.10    1.85
  -8  -7  -1   11.85    2.00
  -8  -7  -2    4.98    1.33
  -8  -7  -3    0.34    0.58
  -8  -7  -4   10.11    1.62
   8   7   4   11.33    1.92
   8   7   5    1.43    0.86
   8   7   6   28.51    2.96
   8   7   7   -0.02    0.54
   8   7   8    2.18    0.78
   8   7   9    1.54    0.59
   8   8  -6    0.65    0.27
  -8  -8   5    0.02    0.42
   8   8  -5    1.45    0.56
  -8  -8   4   23.64    2.33
  -8  -8   3   27.53    2.76
  -8  -8   2   14.42    2.15
   8   8  -2   18.06    2.10
  -8  -8   1   37.23    3.51
   8   8  -1   42.50    3.29
  -8  -8   0   15.45    2.30
   8   8   0   18.18    2.20
   8   8   1    9.02    1.54
  -8  -8  -1    9.07    1.79
  -8  -8  -2   36.54    3.20
   8   8   2   33.50    3.11
   8   8   3   -0.31    0.68
  -8  -8  -3    0.29    0.54
   8   8   3    0.29    0.59
   8   8   4   13.18    2.00
   8   8   4    8.12    1.59
   8   8   5   10.55    1.77
   8   8   5   10.13    1.83
   8   8   6   18.55    2.21
   8   8   7   -0.14    0.58
   8   8   8    4.37    0.96
   8   9  -4    7.91    1.12
   8   9  -3   42.77    2.85
   8   9  -2   10.22    1.53
  -8  -9   2   11.17    1.74
   8   9  -1   -0.11    0.42
  -8  -9   1    1.10    0.61
   8   9   0    2.20    0.78
  -8  -9   0    2.44    0.94
   8   9   1    5.58    1.26
   8   9   1    7.31    1.42
   8   9   2    0.70    0.71
   8   9   2   -0.39    0.55
   8   9   3    0.16    0.48
   8   9   3    0.27    0.56
   8   9   4    2.55    0.85
   8   9   4    6.15    1.38
   8   9   5    0.40    0.51
   8   9   6    1.31    0.56
   8  10  -1    4.10    0.89
   8  10   0   10.19    1.46
   8  10   1    4.11    1.00
   8  10   2   -0.33    0.61
   8  10   3   -1.24    0.60
   9  -1  -1   -0.35    0.47
   9  -1   0    1.12    0.66
   9  -1   1    1.47    0.66
   9  -1   2   20.92    2.05
   9  -1   3   19.01    1.97
   9  -1   4    7.90    1.40
   9   0  -4    3.63    0.82
   9   0  -4    2.06    0.65
   9   0  -3   13.27    1.59
   9   0  -3   11.92    1.51
   9   0  -2    4.46    0.99
   9   0  -2    3.83    0.99
   9   0  -1   48.67    3.17
   9   0  -1   45.20    3.19
   9   0   0    0.32    0.44
   9   0   0    0.54    0.74
   9   0   1   32.60    2.79
   9   0   2    1.11    0.54
   9   0   3   28.03    2.54
   9   0   4   -1.25    0.86
   9   0   5    4.22    1.20
   9   0   6    0.88    0.51
   9   1  -5   10.33    1.28
   9   1  -5    9.00    1.20
   9   1  -4    0.59    0.41
   9   1  -4   -0.44    0.49
   9   1  -3    0.48    0.57
   9   1  -3    0.41    0.59
   9   1  -2    5.39    1.24
   9   1  -2    5.14    1.11
   9   1  -1    5.59    1.25
   9   1  -1    5.96    1.39
   9   1   0   17.68    2.17
   9   1   0   14.97    1.98
   9   1   1    3.56    1.06
   9   1   1    4.26    1.07
   9   1   2    1.29    0.88
   9   1   2    1.69    0.76
   9   1   3    0.93    0.65
   9   1   3    0.63    0.62
   9   1   4   12.21    1.90
   9   1   4    8.62    1.46
   9   1   5    0.20    0.45
   9   1   5    1.33    0.79
   9   1   6    7.53    1.39
   9   1   7    9.87    1.55
   9   1   7    9.40    1.39
   9   1   8    0.47    0.52
   9   1   8    1.74    0.59
   9   2  -6    0.75    0.36
   9   2  -6    1.07    0.45
   9   2  -5   17.18    1.78
   9   2  -5   14.24    1.67
   9   2  -4   11.24    1.68
   9   2  -4    9.92    1.49
   9   2  -3    0.48    0.56
   9   2  -3   -0.16    0.55
   9   2  -2    0.47    0.45
   9   2  -2    0.82    0.88
   9   2  -2    1.11    0.70
   9   2  -1    0.22    0.64
   9   2  -1   -0.63    0.52
   9   2   0    2.84    1.05
   9   2   0    2.03    0.98
   9   2   0    2.96    1.04
   9   2   1   34.95    3.13
   9   2   1   30.63    2.82
   9   2   1   31.43    3.10
   9   2   2   10.11    1.85
   9   2   2   12.16    1.79
   9   2   3   33.29    2.89
   9   2   3   35.17    3.27
   9   2   4    3.30    1.12
   9   2   4    3.70    1.08
   9   2   5   19.24    2.21
   9   2   5   18.76    2.43
   9   2   6   14.05    2.02
   9   2   7   16.89    2.09
   9   2   8    5.12    1.11
   9   2   9   -0.10    0.45
   9   3  -6    0.46    0.33
   9   3  -6    0.23    0.30
   9   3  -5   11.56    1.59
   9   3  -5   11.51    1.48
   9   3  -4   19.21    2.27
   9   3  -4   19.85    2.09
   9   3  -3   14.48    2.17
   9   3  -3   13.61    1.81
   9   3  -2    3.65    1.26
   9   3  -2    2.36    0.79
   9   3  -1    4.42    1.31
   9   3  -1    5.54    1.24
   9   3   0    1.82    0.75
   9   3   0    2.36    0.99
   9   3   0    1.21    0.68
   9   3   1   18.17    2.40
   9   3   1   11.74    1.71
   9   3   1   15.23    2.25
   9   3   2    6.37    1.42
   9   3   2    6.98    1.43
   9   3   2    6.52    1.35
   9   3   3   16.94    2.01
   9   3   3   20.99    2.61
   9   3   4    0.97    0.73
   9   3   5    0.67    0.73
   9   3   6    2.73    1.05
   9   3   7   11.07    1.71
   9   3   8   -0.24    0.60
   9   3   9    0.22    0.53
  -9  -4   6    0.95    0.49
   9   4  -6    0.79    0.46
   9   4  -6    0.44    0.36
   9   4  -5   25.66    2.30
   9   4  -5   21.12    1.93
   9   4  -4    3.27    1.05
   9   4  -4    2.79    0.78
   9   4  -3    0.46    0.86
   9   4  -3    0.12    0.44
   9   4  -2   -0.20    0.77
   9   4  -1    5.07    1.48
   9   4   0    1.92    1.04
   9   4   1    1.16    0.62
   9   4   1    2.97    1.18
   9   4   2    8.75    1.64
   9   4   2    7.19    1.51
   9   4   3   27.29    2.89
   9   4   4    3.46    1.13
   9   4   5    2.83    1.03
   9   4   6    1.89    0.94
   9   4   7    5.04    1.30
   9   4   8   20.50    2.26
   9   4   9   21.32    1.96
  -9  -5   5    0.72    0.51
   9   5  -5    0.34    0.48
   9   5  -5    0.57    0.48
   9   5  -4   -0.22    0.55
   9   5  -4    0.53    0.59
   9   5  -3    0.63    0.66
   9   5  -2    3.39    1.21
   9   5  -1   14.51    2.32
   9   5   0    4.46    1.37
   9   5   1   21.45    2.72
   9   5   1   18.91    2.37
   9   5   2    0.00    0.58
  -9  -5  -3   14.05    1.98
   9   5   3   13.29    1.99
   9   5   4    2.99    1.10
   9   5   4    3.03    1.03
   9   5   5    1.97    0.89
   9   5   5    3.46    0.97
   9   5   6   -0.56    0.57
   9   5   6   -0.16    0.47
   9   5   7    0.07    0.52
   9   5   8    7.28    1.24
   9   6  -6    0.70    0.53
  -9  -6   5    0.05    0.37
   9   6  -5   -0.49    0.55
  -9  -6   4    0.41    0.58
   9   6  -4    0.33    0.59
  -9  -6   3    1.84    0.88
   9   6  -3    0.75    0.53
  -9  -6   2   12.07    2.14
  -9  -6   1   42.47    3.88
  -9  -6   0   10.16    1.99
   9   6   1    0.35    0.49
  -9  -6  -1    1.94    1.06
   9   6   2    0.76    0.59
  -9  -6  -2    0.45    0.58
   9   6   3    3.86    1.14
  -9  -6  -3    3.25    1.00
   9   6   4   13.45    1.93
   9   6   4   13.28    1.83
   9   6   5    9.30    1.53
   9   6   5    9.90    1.66
   9   6   6    3.90    1.00
   9   6   6    4.49    1.15
   9   6   7    0.50    0.46
   9   6   8    0.09    0.41
  -9  -7   5   18.04    1.62
   9   7  -5   20.38    1.82
  -9  -7   4    0.82    0.58
   9   7  -4    0.93    0.50
  -9  -7   3    3.43    1.03
  -9  -7   2    5.48    1.25
  -9  -7   1   56.19    4.11
  -9  -7   0   18.61    2.42
   9   7   0   21.57    2.31
   9   7   1    7.84    1.42
  -9  -7  -1    7.03    1.51
  -9  -7  -2    2.33    0.92
  -9  -7  -3    3.64    0.89
   9   7   3    2.98    1.02
   9   7   4    2.71    1.05
   9   7   5    8.56    1.55
   9   7   6   -0.28    0.55
   9   7   7   23.04    2.21
  -9  -8   4    4.24    0.85
  -9  -8   3    2.58    0.77
  -9  -8   2   -1.33    0.81
  -9  -8   1    0.45    0.52
  -9  -8   0   19.28    2.30
  -9  -8  -1   27.27    2.57
  -9  -8  -2    3.21    0.94
   9   8   2    2.73    1.00
  -9  -8  -3    0.45    0.32
   9   8   3    0.85    0.67
   9   8   4   10.91    1.69
   9   8   5   29.91    2.70
   9   8   6    4.67    1.04
  -9  -9   1   -0.26    0.48
  -9  -9   0    3.14    0.87
   9   9   1   11.68    1.64
   9   9   2    0.40    0.48
   9   9   3    1.25    0.68
   9   9   4    3.19    0.86
  10   1  -1    6.17    1.03
  10   1   0   27.81    2.11
  10   1   1    5.17    0.99
  10   1   2   -0.09    0.51
  10   1   3    0.42    0.41
  10   2  -3    0.13    0.30
  10   2  -2   -0.62    0.54
  10   2  -2    0.00    0.35
  10   2  -1    5.48    1.03
  10   2  -1    4.96    1.00
  10   2   0   -0.79    0.53
  10   2   0    0.21    0.40
  10   2   0    0.57    0.56
  10   2   1    0.08    0.48
  10   2   1   -0.33    0.45
  10   2   2   15.58    1.76
  10   2   2   16.69    2.01
  10   2   3   15.97    1.73
  10   2   3   18.06    2.02
  10   2   4    3.19    0.96
  10   2   4    5.33    1.13
  10   2   5   14.27    1.70
  10   3  -4    1.55    0.51
  10   3  -3    1.56    0.58
  10   3  -3    1.52    0.64
  10   3  -2    1.19    0.51
  10   3  -2    1.67    0.55
  10   3  -1    0.01    0.56
  10   3  -1   -0.01    0.43
  10   3  -1   -1.10    0.54
  10   3   0    1.92    0.82
  10   3   0    2.51    0.80
  10   3   0    1.12    0.55
  10   3   1   -0.92    0.74
  10   3   1   -0.91    0.58
  10   3   1    0.86    0.60
  10   3   2    1.04    0.63
  10   3   2    2.65    0.83
  10   3   3    7.41    1.41
  10   3   4   13.58    1.85
  10   3   5    1.67    0.75
  10   3   6   10.53    1.50
  10   4  -4    2.44    0.63
 -10  -4   4    3.94    0.86
  10   4  -4    2.99    0.71
  10   4  -3    0.34    0.33
  10   4  -3    0.98    0.59
  10   4  -2    6.72    1.28
  10   4  -2    5.97    1.22
  10   4  -1    0.79    0.49
  10   4  -1    1.66    0.73
  10   4   0    0.22    0.53
  10   4   0   -0.06    0.55
  10   4   1    2.84    1.02
  10   4   1    3.82    0.98
  10   4   2    4.87    1.22
  10   4   3   25.84    2.60
  10   4   4    8.80    1.50
  10   4   5   -0.05    0.55
  10   4   6    2.31    0.80
  10   4   7   19.82    1.88
 -10  -5   4    3.80    0.78
 -10  -5   3    1.66    0.73
 -10  -5   2   20.25    2.17
  10   5  -2   20.02    2.16
  10   5  -2   18.58    2.10
  10   5  -1    0.76    0.60
  10   5  -1    1.22    0.72
  10   5   0    1.30    0.80
 -10  -5   0    3.52    1.13
  10   5   1    0.05    0.69
 -10  -5  -1    1.77    0.85
  10   5   2    2.30    0.83
 -10  -5  -2    3.20    0.85
  10   5   3   23.10    2.42
  10   5   4   18.84    2.10
  10   5   5    1.20    0.58
  10   5   6    7.42    1.23
 -10  -6   4    0.17    0.25
 -10  -6   3   -0.18    0.36
 -10  -6   2   11.34    1.55
  10   6  -2   10.45    1.46
  10   6  -1    4.22    1.05
 -10  -6   1    4.73    1.10
  10   6   0    1.42    0.66
 -10  -6   0    2.69    0.88
  10   6   1    0.96    0.58
 -10  -6  -1    1.58    0.75
  10   6   2    2.12    0.81
 -10  -6  -2    1.39    0.59
  10   6   2    1.10    0.62
  10   6   3   -0.53    0.41
  10   6   3    0.42    0.52
  10   6   4   11.95    1.55
  10   6   4   12.64    1.60
  10   6   5    7.34    1.19
  10   6   5    8.81    1.32
 -10  -7   3    0.19    0.33
 -10  -7   2   23.45    2.02
  10   7  -2   21.55    1.89
  10   7  -1    3.35    0.87
 -10  -7   1    2.15    0.75
  10   7   0    8.51    1.31
 -10  -7   0    9.89    1.46
  10   7   1    3.50    0.89
 -10  -7  -1    2.03    0.64
  10   7   2   -1.03    0.58
 -10  -7  -2   -1.20    0.53
  10   7   2   -0.03    0.43
  10   7   3   -0.34    0.45
  10   7   4    0.14    0.38
  10   7   5    1.79    0.67
 -10  -8   1    1.81    0.61
 -10  -8   0    1.71    0.57
 -10  -8  -1    0.67    0.36
  10   8   1    0.13    0.43
 -10  -8  -2    2.73    0.68
  10   8   2    5.14    1.04
  10   8   3    1.02    0.40
   0   0   0    0.00    0.00
TITL Oudizan-2-R in P-1
REM P-1 (#2 in standard setting)
CELL 1.54184   8.889839   8.988538  12.197252  89.9080  84.4900  63.5335
ZERR    2.00   0.000770   0.000943   0.000964   0.0076   0.0069   0.0095
LATT  1
SFAC C H N O S Cl
UNIT 38.00 36.00 2.00 2.00 2.00 2.00
TREF
HKLF 4
END
_computing_structure_solution     'SHELXT 2014/5 (Sheldrick, 2014)'
_computing_structure_solution     'SHELXT 2014/5 (Sheldrick, 2014)'
;
_shelx_hkl_checksum              19331
_shelx_res_file
;
TITL oudizan-2-r_a.res in P-1
REM Old TITL Oudizan-2-R in P-1 #2
REM SHELXT solution in P-1
REM R1 0.214, Rweak 0.025, Alpha 0.064, Orientation as input
REM Formula found by SHELXT: C19 N O S Cl
CELL 1.54184 8.8898 8.9885 12.1973 89.908 84.49 63.534
ZERR 2 0.0008 0.0009 0.001 0.008 0.007 0.009
LATT 1
SFAC C H Cl N O S
UNIT 38 36 2 2 2 2
EQIV $1 1-X,2-Y,1-Z
EQIV $2 +X,-1+Y,+Z
L.S. 50
PLAN  20
TEMP 20(2)
HTAB C11 O1_$1
HTAB C6 O1_$2
HTAB C15 S1
BOND $H
list 4
fmap 2
acta
OMIT 5 4 3
OMIT 1 0 6
OMIT 1 -1 6
REM <olex2.extras>
REM <HklSrc "%.\\Oudizan-2-R.hkl">
REM </olex2.extras>
WGHT    0.078700    0.211200
EXTI    0.005143
FVAR       0.94267
CL1   3    0.092390    1.181722   -0.022525    11.00000    0.13394    0.11565 =
         0.09880    0.01904   -0.07059   -0.00603
S1    6    0.737547    0.520075    0.234227    11.00000    0.06881    0.04960 =
         0.04088    0.00175   -0.00685   -0.01815
O1    5    0.716997    0.740381    0.509428    11.00000    0.09150    0.05683 =
         0.05138    0.00551   -0.02240   -0.04026
N1    4    0.779742    0.471111    0.479682    11.00000    0.05079    0.04940 =
         0.04142    0.00743   -0.00840   -0.02467
C1    1    0.715812    0.632871    0.449110    11.00000    0.05372    0.05045 =
         0.04232    0.00357   -0.00689   -0.02863
C2    1    0.646384    0.675349    0.340533    11.00000    0.05186    0.04484 =
         0.04180    0.00282   -0.00568   -0.02534
C3    1    0.754479    0.346975    0.308259    11.00000    0.04830    0.04465 =
         0.05578    0.00070   -0.00615   -0.01890
C4    1    0.754306    0.213692    0.249956    11.00000    0.07338    0.05578 =
         0.07030   -0.01049   -0.00835   -0.02807
AFIX  43
H4    2    0.743857    0.219520    0.174741    11.00000   -1.20000
AFIX   0
C5    1    0.769560    0.073702    0.303506    11.00000    0.08947    0.05664 =
         0.09355   -0.01437    0.00117   -0.03850
AFIX  43
H5    2    0.772359   -0.016305    0.264295    11.00000   -1.20000
AFIX   0
C6    1    0.780629    0.067268    0.414918    11.00000    0.08831    0.04772 =
         0.10059    0.00439    0.00888   -0.03530
AFIX  43
H6    2    0.788622   -0.026595    0.451272    11.00000   -1.20000
AFIX   0
C7    1    0.780027    0.198997    0.473802    11.00000    0.07216    0.05307 =
         0.06586    0.00742    0.00251   -0.02816
AFIX  43
H7    2    0.786801    0.193350    0.549429    11.00000   -1.20000
AFIX   0
C8    1    0.769320    0.340273    0.420420    11.00000    0.04282    0.04248 =
         0.05444    0.00264   -0.00174   -0.01850
C9    1    0.531244    0.831553    0.328483    11.00000    0.05980    0.04526 =
         0.04356    0.00057   -0.00683   -0.02543
AFIX  43
H9    2    0.509110    0.902854    0.389531    11.00000   -1.20000
AFIX   0
C10   1    0.433756    0.910859    0.236992    11.00000    0.05794    0.04450 =
         0.04819    0.00254   -0.00893   -0.02148
C11   1    0.295467    1.064280    0.259448    11.00000    0.07732    0.05731 =
         0.05609   -0.00740   -0.01322   -0.01394
AFIX  43
H11   2    0.272201    1.113081    0.330146    11.00000   -1.20000
AFIX   0
C12   1    0.191843    1.146501    0.180965    11.00000    0.06616    0.06337 =
         0.07691    0.00333   -0.01597   -0.00193
AFIX  43
H12   2    0.099828    1.249577    0.198536    11.00000   -1.20000
AFIX   0
C13   1    0.223750    1.077211    0.077507    11.00000    0.08654    0.06895 =
         0.06804    0.01269   -0.03877   -0.01862
C14   1    0.361412    0.928576    0.050584    11.00000    0.15426    0.07303 =
         0.05980   -0.00940   -0.04503    0.01126
AFIX  43
H14   2    0.384912    0.882572   -0.020941    11.00000   -1.20000
AFIX   0
C15   1    0.465284    0.847100    0.129786    11.00000    0.11595    0.06000 =
         0.05302   -0.00361   -0.02204    0.01156
AFIX  43
H15   2    0.559475    0.746160    0.110623    11.00000   -1.20000
AFIX   0
C16   1    0.849939    0.438036    0.586727    11.00000    0.04607    0.06233 =
         0.04611    0.01109   -0.01095   -0.02373
AFIX  23
H16A  2    0.911842    0.502447    0.594415    11.00000   -1.20000
H16B  2    0.929781    0.321318    0.586836    11.00000   -1.20000
AFIX   0
C17   1    0.718725    0.479074    0.685738    11.00000    0.05211    0.06732 =
         0.04678    0.01193   -0.00752   -0.02458
AFIX  23
H17A  2    0.648383    0.424184    0.675355    11.00000   -1.20000
H17B  2    0.646669    0.598114    0.691771    11.00000   -1.20000
AFIX   0
C18   1    0.801774    0.423567    0.791407    11.00000    0.06798    0.09552 =
         0.04848    0.01500   -0.01314   -0.02810
AFIX  23
H18A  2    0.851789    0.303167    0.792227    11.00000   -1.20000
H18B  2    0.892071    0.456094    0.792324    11.00000   -1.20000
AFIX   0
C19   1    0.679413    0.496715    0.894073    11.00000    0.09763    0.14118 =
         0.04654    0.01073   -0.00610   -0.04026
AFIX 137
H19A  2    0.590964    0.463004    0.894539    11.00000   -1.50000
H19B  2    0.631366    0.615892    0.894693    11.00000   -1.50000
H19C  2    0.738238    0.457680    0.958156    11.00000   -1.50000
AFIX   0
HKLF 4
REM  oudizan-2-r_a.res in P-1
REM R1 =  0.0494 for    2807 Fo > 4sig(Fo)  and  0.0570 for all    3279 data
REM    210 parameters refined using      0 restraints
END
WGHT      0.0787      0.2111
REM Highest difference peak  0.300,  deepest hole -0.324,  1-sigma level  0.046
Q1    1   0.6862  0.6181  0.2798  11.00000  0.05    0.30
Q2    1   0.7371  0.4321  0.2787  11.00000  0.05    0.27
Q3    1   0.8781  0.4478  0.2149  11.00000  0.05    0.26
Q4    1   0.6319  0.7754  0.0989  11.00000  0.05    0.26
Q5    1   0.4936  0.8989  0.1653  11.00000  0.05    0.22
Q6    1   0.1819  1.1783 -0.0524  11.00000  0.05    0.22
Q7    1   0.7063  0.6395  0.3848  11.00000  0.05    0.19
Q8    1   0.0996  1.0954 -0.0051  11.00000  0.05    0.17
Q9    1   0.7796  0.4058  0.4512  11.00000  0.05    0.17
Q10   1   0.7284  0.5420  0.4711  11.00000  0.05    0.17
Q11   1   0.0609  1.1581 -0.0176  11.00000  0.05    0.16
Q12   1   0.0601  1.2583  0.0302  11.00000  0.05    0.16
Q13   1   0.7001  0.5592  0.1606  11.00000  0.05    0.16
Q14   1   0.3974  1.0043  0.2342  11.00000  0.05    0.15
Q15   1   0.7752  0.2774  0.2700  11.00000  0.05    0.15
Q16   1   0.1515  1.1230  0.0314  11.00000  0.05    0.15
Q17   1   0.4416  0.9238 -0.0357  11.00000  0.05    0.15
Q18   1   0.3820  0.8350  0.1647  11.00000  0.05    0.15
Q19   1   0.8586  0.1181  0.2635  11.00000  0.05    0.14
Q20   1   0.9155  0.3510  0.7817  11.00000  0.05    0.14
;
_shelx_res_checksum              16247
_shelxl_version_number           2014/6
loop_
_space_group_symop_operation_xyz
'x, y, z'
'-x, -y, -z'
loop_
_atom_site_type_symbol
_atom_site_label
_atom_site_fract_x
_atom_site_fract_y
_atom_site_fract_z
_atom_site_U_iso_or_equiv
_atom_site_adp_type
_atom_site_calc_flag
_atom_site_occupancy
Cl Cl1 0.09239(15) 1.18172(14) -0.02253(9) 0.1305(5) Uani d 1
S S1 0.73755(8) 0.52007(7) 0.23423(4) 0.0561(2) Uani d 1
O O1 0.7170(2) 0.7404(2) 0.50943(14) 0.0629(5) Uani d 1
N N1 0.7797(2) 0.4711(2) 0.47968(14) 0.0461(4) Uani d 1
C C1 0.7158(3) 0.6329(3) 0.44911(17) 0.0467(5) Uani d 1
C C2 0.6464(3) 0.6753(3) 0.34053(17) 0.0447(4) Uani d 1
C C3 0.7545(3) 0.3470(3) 0.30826(19) 0.0502(5) Uani d 1
C C4 0.7543(3) 0.2137(3) 0.2500(2) 0.0667(7) Uani d 1
H H4 0.7439 0.2195 0.1747 0.080 Uiso calc 1
C C5 0.7696(4) 0.0737(4) 0.3035(3) 0.0785(8) Uani d 1
H H5 0.7724 -0.0163 0.2643 0.094 Uiso calc 1
C C6 0.7806(4) 0.0673(3) 0.4149(3) 0.0784(8) Uani d 1
H H6 0.7886 -0.0266 0.4513 0.094 Uiso calc 1
C C7 0.7800(3) 0.1990(3) 0.4738(2) 0.0644(6) Uani d 1
H H7 0.7868 0.1934 0.5494 0.077 Uiso calc 1
C C8 0.7693(3) 0.3403(3) 0.42042(18) 0.0470(5) Uani d 1
C C9 0.5312(3) 0.8316(3) 0.32848(17) 0.0487(5) Uani d 1
H H9 0.5091 0.9029 0.3895 0.058 Uiso calc 1
C C10 0.4338(3) 0.9109(3) 0.23699(18) 0.0505(5) Uani d 1
C C11 0.2955(4) 1.0643(3) 0.2594(2) 0.0692(7) Uani d 1
H H11 0.2722 1.1131 0.3301 0.083 Uiso calc 1
C C12 0.1918(4) 1.1465(4) 0.1810(3) 0.0783(8) Uani d 1
H H12 0.0998 1.2496 0.1985 0.094 Uiso calc 1
C C13 0.2237(4) 1.0772(4) 0.0775(3) 0.0783(8) Uani d 1
C C14 0.3614(6) 0.9286(4) 0.0506(3) 0.1164(16) Uani d 1
H H14 0.3849 0.8826 -0.0209 0.140 Uiso calc 1
C C15 0.4653(5) 0.8471(4) 0.1298(2) 0.0944(12) Uani d 1
H H15 0.5595 0.7462 0.1106 0.113 Uiso calc 1
C C16 0.8499(3) 0.4380(3) 0.58673(17) 0.0513(5) Uani d 1
H H16A 0.9118 0.5024 0.5944 0.062 Uiso calc 1
H H16B 0.9298 0.3213 0.5868 0.062 Uiso calc 1
C C17 0.7187(3) 0.4791(3) 0.68574(19) 0.0560(6) Uani d 1
H H17A 0.6484 0.4242 0.6754 0.067 Uiso calc 1
H H17B 0.6467 0.5981 0.6918 0.067 Uiso calc 1
C C18 0.8018(4) 0.4236(4) 0.7914(2) 0.0733(8) Uani d 1
H H18A 0.8518 0.3032 0.7922 0.088 Uiso calc 1
H H18B 0.8921 0.4561 0.7923 0.088 Uiso calc 1
C C19 0.6794(5) 0.4967(5) 0.8941(2) 0.1002(12) Uani d 1
H H19A 0.5910 0.4630 0.8945 0.150 Uiso calc 1
H H19B 0.6314 0.6159 0.8947 0.150 Uiso calc 1
H H19C 0.7382 0.4577 0.9582 0.150 Uiso calc 1
loop_
_atom_site_aniso_label
_atom_site_aniso_U_11
_atom_site_aniso_U_22
_atom_site_aniso_U_33
_atom_site_aniso_U_12
_atom_site_aniso_U_13
_atom_site_aniso_U_23
Cl1 0.1339(9) 0.1157(8) 0.0988(7) -0.0060(6) -0.0706(7) 0.0190(6)
S1 0.0688(4) 0.0496(3) 0.0409(3) -0.0181(3) -0.0068(2) 0.0018(2)
O1 0.0915(12) 0.0568(10) 0.0514(9) -0.0403(9) -0.0224(8) 0.0055(7)
N1 0.0508(9) 0.0494(10) 0.0414(9) -0.0247(8) -0.0084(7) 0.0074(7)
C1 0.0537(11) 0.0504(11) 0.0423(10) -0.0286(9) -0.0069(8) 0.0036(9)
C2 0.0519(11) 0.0448(11) 0.0418(10) -0.0253(9) -0.0057(8) 0.0028(8)
C3 0.0483(11) 0.0447(11) 0.0558(12) -0.0189(9) -0.0062(9) 0.0007(9)
C4 0.0734(16) 0.0558(14) 0.0703(16) -0.0281(12) -0.0084(13) -0.0105(12)
C5 0.089(2) 0.0566(15) 0.094(2) -0.0385(14) 0.0012(16) -0.0144(15)
C6 0.0883(19) 0.0477(14) 0.101(2) -0.0353(13) 0.0089(16) 0.0044(14)
C7 0.0722(15) 0.0531(13) 0.0659(15) -0.0282(12) 0.0025(12) 0.0074(11)
C8 0.0428(10) 0.0425(11) 0.0544(12) -0.0185(8) -0.0017(8) 0.0026(9)
C9 0.0598(12) 0.0453(11) 0.0436(11) -0.0254(9) -0.0068(9) 0.0006(8)
C10 0.0579(12) 0.0445(11) 0.0482(11) -0.0215(9) -0.0089(9) 0.0025(9)
C11 0.0773(16) 0.0573(14) 0.0561(14) -0.0139(12) -0.0132(12) -0.0074(11)
C12 0.0662(16) 0.0634(16) 0.0769(18) -0.0019(13) -0.0160(14) 0.0033(14)
C13 0.0865(19) 0.0689(17) 0.0680(17) -0.0186(14) -0.0388(15) 0.0127(13)
C14 0.154(3) 0.073(2) 0.0598(18) 0.011(2) -0.045(2) -0.0094(15)
C15 0.116(2) 0.0600(16) 0.0530(15) 0.0116(16) -0.0220(16) -0.0036(12)
C16 0.0461(11) 0.0623(13) 0.0461(11) -0.0237(10) -0.0110(9) 0.0111(9)
C17 0.0521(12) 0.0673(14) 0.0468(12) -0.0246(10) -0.0075(9) 0.0119(10)
C18 0.0680(15) 0.096(2) 0.0485(13) -0.0281(14) -0.0131(11) 0.0150(13)
C19 0.098(2) 0.141(3) 0.0465(15) -0.040(2) -0.0061(15) 0.0107(17)
loop_
_atom_type_symbol
_atom_type_description
_atom_type_scat_dispersion_real
_atom_type_scat_dispersion_imag
_atom_type_scat_source
C C 0.0181 0.0091 'International Tables Vol C Tables 4.2.6.8 and 6.1.1.4'
H H 0.0000 0.0000 'International Tables Vol C Tables 4.2.6.8 and 6.1.1.4'
Cl Cl 0.3639 0.7018 'International Tables Vol C Tables 4.2.6.8 and 6.1.1.4'
N N 0.0311 0.0180 'International Tables Vol C Tables 4.2.6.8 and 6.1.1.4'
O O 0.0492 0.0322 'International Tables Vol C Tables 4.2.6.8 and 6.1.1.4'
S S 0.3331 0.5567 'International Tables Vol C Tables 4.2.6.8 and 6.1.1.4'
loop_
_geom_angle_atom_site_label_1
_geom_angle_atom_site_label_2
_geom_angle_atom_site_label_3
_geom_angle
C3 S1 C2 99.73(10)
C1 N1 C8 124.60(18)
C1 N1 C16 115.97(17)
C8 N1 C16 119.20(17)
O1 C1 N1 120.5(2)
O1 C1 C2 120.45(19)
N1 C1 C2 119.09(18)
C1 C2 S1 116.82(15)
C9 C2 S1 124.85(17)
C9 C2 C1 118.04(19)
C4 C3 S1 117.58(19)
C8 C3 S1 121.84(17)
C8 C3 C4 120.6(2)
C3 C4 H4 119.9
C5 C4 C3 120.1(3)
C5 C4 H4 119.9
C4 C5 H5 120.1
C6 C5 C4 119.8(3)
C6 C5 H5 120.1
C5 C6 H6 119.7
C5 C6 C7 120.7(3)
C7 C6 H6 119.7
C6 C7 H7 119.8
C6 C7 C8 120.4(3)
C8 C7 H7 119.8
C3 C8 N1 121.16(19)
C3 C8 C7 118.4(2)
C7 C8 N1 120.4(2)
C2 C9 H9 114.1
C2 C9 C10 131.8(2)
C10 C9 H9 114.1
C11 C10 C9 117.3(2)
C15 C10 C9 126.4(2)
C15 C10 C11 116.4(2)
C10 C11 H11 119.0
C12 C11 C10 122.1(2)
C12 C11 H11 119.0
C11 C12 H12 120.1
C13 C12 C11 119.8(3)
C13 C12 H12 120.1
C12 C13 Cl1 119.9(2)
C12 C13 C14 120.3(3)
C14 C13 Cl1 119.9(2)
C13 C14 H14 120.2
C13 C14 C15 119.6(3)
C15 C14 H14 120.2
C10 C15 H15 119.1
C14 C15 C10 121.9(3)
C14 C15 H15 119.1
N1 C16 H16A 108.7
N1 C16 H16B 108.7
N1 C16 C17 114.37(17)
H16A C16 H16B 107.6
C17 C16 H16A 108.7
C17 C16 H16B 108.7
C16 C17 H17A 109.4
C16 C17 H17B 109.4
C16 C17 C18 111.19(19)
H17A C17 H17B 108.0
C18 C17 H17A 109.4
C18 C17 H17B 109.4
C17 C18 H18A 109.0
C17 C18 H18B 109.0
H18A C18 H18B 107.8
C19 C18 C17 112.9(2)
C19 C18 H18A 109.0
C19 C18 H18B 109.0
C18 C19 H19A 109.5
C18 C19 H19B 109.5
C18 C19 H19C 109.5
H19A C19 H19B 109.5
H19A C19 H19C 109.5
H19B C19 H19C 109.5
loop_
_geom_bond_atom_site_label_1
_geom_bond_atom_site_label_2
_geom_bond_distance
Cl1 C13 1.740(3)
S1 C2 1.756(2)
S1 C3 1.753(2)
O1 C1 1.220(3)
N1 C1 1.371(3)
N1 C8 1.424(3)
N1 C16 1.474(3)
C1 C2 1.492(3)
C2 C9 1.337(3)
C3 C4 1.395(3)
C3 C8 1.386(3)
C4 H4 0.9300
C4 C5 1.375(4)
C5 H5 0.9300
C5 C6 1.371(5)
C6 H6 0.9300
C6 C7 1.384(4)
C7 H7 0.9300
C7 C8 1.395(3)
C9 H9 0.9300
C9 C10 1.462(3)
C10 C11 1.383(3)
C10 C15 1.380(4)
C11 H11 0.9300
C11 C12 1.368(4)
C12 H12 0.9300
C12 C13 1.355(4)
C13 C14 1.363(4)
C14 H14 0.9300
C14 C15 1.374(4)
C15 H15 0.9300
C16 H16A 0.9700
C16 H16B 0.9700
C16 C17 1.517(3)
C17 H17A 0.9700
C17 H17B 0.9700
C17 C18 1.519(3)
C18 H18A 0.9700
C18 H18B 0.9700
C18 C19 1.512(4)
C19 H19A 0.9600
C19 H19B 0.9600
C19 H19C 0.9600
loop_
_geom_hbond_atom_site_label_D
_geom_hbond_atom_site_label_H
_geom_hbond_atom_site_label_A
_geom_hbond_site_symmetry_A
_geom_hbond_distance_DH
_geom_hbond_distance_HA
_geom_hbond_distance_DA
_geom_hbond_angle_DHA
C6 H6 O1 1_545 0.93 2.53 3.410(3) 158.3
C11 H11 O1 2_676 0.93 2.39 3.290(3) 161.8
C15 H15 S1 . 0.93 2.55 3.219(3) 129.4

_cod_database_fobs_code 1546680
