#------------------------------------------------------------------------------
#$Date: 2017-06-15 03:53:14 +0300 (Thu, 15 Jun 2017) $
#$Revision: 197829 $
#$URL: file:///home/coder/svn-repositories/cod/cif/1/54/63/1546320.cif $
#------------------------------------------------------------------------------
#
# This file is available in the Crystallography Open Database (COD),
# http://www.crystallography.net/
#
# All data on this site have been placed in the public domain by the
# contributors.
#
data_1546320
loop_
_publ_author_name
'Toma, Ana M.'
'Ra\,t, Ciprian I.'
'Pavel, Octavian D.'
'Hardacre, Christopher'
'R\"uffer, Tobias'
'Lang, Heinrich'
'Mehring, Michael'
'Silvestru, Anca'
'P\^arvulescu, Vasile I.'
_publ_section_title
;
 Heterocyclic bismuth(iii) compounds with transannular N\\rightarrow Bi
 interactions as catalysts for the oxidation of thiophenol to
 diphenyldisulfide
;
_journal_name_full               'Catal. Sci. Technol.'
_journal_paper_doi               10.1039/C7CY00521K
_journal_year                    2017
_chemical_formula_moiety         'C22 H19 Bi F3 N O3 S'
_chemical_formula_sum            'C22 H19 Bi F3 N O3 S'
_chemical_formula_weight         643.42
_chemical_name_systematic
;
 ?
;
_space_group_crystal_system      triclinic
_space_group_IT_number           2
_space_group_name_Hall           '-P 1'
_space_group_name_H-M_alt        'P -1'
_symmetry_space_group_name_Hall  '-P 1'
_symmetry_space_group_name_H-M   'P -1'
_atom_sites_solution_hydrogens   geom
_audit_creation_method           SHELXL-2013
_audit_update_record
;
2017-02-21 deposited with the CCDC.
2017-06-14 downloaded from the CCDC.
;
_cell_angle_alpha                78.190(4)
_cell_angle_beta                 86.738(4)
_cell_angle_gamma                83.332(4)
_cell_formula_units_Z            2
_cell_length_a                   9.8797(6)
_cell_length_b                   10.1848(4)
_cell_length_c                   10.9733(5)
_cell_measurement_reflns_used    4802
_cell_measurement_temperature    110
_cell_measurement_theta_max      27.7910
_cell_measurement_theta_min      3.0430
_cell_volume                     1072.86(9)
_computing_cell_refinement
;
CrysAlisPro, Agilent Technologies,
Version 1.171.36.28 (release 01-02-2013 CrysAlis171 .NET)
(compiled Feb  1 2013,16:14:44)
;
_computing_data_collection
;
CrysAlisPro, Agilent Technologies,
Version 1.171.36.28 (release 01-02-2013 CrysAlis171 .NET)
(compiled Feb  1 2013,16:14:44)
;
_computing_data_reduction
;
CrysAlisPro, Agilent Technologies,
Version 1.171.36.28 (release 01-02-2013 CrysAlis171 .NET)
(compiled Feb  1 2013,16:14:44)
;
_computing_molecular_graphics
;Brandenburg, K. [or Brandenburg, K. & Putz, H., or Brandenburg, K. & Berndt,
 M.] (1999). DIAMOND. Crystal Impact GbR, Bonn, Germany.
;
_computing_publication_material
; Allen, F. H., Johnson, O., Shields, G. P., Smith, B. R. & Towler, M. (2004).
 J. Appl. Cryst. 37, 335-338.
;
_computing_structure_refinement  'SHELXL-2013 (Sheldrick, 2013)'
_computing_structure_solution    'SHELXS-2013 (Sheldrick, 2013)'
_diffrn_ambient_temperature      110
_diffrn_measured_fraction_theta_full 0.995
_diffrn_measured_fraction_theta_max 0.995
_diffrn_measurement_device_type  'oxford gemini s'
_diffrn_measurement_method       '\w scans'
_diffrn_radiation_type           MoK\a
_diffrn_radiation_wavelength     0.71073
_diffrn_reflns_av_R_equivalents  0.0312
_diffrn_reflns_av_unetI/netI     0.0521
_diffrn_reflns_Laue_measured_fraction_full 0.995
_diffrn_reflns_Laue_measured_fraction_max 0.995
_diffrn_reflns_limit_h_max       11
_diffrn_reflns_limit_h_min       -11
_diffrn_reflns_limit_k_max       12
_diffrn_reflns_limit_k_min       -11
_diffrn_reflns_limit_l_max       12
_diffrn_reflns_limit_l_min       -13
_diffrn_reflns_number            6582
_diffrn_reflns_point_group_measured_fraction_full 0.995
_diffrn_reflns_point_group_measured_fraction_max 0.995
_diffrn_reflns_theta_full        25.000
_diffrn_reflns_theta_max         24.999
_diffrn_reflns_theta_min         3.063
_exptl_absorpt_coefficient_mu    8.364
_exptl_absorpt_correction_T_max  1.00000
_exptl_absorpt_correction_T_min  0.57126
_exptl_absorpt_correction_type   multi-scan
_exptl_absorpt_process_details
;
CrysAlisPro, Agilent Technologies,
Version 1.171.36.28 (release 01-02-2013 CrysAlis171 .NET)
(compiled Feb  1 2013,16:14:44)
Empirical absorption correction using spherical harmonics,
 implemented in SCALE3 ABSPACK scaling algorithm.
;
_exptl_crystal_colour            colourless
_exptl_crystal_density_diffrn    1.992
_exptl_crystal_description       plate
_exptl_crystal_F_000             616
_exptl_crystal_size_max          0.36
_exptl_crystal_size_mid          0.22
_exptl_crystal_size_min          0.10
_refine_diff_density_max         1.049
_refine_diff_density_min         -0.901
_refine_diff_density_rms         0.145
_refine_ls_extinction_method     none
_refine_ls_goodness_of_fit_ref   1.037
_refine_ls_hydrogen_treatment    constr
_refine_ls_matrix_type           full
_refine_ls_number_parameters     280
_refine_ls_number_reflns         3738
_refine_ls_number_restraints     0
_refine_ls_restrained_S_all      1.037
_refine_ls_R_factor_all          0.0300
_refine_ls_R_factor_gt           0.0266
_refine_ls_shift/su_max          0.001
_refine_ls_shift/su_mean         0.000
_refine_ls_structure_factor_coef Fsqd
_refine_ls_weighting_details
'w=1/[\s^2^(Fo^2^)+(0.0120P)^2^] where P=(Fo^2^+2Fc^2^)/3'
_refine_ls_weighting_scheme      calc
_refine_ls_wR_factor_gt          0.0503
_refine_ls_wR_factor_ref         0.0516
_reflns_Friedel_coverage         0.000
_reflns_number_gt                3482
_reflns_number_total             3738
_reflns_threshold_expression     'I > 2\s(I)'
_cod_data_source_file            c7cy00521k2.cif
_cod_data_source_block           shelx
_cod_database_code               1546320
_shelx_space_group_comment
;
The symmetry employed for this shelxl refinement is uniquely defined
by the following loop, which should always be used as a source of
symmetry information in preference to the above space-group names.
They are only intended as comments.
;
_shelxl_version_number           2013-4
_shelx_res_file
;
TITL At147 in P1
CELL  0.71073   9.8797  10.1848  10.9733   78.190   86.738   83.332
ZERR     2.00   0.0006   0.0004   0.0005    0.004    0.004    0.004
LATT   1
SFAC  C    N    O    F    S    BI   H
UNIT  44 2 6 6 2 2 38
MERG   2
OMIT     0.00  50.00
OMIT    -1   1   5
OMIT     4  -2   2
FMAP   2
PLAN   25
ACTA    50.00
BOND   $H
CONF
L.S.   4
WGHT    0.012000
FVAR       4.26804
C1    1    0.363941    0.154001    0.108855    11.00000    0.00961    0.02020 =
         0.01012   -0.00290   -0.00090   -0.00310
C2    1    0.319536    0.088957    0.022527    11.00000    0.01825    0.01816 =
         0.02101   -0.00546    0.00206   -0.00265
AFIX  43
H2    7    0.347045   -0.002318    0.026902    11.00000   -1.20000
AFIX   0
C3    1    0.233898    0.158695   -0.071120    11.00000    0.02169    0.02862 =
         0.01450   -0.00541   -0.00400   -0.00147
AFIX  43
H3    7    0.201502    0.113945   -0.127510    11.00000   -1.20000
AFIX   0
C4    1    0.197872    0.294440   -0.079153    11.00000    0.02026    0.02577 =
         0.01841    0.00499   -0.00838   -0.00007
AFIX  43
H4    7    0.142885    0.342130   -0.143018    11.00000   -1.20000
AFIX   0
C5    1    0.241999    0.361017    0.006019    11.00000    0.01611    0.01518 =
         0.01633   -0.00004    0.00619   -0.00265
AFIX  43
H5    7    0.215372    0.452650    0.000257    11.00000   -1.20000
AFIX   0
C6    1    0.326509    0.291214    0.100829    11.00000    0.00993    0.01183 =
         0.01643   -0.00321    0.00285   -0.00207
C7    1    0.367957    0.360814    0.199754    11.00000    0.02107    0.01108 =
         0.01798   -0.00024   -0.00367    0.00222
AFIX  23
H7A   7    0.376094    0.454922    0.163652    11.00000   -1.20000
H7B   7    0.297799    0.357237    0.265530    11.00000   -1.20000
AFIX   0
C8    1    0.501262    0.300178    0.388888    11.00000    0.01864    0.01404 =
         0.01489   -0.00307   -0.00579   -0.00098
AFIX  23
H8A   7    0.484698    0.392848    0.399922    11.00000   -1.20000
H8B   7    0.589320    0.262239    0.422307    11.00000   -1.20000
AFIX   0
C9    1    0.391421    0.220149    0.456259    11.00000    0.00734    0.01729 =
         0.01120   -0.00029   -0.00391    0.00179
C10   1    0.306806    0.264895    0.548713    11.00000    0.02459    0.01918 =
         0.01197   -0.00705   -0.00600    0.00267
AFIX  43
H10   7    0.321910    0.343302    0.574489    11.00000   -1.20000
AFIX   0
C11   1    0.201079    0.193828    0.602096    11.00000    0.01245    0.02862 =
         0.01383   -0.00229   -0.00119    0.00931
AFIX  43
H11   7    0.144563    0.225023    0.663149    11.00000   -1.20000
AFIX   0
C12   1    0.178062    0.075893    0.565557    11.00000    0.01336    0.02890 =
         0.01269    0.00287   -0.00075   -0.00280
AFIX  43
H12   7    0.106592    0.027964    0.602018    11.00000   -1.20000
AFIX   0
C13   1    0.262365    0.030153    0.474373    11.00000    0.02055    0.01794 =
         0.01395   -0.00142   -0.00660   -0.00002
AFIX  43
H13   7    0.248546   -0.049754    0.450691    11.00000   -1.20000
AFIX   0
C14   1    0.365944    0.102020    0.418936    11.00000    0.01208    0.01304 =
         0.01139   -0.00181   -0.00162    0.00340
C15   1    0.612407    0.366004    0.180282    11.00000    0.01704    0.01418 =
         0.01366   -0.00052   -0.00090   -0.00234
AFIX  23
H15A  7    0.608282    0.455798    0.198222    11.00000   -1.20000
H15B  7    0.595436    0.376208    0.092464    11.00000   -1.20000
AFIX   0
C16   1    0.753491    0.297747    0.203429    11.00000    0.01656    0.01764 =
         0.01770    0.00147   -0.00339   -0.00227
C17   1    0.810416    0.208998    0.129422    11.00000    0.01729    0.02380 =
         0.01669   -0.00075   -0.00080   -0.00467
AFIX  43
H17   7    0.759454    0.190414    0.067490    11.00000   -1.20000
AFIX   0
C18   1    0.941989    0.148014    0.146842    11.00000    0.01678    0.02545 =
         0.02548   -0.00134    0.00618    0.00102
AFIX  43
H18   7    0.978651    0.088152    0.096987    11.00000   -1.20000
AFIX   0
C19   1    1.019117    0.174880    0.236962    11.00000    0.01805    0.03264 =
         0.02594    0.00721    0.00228   -0.00450
AFIX  43
H19   7    1.107794    0.133637    0.248232    11.00000   -1.20000
AFIX   0
C20   1    0.963928    0.264012    0.311192    11.00000    0.02582    0.04066 =
         0.02554    0.00328   -0.00934   -0.01398
AFIX  43
H20   7    1.015586    0.282582    0.372653    11.00000   -1.20000
AFIX   0
C21   1    0.833417    0.324726    0.294089    11.00000    0.02643    0.02558 =
         0.02226   -0.00235   -0.00081   -0.00805
AFIX  43
H21   7    0.797536    0.384985    0.343835    11.00000   -1.20000
AFIX   0
C22   1    0.179340   -0.276809    0.271922    11.00000    0.02862    0.01860 =
         0.03325   -0.01031   -0.00235   -0.00342
N1    2    0.500802    0.295795    0.253845    11.00000    0.01329    0.00932 =
         0.01542   -0.00266   -0.00505   -0.00011
O1    3    0.374152   -0.137356    0.276635    11.00000    0.02349    0.01633 =
         0.02771   -0.00605   -0.00037   -0.00218
O2    3    0.418435   -0.379088    0.342381    11.00000    0.03268    0.01714 =
         0.03505    0.00152   -0.01656    0.00310
O3    3    0.390210   -0.280709    0.123128    11.00000    0.02989    0.03156 =
         0.02413   -0.00970    0.00228   -0.00202
F1    4    0.138511   -0.267961    0.387745    11.00000    0.03646    0.05855 =
         0.03845   -0.01770    0.01800   -0.01357
F2    4    0.111045   -0.176561    0.196241    11.00000    0.02397    0.04147 =
         0.05847   -0.00682   -0.01372    0.01109
F3    4    0.143614   -0.391263    0.250429    11.00000    0.03036    0.03428 =
         0.07554   -0.02704   -0.00334   -0.01195
S1    5    0.362269   -0.270104    0.249940    11.00000    0.01825    0.01177 =
         0.02028   -0.00388   -0.00520    0.00031
BI1   6    0.505805    0.058369    0.258961    11.00000    0.01312    0.01118 =
         0.01322   -0.00291   -0.00219    0.00247
HKLF    4

REM  At147 in P1
REM R1 =  0.0266 for    3482 Fo > 4sig(Fo)  and  0.0300 for all    3738 data
REM    280 parameters refined using      0 restraints

END

WGHT      0.0120      0.0000

REM Highest difference peak  1.049,  deepest hole -0.901,  1-sigma level  0.145
Q1    1   0.6086  0.0849  0.2597  11.00000  0.05    1.05
Q2    1   0.4162  0.0263  0.2574  11.00000  0.05    0.95
Q3    1   0.5157  0.0801  0.1802  11.00000  0.05    0.82
Q4    1   0.4923  0.0660  0.3644  11.00000  0.05    0.80
Q5    1   0.3949  0.0843  0.3190  11.00000  0.05    0.71
Q6    1   0.6181  0.0269  0.2040  11.00000  0.05    0.68
Q7    1   0.5226 -0.0382  0.2417  11.00000  0.05    0.64
Q8    1   0.2711 -0.2780  0.2803  11.00000  0.05    0.53
Q9    1   0.3528  0.4804  0.2373  11.00000  0.05    0.51
Q10   1   0.3023  0.1418  0.0889  11.00000  0.05    0.50
Q11   1   0.3101  0.0571  0.2600  11.00000  0.05    0.49
Q12   1   0.3045  0.0626 -0.1808  11.00000  0.05    0.49
Q13   1   0.3704 -0.2049  0.2664  11.00000  0.05    0.49
Q14   1   0.6700  0.1408  0.0613  11.00000  0.05    0.47
Q15   1   0.1932  0.2196 -0.0448  11.00000  0.05    0.47
Q16   1   0.3322 -0.0266  0.4549  11.00000  0.05    0.46
Q17   1   0.3663  0.0607  0.5005  11.00000  0.05    0.45
Q18   1   0.4576  0.4967  0.3901  11.00000  0.05    0.45
Q19   1   0.7493  0.2369  0.1752  11.00000  0.05    0.45
Q20   1   0.0622 -0.0196  0.6035  11.00000  0.05    0.44
Q21   1   0.4267  0.2658  0.4035  11.00000  0.05    0.44
Q22   1   0.4516  0.5705  0.1924  11.00000  0.05    0.44
Q23   1   0.2445 -0.2711  0.1177  11.00000  0.05    0.44
Q24   1   0.5003  0.1794  0.2203  11.00000  0.05    0.44
Q25   1   0.5727  0.5295  0.2053  11.00000  0.05    0.44
;
_shelx_res_checksum              66947
_shelx_hkl_file
;
 -11  -8  -4 44630.2 5006.75   7
 -11  -8  -3-1247.05 1138.76   7
 -11  -8  -2 41600.6 4755.72   7
 -11  -8  -1-792.009 1343.39   7
 -11  -8   0 40230.5 4623.67   7
 -11  -7  -5 1875.23 1451.64   7
 -11  -7  -4 59915.4 5812.12   7
 -11  -7  -3-1454.05 1454.02   7
 -11  -7  -2 74395.0 6462.21   7
 -11  -7  -1 1893.51 1324.11   7
 -11  -7   0 49419.8 5235.26   7
 -11  -7   1 464.562 1122.39   7
 -11  -6  -5 2522.48 1500.86   3
 -11  -6  -4 31963.1 4213.04   7
 -11  -6  -3 4638.64 1892.67   7
 -11  -6  -2 50929.0 5363.73   7
 -11  -6  -1-175.859 1282.66   7
 -11  -6   0 36180.1 4470.84   7
 -11  -6   1 2591.65 1366.30   7
 -11  -5  -5 23593.4 4021.98   3
 -11  -5  -4 25017.3 4103.80   3
 -11  -5  -3 47180.8 5234.58   7
 -11  -5  -2 26611.1 3907.44   7
 -11  -5  -1 75030.7 6603.97   7
 -11  -5   0 19173.6 3262.01   7
 -11  -5   1 59070.6 5779.29   7
 -11  -5   2 11071.3 2627.97   7
 -11  -4  -6 29566.7 4527.70   3
 -11  -4  -5 69065.6 6711.96   3
 -11  -4  -4 44607.9 5367.73   3
 -11  -4  -3 51572.7 5635.61   3
 -11  -4  -2 8429.92 2355.40   7
 -11  -4  -1 102770. 7832.11   7
 -11  -4   0 7837.21 2278.94   7
 -11  -4   1 77594.8 6706.36   7
 -11  -4   2 4877.46 1711.09   7
 -11  -4   3 56918.4 5805.51   7
 -11  -3  -5 54424.2 5943.51   3
 -11  -3  -4 6241.26 2142.96   3
 -11  -3  -3 59326.9 6043.07   3
 -11  -3  -2 2704.33 1725.14   3
 -11  -3  -1 53451.4 5624.87   7
 -11  -3   0 639.804 1171.37   7
 -11  -3   1 51238.9 5482.33   7
 -11  -3   2 3606.57 1746.18   7
 -11  -3   3 26899.2 4081.43   7
 -11  -2  -5 68255.8 6763.40   3
 -11  -2  -4 11646.6 3044.73   3
 -11  -2  -3 107980. 8421.16   3
 -11  -2  -2 16192.2 3108.72   3
 -11  -2  -1 52442.2 5591.38   7
 -11  -2   0 10951.7 2663.66   7
 -11  -2   1 82910.3 7094.70   7
 -11  -2   2 24936.4 3790.22   7
 -11  -2   3 68520.2 6416.06   7
 -11  -2   4 23468.1 3834.25   7
 -11  -1  -5 76555.4 7208.63   3
 -11  -1  -4 25682.6 4146.00   3
 -11  -1  -3 85095.1 7407.19   3
 -11  -1  -2 26072.4 4162.96   3
 -11  -1  -1 58338.9 6036.68   3
 -11  -1   0 35030.1 4445.27   7
 -11  -1   1 48100.0 5440.37   7
 -11  -1   2 54947.5 5780.59   7
 -11  -1   3 45357.2 5277.60   7
 -11  -1   4 67877.4 6501.01   7
 -11   0  -5 20338.6 3638.15   3
 -11   0  -4 26003.6 4317.69   3
 -11   0  -3 19957.2 3573.21   3
 -11   0  -2 27641.9 4127.58   3
 -11   0  -1 11548.5 2769.78   3
 -11   0   0 62942.6 6185.62   7
 -11   0   1 9447.96 2412.90   7
 -11   0   2 70010.3 6594.61   7
 -11   0   3 490.130 1277.12   7
 -11   0   4 50238.6 5652.65   7
 -11   1  -4 72051.8 6977.19   3
 -11   1  -3-2955.08 2143.42   3
 -11   1  -2 83031.6 7266.56   3
 -11   1  -1 12590.7 2955.99   3
 -11   1   0 58550.9 5976.60   7
 -11   1   1-322.633 1339.64   7
 -11   1   2 87501.3 7455.14   7
 -11   1   3 8994.94 2401.95   7
 -11   1   4 53481.4 5797.97   7
 -11   2  -4 95482.0 8088.06   3
 -11   2  -3 415.644 1583.80   3
 -11   2  -2 145541. 9967.28   3
 -11   2  -1 4902.93 1992.64   3
 -11   2   1 6351.04 2208.15   7
 -11   2   2 84752.3 7247.96   7
 -11   2   3 17089.8 3369.19   7
 -11   2   4 65922.4 6475.53   7
 -11   3  -3 5477.70 2013.17   3
 -11   3  -2 48236.3 5573.86   3
 -11   3  -1 5439.19 1887.28   3
 -11   3   0 65745.9 6426.36   3
 -11   3   1 13303.5 2838.10   7
 -11   3   2 22795.8 3940.43   7
 -11   3   3 18944.2 3393.92   7
 -11   3   4 17081.8 3273.44   7
 -11   4  -3 44657.4 5408.97   3
 -11   4  -2 10276.2 3038.02   3
 -11   4  -1 48595.8 5473.74   3
 -11   4   0 13956.0 3084.49   3
 -11   4   1 89651.2 7576.66   7
 -11   4   2 3483.43 1555.50   7
 -11   4   3 58437.9 6060.91   7
 -11   4   4 3796.35 1721.58   7
 -11   5  -2 4486.42 1916.78   3
 -11   5  -1 63942.7 6305.35   3
 -11   5   0 2623.54 1754.01   3
 -11   5   1 76257.5 6997.43   7
 -11   5   2 2882.69 1554.51   7
 -11   5   3 70073.7 6557.42   7
 -11   5   4 2206.94 1306.47   7
 -10  -9   0 22043.9 3102.72   7
 -10  -9   1 2936.44 1256.98   7
 -10  -9   2 32844.9 3917.18   7
 -10  -8  -8 49107.7 5726.29   3
 -10  -8  -7 7740.14 2325.73   3
 -10  -8  -6 52473.6 5640.25   3
 -10  -8  -5 9874.17 2377.49   7
 -10  -8  -4 64023.2 5679.84   7
 -10  -8  -3-20.9097 836.412   7
 -10  -8  -2 74564.7 6025.64   7
 -10  -8  -1 4827.83 1701.50   7
 -10  -8   0 79511.7 6202.54   7
 -10  -8   1 1444.90 1203.00   7
 -10  -8   2 46513.6 4665.21   7
 -10  -7  -8 23497.4 3997.01   3
 -10  -7  -7 5321.33 2291.51   3
 -10  -7  -6 47759.3 5357.11   3
 -10  -7  -5 7331.87 2212.78   3
 -10  -7  -4 41702.3 4584.78   7
 -10  -7  -3 1892.59 1432.98   7
 -10  -7  -2 77308.9 6233.71   7
 -10  -7  -1 4190.55 1543.99   7
 -10  -7   0 73149.0 5990.90   7
 -10  -7   1-1297.44 1425.95   7
 -10  -7   2 48765.2 4882.12   7
 -10  -7   3 1998.69 1212.58   7
 -10  -6  -8 35607.7 5036.84   3
 -10  -6  -7-283.760 1139.49   3
 -10  -6  -6 52333.1 5692.85   3
 -10  -6  -5 4235.91 1854.44   3
 -10  -6  -4 35114.7 4437.43   3
 -10  -6  -3 22395.7 3408.31   7
 -10  -6  -2 16952.9 3036.45   7
 -10  -6  -1 32599.3 3930.79   7
 -10  -6   0 22134.9 3355.06   7
 -10  -6   1 18150.3 2967.71   7
 -10  -6   2 23288.3 3409.86   7
 -10  -6   3 25473.6 3527.17   7
 -10  -6   4 14180.7 2752.59   7
 -10  -5  -8 87021.3 7662.14   3
 -10  -5  -7 42848.1 5268.17   3
 -10  -5  -6 57432.0 5967.41   3
 -10  -5  -5 29458.4 4348.88   3
 -10  -5  -4 43529.6 5047.14   3
 -10  -5  -3 68260.7 6271.06   3
 -10  -5  -2 32558.8 4046.70   7
 -10  -5  -1 97124.2 7190.71   7
 -10  -5   0 22447.3 3332.05   7
 -10  -5   1 65672.3 5771.37   7
 -10  -5   2 18648.9 3114.64   7
 -10  -5   3 80530.7 6505.51   7
 -10  -5   4 13731.5 2681.13   7
 -10  -4  -8 51500.8 5853.61   3
 -10  -4  -7 84259.4 7373.40   3
 -10  -4  -6 11876.4 2994.97   3
 -10  -4  -5 44369.1 5247.89   3
 -10  -4  -4 31454.3 4225.01   3
 -10  -4  -3 55130.7 5601.81   3
 -10  -4  -2 29479.1 4070.58   3
 -10  -4  -2 22390.9 3410.85   7
 -10  -4  -1 71136.6 6169.14   7
 -10  -4   0 8567.92 2312.38   7
 -10  -4   1 56721.5 5404.49   7
 -10  -4   2 6322.88 2079.18   7
 -10  -4   3 64715.0 5879.14   7
 -10  -4   4-1919.94 1104.09   7
 -10  -4   5 37828.6 4468.71   7
 -10  -3  -8 4489.94 2210.28   3
 -10  -3  -7 54128.9 5926.02   3
 -10  -3  -6 334.715 1177.37   3
 -10  -3  -5 94608.3 7703.53   3
 -10  -3  -4 18099.5 3344.62   3
 -10  -3  -3 54837.0 5524.05   3
 -10  -3  -2 805.955 1078.94   3
 -10  -3  -1 75519.8 6315.76   7
 -10  -3   0 6855.09 2203.82   7
 -10  -3   1 73235.0 6269.26   7
 -10  -3   2 5168.60 1896.77   7
 -10  -3   3 63958.5 5886.95   7
 -10  -3   4 5974.14 1935.92   7
 -10  -3   5 26072.8 3778.48   7
 -10  -2  -7 61202.0 6167.79   3
 -10  -2  -6 2704.36 1827.58   3
 -10  -2  -5 114972. 8506.18   3
 -10  -2  -4 6212.18 2580.92   3
 -10  -2  -3 103932. 7825.44   3
 -10  -2  -2 19362.7 3452.34   3
 -10  -2  -1 71781.6 6365.59   3
 -10  -2   0 19268.3 3199.40   7
 -10  -2   1 61093.7 5778.28   7
 -10  -2   2 31479.2 4010.67   7
 -10  -2   3 56945.2 5578.81   7
 -10  -2   4 43784.4 4893.18   7
 -10  -2   5 56901.8 5642.08   7
 -10  -2   6 37584.2 4562.08   7
 -10  -1  -7 66128.2 6454.39   3
 -10  -1  -6 11523.4 2745.09   3
 -10  -1  -5 59889.9 6023.87   3
 -10  -1  -4 25669.2 4018.60   3
 -10  -1  -3 94404.9 7512.81   3
 -10  -1  -2 33849.8 4466.97   3
 -10  -1  -1 72899.3 6487.47   3
 -10  -1   0 40598.5 4717.75   7
 -10  -1   1 32701.2 4164.42   7
 -10  -1   2 53322.1 5317.22   7
 -10  -1   3 37245.0 4409.25   7
 -10  -1   4 41289.1 4771.82   7
 -10  -1   5 42631.6 4903.48   7
 -10  -1   6 34301.6 4406.72   7
 -10   0  -7 34601.9 4704.43   3
 -10   0  -6 52397.6 5632.52   3
 -10   0  -5 13194.6 2819.64   3
 -10   0  -4 37289.6 4729.86   3
 -10   0  -3 9396.43 2537.48   3
 -10   0  -2 70090.0 6307.91   3
 -10   0  -1 13870.7 2836.46   3
 -10   0   1 5017.18 1865.62   7
 -10   0   2 65331.5 6052.38   7
 -10   0   3 2093.14 1778.73   7
 -10   0   4 42906.3 4818.21   7
 -10   0   5 458.693 1192.01   7
 -10   0   6 47854.4 5144.46   7
 -10   1  -6 99151.3 7911.41   3
 -10   1  -5 1676.06 1388.01   3
 -10   1  -4 145572. 9661.78   3
 -10   1  -3 1832.20 1524.25   3
 -10   1  -2 173150. 10501.0   3
 -10   1  -1 2983.49 1332.39   3
 -10   1   0 137934. 9175.09   3
 -10   1   1-590.907 1032.73   7
 -10   1   2 109882. 7997.94   7
 -10   1   3 10438.6 2473.07   7
 -10   1   4 91756.2 7289.80   7
 -10   1   5 10898.0 2493.31   7
 -10   1   6 54997.9 5612.14   7
 -10   1   7 19795.8 3343.80   7
 -10   2  -6 58902.6 5969.92   3
 -10   2  -5-1709.92 1523.19   3
 -10   2  -4 107807. 8204.24   3
 -10   2  -3 3808.94 1941.31   3
 -10   2  -2 124911. 8736.21   3
 -10   2  -1 2245.81 1597.74   3
 -10   2   0 61066.8 5928.42   3
 -10   2   1 3607.92 1812.93   7
 -10   2   2 104374. 7831.33   7
 -10   2   3 22495.3 3634.54   7
 -10   2   4 52972.6 5485.08   7
 -10   2   5 13235.0 2639.37   7
 -10   2   6 28186.3 3984.43   7
 -10   2   7 9451.45 2524.16   7
 -10   3  -5 9872.04 2905.24   3
 -10   3  -4 29084.4 4099.74   3
 -10   3  -3 26722.8 4094.23   3
 -10   3  -2 31148.2 4336.60   3
 -10   3  -1 47992.4 5260.40   3
 -10   3   0 25727.7 3792.17   3
 -10   3   1 21912.4 3560.40   7
 -10   3   2 38286.0 4642.22   7
 -10   3   3 78832.5 6757.20   7
 -10   3   4 22922.9 3597.84   7
 -10   3   5 40461.2 4751.88   7
 -10   3   6 7612.65 2050.75   7
 -10   3   7 30376.0 4200.82   7
 -10   4  -5 32656.4 4579.89   3
 -10   4  -4 19697.2 3534.63   3
 -10   4  -3 72123.7 6629.91   3
 -10   4  -2 32464.5 4474.97   3
 -10   4  -1 121248. 8576.72   3
 -10   4   0 23829.2 3660.84   3
 -10   4   1 80981.3 6964.11   7
 -10   4   2 3553.88 1681.34   7
 -10   4   3 107834. 8022.91   7
 -10   4   4 1945.56 1335.89   7
 -10   4   5 73103.2 6492.76   7
 -10   4   6 639.154 1351.15   7
 -10   4   7 60607.3 5870.29   7
 -10   5  -4 9434.12 2516.81   3
 -10   5  -3 76058.5 6901.38   3
 -10   5  -2 4678.57 1728.64   3
 -10   5  -1 71937.5 6449.48   3
 -10   5   0 1882.79 1483.56   3
 -10   5   1 65664.6 6188.65   7
 -10   5   2 1728.27 1383.24   7
 -10   5   3 44716.6 5121.90   7
 -10   5   4-875.954 1015.09   7
 -10   5   5 37057.5 4489.31   7
 -10   5   6-1062.10 1318.70   7
 -10   6  -3 30305.3 4352.93   3
 -10   6  -2 2647.37 1519.23   3
 -10   6   1 41847.6 4856.74   7
 -10   6   2 3560.14 1834.47   7
 -10   6   3 36113.6 4460.50   7
  -9  -9   0 27498.6 3298.92   7
  -9  -9   1 3859.12 1426.79   7
  -9  -9   2 69514.7 5432.42   7
  -9  -9   3 2700.13 1358.02   7
  -9  -8  -8 56559.9 5874.72   3
  -9  -8  -7 20530.5 3438.54   3
  -9  -8  -6 61287.4 5783.81   3
  -9  -8  -5 15916.5 2660.17   7
  -9  -8  -4 83019.1 6158.21   7
  -9  -8  -3 19273.3 2830.71   7
  -9  -8  -2 78191.0 5799.60   7
  -9  -8  -1 11523.1 2196.56   7
  -9  -8   0 72687.9 5545.78   7
  -9  -8   1 2456.66 1123.65   7
  -9  -8   2 58155.5 4981.88   7
  -9  -8   3-1019.66 881.599   7
  -9  -8   4 38716.7 4208.05   7
  -9  -7 -10 23086.8 3908.30   3
  -9  -7  -9 3996.04 1820.44   3
  -9  -7  -8 23956.3 3874.70   3
  -9  -7  -7 1089.53 1232.67   3
  -9  -7  -6 42835.3 4914.70   3
  -9  -7  -5-771.809 1130.44   3
  -9  -7  -4 31206.4 3724.78   7
  -9  -7  -3-60.0546 890.334   7
  -9  -7  -2 45651.0 4470.55   7
  -9  -7  -1 3048.96 1159.44   7
  -9  -7   0 37696.6 3974.19   7
  -9  -7   1 8970.96 2095.57   7
  -9  -7   2 31858.3 3681.93   7
  -9  -7   3 3283.89 1116.93   7
  -9  -7   4 26264.6 3464.90   7
  -9  -7   5 3707.88 1273.90   7
  -9  -6 -10 48890.4 5636.09   3
  -9  -6  -9-1057.68 1544.79   3
  -9  -6  -8 34438.9 4542.98   3
  -9  -6  -7 4580.41 1817.18   3
  -9  -6  -6 109697. 7997.17   3
  -9  -6  -5 20628.0 3327.05   3
  -9  -6  -4 45240.1 4865.10   3
  -9  -6  -3 19857.2 3071.49   7
  -9  -6  -2 49165.6 4690.42   7
  -9  -6  -1 28596.2 3524.13   7
  -9  -6   0 26061.6 3310.26   7
  -9  -6   1 50436.0 4695.55   7
  -9  -6   2 28865.8 3477.28   7
  -9  -6   3 25455.4 3323.48   7
  -9  -6   4 33475.7 3956.01   7
  -9  -6   5 35310.2 4051.60   7
  -9  -5  -9 20505.3 3665.10   3
  -9  -5  -8 49616.2 5324.53   3
  -9  -5  -7 22547.5 3599.57   3
  -9  -5  -6 82656.1 6913.49   3
  -9  -5  -5 60722.6 5739.21   3
  -9  -5  -4 66948.7 6005.21   3
  -9  -5  -3 35071.2 4306.32   3
  -9  -5  -2 108007. 7235.45   7
  -9  -5  -1 40281.9 4277.79   7
  -9  -5   0 87549.9 6427.90   7
  -9  -5   1 50209.9 4748.92   7
  -9  -5   2 13875.7 2538.94   7
  -9  -5   3 72931.9 5768.39   7
  -9  -5   4 13382.6 2519.15   7
  -9  -5   5 56388.6 5188.26   7
  -9  -5   6 11875.0 2569.46   7
  -9  -4  -9 18763.4 3340.60   3
  -9  -4  -8 40502.5 4807.56   3
  -9  -4  -7 52839.8 5455.11   3
  -9  -4  -6 40964.0 4746.37   3
  -9  -4  -5 55126.2 5486.50   3
  -9  -4  -4 19609.5 3296.79   3
  -9  -4  -3 154212. 9403.75   3
  -9  -4  -2 32522.3 4027.87   3
  -9  -4  -1 110620. 7372.10   7
  -9  -4   0 11722.8 2421.58   7
  -9  -4   1 65665.0 5474.76   7
  -9  -4   2 3931.63 1624.84   7
  -9  -4   3 98742.8 6936.37   7
  -9  -4   4-699.986 1240.82   7
  -9  -4   5 54177.6 5107.41   7
  -9  -4   6 2202.46 1423.05   7
  -9  -3  -9 52078.8 5498.69   3
  -9  -3  -8 6109.68 2143.24   3
  -9  -3  -7 67475.8 6081.79   3
  -9  -3  -6 2457.19 1369.40   3
  -9  -3  -5 37449.0 4502.45   3
  -9  -3  -4 1611.27 1192.02   3
  -9  -3  -3 106664. 7662.44   3
  -9  -3  -2 11082.6 2506.08   3
  -9  -3  -1 153392. 8945.86   7
  -9  -3   0 32526.9 3957.50   7
  -9  -3   1 86394.1 6472.94   7
  -9  -3   2 9295.46 2222.38   7
  -9  -3   3 63467.2 5481.30   7
  -9  -3   4 11567.5 2405.63   7
  -9  -3   5 49129.0 4874.78   7
  -9  -3   6 34261.4 4071.86   7
  -9  -3   7 64012.4 5841.21   7
  -9  -2 -10-1408.76 1589.16   6
  -9  -2  -9 96620.5 7679.84   3
  -9  -2  -8 2231.99 1631.79   3
  -9  -2  -7 99066.8 7450.08   3
  -9  -2  -6 13266.8 2711.28   3
  -9  -2  -5 107727. 7714.77   3
  -9  -2  -4 7949.62 2111.94   3
  -9  -2  -3 52768.5 5296.80   3
  -9  -2  -2 31152.0 3962.57   3
  -9  -2  -1 115843. 7995.55   3
  -9  -2   0 26389.3 3549.99   7
  -9  -2   1 107128. 7389.83   7
  -9  -2   2 24072.8 3463.45   7
  -9  -2   3 67995.6 5732.98   7
  -9  -2   4 26951.6 3563.98   7
  -9  -2   5 38094.1 4295.17   7
  -9  -2   6 57533.6 5404.14   7
  -9  -2   7 73615.1 6257.38   7
  -9  -1  -9 30784.7 4132.70   6
  -9  -1  -9 36446.6 4661.44   3
  -9  -1  -8 7066.72 2098.08   3
  -9  -1  -8 8873.41 2176.32   6
  -9  -1  -7 67374.3 6076.81   3
  -9  -1  -6 20469.6 3205.61   3
  -9  -1  -5 87851.3 6876.64   3
  -9  -1  -4 27651.1 3718.46   3
  -9  -1  -3 76496.2 6404.24   3
  -9  -1  -2 30697.3 3931.86   3
  -9  -1  -1 70429.2 6039.84   3
  -9  -1   1 61017.8 5465.42   7
  -9  -1   2 33652.0 4067.23   7
  -9  -1   3 39603.3 4249.65   7
  -9  -1   4 39509.1 4376.58   7
  -9  -1   5 6937.80 1895.29   7
  -9  -1   6 28909.4 3711.56   7
  -9  -1   7 411.163 1156.10   7
  -9  -1   8 51636.9 5300.30   7
  -9   0  -9 29401.6 4067.03   6
  -9   0  -8 48469.8 5185.57   3
  -9   0  -8 45763.1 4947.45   6
  -9   0  -7 26744.5 3647.02   6
  -9   0  -7 20234.0 3311.90   3
  -9   0  -6 69587.9 6055.96   3
  -9   0  -5 11513.4 2467.11   3
  -9   0  -4 47832.4 5010.86   3
  -9   0  -3 18386.0 3163.53   3
  -9   0  -2 135168. 8688.71   3
  -9   0  -1 7427.62 2062.88   3
  -9   0   0 167809. 9796.49   3
  -9   0   1 6717.30 2075.75   7
  -9   0   2 117306. 7861.90   7
  -9   0   3 7089.41 2066.85   7
  -9   0   4 129127. 8306.63   7
  -9   0   5 3802.90 1099.16   7
  -9   0   6 62570.3 5613.57   7
  -9   0   7 22587.9 3383.37   7
  -9   0   8 53815.2 5455.31   7
  -9   1  -8 73577.1 6554.99   3
  -9   1  -8 71963.4 6432.07   6
  -9   1  -7 20299.9 3464.62   6
  -9   1  -7 18388.6 3163.86   3
  -9   1  -6 123144. 8327.76   3
  -9   1  -6 127448. 8319.64   6
  -9   1  -5 12927.8 2498.19   3
  -9   1  -4 94663.7 7149.92   3
  -9   1  -3 5103.61 1853.26   3
  -9   1  -2 164221. 9827.41   3
  -9   1  -1 319.415 991.403   3
  -9   1   0 180707. 10232.6   3
  -9   1   1 14339.1 2838.97   7
  -9   1   2 100848. 7325.08   7
  -9   1   3-408.937 938.892   7
  -9   1   4 119051. 7954.60   7
  -9   1   5 3838.56 1718.38   7
  -9   1   6 88052.8 6781.07   7
  -9   1   7 5475.87 1825.76   7
  -9   1   8 45526.3 4898.54   7
  -9   2  -7 752.683 1089.57   6
  -9   2  -7 1366.56 1457.91   3
  -9   2  -6 57945.0 5627.40   3
  -9   2  -6 57209.7 5516.28   6
  -9   2  -5-1476.15 1485.24   6
  -9   2  -5 113.098 1082.67   3
  -9   2  -4 82712.5 6625.84   3
  -9   2  -3 1669.39 1203.11   3
  -9   2  -2 75119.0 6314.33   3
  -9   2  -1 3874.13 1651.65   3
  -9   2   0 76187.9 6335.49   3
  -9   2   2 78222.3 6304.85   7
  -9   2   3 24768.6 3526.19   7
  -9   2   4 51052.1 5076.35   7
  -9   2   5 14450.2 2666.18   7
  -9   2   6 22242.5 3392.00   7
  -9   2   7 12113.9 2441.15   7
  -9   2   8 21361.0 3392.01   7
  -9   3  -7 12936.6 2818.20   3
  -9   3  -6 58090.5 5648.18   6
  -9   3  -6 53328.7 5509.49   3
  -9   3  -5 26139.4 3629.27   3
  -9   3  -5 21619.3 3380.06   6
  -9   3  -4 75736.6 6380.38   3
  -9   3  -3 37620.5 4454.58   3
  -9   3  -2 51582.8 5209.51   3
  -9   3  -1 47287.9 4897.17   3
  -9   3   0 41811.9 4574.24   3
  -9   3   2 62035.6 5614.08   7
  -9   3   3 55797.0 5342.64   7
  -9   3   4 26975.7 3733.98   7
  -9   3   5 56578.8 5304.12   7
  -9   3   6 11611.1 2477.79   7
  -9   3   7 43165.2 4707.53   7
  -9   3   8 6814.44 2095.91   7
  -9   4  -6 44164.0 5031.96   3
  -9   4  -6 44954.8 4980.86   6
  -9   4  -5 38357.1 4529.91   3
  -9   4  -5 46400.2 4947.17   6
  -9   4  -4 50848.9 5244.80   3
  -9   4  -4 52195.7 5215.37   6
  -9   4  -3 73033.6 6295.61   3
  -9   4  -2 51424.9 5272.21   3
  -9   4  -1 101422. 7414.45   3
  -9   4   0 36605.4 4220.85   3
  -9   4   1 70465.6 6021.18   3
  -9   4   2 3305.69 1509.60   7
  -9   4   3 98274.4 7234.40   7
  -9   4   4 2044.44 1218.71   7
  -9   4   5 88420.0 6785.36   7
  -9   4   6 2959.03 1202.02   7
  -9   4   7 56125.3 5286.40   7
  -9   4   8 3339.35 1517.55   7
  -9   4   9 46374.9 4973.32   7
  -9   5  -6 11232.6 2667.13   3
  -9   5  -5 67429.2 6113.70   3
  -9   5  -5 59504.0 5899.62   6
  -9   5  -4 7511.67 2128.57   3
  -9   5  -4 9536.79 2316.15   6
  -9   5  -3 87024.9 6941.02   3
  -9   5  -2 2469.43 1410.02   3
  -9   5  -1 83350.5 6717.12   3
  -9   5   0 4202.53 1597.21   3
  -9   5   1 69803.0 5926.87   3
  -9   5   2 1330.86 1194.86   7
  -9   5   3 76235.7 6336.51   7
  -9   5   4 156.772 1062.57   7
  -9   5   5 61218.2 5571.74   7
  -9   5   6 413.167 1270.31   7
  -9   5   7 34898.1 4116.32   7
  -9   6  -5 37182.8 4599.12   3
  -9   6  -4 1397.62 1026.80   3
  -9   6  -4 2823.88 1441.02   6
  -9   6  -3 59810.4 5704.75   3
  -9   6  -2 12353.9 2745.22   3
  -9   6  -1 86683.2 6827.76   3
  -9   6   0 26725.4 3624.78   3
  -9   6   2 12263.5 2614.05   7
  -9   6   3 55383.3 5345.69   7
  -9   6   4 24921.7 3499.21   7
  -8  -9  -1 16565.4 2271.78   7
  -8  -9   0 58118.5 4463.92   7
  -8  -9   1 17908.0 2472.33   7
  -8  -9   2 89413.2 5876.15   7
  -8  -9   3 3764.13 1231.44   7
  -8  -9   4 56097.6 4800.57   7
  -8  -9   5 1560.66 905.976   7
  -8  -8  -8 35419.3 4459.67   3
  -8  -8  -7 14177.0 2734.85   3
  -8  -8  -6 53844.6 5141.88   3
  -8  -8  -5 7655.17 1676.30   7
  -8  -8  -4 100503. 6364.75   7
  -8  -8  -3 9072.94 1839.81   7
  -8  -8  -2 86343.1 5673.23   7
  -8  -8  -1 8773.71 1828.77   7
  -8  -8   0 48357.2 4116.21   7
  -8  -8   1 1545.23 965.161   7
  -8  -8   2 60499.3 4721.83   7
  -8  -8   3-57.2996 777.610   7
  -8  -8   4 50583.3 4562.93   7
  -8  -8   5-1782.45 1066.35   7
  -8  -7 -11 8777.86 2436.21   3
  -8  -7 -10 46672.0 5248.77   3
  -8  -7  -9-491.490 1340.40   3
  -8  -7  -8 44516.1 4986.41   3
  -8  -7  -7 72.8096 1219.45   3
  -8  -7  -6 26278.7 3593.51   3
  -8  -7  -5 3839.75 1330.82   3
  -8  -7  -4 84930.0 5920.37   7
  -8  -7  -4 84823.2 6362.31   3
  -8  -7  -3 5983.87 1579.09   7
  -8  -7  -2 66710.7 5118.18   7
  -8  -7  -1 5056.64 1464.57   7
  -8  -7   0 56005.3 4526.44   7
  -8  -7   1 10098.7 1915.52   7
  -8  -7   2 49479.1 4280.66   7
  -8  -7   3 12620.2 2193.52   7
  -8  -7   4 44334.6 4233.03   7
  -8  -7   5 13469.5 2406.11   7
  -8  -7   6 20850.4 3067.07   7
  -8  -6 -11 681.765 1038.83   3
  -8  -6 -10 47289.8 5153.56   3
  -8  -6  -9 5541.53 1837.06   3
  -8  -6  -8 61763.1 5800.13   3
  -8  -6  -7 2207.43 1367.17   3
  -8  -6  -6 105551. 7489.61   3
  -8  -6  -5 6480.59 1887.13   3
  -8  -6  -4 73832.6 5942.76   3
  -8  -6  -3 25373.5 3380.62   3
  -8  -6  -3 26775.8 3254.51   7
  -8  -6  -2 73084.1 5433.85   7
  -8  -6  -1 29592.6 3375.66   7
  -8  -6   0 59257.2 4741.75   7
  -8  -6   1 55137.1 4626.21   7
  -8  -6   2 30555.9 3352.45   7
  -8  -6   3 39230.3 3853.05   7
  -8  -6   4 17859.3 2654.89   7
  -8  -6   5 73672.5 5628.60   7
  -8  -6   6 18886.6 2887.13   7
  -8  -5 -11 18328.6 3414.22   3
  -8  -5 -10 69438.8 6259.73   3
  -8  -5  -9 12861.6 2608.31   3
  -8  -5  -8 81066.2 6522.14   3
  -8  -5  -7 18655.8 3196.72   3
  -8  -5  -6 115839. 7879.44   3
  -8  -5  -5 97871.1 7087.51   3
  -8  -5  -4 57027.4 5279.55   3
  -8  -5  -3 66975.7 5586.82   3
  -8  -5  -2 99385.2 6530.60   7
  -8  -5  -1 67392.1 5213.49   7
  -8  -5   0 47196.6 4266.36   7
  -8  -5   1 108006. 6723.03   7
  -8  -5   2 20533.6 2829.58   7
  -8  -5   3 71036.2 5360.21   7
  -8  -5   4 12642.3 2265.62   7
  -8  -5   5 83058.9 6051.28   7
  -8  -5   6 4228.03 1739.54   7
  -8  -5   7 42458.0 4419.23   7
  -8  -4 -10 31920.7 4151.84   3
  -8  -4  -9 28228.7 3858.40   3
  -8  -4  -8 23896.6 3515.80   3
  -8  -4  -7 41018.9 4462.42   3
  -8  -4  -6 33600.5 4006.97   3
  -8  -4  -5 76876.3 6143.20   3
  -8  -4  -4 4472.82 1530.16   3
  -8  -4  -3 80823.2 6231.88   3
  -8  -4  -2 4537.45 1531.46   3
  -8  -4  -1 120421. 7343.25   7
  -8  -4   0 2055.66 1210.21   7
  -8  -4   1 90291.2 6116.98   7
  -8  -4   2-101.443 785.573   7
  -8  -4   3 67302.4 5313.43   7
  -8  -4   4 4346.72 1454.39   7
  -8  -4   5 66736.2 5382.42   7
  -8  -4   6 1860.30 1243.81   7
  -8  -4   7 51709.3 4896.59   7
  -8  -3 -11 41445.0 4717.99   6
  -8  -3 -10 2952.97 1824.93   3
  -8  -3 -10-129.804 1143.83   6
  -8  -3  -9 78759.4 6360.01   3
  -8  -3  -9 55430.3 5241.96   6
  -8  -3  -8 1407.18 963.484   3
  -8  -3  -7 117598. 7698.97   3
  -8  -3  -6 4892.81 1710.85   3
  -8  -3  -5 35105.8 4054.62   3
  -8  -3  -4 8027.18 1958.12   3
  -8  -3  -3 92098.6 6737.82   3
  -8  -3  -2 6687.16 1903.75   3
  -8  -3  -1 155769. 8897.58   3
  -8  -3   0 15588.0 2515.31   7
  -8  -3   1 136466. 7961.40   7
  -8  -3   2 14131.9 2324.19   7
  -8  -3   3 92756.6 6339.81   7
  -8  -3   4 18376.0 2774.88   7
  -8  -3   5 92760.6 6434.25   7
  -8  -3   6 15142.9 2567.23   7
  -8  -3   7 71720.9 5906.65   7
  -8  -3   8 35491.6 4102.08   7
  -8  -2 -11 54863.4 5493.31   6
  -8  -2 -10 1722.84 1337.55   3
  -8  -2 -10 55.2666 1107.89   6
  -8  -2  -9 93294.6 6841.47   6
  -8  -2  -9 97470.8 7165.74   3
  -8  -2  -8-476.223 1069.23   6
  -8  -2  -8 893.283 995.800   3
  -8  -2  -7 139224. 8470.79   3
  -8  -2  -6 3106.02 1589.37   3
  -8  -2  -5 182757. 9848.85   3
  -8  -2  -4 226.811 1011.23   3
  -8  -2  -3 163132. 9303.94   3
  -8  -2  -2 2029.45 1239.60   3
  -8  -2  -1 97884.8 6878.42   3
  -8  -2   0 3121.80 1401.22   7
  -8  -2   1 87797.2 6217.47   7
  -8  -2   2 19922.9 2856.06   7
  -8  -2   3 77773.8 5823.24   7
  -8  -2   4 31005.9 3584.38   7
  -8  -2   5 35057.5 3854.57   7
  -8  -2   6 69649.5 5580.48   7
  -8  -2   7 33007.2 3863.49   7
  -8  -2   8 30427.2 3898.52   7
  -8  -1 -10 3355.99 1590.10   3
  -8  -1 -10-1033.80 1337.73   6
  -8  -1  -9 49827.8 4870.86   6
  -8  -1  -9 45430.1 4873.84   3
  -8  -1  -8 17539.1 2913.05   6
  -8  -1  -8 12398.2 2376.15   3
  -8  -1  -7 43348.9 4417.91   6
  -8  -1  -7 50553.4 4878.37   3
  -8  -1  -6 36956.1 3904.16   6
  -8  -1  -6 39356.3 4240.62   3
  -8  -1  -5 149418. 8685.24   3
  -8  -1  -4 39590.9 4266.35   3
  -8  -1  -3 68532.4 5686.06   3
  -8  -1  -2 44914.2 4568.17   3
  -8  -1  -1 52095.4 4897.44   3
  -8  -1   0 128006. 7953.20   3
  -8  -1   1 30650.1 3571.03   7
  -8  -1   2 95239.0 6556.67   7
  -8  -1   3 7821.13 1871.77   7
  -8  -1   4 27338.3 3442.09   7
  -8  -1   5 3246.06 1378.28   7
  -8  -1   6 68744.8 5573.67   7
  -8  -1   7 42.4308 888.407   7
  -8  -1   8 37421.9 4282.58   7
  -8  -1   9-375.717 1245.55   7
  -8   0 -10 20886.8 3359.45   6
  -8   0  -9 58802.8 5546.87   3
  -8   0  -9 56991.3 5380.15   6
  -8   0  -8 82851.6 6498.67   3
  -8   0  -8 79117.7 6240.97   6
  -8   0  -7 32044.6 3854.23   6
  -8   0  -7 33118.5 3957.87   3
  -8   0  -6 115190. 7440.65   3
  -8   0  -6 109174. 7160.25   6
  -8   0  -5 15559.9 2664.96   3
  -8   0  -5 15482.0 2540.91   6
  -8   0  -4 145890. 8551.77   3
  -8   0  -3 5256.12 1622.25   3
  -8   0  -2 192686. 10263.2   3
  -8   0  -1 12480.0 2542.56   3
  -8   0   0 279778. 12825.1   3
  -8   0   1 5701.23 1868.30   7
  -8   0   2 218915. 10790.0   7
  -8   0   3 1287.49 989.257   7
  -8   0   4 180443. 9577.26   7
  -8   0   5 2444.20 1050.23   7
  -8   0   6 112472. 7294.73   7
  -8   0   7 1012.35 984.501   7
  -8   0   8 87552.4 6595.00   7
  -8   0   9 2497.25 1352.16   7
  -8   1  -9 18350.6 3181.78   3
  -8   1  -9 21231.4 3288.70   6
  -8   1  -8 69819.4 6018.36   3
  -8   1  -8 69299.5 5901.09   6
  -8   1  -7 9279.83 2134.11   3
  -8   1  -7 8985.75 2089.90   6
  -8   1  -6 98659.9 6860.81   3
  -8   1  -6 94635.8 6716.75   6
  -8   1  -5 3063.41 1488.14   3
  -8   1  -5 6802.55 1641.16   6
  -8   1  -4 140953. 8323.67   3
  -8   1  -3 1811.88 1276.19   3
  -8   1  -2 199523. 10452.7   3
  -8   1  -1 4867.78 1757.09   3
  -8   1   0 101788. 7076.06   3
  -8   1   2 97496.2 6744.16   7
  -8   1   3 1087.95 807.304   7
  -8   1   4 159727. 8901.53   7
  -8   1   5 17186.3 2731.60   7
  -8   1   6 101361. 6955.17   7
  -8   1   7 1501.86 1069.27   7
  -8   1   8 59450.1 5341.92   7
  -8   1   9 6340.52 1755.02   7
  -8   2  -9 974.458 1301.43   6
  -8   2  -8 53048.5 5249.85   3
  -8   2  -8 58262.4 5465.77   6
  -8   2  -7 3110.20 1589.35   3
  -8   2  -7 2737.59 1413.65   6
  -8   2  -6 81022.2 6265.79   6
  -8   2  -6 90509.0 6583.27   3
  -8   2  -5 2219.41 1540.04   3
  -8   2  -5-541.427 893.876   6
  -8   2  -4 81157.4 6069.78   3
  -8   2  -4 80902.5 5988.31   6
  -8   2  -3 124.314 1151.82   3
  -8   2  -2 130260. 8128.74   3
  -8   2  -1 2191.70 1372.51   3
  -8   2   0 119861. 7748.41   3
  -8   2   1 17270.0 2794.19   3
  -8   2   2 42385.6 4353.26   7
  -8   2   3 12670.9 2363.48   7
  -8   2   4 51352.5 4753.61   7
  -8   2   5 67367.9 5445.06   7
  -8   2   6 22521.9 3167.95   7
  -8   2   7 70973.1 5736.32   7
  -8   2   8 12988.9 2344.05   7
  -8   2   9 32431.3 4005.24   7
  -8   2  10 17829.1 2959.01   7
  -8   3  -8 87208.3 6883.60   6
  -8   3  -8 82474.9 6808.78   3
  -8   3  -7 23996.6 3459.39   3
  -8   3  -7 19093.4 3134.95   6
  -8   3  -6 56337.3 5242.78   3
  -8   3  -6 60850.7 5403.36   6
  -8   3  -5 36692.7 4122.35   6
  -8   3  -5 41334.0 4340.59   3
  -8   3  -4 47651.1 4607.81   6
  -8   3  -4 44730.1 4470.90   3
  -8   3  -3 41756.9 4219.86   6
  -8   3  -3 51984.8 4786.71   3
  -8   3  -2 60011.7 5341.88   3
  -8   3  -1 82628.5 6340.24   3
  -8   3   0 60515.3 5308.01   3
  -8   3   1 112865. 7356.30   3
  -8   3   2 38910.0 4190.41   7
  -8   3   3 61437.1 5287.14   7
  -8   3   4 18744.3 2876.88   7
  -8   3   5 51967.0 4825.69   7
  -8   3   6 5893.70 1635.28   7
  -8   3   7 91811.0 6535.42   7
  -8   3   8 10483.6 2302.75   7
  -8   3   9 63254.0 5537.37   7
  -8   3  10 1989.43 1678.01   7
  -8   4  -7 37265.8 4405.00   3
  -8   4  -7 45468.5 4893.65   6
  -8   4  -6 45311.5 4698.98   3
  -8   4  -6 37188.2 4389.16   6
  -8   4  -5 58399.3 5325.35   3
  -8   4  -5 73922.7 5947.61   6
  -8   4  -4 43709.2 4461.52   3
  -8   4  -4 35408.2 4085.01   6
  -8   4  -3 83472.8 6276.50   3
  -8   4  -3 86259.0 6315.57   6
  -8   4  -2 27516.8 3566.24   3
  -8   4  -1 108311. 7334.33   3
  -8   4   0 13574.0 2544.47   3
  -8   4   1 170905. 9416.31   3
  -8   4   2 12630.9 2441.09   7
  -8   4   3 126808. 7856.95   7
  -8   4   4 1348.49 1091.70   7
  -8   4   5 101017. 6875.05   7
  -8   4   6 884.668 900.857   7
  -8   4   7 57574.0 5039.17   7
  -8   4   8 2266.26 1404.13   7
  -8   4   9 62251.7 5430.50   7
  -8   4  10 1155.18 1310.61   7
  -8   5  -7 35894.9 4420.93   3
  -8   5  -6 8888.64 2295.48   6
  -8   5  -6 10720.4 2161.76   3
  -8   5  -5 52997.1 5076.11   3
  -8   5  -5 53196.0 5234.08   6
  -8   5  -4 9804.96 2215.86   3
  -8   5  -4 11964.4 2423.20   6
  -8   5  -3 89987.1 6672.98   3
  -8   5  -3 100480. 6986.69   6
  -8   5  -2 1616.04 1255.52   3
  -8   5  -1 95227.1 6834.45   3
  -8   5   0 3242.69 1369.08   3
  -8   5   1 71337.5 5693.63   3
  -8   5   2 5537.43 1691.95   7
  -8   5   3 65934.3 5536.78   7
  -8   5   4-407.317 921.429   7
  -8   5   5 82366.5 6084.11   7
  -8   5   6 13356.0 2302.72   7
  -8   5   7 38116.8 4058.32   7
  -8   5   8 22810.5 3100.10   7
  -8   6  -6 518.520 1214.73   3
  -8   6  -5 48826.4 5080.84   6
  -8   6  -5 46874.4 4770.34   3
  -8   6  -4 803.738 1129.17   6
  -8   6  -4 3066.04 1323.55   3
  -8   6  -3 102560. 7186.22   3
  -8   6  -3 106873. 7420.70   6
  -8   6  -2 18567.2 3019.92   3
  -8   6  -1 120459. 7837.21   3
  -8   6   0 8961.34 2088.93   3
  -8   6   1 79380.2 5987.10   3
  -8   6   2 31348.9 3813.57   7
  -8   6   3 55628.5 5033.01   7
  -8   6   4 22701.4 3058.34   7
  -8   6   5 49477.0 4582.85   7
  -8   7  -6 3753.71 1650.80   3
  -8   7  -5 71215.7 6091.12   3
  -8   7  -4 8486.97 2249.52   6
  -8   7  -4 9619.75 2264.56   3
  -8   7  -3 60622.2 5565.22   6
  -8   8  -3 20450.1 3259.37   6
  -7  -9  -1 7712.96 1486.88   7
  -7  -9   0 93917.3 5382.92   7
  -7  -9   1 22755.9 2547.53   7
  -7  -9   2 62019.3 4494.03   7
  -7  -9   3 6059.05 1489.32   7
  -7  -9   4 62538.5 4808.21   7
  -7  -9   5 2208.67 989.943   7
  -7  -9   6 47941.8 4448.20   7
  -7  -8  -8 47525.8 4865.00   3
  -7  -8  -7 9161.92 2129.59   3
  -7  -8  -6 58688.3 5022.27   3
  -7  -8  -5 13237.5 2173.26   7
  -7  -8  -5 18482.2 2690.03   3
  -7  -8  -4 71070.7 4838.65   7
  -7  -8  -3 17025.4 2224.32   7
  -7  -8  -2 74540.4 4820.75   7
  -7  -8  -1 3277.61 891.580   7
  -7  -8   0 62771.4 4377.90   7
  -7  -8   1 460.503 612.207   7
  -7  -8   2 44108.4 3743.45   7
  -7  -8   3 4556.37 1424.55   7
  -7  -8   4 34659.1 3471.31   7
  -7  -8   5 1066.51 834.601   7
  -7  -8   6 25938.1 3280.46   7
  -7  -7 -11 3125.97 1522.78   3
  -7  -7 -10 54649.3 5394.67   3
  -7  -7  -9 874.604 1243.25   3
  -7  -7  -8 65561.2 5729.40   3
  -7  -7  -7 1324.15 1214.45   3
  -7  -7  -6 57090.8 5062.66   3
  -7  -7  -5-995.739 1154.77   3
  -7  -7  -4 94864.8 6390.90   3
  -7  -7  -3 13584.5 2035.87   7
  -7  -7  -2 36867.3 3363.20   7
  -7  -7  -1 2708.70 1058.23   7
  -7  -7   0 58488.5 4303.23   7
  -7  -7   1 15732.2 2144.95   7
  -7  -7   2 54555.7 4200.75   7
  -7  -7   3 31415.1 3242.38   7
  -7  -7   4 30590.0 3272.23   7
  -7  -7   5 12248.6 2112.26   7
  -7  -7   6 15478.4 2428.86   7
  -7  -7   7 25771.3 3306.52   7
  -7  -6 -12 52200.4 5354.59   3
  -7  -6 -11-1749.60 1152.03   3
  -7  -6 -10 83053.4 6504.52   3
  -7  -6  -9 12038.5 2410.49   3
  -7  -6  -8 107922. 7329.06   3
  -7  -6  -7 5991.75 1845.31   3
  -7  -6  -6 110350. 7306.14   3
  -7  -6  -5 13287.4 2436.59   3
  -7  -6  -4 177077. 9300.78   3
  -7  -6  -3 90521.9 6176.72   3
  -7  -6  -2 52774.5 4196.68   7
  -7  -6  -1 60767.1 4496.39   7
  -7  -6   0 87153.8 5482.52   7
  -7  -6   1 51898.9 4109.31   7
  -7  -6   2 64285.2 4619.76   7
  -7  -6   3 73305.1 5027.60   7
  -7  -6   4 34713.9 3446.08   7
  -7  -6   5 58544.1 4725.18   7
  -7  -6   6 23141.1 3051.44   7
  -7  -6   7 40326.5 4104.50   7
  -7  -5 -12 69281.6 6289.09   3
  -7  -5 -11 1931.75 1597.00   3
  -7  -5 -10 77722.1 6262.22   3
  -7  -5  -9 12093.2 2434.24   3
  -7  -5  -8 83599.7 6206.45   3
  -7  -5  -7 30298.7 3593.18   3
  -7  -5  -6 73620.3 5721.37   3
  -7  -5  -5 39577.8 4148.14   3
  -7  -5  -4 105958. 6952.05   3
  -7  -5  -3 62479.6 5126.73   3
  -7  -5  -2 122506. 7020.85   7
  -7  -5  -2 136081. 7693.50   3
  -7  -5  -1 44836.2 3915.49   7
  -7  -5   0 67807.2 4807.39   7
  -7  -5   1 109791. 6327.75   7
  -7  -5   2 42769.4 3786.87   7
  -7  -5   3 61608.9 4609.93   7
  -7  -5   4 21379.0 2776.03   7
  -7  -5   5 84720.8 5723.15   7
  -7  -5   6 11764.2 2286.21   7
  -7  -5   7 43924.3 4317.95   7
  -7  -5   8 3273.12 1490.72   7
  -7  -4 -11 34827.7 3985.75   6
  -7  -4 -11 25983.0 3708.75   3
  -7  -4 -10 13618.8 2703.77   3
  -7  -4 -10 11700.7 2258.10   6
  -7  -4  -9 36108.2 4039.97   3
  -7  -4  -8 12122.1 2247.68   3
  -7  -4  -7 67189.8 5347.18   3
  -7  -4  -6 4770.69 1588.16   3
  -7  -4  -5 139019. 8060.30   3
  -7  -4  -4 2679.54 1229.38   3
  -7  -4  -3 83291.8 5960.57   3
  -7  -4  -2 11254.0 2116.02   3
  -7  -4  -1 100259. 6162.57   7
  -7  -4   0 347.435 818.327   7
  -7  -4   1 173744. 8463.22   7
  -7  -4   2 759.355 690.812   7
  -7  -4   3 90040.0 5778.89   7
  -7  -4   4-628.304 976.868   7
  -7  -4   5 74372.3 5338.53   7
  -7  -4   6 4744.76 1417.74   7
  -7  -4   7 74770.3 5637.81   7
  -7  -4   8 9714.25 2081.22   7
  -7  -3 -12 3073.98 1517.23   6
  -7  -3 -11 102409. 7454.49   3
  -7  -3 -11 91413.8 6722.76   6
  -7  -3 -10 3790.95 1565.16   6
  -7  -3 -10 1439.48 1023.99   3
  -7  -3  -9 95023.6 6553.29   6
  -7  -3  -9 110273. 7255.39   3
  -7  -3  -8 2762.47 1154.27   3
  -7  -3  -8 1986.53 1116.44   6
  -7  -3  -7 127100. 7607.06   3
  -7  -3  -6 1542.80 869.148   3
  -7  -3  -5 151938. 8364.69   3
  -7  -3  -4-310.563 941.554   3
  -7  -3  -3 242347. 11262.7   3
  -7  -3  -2 3193.43 1366.66   3
  -7  -3  -1 197839. 9804.86   3
  -7  -3   0 2743.08 1289.46   7
  -7  -3   1 146201. 7739.72   7
  -7  -3   2 28034.8 3092.42   7
  -7  -3   3 128211. 7178.25   7
  -7  -3   4 56710.4 4543.83   7
  -7  -3   5 148358. 7928.09   7
  -7  -3   6 21153.9 2865.74   7
  -7  -3   7 62258.4 5093.21   7
  -7  -3   8 13886.2 2451.44   7
  -7  -3   9 34985.2 3990.47   7
  -7  -2 -12 3849.71 1447.20   6
  -7  -2 -11 65574.6 5925.06   3
  -7  -2 -11 72623.6 5963.52   6
  -7  -2 -10 1019.12 945.678   3
  -7  -2 -10-948.450 1209.59   6
  -7  -2  -9 66536.5 5352.70   6
  -7  -2  -9 69097.1 5701.72   3
  -7  -2  -8 4760.62 1622.14   3
  -7  -2  -8-325.708 1029.29   6
  -7  -2  -7 144005. 8112.35   3
  -7  -2  -7 139779. 7785.58   6
  -7  -2  -6 317.993 838.321   3
  -7  -2  -6 356.810 786.032   6
  -7  -2  -5 80313.6 5720.20   3
  -7  -2  -4 23310.4 3009.18   3
  -7  -2  -3 159240. 8687.26   3
  -7  -2  -2 39978.2 4027.44   3
  -7  -2  -1 88161.2 6071.37   3
  -7  -2   0 22018.1 2882.58   3
  -7  -2   1 28512.2 3174.35   7
  -7  -2   2 25082.2 2927.97   7
  -7  -2   3 30645.3 3236.61   7
  -7  -2   4 71953.8 5243.52   7
  -7  -2   5 70858.9 5182.43   7
  -7  -2   6 41059.6 3964.30   7
  -7  -2   7 16247.3 2526.03   7
  -7  -2   8 33489.0 3769.78   7
  -7  -2   9 7484.32 1814.22   7
  -7  -1 -11 34496.1 4134.26   6
  -7  -1 -11 34157.5 4267.31   3
  -7  -1 -10 9181.11 2311.70   3
  -7  -1 -10 11834.8 2352.03   6
  -7  -1  -9 55884.6 4950.76   6
  -7  -1  -9 58147.6 5234.44   3
  -7  -1  -8 24858.8 3311.63   3
  -7  -1  -8 27397.2 3307.83   6
  -7  -1  -7 60995.6 5012.62   3
  -7  -1  -7 53610.2 4623.46   6
  -7  -1  -6 54636.3 4515.60   6
  -7  -1  -6 54373.0 4622.36   3
  -7  -1  -5 37962.7 3665.89   6
  -7  -1  -5 40160.9 3982.26   3
  -7  -1  -4 105974. 6596.18   3
  -7  -1  -3 34439.2 3648.42   3
  -7  -1  -2 114642. 7122.24   3
  -7  -1  -1 106360. 6818.71   3
  -7  -1   0 205590. 9997.17   3
  -7  -1   1 76385.9 5442.78   7
  -7  -1   2 151041. 8054.95   7
  -7  -1   3 13614.4 2214.45   7
  -7  -1   4 33228.9 3483.38   7
  -7  -1   5 5169.97 1664.34   7
  -7  -1   6 142977. 7881.85   7
  -7  -1   7 2562.93 1282.72   7
  -7  -1   8 84692.3 6117.73   7
  -7  -1   9 1002.43 1039.83   7
  -7  -1  10 63193.8 5603.05   7
  -7   0 -11 46510.3 4903.85   6
  -7   0 -10 48321.8 4977.60   3
  -7   0 -10 44984.9 4600.67   6
  -7   0  -9 66445.4 5571.58   3
  -7   0  -9 50000.8 4777.44   6
  -7   0  -8 95015.3 6474.67   6
  -7   0  -8 96108.5 6698.61   3
  -7   0  -7 47160.6 4293.40   6
  -7   0  -7 41300.3 4197.40   3
  -7   0  -6 98330.5 6303.79   6
  -7   0  -6 94208.9 6304.91   3
  -7   0  -5 37512.8 3759.79   3
  -7   0  -5 38138.8 3768.30   6
  -7   0  -4 161325. 8333.47   3
  -7   0  -4 147093. 7878.76   6
  -7   0  -3 9160.13 1943.64   3
  -7   0  -2 138117. 7906.32   3
  -7   0  -1 23591.6 3113.07   3
  -7   0   0 275806. 12121.1   3
  -7   0   1 56235.3 4679.20   7
  -7   0   2 202087. 9692.65   7
  -7   0   3 839.772 721.363   7
  -7   0   4 111718. 6735.26   7
  -7   0   5-803.942 878.685   7
  -7   0   6 209887. 9980.25   7
  -7   0   7 5288.69 1503.04   7
  -7   0   8 93138.1 6435.08   7
  -7   0   9 4605.88 1525.46   7
  -7   0  10 51818.8 5041.19   7
  -7   1 -10 54082.6 5227.48   3
  -7   1 -10 46381.8 4793.69   6
  -7   1  -9 14576.7 2703.17   3
  -7   1  -9 17370.7 2787.00   6
  -7   1  -8 81008.5 6014.73   6
  -7   1  -8 82500.5 6177.86   3
  -7   1  -7 32062.0 3623.03   6
  -7   1  -7 33488.2 3753.03   3
  -7   1  -6 81441.0 5763.07   6
  -7   1  -6 86105.3 5996.81   3
  -7   1  -5 44028.5 4122.04   3
  -7   1  -5 44195.9 4067.65   6
  -7   1  -4 128213. 7429.98   3
  -7   1  -4 142787. 7623.41   6
  -7   1  -3 24019.1 2968.50   3
  -7   1  -2 165416. 8700.72   3
  -7   1  -1 1510.50 1115.54   3
  -7   1   0 159327. 8618.79   3
  -7   1   1 11322.3 2167.24   3
  -7   1   2 119968. 7134.73   7
  -7   1   3 11447.5 2048.73   7
  -7   1   4 97583.5 6287.58   7
  -7   1   5 14182.7 2265.36   7
  -7   1   6 89733.7 6038.72   7
  -7   1   7 34199.6 3608.76   7
  -7   1   8 55559.6 4839.65   7
  -7   1   9 32187.0 3785.34   7
  -7   1  10 47896.1 4775.21   7
  -7   2 -10 53902.4 5276.55   6
  -7   2  -9-1543.20 1380.90   3
  -7   2  -9 761.716 1220.60   6
  -7   2  -8 69087.8 5668.97   3
  -7   2  -8 65317.6 5455.18   6
  -7   2  -7 2969.54 1369.00   3
  -7   2  -7 3332.80 1353.36   6
  -7   2  -6 122323. 7276.66   6
  -7   2  -6 109710. 6998.67   3
  -7   2  -5 2744.33 1435.29   3
  -7   2  -5-589.460 1032.81   6
  -7   2  -4 57897.2 4715.05   6
  -7   2  -4 64255.3 4973.65   3
  -7   2  -3 10206.6 2046.83   3
  -7   2  -3 8869.44 1877.12   6
  -7   2  -2 67165.2 5177.66   3
  -7   2  -1 20418.7 2907.67   3
  -7   2   0 68068.8 5302.84   3
  -7   2   1 47207.3 4344.70   3
  -7   2   2 85033.5 5893.03   7
  -7   2   3 15958.5 2404.18   7
  -7   2   4 28516.6 3294.19   7
  -7   2   5 44541.5 4106.48   7
  -7   2   6 13617.0 2201.02   7
  -7   2   7 42541.0 4097.53   7
  -7   2   8 8429.93 1893.13   7
  -7   2   9 58387.9 5012.43   7
  -7   2  10 22650.6 3157.99   7
  -7   3  -9 10315.6 2420.14   3
  -7   3  -9 8657.69 2337.07   6
  -7   3  -8 93437.7 6907.52   3
  -7   3  -8 101246. 7079.08   6
  -7   3  -7 51577.1 4824.05   3
  -7   3  -7 51499.3 4816.63   6
  -7   3  -6 95579.6 6485.29   6
  -7   3  -6 92334.3 6383.74   3
  -7   3  -5 55850.0 4767.83   3
  -7   3  -5 60104.2 4944.45   6
  -7   3  -4 77095.3 5584.04   6
  -7   3  -4 74204.9 5451.18   3
  -7   3  -3 96313.1 6308.75   3
  -7   3  -3 109063. 6629.04   6
  -7   3  -2 73877.1 5292.61   6
  -7   3  -2 70317.7 5297.28   3
  -7   3  -1 195203. 9730.95   3
  -7   3   0 74317.0 5598.68   3
  -7   3   1 137259. 7813.66   3
  -7   3   2 78248.8 5681.65   7
  -7   3   3 117506. 7086.84   7
  -7   3   4 55835.6 4638.33   7
  -7   3   5 68444.8 5179.19   7
  -7   3   6 25949.3 3032.13   7
  -7   3   7 65954.0 5082.31   7
  -7   3   8 5938.93 1614.70   7
  -7   3   9 52105.9 4669.86   7
  -7   3  10 1624.52 958.131   7
  -7   3  11 62995.9 5552.95   7
  -7   4  -8 98358.8 7112.59   6
  -7   4  -8 84969.6 6673.05   3
  -7   4  -7 79474.6 6204.09   6
  -7   4  -7 76836.4 6051.93   3
  -7   4  -6 30967.9 3629.25   3
  -7   4  -6 23889.0 3261.72   6
  -7   4  -5 58911.6 5001.43   6
  -7   4  -5 61944.4 5069.22   3
  -7   4  -4 61750.0 5045.44   6
  -7   4  -4 69816.8 5255.28   3
  -7   4  -3 69226.0 5276.91   6
  -7   4  -3 68948.7 5263.03   3
  -7   4  -2 120325. 7154.37   3
  -7   4  -2 114403. 6938.80   6
  -7   4  -1 100515. 6592.66   3
  -7   4   0 17254.3 2616.28   3
  -7   4   1 156425. 8473.57   3
  -7   4   2 28098.4 3400.51   7
  -7   4   3 151441. 8226.86   7
  -7   4   4 21904.2 2904.09   7
  -7   4   5 96863.3 6200.78   7
  -7   4   6 5169.66 1419.59   7
  -7   4   7 92799.3 6091.78   7
  -7   4   8 1962.75 1017.72   7
  -7   4   9 53036.8 4639.11   7
  -7   4  10-122.424 864.319   7
  -7   4  11 32036.9 3875.48   7
  -7   5  -8 9246.41 2161.67   3
  -7   5  -7 68713.1 5865.29   6
  -7   5  -7 66704.7 5713.86   3
  -7   5  -6 3611.00 1368.17   6
  -7   5  -6-723.312 1045.77   3
  -7   5  -5 93372.6 6445.35   3
  -7   5  -5 95339.2 6641.30   6
  -7   5  -4 3911.61 1240.76   3
  -7   5  -4 3466.81 1655.85   6
  -7   5  -3 107926. 6868.26   6
  -7   5  -3 104727. 6665.38   3
  -7   5  -2 4414.18 1575.51   3
  -7   5  -2 1263.61 972.065   6
  -7   5  -1 85180.3 6001.27   3
  -7   5   0 7423.11 1761.94   3
  -7   5   1 128753. 7501.17   3
  -7   5   2 9514.65 1910.55   7
  -7   5   3 79197.9 5652.29   7
  -7   5   4 18893.8 2679.12   7
  -7   5   5 81868.9 5563.87   7
  -7   5   6 34420.5 3508.70   7
  -7   5   7 63753.5 4904.68   7
  -7   5   8 39755.9 3893.34   7
  -7   5   9 40257.8 3972.68   7
  -7   6  -7 72905.4 6178.59   3
  -7   6  -6-436.932 1145.32   6
  -7   6  -6-587.607 1279.85   3
  -7   6  -5 98594.2 6923.03   6
  -7   6  -5 87915.6 6415.02   3
  -7   6  -4 2061.54 1170.99   6
  -7   6  -4 2239.19 1294.82   3
  -7   6  -3 126424. 7756.47   6
  -7   6  -3 133649. 7723.77   3
  -7   6  -2 24390.0 3161.89   3
  -7   6  -2 24021.7 3183.25   6
  -7   6  -1 141331. 8073.21   6
  -7   6  -1 149987. 8330.06   3
  -7   6   0 4263.73 1412.40   3
  -7   6   1 96905.1 6307.53   3
  -7   6   2 49452.3 4407.66   7
  -7   6   3 83430.2 5817.67   7
  -7   6   4 53042.5 4424.03   7
  -7   6   5 82294.3 5532.77   7
  -7   6   6 44637.6 3920.05   7
  -7   7  -7 56417.4 5415.81   3
  -7   7  -6 1176.51 927.951   3
  -7   7  -5 49363.5 4915.97   6
  -7   7  -5 43849.2 4463.12   3
  -7   7  -4 20757.7 3147.13   6
  -7   7  -4 17346.7 2684.26   3
  -7   7  -3 67018.7 5542.02   6
  -7   7  -3 60904.8 5062.85   3
  -7   7  -2 29187.4 3568.19   6
  -7   7  -2 30587.1 3496.20   3
  -7   7  -1 64862.0 5295.70   6
  -7   7  -1 65907.5 5283.38   3
  -7   7   2 33396.8 3619.91   7
  -7   8  -4 34018.5 4102.89   6
  -7   8  -3 16195.1 2664.60   6
  -7   8  -2 60221.6 5256.45   6
  -7   8  -1 17065.8 2760.98   6
  -7   9  -3-382.193 970.464   6
  -7   9  -2 94717.9 6908.81   6
  -6  -9  -1 22783.9 2205.53   7
  -6  -9   0 59020.7 3815.77   7
  -6  -9   1 17731.1 2084.32   7
  -6  -9   2 51005.9 3767.81   7
  -6  -9   3 7537.65 1519.88   7
  -6  -9   4 69347.4 4826.17   7
  -6  -9   5 2175.51 1087.25   7
  -6  -9   6 52842.3 4559.04   7
  -6  -8  -8 57041.2 5067.63   3
  -6  -8  -7 6372.99 1707.35   3
  -6  -8  -6 60975.3 4848.29   3
  -6  -8  -5 5781.65 1510.03   3
  -6  -8  -5 6495.63 1403.87   7
  -6  -8  -4 55875.2 3856.61   7
  -6  -8  -3 20374.8 2172.93   7
  -6  -8  -2 66863.4 4086.23   7
  -6  -8  -1 578.481 554.742   7
  -6  -8   0 80890.7 4617.40   7
  -6  -8   1-54.6407 530.183   7
  -6  -8   2 60598.7 4163.19   7
  -6  -8   3 592.224 773.060   7
  -6  -8   4 38305.6 3448.14   7
  -6  -8   5 4983.85 1460.15   7
  -6  -8   6 34260.8 3597.79   7
  -6  -8   7 11186.2 2203.46   7
  -6  -7 -10 68057.2 5606.56   3
  -6  -7  -9 1044.91 991.279   3
  -6  -7  -8 84750.7 6158.48   3
  -6  -7  -7 12353.8 2163.52   3
  -6  -7  -6 132729. 7666.41   3
  -6  -7  -5 10819.4 2090.53   3
  -6  -7  -4 116625. 6704.89   3
  -6  -7  -3 35616.5 3095.00   7
  -6  -7  -2 115779. 5883.29   7
  -6  -7  -1 63455.9 4104.64   7
  -6  -7   0 104266. 5454.42   7
  -6  -7   1 37823.1 3108.82   7
  -6  -7   2 93297.0 5258.78   7
  -6  -7   3 34036.2 3076.36   7
  -6  -7   4 53681.7 4126.44   7
  -6  -7   5 45509.4 3913.39   7
  -6  -7   6 24839.8 2998.55   7
  -6  -7   7 52202.0 4578.58   7
  -6  -7   8 11892.7 2361.49   7
  -6  -6 -13 6503.73 2210.02   3
  -6  -6 -12 66504.3 5879.83   3
  -6  -6 -11-280.809 1092.16   3
  -6  -6 -10 94268.2 6635.69   3
  -6  -6  -9 1977.87 889.517   3
  -6  -6  -8 113508. 7027.49   3
  -6  -6  -7 2952.30 1203.12   3
  -6  -6  -6 131040. 7582.21   3
  -6  -6  -5 11282.2 2050.69   3
  -6  -6  -4 232597. 10462.3   3
  -6  -6  -3 47874.2 4073.94   3
  -6  -6  -2 147569. 7063.47   7
  -6  -6  -1 43497.0 3443.22   7
  -6  -6   0 165801. 7485.47   7
  -6  -6   1 55650.2 3914.44   7
  -6  -6   2 64385.1 4270.51   7
  -6  -6   3 78714.1 4910.34   7
  -6  -6   4 54508.2 4139.01   7
  -6  -6   5 29940.0 3101.64   7
  -6  -6   6 29042.1 3181.32   7
  -6  -6   7 59767.8 4829.03   7
  -6  -6   8 13413.5 2463.17   7
  -6  -5 -12 54748.7 5235.69   3
  -6  -5 -11 1754.55 1341.64   3
  -6  -5 -10 59422.3 5056.95   3
  -6  -5 -10 51270.5 4474.07   6
  -6  -5  -9 9857.96 2115.77   3
  -6  -5  -8 50809.0 4410.61   3
  -6  -5  -7 19732.5 2706.20   3
  -6  -5  -6 44843.5 4059.12   3
  -6  -5  -5 38988.4 3742.08   3
  -6  -5  -4 68267.3 5126.88   3
  -6  -5  -3 36180.9 3588.77   3
  -6  -5  -2 13282.1 2145.17   3
  -6  -5  -1 19495.5 2373.06   7
  -6  -5   0 43847.3 3477.22   7
  -6  -5   1 76924.6 4752.85   7
  -6  -5   2 9523.50 1645.05   7
  -6  -5   3 106493. 5877.48   7
  -6  -5   4 2318.61 1078.94   7
  -6  -5   5 54325.3 4232.40   7
  -6  -5   6 1681.03 1001.58   7
  -6  -5   7 63184.6 4928.45   7
  -6  -5   8-677.444 1050.75   7
  -6  -5   9 68060.4 5634.20   7
  -6  -4 -12 22160.3 3294.82   3
  -6  -4 -11 63550.6 5545.68   3
  -6  -4 -11 68852.0 5419.72   6
  -6  -4 -10 27177.3 3193.67   6
  -6  -4 -10 22055.9 3056.66   3
  -6  -4  -9 103215. 6387.17   6
  -6  -4  -9 104466. 6698.36   3
  -6  -4  -8 20480.7 2610.89   6
  -6  -4  -8 26824.7 3132.46   3
  -6  -4  -7 97038.0 6134.20   3
  -6  -4  -6 23599.8 2857.28   3
  -6  -4  -5 144966. 7717.50   3
  -6  -4  -4 11211.8 2177.15   3
  -6  -4  -3 227290. 10287.5   3
  -6  -4  -2 967.018 1127.52   3
  -6  -4  -1 149649. 7336.28   7
  -6  -4   0 10761.0 1773.82   7
  -6  -4   1 209627. 8921.29   7
  -6  -4   2 1155.58 825.241   7
  -6  -4   3 148157. 7216.40   7
  -6  -4   4 9266.81 1737.14   7
  -6  -4   5 116505. 6479.84   7
  -6  -4   6 14607.3 2243.39   7
  -6  -4   7 83310.6 5681.46   7
  -6  -4   8 20232.3 2800.30   7
  -6  -4   9 84349.4 6200.72   7
  -6  -3 -13 19555.0 3051.42   6
  -6  -3 -12 10716.8 2225.90   3
  -6  -3 -12 12950.7 2401.69   6
  -6  -3 -11 84669.1 6063.98   6
  -6  -3 -11 92155.8 6610.98   3
  -6  -3 -10 8139.27 1957.83   3
  -6  -3 -10 9243.52 1913.72   6
  -6  -3  -9 172386. 8644.76   6
  -6  -3  -9 173608. 9053.28   3
  -6  -3  -8 12077.3 2075.76   6
  -6  -3  -8 13381.8 2226.25   3
  -6  -3  -7 94304.2 6015.69   3
  -6  -3  -7 98907.5 5916.57   6
  -6  -3  -6 4556.09 1410.19   3
  -6  -3  -5 149110. 7670.40   3
  -6  -3  -4 1399.34 961.902   3
  -6  -3  -3 213186. 9801.32   3
  -6  -3  -2-829.669 808.537   3
  -6  -3  -1 205004. 9407.18   3
  -6  -3   0 5716.14 1235.88   7
  -6  -3   1 152133. 7422.23   7
  -6  -3   2 16365.1 2190.41   7
  -6  -3   3 110032. 6092.37   7
  -6  -3   4 10223.7 1790.21   7
  -6  -3   5 89839.9 5558.83   7
  -6  -3   6 13843.3 2254.97   7
  -6  -3   7 57073.6 4561.62   7
  -6  -3   8 33969.6 3608.12   7
  -6  -3   9 17131.3 2615.73   7
  -6  -3  10 20425.3 3141.43   7
  -6  -2 -13 49143.7 4921.34   6
  -6  -2 -12 927.965 1093.46   6
  -6  -2 -12 451.128 907.879   3
  -6  -2 -11 51643.0 4727.55   6
  -6  -2 -11 53309.1 4955.68   3
  -6  -2 -10 1811.73 1213.79   3
  -6  -2 -10 993.486 834.477   6
  -6  -2  -9 47323.5 4309.38   3
  -6  -2  -9 41318.6 3911.65   6
  -6  -2  -8-1349.20 1142.54   3
  -6  -2  -8-860.748 1126.86   6
  -6  -2  -7 111706. 6403.14   6
  -6  -2  -7 116987. 6775.45   3
  -6  -2  -6 11635.1 1935.04   6
  -6  -2  -6 14849.3 2196.31   3
  -6  -2  -5 101358. 5977.93   3
  -6  -2  -5 91309.1 5550.37   6
  -6  -2  -4 33719.9 3295.54   3
  -6  -2  -3 135044. 7250.57   3
  -6  -2  -2 73985.0 5245.46   3
  -6  -2  -1 74735.8 5228.35   3
  -6  -2   0 21237.6 2634.42   3
  -6  -2   1 149555. 7410.30   7
  -6  -2   2 32586.3 3101.00   7
  -6  -2   3 50280.6 3946.05   7
  -6  -2   4 100478. 5833.52   7
  -6  -2   5 35959.6 3347.88   7
  -6  -2   6 11354.5 1883.42   7
  -6  -2   7 14934.5 2302.93   7
  -6  -2   8 61744.5 4919.30   7
  -6  -2   9 3005.30 1530.77   7
  -6  -2  10 58313.3 5134.72   7
  -6  -1 -12 8747.70 2246.02   6
  -6  -1 -11 54255.8 4882.20   6
  -6  -1 -11 58559.2 5288.36   3
  -6  -1 -10 36468.9 3832.14   6
  -6  -1 -10 36109.9 4024.02   3
  -6  -1  -9 42539.0 4027.67   6
  -6  -1  -9 56692.1 4754.07   3
  -6  -1  -8 48147.5 4246.77   3
  -6  -1  -8 48032.2 4102.14   6
  -6  -1  -7 183566. 8675.77   6
  -6  -1  -7 180732. 8861.30   3
  -6  -1  -6 30429.0 3081.28   6
  -6  -1  -6 31838.1 3242.99   3
  -6  -1  -5 96773.1 5704.10   6
  -6  -1  -5 94907.2 5773.37   3
  -6  -1  -4 56924.8 4185.55   6
  -6  -1  -4 53241.1 4149.76   3
  -6  -1  -3 113321. 6425.91   3
  -6  -1  -2 166064. 8298.96   3
  -6  -1  -1 65682.9 4920.10   3
  -6  -1   0 161386. 8100.06   3
  -6  -1   1 104741. 6099.19   7
  -6  -1   2 182561. 8447.25   7
  -6  -1   3 17661.8 2405.24   7
  -6  -1   4 226898. 9760.72   7
  -6  -1   5 1480.41 1011.92   7
  -6  -1   6 97829.6 5949.64   7
  -6  -1   7 1291.63 877.613   7
  -6  -1   8 98845.5 6344.77   7
  -6  -1   9 931.270 886.997   7
  -6  -1  10 85653.2 6303.43   7
  -6   0 -12 18874.9 3199.16   6
  -6   0 -11 50021.1 4983.28   3
  -6   0 -11 49371.5 4736.09   6
  -6   0 -10 65410.2 5284.62   6
  -6   0 -10 58222.9 5171.64   3
  -6   0  -9 83356.6 5814.68   6
  -6   0  -9 78926.1 5828.52   3
  -6   0  -8 116836. 6842.83   6
  -6   0  -8 110774. 6814.31   3
  -6   0  -7 108185. 6484.43   3
  -6   0  -7 106403. 6320.17   6
  -6   0  -6 161916. 7913.90   6
  -6   0  -6 155536. 7936.22   3
  -6   0  -5 90143.3 5510.30   6
  -6   0  -5 91686.5 5652.63   3
  -6   0  -4 183425. 8467.89   6
  -6   0  -4 194932. 8765.38   3
  -6   0  -3 77956.8 5144.96   3
  -6   0  -3 84628.0 5198.12   6
  -6   0  -2 230456. 10087.6   3
  -6   0  -1 24195.2 3004.45   3
  -6   0   0 335700. 13210.2   3
  -6   0   2 256262. 10705.9   7
  -6   0   3 5625.63 1326.06   7
  -6   0   4 185999. 8602.13   7
  -6   0   5 2122.01 1081.79   7
  -6   0   6 301960. 12054.7   7
  -6   0   7 3213.48 1339.79   7
  -6   0   8 114068. 6813.92   7
  -6   0   9 2752.11 948.994   7
  -6   0  10 61467.1 5182.91   7
  -6   0  11 7950.28 2106.96   7
  -6   1 -11 24307.7 3603.44   3
  -6   1 -10 31184.8 3782.76   3
  -6   1  -9 6908.30 1977.09   3
  -6   1  -9 5575.78 1681.23   6
  -6   1  -8 51981.2 4507.65   6
  -6   1  -8 57920.7 4813.83   3
  -6   1  -7 1731.31 930.838   3
  -6   1  -7 2133.55 1013.14   6
  -6   1  -6 109281. 6453.92   3
  -6   1  -6 113931. 6451.99   6
  -6   1  -5-76.7872 856.058   6
  -6   1  -5 493.582 732.982   3
  -6   1  -4 133356. 6887.99   6
  -6   1  -4 133133. 7005.41   3
  -6   1  -3 8598.12 1547.20   6
  -6   1  -3 9262.54 1772.99   3
  -6   1  -2 61284.4 4528.00   3
  -6   1  -1 1538.68 1098.27   3
  -6   1   0 199355. 9380.26   3
  -6   1   1 11568.8 1977.10   3
  -6   1   2 137076. 7195.77   7
  -6   1   3 13959.3 2144.99   7
  -6   1   4 71515.0 4876.20   7
  -6   1   5 1507.15 847.735   7
  -6   1   6 88927.2 5564.88   7
  -6   1   7 16117.5 2277.62   7
  -6   1   8 50612.2 4289.89   7
  -6   1   9 24225.5 3053.89   7
  -6   1  10 23280.2 3164.81   7
  -6   1  11 17107.4 2798.35   7
  -6   2 -10 64375.1 5623.92   3
  -6   2  -9 10841.7 2337.87   3
  -6   2  -8 48065.0 4454.03   3
  -6   2  -7 8807.31 1914.27   3
  -6   2  -7 9050.52 1932.65   6
  -6   2  -6 113688. 6649.29   6
  -6   2  -6 121369. 6852.84   3
  -6   2  -5 71470.5 4986.87   6
  -6   2  -5 83794.8 5390.57   3
  -6   2  -4 98149.6 5781.76   6
  -6   2  -4 91440.1 5655.83   3
  -6   2  -3 94260.9 5612.56   3
  -6   2  -3 85398.7 5339.00   6
  -6   2  -2 70572.6 4852.80   3
  -6   2  -2 73270.3 4841.27   6
  -6   2  -1 63608.6 4759.52   3
  -6   2   0 109711. 6511.91   3
  -6   2   1 66054.0 4853.39   3
  -6   2   2 111721. 6418.82   7
  -6   2   3 89475.1 5573.07   7
  -6   2   4 64991.6 4636.70   7
  -6   2   5 120239. 6588.68   7
  -6   2   6 38304.7 3483.11   7
  -6   2   7 76597.1 5196.92   7
  -6   2   8 14894.5 2369.53   7
  -6   2   9 72876.4 5375.92   7
  -6   2  10 16818.2 2635.98   7
  -6   2  11 56322.9 5085.42   7
  -6   3 -10 98926.0 7238.55   3
  -6   3  -9 16738.7 2922.56   3
  -6   3  -8 69679.5 5465.05   3
  -6   3  -7 9505.43 1905.58   3
  -6   3  -7 12942.8 2265.90   6
  -6   3  -6 162670. 8292.32   6
  -6   3  -6 147369. 7973.81   3
  -6   3  -5 45130.3 3933.43   6
  -6   3  -5 50163.3 4122.42   3
  -6   3  -4 155476. 7874.81   6
  -6   3  -4 166590. 8051.99   3
  -6   3  -3 76032.6 5096.18   6
  -6   3  -3 79487.0 5168.36   3
  -6   3  -2 224465. 9657.89   6
  -6   3  -2 219218. 9623.84   3
  -6   3  -1 88363.9 5664.58   3
  -6   3   0 155913. 8058.87   3
  -6   3   1 120628. 6774.81   3
  -6   3   2 60853.8 4617.70   7
  -6   3   3 113173. 6439.91   7
  -6   3   4 36558.0 3425.00   7
  -6   3   5 190001. 8706.12   7
  -6   3   6 55265.7 4210.21   7
  -6   3   7 103399. 6112.75   7
  -6   3   8 14544.4 2304.00   7
  -6   3   9 66283.4 5008.00   7
  -6   3  10 1781.56 1085.01   7
  -6   3  11 55547.8 4959.13   7
  -6   3  12 229.990 820.329   7
  -6   4  -9 14716.5 2716.93   3
  -6   4  -8 63034.6 5291.95   3
  -6   4  -7 58189.2 4908.58   3
  -6   4  -6 37957.1 3781.49   3
  -6   4  -6 42323.4 4021.14   6
  -6   4  -5 43387.7 4018.58   6
  -6   4  -5 48231.7 4155.18   3
  -6   4  -4 44690.4 3899.41   6
  -6   4  -4 44199.2 3856.14   3
  -6   4  -3 51109.6 4127.33   6
  -6   4  -3 48124.8 3978.21   3
  -6   4  -2 44797.1 3771.59   3
  -6   4  -2 46847.9 3919.70   6
  -6   4  -1 116576. 6474.73   6
  -6   4  -1 110804. 6466.65   3
  -6   4   0 10820.1 2150.49   3
  -6   4   1 117758. 6684.96   3
  -6   4   3 139239. 7304.92   7
  -6   4   4 5586.21 1276.17   7
  -6   4   5 88994.9 5466.66   7
  -6   4   6 529.886 762.260   7
  -6   4   7 108989. 6216.67   7
  -6   4   8 4896.18 1440.20   7
  -6   4   9 63226.4 4813.93   7
  -6   4  10 2966.52 1248.50   7
  -6   4  11 25268.8 3287.58   7
  -6   4  12-69.3214 853.864   7
  -6   5  -9 48322.0 4946.65   3
  -6   5  -8 15143.6 2646.94   3
  -6   5  -7 83736.8 6063.06   3
  -6   5  -6-417.670 1140.48   6
  -6   5  -6-83.6544 751.542   3
  -6   5  -5 92522.1 6184.95   6
  -6   5  -5 96220.0 6132.27   3
  -6   5  -4-14.6669 853.428   3
  -6   5  -4 1309.18 797.956   6
  -6   5  -3 164115. 8069.27   3
  -6   5  -3 158579. 8117.81   6
  -6   5  -2 1413.65 893.026   6
  -6   5  -2 1514.43 986.774   3
  -6   5  -1 156503. 7965.38   6
  -6   5  -1 167411. 8196.25   3
  -6   5   0 50378.6 4206.98   3
  -6   5   1 167875. 8333.17   3
  -6   5   3 127745. 6973.89   7
  -6   5   4 20262.6 2497.19   7
  -6   5   5 77549.4 5023.17   7
  -6   5   6 32033.3 3067.06   7
  -6   5   7 106529. 6054.84   7
  -6   5   8 46260.1 3858.64   7
  -6   5   9 72654.8 5122.58   7
  -6   5  10 14028.3 2216.92   7
  -6   6  -8 996.816 1130.49   3
  -6   6  -7 72419.7 5764.10   3
  -6   6  -6 34.7357 896.157   6
  -6   6  -6 738.521 1013.63   3
  -6   6  -5 98447.4 6346.84   3
  -6   6  -5 87998.7 6183.76   6
  -6   6  -4 4787.54 1563.67   6
  -6   6  -4 4445.12 1445.73   3
  -6   6  -3 155486. 8030.94   6
  -6   6  -3 132475. 7331.15   3
  -6   6  -2 2359.99 775.669   3
  -6   6  -2 2297.24 1032.53   6
  -6   6  -1 122870. 6918.41   6
  -6   6  -1 123645. 6929.16   3
  -6   6   0 14088.2 2259.66   3
  -6   6   1 151944. 7728.24   3
  -6   6   3 103331. 6078.58   7
  -6   6   4 16370.7 2207.35   7
  -6   6   5 77957.1 4943.88   7
  -6   6   6 39290.8 3337.28   7
  -6   6   7 42472.0 3547.27   7
  -6   7  -7 49572.0 4746.42   3
  -6   7  -6 7737.25 1961.92   3
  -6   7  -6 9149.34 2306.82   6
  -6   7  -5 72683.2 5638.77   6
  -6   7  -5 60498.3 4994.32   3
  -6   7  -4 17011.7 2489.55   3
  -6   7  -4 14628.3 2436.64   6
  -6   7  -3 56742.5 4721.24   6
  -6   7  -3 50140.1 4302.60   3
  -6   7  -2 22762.9 3001.21   6
  -6   7  -2 24732.0 2869.29   3
  -6   7  -1 62908.6 4913.90   6
  -6   7  -1 62016.0 4715.52   3
  -6   7   0 20792.3 2739.04   6
  -6   7   0 26668.1 3056.95   3
  -6   7   2 36799.7 3535.65   7
  -6   7   3 45103.0 3778.05   7
  -6   8  -5 14873.5 2769.28   6
  -6   8  -4 53830.4 4918.98   6
  -6   8  -3 18112.0 2822.84   6
  -6   8  -2 77596.7 5671.99   6
  -6   8  -1 16723.8 2542.11   6
  -6   8   0 143666. 7916.46   6
  -6   9  -4 81707.1 6286.45   6
  -6   9  -3 8716.38 2115.36   6
  -6   9  -2 99396.1 6709.60   6
  -6   9  -1 3761.37 1221.80   6
  -5  -9  -1 56230.2 3239.38   7
  -5  -9   0 54321.9 3302.16   7
  -5  -9   1 24230.4 2235.48   7
  -5  -9   2 60276.3 3886.91   7
  -5  -9   3 5641.22 1279.06   7
  -5  -9   4 46823.5 3730.92   7
  -5  -9   5-438.884 798.588   7
  -5  -9   6 35150.3 3516.89   7
  -5  -9   7 335.671 858.080   7
  -5  -8  -7 536.261 988.572   3
  -5  -8  -6 84848.4 5361.75   3
  -5  -8  -5 1250.01 676.914   3
  -5  -8  -5 478.398 437.271   7
  -5  -8  -4 74086.5 4016.54   7
  -5  -8  -3 6.22215 484.067   7
  -5  -8  -2 125331. 5414.34   7
  -5  -8  -1 29210.6 2343.20   7
  -5  -8   0 92809.3 4598.01   7
  -5  -8   1 9831.52 1420.31   7
  -5  -8   2 100359. 5170.33   7
  -5  -8   3 8570.08 1421.80   7
  -5  -8   4 50011.0 3770.41   7
  -5  -8   5 18489.6 2381.66   7
  -5  -8   6 15755.7 2360.17   7
  -5  -8   7 18970.4 2636.94   7
  -5  -8   8 30407.3 3521.85   7
  -5  -7 -10 102295. 6634.05   3
  -5  -7  -9 3301.51 1364.76   3
  -5  -7  -8 178559. 8836.62   3
  -5  -7  -7 5063.84 1384.17   3
  -5  -7  -6 210874. 9606.64   3
  -5  -7  -5 1668.82 920.086   3
  -5  -7  -4 184703. 8262.51   3
  -5  -7  -3-170.101 433.063   7
  -5  -7  -2 204722. 7825.28   7
  -5  -7  -1 86300.4 4413.19   7
  -5  -7   0 93842.2 4677.98   7
  -5  -7   1 22738.6 2192.38   7
  -5  -7   2 134218. 6184.97   7
  -5  -7   3 19250.0 2185.28   7
  -5  -7   4 82043.6 4938.14   7
  -5  -7   5 48468.3 3860.26   7
  -5  -7   6 49713.9 4084.12   7
  -5  -7   7 41876.3 3909.48   7
  -5  -7   8 37358.9 3866.00   7
  -5  -6 -13 2265.89 1334.01   3
  -5  -6 -12 54142.0 5024.40   3
  -5  -6 -11 2066.24 1243.47   3
  -5  -6 -10 85466.5 5925.51   3
  -5  -6  -9 409.805 716.205   3
  -5  -6  -8 82785.1 5481.63   3
  -5  -6  -7 176.052 626.186   3
  -5  -6  -6 101811. 6063.01   3
  -5  -6  -5 2509.53 1001.98   3
  -5  -6  -4 119739. 6502.40   3
  -5  -6  -3 2268.64 927.160   3
  -5  -6  -2 132657. 6042.44   7
  -5  -6  -1 6546.83 1185.47   7
  -5  -6   0 73713.2 4132.12   7
  -5  -6   1 18343.5 1958.71   7
  -5  -6   2 52655.1 3510.04   7
  -5  -6   3 59593.1 3935.15   7
  -5  -6   4 46662.6 3551.09   7
  -5  -6   5 38837.0 3400.38   7
  -5  -6   6 29004.3 2976.06   7
  -5  -6   7 29850.7 3277.98   7
  -5  -6   8 11593.3 2212.93   7
  -5  -6   9 45265.7 4433.42   7
  -5  -5 -13 12495.5 2533.63   3
  -5  -5 -12 39897.1 4252.87   3
  -5  -5 -11 13262.6 2392.77   3
  -5  -5 -10 52034.3 4205.39   6
  -5  -5 -10 50609.1 4445.36   3
  -5  -5  -9 26167.7 2806.15   6
  -5  -5  -9 27482.3 3075.23   3
  -5  -5  -8 43874.6 3861.89   3
  -5  -5  -7 47103.6 3866.29   3
  -5  -5  -6 46086.2 3776.89   3
  -5  -5  -5 108730. 6118.18   3
  -5  -5  -4 52364.0 4122.73   3
  -5  -5  -3 112234. 6177.11   3
  -5  -5  -2 8904.53 1586.71   3
  -5  -5  -1 108455. 5420.49   7
  -5  -5   0 30960.8 2586.62   7
  -5  -5   1 119781. 5694.34   7
  -5  -5   2 16635.0 1900.76   7
  -5  -5   3 203561. 8308.44   7
  -5  -5   4 7387.25 1383.73   7
  -5  -5   5 85881.3 5168.60   7
  -5  -5   6-485.370 764.670   7
  -5  -5   7 92249.3 5839.58   7
  -5  -5   8 1076.44 1135.75   7
  -5  -5   9 48857.4 4567.94   7
  -5  -4 -13 43133.4 4533.23   3
  -5  -4 -12 38909.5 4173.17   3
  -5  -4 -11 69177.7 5040.45   6
  -5  -4 -11 69586.4 5358.03   3
  -5  -4 -10 22969.1 2939.69   3
  -5  -4 -10 25313.5 2858.80   6
  -5  -4  -9 121637. 6892.96   3
  -5  -4  -9 126261. 6715.99   6
  -5  -4  -8 16928.7 2208.71   6
  -5  -4  -8 16380.1 2337.02   3
  -5  -4  -7 164900. 7543.92   6
  -5  -4  -7 154427. 7624.83   3
  -5  -4  -6 34632.9 3217.26   3
  -5  -4  -5 202460. 8802.78   3
  -5  -4  -4 23774.7 2623.59   3
  -5  -4  -3 251806. 10411.1   3
  -5  -4  -2 7089.40 1610.78   3
  -5  -4  -1 409795. 13793.7   7
  -5  -4   0 69.5431 558.316   7
  -5  -4   1 228142. 8847.39   7
  -5  -4   2-712.008 706.073   7
  -5  -4   3 150165. 6786.09   7
  -5  -4   4 1419.12 742.076   7
  -5  -4   5 138446. 6816.74   7
  -5  -4   6 2528.45 1035.61   7
  -5  -4   7 119557. 6701.65   7
  -5  -4   8 10086.2 1968.93   7
  -5  -4   9 74983.2 5597.75   7
  -5  -4  10 9787.52 2358.31   7
  -5  -3 -13 21425.4 3053.01   6
  -5  -3 -12 25088.5 3374.23   3
  -5  -3 -12 20941.9 2876.73   6
  -5  -3 -11 67566.4 5074.69   6
  -5  -3 -11 65985.3 5287.22   3
  -5  -3 -10 6774.75 1799.74   3
  -5  -3 -10 5827.96 1521.51   6
  -5  -3  -9 109377. 6225.30   6
  -5  -3  -9 117953. 6714.34   3
  -5  -3  -8 1404.31 927.645   3
  -5  -3  -8 1378.41 848.840   6
  -5  -3  -7 110952. 5956.08   6
  -5  -3  -7 116215. 6285.57   3
  -5  -3  -6 1613.58 989.459   3
  -5  -3  -6 1001.87 697.318   6
  -5  -3  -5 248450. 9944.37   3
  -5  -3  -4 12615.2 1791.39   3
  -5  -3  -3 250144. 10215.2   3
  -5  -3  -2 6090.26 1385.57   3
  -5  -3  -1 203660. 8794.87   3
  -5  -3   0 8694.05 1480.44   7
  -5  -3   1 129666. 6137.04   7
  -5  -3   2 37904.6 3005.81   7
  -5  -3   3 149175. 6778.21   7
  -5  -3   4 26986.0 2587.63   7
  -5  -3   5 72547.5 4596.22   7
  -5  -3   6 30889.8 2996.63   7
  -5  -3   7 41885.9 3700.75   7
  -5  -3   8 34436.4 3498.43   7
  -5  -3   9 49851.1 4459.99   7
  -5  -3  10 19082.1 2893.23   7
  -5  -2 -13 31522.3 3800.38   6
  -5  -2 -12 1176.22 1137.67   3
  -5  -2 -12 4443.02 1658.82   6
  -5  -2 -11 59859.9 5108.95   3
  -5  -2 -11 63977.5 4992.85   6
  -5  -2 -10 2453.95 1251.68   3
  -5  -2 -10 175.866 769.580   6
  -5  -2  -9 86821.8 5629.21   3
  -5  -2  -9 79047.0 5193.46   6
  -5  -2  -8 2051.84 789.202   3
  -5  -2  -8 1140.73 736.969   6
  -5  -2  -7 48517.0 3678.83   6
  -5  -2  -7 49517.3 3873.18   3
  -5  -2  -6 14317.4 1919.19   6
  -5  -2  -6 16029.7 2097.49   3
  -5  -2  -5 211739. 8712.92   6
  -5  -2  -5 216018. 8950.93   3
  -5  -2  -4 27815.6 2619.10   6
  -5  -2  -4 27003.3 2653.50   3
  -5  -2  -3 148505. 7120.31   3
  -5  -2  -2 85512.1 5240.24   3
  -5  -2  -1 35505.1 3297.18   3
  -5  -2   0 93234.3 5383.01   3
  -5  -2   1 50059.9 3572.49   7
  -5  -2   2 126475. 6121.24   7
  -5  -2   3 103213. 5408.94   7
  -5  -2   4 104676. 5537.15   7
  -5  -2   5 18372.9 2175.97   7
  -5  -2   6 86973.3 5243.30   7
  -5  -2   7 21159.3 2608.69   7
  -5  -2   8 105944. 6361.26   7
  -5  -2   9 2328.59 1001.54   7
  -5  -2  10 63291.0 5186.84   7
  -5  -2  11 3916.14 1470.19   7
  -5  -1 -12 14539.4 2672.85   3
  -5  -1 -11 107960. 7113.51   3
  -5  -1 -10 29660.1 3397.19   3
  -5  -1  -9 137340. 7498.80   3
  -5  -1  -8 45487.5 3818.25   3
  -5  -1  -8 35797.0 3317.42   6
  -5  -1  -7 152099. 7075.95   6
  -5  -1  -7 161237. 7436.68   3
  -5  -1  -6 65028.0 4381.64   3
  -5  -1  -6 70323.8 4420.43   6
  -5  -1  -5 79754.3 4700.31   6
  -5  -1  -5 79826.6 4835.63   3
  -5  -1  -4 80735.7 4802.16   3
  -5  -1  -4 81369.5 4697.39   6
  -5  -1  -3 95336.4 5148.34   6
  -5  -1  -3 94300.1 5262.21   3
  -5  -1  -2 270034. 10588.9   3
  -5  -1  -1 80769.5 5041.81   3
  -5  -1   0 265489. 10574.3   3
  -5  -1   1 96875.3 5309.51   7
  -5  -1   2 275458. 10428.9   7
  -5  -1   3 3557.57 899.909   7
  -5  -1   4 438439. 14744.8   7
  -5  -1   5 15564.8 2038.05   7
  -5  -1   6 139140. 6889.16   7
  -5  -1   7 26482.5 2880.93   7
  -5  -1   8 208667. 9502.08   7
  -5  -1   9 2182.89 981.811   7
  -5  -1  10 100199. 6612.04   7
  -5  -1  11 1360.01 1255.77   7
  -5   0 -11 50017.8 4794.05   3
  -5   0 -10 47161.3 4409.53   3
  -5   0  -9 57170.5 4628.13   3
  -5   0  -8 73670.9 5144.87   3
  -5   0  -7 79615.5 5032.42   3
  -5   0  -7 63938.4 3401.83   2
  -5   0  -6 101428. 4768.98   2
  -5   0  -6 115212. 5961.93   6
  -5   0  -6 116355. 6064.31   3
  -5   0  -5 40646.9 3234.16   6
  -5   0  -5 46179.8 3487.05   3
  -5   0  -4 204401. 8447.72   6
  -5   0  -4 208291. 8578.98   3
  -5   0  -3 50417.6 3604.03   6
  -5   0  -3 53591.6 3763.01   3
  -5   0  -2 255429. 10016.5   3
  -5   0  -1 151735. 7311.78   3
  -5   0   0 97711.8 5663.80   3
  -5   0   1 83515.4 5058.90   3
  -5   0   2 119985. 6107.50   7
  -5   0   3 1897.03 964.829   7
  -5   0   4 219416. 8924.93   7
  -5   0   5 6644.97 1402.05   7
  -5   0   6 108198. 5881.82   7
  -5   0   7 3709.51 1044.08   7
  -5   0   8 112055. 6406.63   7
  -5   0   9 10367.5 1944.42   7
  -5   0  10 60908.9 4958.85   7
  -5   0  11 7320.56 1756.40   7
  -5   1 -11 8065.99 2055.24   3
  -5   1 -10 65709.5 5348.67   3
  -5   1  -9 1541.48 1166.04   3
  -5   1  -8 54242.6 4412.94   3
  -5   1  -7 9672.45 1828.10   3
  -5   1  -6 60068.9 4183.13   3
  -5   1  -6 47197.9 2861.79   2
  -5   1  -5 202.999 578.708   3
  -5   1  -5 1155.92 526.382   2
  -5   1  -5 1133.07 920.906   6
  -5   1  -4 167208. 7434.59   6
  -5   1  -4 176666. 7675.26   3
  -5   1  -3 8295.42 1449.25   6
  -5   1  -3 9276.23 1498.78   3
  -5   1  -2 184857. 7789.78   6
  -5   1  -2 174580. 7743.57   3
  -5   1  -1 29198.8 2830.99   3
  -5   1   0 178791. 8222.56   3
  -5   1   1 7598.01 1572.83   3
  -5   1   2 110474. 5810.15   7
  -5   1   3 19038.3 2215.93   7
  -5   1   4 60281.1 4036.17   7
  -5   1   5 55274.8 3888.43   7
  -5   1   6 31666.0 2968.66   7
  -5   1   7 75978.2 4930.25   7
  -5   1   8 33829.8 3270.67   7
  -5   1   9 36380.9 3548.78   7
  -5   1  10 20578.6 2783.69   7
  -5   1  11 43591.7 4225.20   7
  -5   1  12 11591.9 2379.06   7
  -5   2 -12 66025.4 5362.20   1
  -5   2 -11-1103.15 1423.63   5
  -5   2 -11 1695.68 1251.34   3
  -5   2 -10 105346. 7140.56   3
  -5   2 -10 112241. 7175.59   5
  -5   2  -9 3315.57 1376.59   3
  -5   2  -9 974.487 808.676   5
  -5   2  -8 171616. 8678.67   3
  -5   2  -7 3348.19 1168.67   3
  -5   2  -6 183869. 8172.24   3
  -5   2  -6 156972. 6125.34   2
  -5   2  -5 19427.4 2292.73   3
  -5   2  -4 163958. 7488.34   6
  -5   2  -4 173622. 7638.07   3
  -5   2  -3 32171.0 2870.28   6
  -5   2  -3 31054.3 2816.85   3
  -5   2  -2 173618. 7621.51   6
  -5   2  -2 180460. 7759.91   3
  -5   2  -1 141167. 6611.71   6
  -5   2  -1 138045. 6757.98   3
  -5   2   0 299026. 11545.4   3
  -5   2   1 106106. 5828.31   3
  -5   2   2 103468. 5667.67   7
  -5   2   3 112134. 5857.65   7
  -5   2   4 122344. 6144.09   7
  -5   2   5 153644. 7119.39   7
  -5   2   6 69993.9 4465.36   7
  -5   2   7 151964. 7308.43   7
  -5   2   8 48684.9 3925.56   7
  -5   2   9 64123.8 4726.70   7
  -5   2  10 7915.62 1826.92   7
  -5   2  11 40200.5 4003.13   7
  -5   2  12 8613.05 2158.81   7
  -5   3 -11 7327.41 1685.68   1
  -5   3 -10 94710.9 6868.38   3
  -5   3 -10 99739.4 6898.87   5
  -5   3  -9 14014.2 2390.05   5
  -5   3  -9 8716.29 1938.27   3
  -5   3  -8 145430. 7932.65   3
  -5   3  -8 139073. 7811.94   5
  -5   3  -7 1582.87 860.285   3
  -5   3  -6 259599. 10717.1   3
  -5   3  -5 53198.4 3979.62   3
  -5   3  -4 98875.5 5532.68   6
  -5   3  -4 93266.3 5327.19   3
  -5   3  -3 29228.7 2774.65   6
  -5   3  -3 27435.3 2647.55   3
  -5   3  -2 135099. 6484.27   3
  -5   3  -2 133987. 6471.83   6
  -5   3  -1 51740.6 3693.96   6
  -5   3  -1 50873.6 3770.20   3
  -5   3   0 147846. 7257.56   3
  -5   3   1 192623. 8479.87   3
  -5   3   2 20694.6 2309.56   7
  -5   3   3 83548.6 4947.39   7
  -5   3   4 17726.3 2120.45   7
  -5   3   5 101871. 5479.38   7
  -5   3   6 33943.7 2958.89   7
  -5   3   7 59779.0 4148.82   7
  -5   3   8 20931.9 2441.60   7
  -5   3   9 106695. 6219.75   7
  -5   3  10 2331.69 993.334   7
  -5   3  11 53764.2 4629.40   7
  -5   3  12-220.500 1004.50   7
  -5   4 -10 28161.5 3861.82   5
  -5   4 -10 24149.0 3370.66   3
  -5   4  -9 65940.1 5365.91   3
  -5   4  -9 47135.3 4581.61   5
  -5   4  -8 9532.62 2164.22   5
  -5   4  -8 18583.5 2782.97   3
  -5   4  -7 84560.0 5716.99   3
  -5   4  -6 49623.0 4038.83   3
  -5   4  -5 163533. 7755.27   3
  -5   4  -4 17896.5 2226.18   3
  -5   4  -3 105623. 5728.57   6
  -5   4  -3 102307. 5620.26   3
  -5   4  -2 2669.03 972.117   3
  -5   4  -2 3914.88 1154.91   6
  -5   4  -1 195442. 8460.15   6
  -5   4  -1 208853. 8644.17   3
  -5   4   0 29659.3 2884.69   3
  -5   4   0 31120.3 2841.84   6
  -5   4   1 268272. 10646.7   3
  -5   4   3 138380. 6732.94   7
  -5   4   4 1251.10 707.943   7
  -5   4   5 135645. 6470.68   7
  -5   4   6 4357.14 1142.43   7
  -5   4   7 103440. 5635.24   7
  -5   4   8 10363.4 1677.27   7
  -5   4   9 88938.2 5495.33   7
  -5   4  10 9133.72 1764.33   7
  -5   4  11 61554.0 4878.91   7
  -5   4  12 8956.56 1978.18   7
  -5   5  -9 68973.6 5748.33   3
  -5   5  -9 73674.2 5992.22   5
  -5   5  -8 6146.57 1795.91   3
  -5   5  -8 953.973 1208.34   5
  -5   5  -7 104887. 6569.92   3
  -5   5  -7 103772. 6688.34   5
  -5   5  -6 4812.63 1369.34   3
  -5   5  -5 124677. 6711.73   3
  -5   5  -4 3837.05 1157.17   3
  -5   5  -3 178138. 8127.08   6
  -5   5  -3 172843. 7865.13   3
  -5   5  -2 3375.61 1145.99   3
  -5   5  -2 1801.53 898.971   6
  -5   5  -1 288374. 11116.1   3
  -5   5  -1 303311. 11333.1   6
  -5   5   0 8081.64 1534.00   3
  -5   5   0 8202.16 1526.11   6
  -5   5   1 221276. 9312.29   3
  -5   5   3 188866. 8195.35   7
  -5   5   4 3654.78 1031.87   7
  -5   5   5 164269. 7195.58   7
  -5   5   6 21997.2 2301.78   7
  -5   5   7 145949. 6832.33   7
  -5   5   8 59822.9 4138.63   7
  -5   5   9 60181.5 4318.32   7
  -5   5  10 27018.9 2957.45   7
  -5   5  11 33015.4 3441.81   7
  -5   6  -9 66349.3 5685.93   3
  -5   6  -8 1900.18 1111.58   3
  -5   6  -8 1199.36 1153.87   5
  -5   6  -7 78892.3 5727.35   3
  -5   6  -6-719.933 824.213   3
  -5   6  -5 109787. 6308.91   3
  -5   6  -4 2067.65 1030.56   3
  -5   6  -3 124883. 6524.65   3
  -5   6  -3 128384. 6775.72   6
  -5   6  -2 7479.54 1405.67   3
  -5   6  -2 4666.16 1293.81   6
  -5   6  -1 65809.8 4544.84   6
  -5   6  -1 77446.4 4736.67   3
  -5   6   0 22875.8 2652.36   6
  -5   6   0 23854.2 2643.91   3
  -5   6   1 118074. 6188.62   3
  -5   6   3 112011. 5817.19   7
  -5   6   4 44874.0 3296.28   7
  -5   6   5 82552.0 4593.21   7
  -5   6   6 29816.4 2586.02   7
  -5   6   7 43988.2 3313.39   7
  -5   6   8 56796.8 3903.11   7
  -5   7  -8 4783.34 1623.68   3
  -5   7  -7 42748.3 4253.37   3
  -5   7  -6 20716.6 2664.45   3
  -5   7  -5 93903.9 5944.93   3
  -5   7  -4 41387.7 3697.95   3
  -5   7  -3 58184.0 4475.95   6
  -5   7  -3 53982.9 4115.49   3
  -5   7  -2 27330.3 2750.62   3
  -5   7  -2 28709.9 3048.59   6
  -5   7  -1 14473.0 2014.15   3
  -5   7  -1 16169.2 2287.22   6
  -5   7   0 47652.8 3853.07   6
  -5   7   0 50129.1 3854.42   3
  -5   7   1 22372.6 2434.20   3
  -5   7   3 9553.19 1486.53   7
  -5   7   4 66918.8 4025.11   7
  -5   8  -7 24812.6 3255.42   3
  -5   8  -6 49627.2 4463.96   3
  -5   8  -5 16081.4 2397.75   3
  -5   8  -4 92795.7 5827.63   3
  -5   8  -3 21388.6 2825.74   6
  -5   8  -2 150199. 7797.82   6
  -5   8  -1 32394.5 3314.01   6
  -5   8   0 177088. 8460.61   6
  -5   9  -4 68365.4 5421.45   6
  -5   9  -3 14795.4 2414.04   6
  -5   9  -2 84986.6 5771.47   6
  -5   9  -1 8866.44 1795.03   6
  -5  10  -4 36120.8 4011.60   6
  -5  10  -3 1118.79 1108.63   6
  -4  -9   0 65731.5 3393.68   7
  -4  -9   1 263.865 507.500   7
  -4  -9   2 30583.6 2498.26   7
  -4  -9   3 1464.54 669.514   7
  -4  -9   4 47018.9 3568.19   7
  -4  -9   5 1023.98 716.290   7
  -4  -9   6 32072.6 3258.98   7
  -4  -9   7 1503.84 940.685   7
  -4  -8  -7 54.1164 572.724   3
  -4  -8  -6 165902. 7394.06   3
  -4  -8  -5 465.748 321.089   7
  -4  -8  -4 95278.1 4001.05   7
  -4  -8  -3 8181.21 981.661   7
  -4  -8  -2 197441. 6702.81   7
  -4  -8  -1 449.253 446.735   7
  -4  -8   0 207625. 7381.07   7
  -4  -8   1 32562.8 2395.10   7
  -4  -8   2 134646. 5929.70   7
  -4  -8   3 24294.6 2312.79   7
  -4  -8   4 134159. 6451.43   7
  -4  -8   5 17551.3 2251.15   7
  -4  -8   6 97742.1 5828.04   7
  -4  -8   7 9686.55 1861.13   7
  -4  -8   8 38120.3 3904.40   7
  -4  -7 -10 99964.6 6180.18   3
  -4  -7  -9 5366.01 1422.44   3
  -4  -7  -8 129915. 6820.87   3
  -4  -7  -7 7342.74 1622.79   3
  -4  -7  -6 127752. 6570.46   3
  -4  -7  -5 904.590 649.476   3
  -4  -7  -4 128167. 5418.91   7
  -4  -7  -4 132385. 6083.64   3
  -4  -7  -3 2395.40 587.004   7
  -4  -7  -2 141599. 5472.20   7
  -4  -7  -1 14544.0 1430.76   7
  -4  -7   0 107455. 4665.07   7
  -4  -7   1 9421.95 1252.75   7
  -4  -7   2 124150. 5557.75   7
  -4  -7   3 38140.9 2927.74   7
  -4  -7   4 97162.6 5236.85   7
  -4  -7   5 71244.4 4617.22   7
  -4  -7   6 77316.2 5041.29   7
  -4  -7   7 50610.0 4195.81   7
  -4  -7   8 71967.2 5282.79   7
  -4  -7   9 19754.5 2829.82   7
  -4  -6 -12 43533.2 4208.30   3
  -4  -6 -11 1590.00 947.459   3
  -4  -6 -10 78879.4 5347.42   3
  -4  -6  -9 2722.78 1235.92   3
  -4  -6  -8 49015.7 3832.66   3
  -4  -6  -7 15094.5 2025.48   3
  -4  -6  -6 67314.5 4420.12   3
  -4  -6  -5 15302.1 2053.79   3
  -4  -6  -4 126215. 6164.95   3
  -4  -6  -3 49900.3 3397.98   3
  -4  -6  -2 151241. 5959.00   7
  -4  -6  -1 78886.8 3841.61   7
  -4  -6   0 47867.9 2857.00   7
  -4  -6   1 38955.0 2642.96   7
  -4  -6   2 72193.7 3924.19   7
  -4  -6   3 58597.8 3622.98   7
  -4  -6   4 7092.06 1342.14   7
  -4  -6   5 91934.7 5216.90   7
  -4  -6   6 1767.59 879.566   7
  -4  -6   7 43525.1 3803.23   7
  -4  -6   8 5495.90 1458.05   7
  -4  -6   9 39855.7 3961.60   7
  -4  -5 -13 10774.6 2257.00   3
  -4  -5 -12 20363.1 2756.06   3
  -4  -5 -11 9191.90 1834.67   3
  -4  -5 -10 70512.3 4612.32   6
  -4  -5 -10 69752.2 4918.65   3
  -4  -5  -9 42922.8 3382.40   6
  -4  -5  -9 38731.3 3473.39   3
  -4  -5  -8 62897.5 4003.24   6
  -4  -5  -8 62197.0 4253.87   3
  -4  -5  -7 126415. 6308.11   3
  -4  -5  -6 51574.8 3644.57   3
  -4  -5  -5 115897. 5850.81   3
  -4  -5  -4 38587.1 3154.64   3
  -4  -5  -3 176592. 7602.66   3
  -4  -5  -2 34631.6 2536.31   7
  -4  -5  -2 39012.2 2925.70   3
  -4  -5  -1 246603. 8626.29   7
  -4  -5   0 33142.7 2378.29   7
  -4  -5   1 182127. 6940.20   7
  -4  -5   2 18550.1 1831.65   7
  -4  -5   3 99482.9 4919.90   7
  -4  -5   4 5925.81 1204.25   7
  -4  -5   5 78301.7 4660.12   7
  -4  -5   6 288.690 604.386   7
  -4  -5   7 106775. 6145.98   7
  -4  -5   8 2957.03 1302.78   7
  -4  -5   9 79755.0 5627.77   7
  -4  -5  10 5168.86 1588.88   7
  -4  -4 -13 63535.2 5423.58   3
  -4  -4 -12 20645.5 2955.16   3
  -4  -4 -11 62016.0 4799.16   3
  -4  -4 -11 61573.3 4432.79   6
  -4  -4 -10 38061.5 3262.05   6
  -4  -4 -10 36658.7 3470.95   3
  -4  -4  -9 136673. 6963.61   3
  -4  -4  -9 137835. 6611.63   6
  -4  -4  -8 45194.5 3337.60   6
  -4  -4  -8 46148.4 3606.20   3
  -4  -4  -7 186610. 7684.62   6
  -4  -4  -7 186429. 7997.54   3
  -4  -4  -6 26238.8 2513.63   3
  -4  -4  -6 28297.1 2467.32   6
  -4  -4  -5 186017. 7736.94   3
  -4  -4  -4 16654.1 1955.31   3
  -4  -4  -3 138387. 6517.97   3
  -4  -4  -2 774.673 747.044   3
  -4  -4  -1 315868. 10608.3   7
  -4  -4   0 1254.03 529.351   7
  -4  -4   1 247724. 8758.97   7
  -4  -4   2 10577.1 1371.46   7
  -4  -4   3 184042. 7307.90   7
  -4  -4   4 7675.55 1324.74   7
  -4  -4   5 105635. 5498.07   7
  -4  -4   6 6157.08 1260.87   7
  -4  -4   7 149147. 7400.81   7
  -4  -4   8 1961.12 1072.73   7
  -4  -4   9 98148.0 6283.84   7
  -4  -4  10 15685.9 2445.35   7
  -4  -3 -13 39168.9 4279.02   3
  -4  -3 -12 22793.0 3111.59   3
  -4  -3 -11 90417.1 6046.22   3
  -4  -3 -10 15751.2 2305.48   3
  -4  -3  -9 89121.3 5457.51   3
  -4  -3  -9 95898.0 5301.85   6
  -4  -3  -8 190.349 644.762   3
  -4  -3  -8 611.188 632.684   6
  -4  -3  -7 136830. 6292.55   6
  -4  -3  -7 143108. 6625.08   3
  -4  -3  -6 8821.63 1362.50   6
  -4  -3  -6 7190.33 1301.15   3
  -4  -3  -5 220711. 8414.60   6
  -4  -3  -5 223906. 8632.04   3
  -4  -3  -4 2528.34 929.419   3
  -4  -3  -3 136231. 6277.03   3
  -4  -3  -2 2012.10 937.789   3
  -4  -3  -1 133828. 6216.58   3
  -4  -3   0 27840.0 2315.02   7
  -4  -3   1 54644.1 3297.37   7
  -4  -3   2 7980.30 1232.12   7
  -4  -3   3 200581. 7756.18   7
  -4  -3   4 65055.4 3884.91   7
  -4  -3   5 106322. 5439.90   7
  -4  -3   6 88741.0 5099.60   7
  -4  -3   7 13319.6 2036.35   7
  -4  -3   8 39400.1 3586.75   7
  -4  -3   9 38950.5 3793.77   7
  -4  -3  10 49429.3 4399.45   7
  -4  -3  11 15311.4 2589.37   7
  -4  -2 -13 38222.2 4267.07   3
  -4  -2 -12 3426.93 1577.69   3
  -4  -2 -11 84428.9 5889.15   3
  -4  -2 -10 5093.56 1501.41   3
  -4  -2  -9 84197.8 5318.04   3
  -4  -2  -8 13121.4 2010.80   3
  -4  -2  -7 63083.2 4142.92   3
  -4  -2  -7 60622.6 3257.61   4
  -4  -2  -7 63686.4 3943.20   6
  -4  -2  -6 18443.1 2042.92   3
  -4  -2  -6 21641.2 1711.76   4
  -4  -2  -6 16435.6 1876.34   6
  -4  -2  -5 203298. 7882.82   6
  -4  -2  -5 204198. 8039.60   3
  -4  -2  -4 71554.6 4064.35   3
  -4  -2  -4 66361.6 3835.23   6
  -4  -2  -3 199208. 7859.54   3
  -4  -2  -2 121244. 5852.72   3
  -4  -2  -1 205152. 8299.88   3
  -4  -2   0 346183. 11957.2   3
  -4  -2   1 46504.9 3105.16   7
  -4  -2   2 197763. 7578.18   7
  -4  -2   3 197067. 7649.06   7
  -4  -2   4 55479.6 3536.87   7
  -4  -2   5 31043.2 2705.90   7
  -4  -2   6 142385. 6713.75   7
  -4  -2   7 1765.28 968.531   7
  -4  -2   8 107269. 6147.10   7
  -4  -2   9 7628.84 1638.07   7
  -4  -2  10 99869.3 6457.97   7
  -4  -2  11 2449.94 1120.54   7
  -4  -1 -13 50094.7 4666.93   5
  -4  -1 -12 17611.5 2805.08   3
  -4  -1 -12 13502.9 2404.85   5
  -4  -1 -11 72728.9 5256.58   5
  -4  -1 -11 76855.4 5637.62   3
  -4  -1 -10 51533.5 4303.69   3
  -4  -1 -10 39419.5 3587.79   5
  -4  -1  -9 210359. 9412.08   3
  -4  -1  -9 203939. 8883.28   5
  -4  -1  -8 26924.5 2752.77   3
  -4  -1  -8 22693.9 1788.12   4
  -4  -1  -7 127357. 6246.41   3
  -4  -1  -7 121349. 4735.53   4
  -4  -1  -6 102274. 5436.20   3
  -4  -1  -6 117994. 4362.18   4
  -4  -1  -5 177837. 7153.07   6
  -4  -1  -5 179983. 7331.25   3
  -4  -1  -4 166440. 6741.17   6
  -4  -1  -4 162571. 6796.62   3
  -4  -1  -3 180130. 7241.94   6
  -4  -1  -3 195904. 7552.02   3
  -4  -1  -2 102291. 5079.13   3
  -4  -1  -1 398841. 13457.9   3
  -4  -1   0 163365. 7107.02   3
  -4  -1   1 298852. 10407.1   7
  -4  -1   2 347559. 11605.1   7
  -4  -1   3 142087. 6141.07   7
  -4  -1   4 199963. 7831.50   7
  -4  -1   5 38197.4 2955.71   7
  -4  -1   6 118477. 5914.04   7
  -4  -1   7 44449.2 3529.82   7
  -4  -1   8 112490. 6232.81   7
  -4  -1   9 7173.43 1579.06   7
  -4  -1  10 87259.6 5889.92   7
  -4  -1  11 1127.04 817.080   7
  -4   0 -13 21461.4 3243.18   5
  -4   0 -12 29614.5 3534.75   5
  -4   0 -12 27374.4 3509.64   3
  -4   0 -11 24818.7 3039.35   5
  -4   0 -11 24845.6 3250.94   3
  -4   0 -10 53390.9 4492.89   3
  -4   0 -10 47163.9 4104.11   5
  -4   0  -9 39975.4 3675.76   3
  -4   0  -9 38202.9 3465.57   5
  -4   0  -8 76626.0 4844.85   5
  -4   0  -8 81014.2 5137.84   3
  -4   0  -7 42063.4 3434.27   3
  -4   0  -7 48852.5 2258.53   4
  -4   0  -7 43022.0 3348.79   5
  -4   0  -7 43624.7 2299.50   2
  -4   0  -6 116275. 4747.52   2
  -4   0  -6 121795. 6011.80   3
  -4   0  -6 131037. 4231.21   4
  -4   0  -5 66713.0 3922.70   3
  -4   0  -5 58709.9 3110.61   2
  -4   0  -4 200955. 7336.99   2
  -4   0  -4 216672. 8034.21   6
  -4   0  -4 222630. 8215.77   3
  -4   0  -3 36917.6 2685.04   6
  -4   0  -3 44153.7 2952.93   3
  -4   0  -2 187915. 7296.16   3
  -4   0  -2 188715. 7183.32   6
  -4   0  -1 19844.9 2154.21   3
  -4   0   0 67607.1 4173.42   3
  -4   0   2 60732.0 3668.63   7
  -4   0   3 21220.5 2105.63   7
  -4   0   4 243210. 8976.05   7
  -4   0   5 28.7754 490.405   7
  -4   0   6 90797.4 4980.28   7
  -4   0   7 609.508 646.247   7
  -4   0   8 96565.3 5612.46   7
  -4   0   9 23110.8 2763.22   7
  -4   0  10 59136.0 4675.31   7
  -4   0  11 13916.9 2491.31   7
  -4   0  12 43531.0 4430.43   7
  -4   1 -12 32394.9 3921.13   3
  -4   1 -12 28903.6 3646.21   5
  -4   1 -12 23572.5 3122.77   1
  -4   1 -11 9676.11 2145.06   5
  -4   1 -10 105823. 6534.47   5
  -4   1  -9 285.145 876.668   3
  -4   1  -9 732.933 954.663   5
  -4   1  -8 170888. 8122.17   3
  -4   1  -8 160300. 7775.16   5
  -4   1  -7 7518.71 641.352   4
  -4   1  -7 9199.64 1568.52   3
  -4   1  -7 6168.40 1416.74   5
  -4   1  -6 122547. 4625.78   2
  -4   1  -6 139845. 6455.84   3
  -4   1  -6 129733. 6217.24   5
  -4   1  -5 6049.87 1233.37   3
  -4   1  -5 4928.76 771.922   2
  -4   1  -4 224446. 8417.70   3
  -4   1  -4 217273. 7538.14   2
  -4   1  -3 92823.8 4517.42   6
  -4   1  -3 81085.4 3932.47   2
  -4   1  -3 85357.0 4418.66   3
  -4   1  -2 333800. 11044.5   6
  -4   1  -2 326288. 11031.2   3
  -4   1  -2 319807. 10483.4   2
  -4   1  -1 97625.4 4920.02   3
  -4   1  -1 93620.6 4430.62   2
  -4   1  -1 99537.6 4837.23   6
  -4   1   0 402990. 13589.2   3
  -4   1   1 139311. 6348.71   3
  -4   1   2 291497. 10329.1   7
  -4   1   3 122365. 5599.35   7
  -4   1   4 174121. 7092.70   7
  -4   1   5 85267.3 4574.59   7
  -4   1   6 135206. 6271.66   7
  -4   1   7 96422.5 5283.44   7
  -4   1   8 74497.0 4737.57   7
  -4   1   9 74114.2 4983.13   7
  -4   1  10 35668.3 3549.04   7
  -4   1  11 53581.4 4553.62   7
  -4   1  12 18773.9 2831.62   7
  -4   2 -12 50351.5 4558.57   1
  -4   2 -11 1552.04 1051.83   1
  -4   2 -11 2158.36 1174.10   5
  -4   2 -10 130368. 7600.56   5
  -4   2  -9-443.863 808.983   5
  -4   2  -8 161939. 8133.26   5
  -4   2  -8 179981. 8524.89   3
  -4   2  -7 2959.94 1149.82   3
  -4   2  -7 4415.70 1143.84   5
  -4   2  -6 146793. 6954.83   3
  -4   2  -6 147363. 6937.87   5
  -4   2  -5 6095.66 1267.95   3
  -4   2  -5 4156.72 1091.53   5
  -4   2  -5 3240.62 655.022   2
  -4   2  -4 252945. 9130.45   3
  -4   2  -4 233421. 7996.55   2
  -4   2  -3 125680. 5113.24   2
  -4   2  -3 122186. 5551.36   3
  -4   2  -2 67320.5 3818.50   3
  -4   2  -2 69715.4 3833.83   6
  -4   2  -2 63103.5 3431.26   2
  -4   2  -1 96056.9 4527.81   2
  -4   2  -1 100738. 4878.26   6
  -4   2  -1 102628. 4985.49   3
  -4   2   0 175609. 7402.67   3
  -4   2   1 68264.4 4121.79   3
  -4   2   2 216239. 8374.26   7
  -4   2   3 158033. 6622.38   7
  -4   2   4 137626. 6030.96   7
  -4   2   5 105044. 5116.50   7
  -4   2   6 93259.3 4912.62   7
  -4   2   7 90760.4 5037.16   7
  -4   2   8 76584.7 4734.67   7
  -4   2   9 49605.2 3883.62   7
  -4   2  10 11021.0 1918.43   7
  -4   2  11 64659.0 4991.17   7
  -4   2  12 4322.29 1479.07   7
  -4   3 -11 3965.44 1255.97   1
  -4   3 -11 1935.20 1261.85   5
  -4   3 -10 47751.1 3967.31   1
  -4   3 -10 56360.9 4878.88   5
  -4   3  -9 18403.0 2698.49   5
  -4   3  -8 74506.3 5237.28   5
  -4   3  -7 29522.9 3036.58   3
  -4   3  -7 28564.6 3063.50   5
  -4   3  -6 93202.8 5402.28   3
  -4   3  -6 94268.8 5476.76   5
  -4   3  -5 70843.7 4368.14   3
  -4   3  -5 69371.2 4405.81   5
  -4   3  -4 185146. 7605.12   3
  -4   3  -3 53308.7 3395.75   3
  -4   3  -2 152918. 6478.23   3
  -4   3  -2 158822. 6588.79   6
  -4   3  -1 67531.2 3831.43   6
  -4   3  -1 63365.4 3786.09   3
  -4   3   0 115308. 5618.67   3
  -4   3   0 117793. 5495.79   6
  -4   3   1 103222. 5292.05   3
  -4   3   2 28583.0 2467.72   7
  -4   3   3 208044. 8051.28   7
  -4   3   4 56180.0 3470.28   7
  -4   3   5 138300. 6047.77   7
  -4   3   6 2180.91 791.825   7
  -4   3   7 82112.6 4639.86   7
  -4   3   8 9141.86 1569.38   7
  -4   3   9 101547. 5787.26   7
  -4   3  10 914.133 910.028   7
  -4   3  11 68634.6 5072.30   7
  -4   3  12 1477.62 1213.51   7
  -4   3  13 37804.7 4081.07   7
  -4   4 -10 23521.6 3336.01   5
  -4   4  -9 36457.8 3234.12   1
  -4   4  -9 39262.6 4078.63   5
  -4   4  -8 18922.2 2643.39   3
  -4   4  -8 21544.6 2867.99   5
  -4   4  -7 78698.4 5285.52   3
  -4   4  -7 90511.1 5711.60   5
  -4   4  -6 34628.2 3196.76   3
  -4   4  -6 29813.4 3079.28   5
  -4   4  -5 170193. 7689.32   3
  -4   4  -5 183945. 8098.32   5
  -4   4  -4 20911.8 2194.40   3
  -4   4  -4 20856.5 2316.17   5
  -4   4  -3 129832. 5929.57   3
  -4   4  -2 53836.2 3538.01   6
  -4   4  -2 56562.3 3508.69   3
  -4   4  -1 187591. 7531.06   6
  -4   4  -1 186978. 7455.69   3
  -4   4   0 44350.3 3160.26   6
  -4   4   0 49194.9 3380.47   3
  -4   4   1 288673. 10503.0   3
  -4   4   2 2288.12 468.595   1
  -4   4   3 125521. 5713.12   7
  -4   4   4 2071.81 742.610   7
  -4   4   5 207081. 7869.99   7
  -4   4   6 10822.7 1486.44   7
  -4   4   7 165073. 7069.01   7
  -4   4   8 22902.0 2352.34   7
  -4   4   9 129776. 6563.88   7
  -4   4  10 31474.3 3133.19   7
  -4   4  11 52720.0 4295.83   7
  -4   4  12 25258.3 3096.07   7
  -4   4  13 46585.7 4403.28   7
  -4   5 -10 12555.2 2548.43   3
  -4   5  -9 59643.1 5156.36   3
  -4   5  -9 60167.9 5198.52   5
  -4   5  -8 13535.3 2384.89   3
  -4   5  -8 15495.9 2481.01   5
  -4   5  -7 86220.2 5676.67   3
  -4   5  -7 84754.2 5755.19   5
  -4   5  -6 12079.8 1983.93   3
  -4   5  -6 9661.92 1839.52   5
  -4   5  -5 147321. 7088.01   3
  -4   5  -5 146758. 7350.05   5
  -4   5  -4 2904.45 959.134   3
  -4   5  -4 4458.21 1223.90   5
  -4   5  -4 3911.54 423.837   4
  -4   5  -3 176650. 5419.19   4
  -4   5  -3 159906. 7101.82   3
  -4   5  -2 11823.0 1596.35   3
  -4   5  -2 13058.7 1113.83   4
  -4   5  -1 272810. 10191.3   6
  -4   5  -1 288568. 10173.8   3
  -4   5  -1 291240. 8984.22   4
  -4   5   0 4025.36 1014.69   3
  -4   5   0 2759.51 870.170   6
  -4   5   1 231801. 9023.15   6
  -4   5   1 236169. 7552.94   1
  -4   5   1 239604. 9119.77   3
  -4   5   2 28921.1 1938.74   1
  -4   5   3 131670. 5860.99   7
  -4   5   4 48223.8 3097.76   7
  -4   5   5 189696. 7279.93   7
  -4   5   6 15921.7 1767.36   7
  -4   5   7 182107. 7399.31   7
  -4   5   8 8690.66 1434.98   7
  -4   5   9 69932.6 4471.62   7
  -4   5  10 34352.5 3138.41   7
  -4   5  11 38484.7 3512.70   7
  -4   6  -9 74965.8 5914.97   3
  -4   6  -8 5534.45 1705.58   3
  -4   6  -8 2172.35 1315.60   5
  -4   6  -7 98222.2 6182.87   3
  -4   6  -7 89122.7 6162.38   5
  -4   6  -6-996.175 1004.65   3
  -4   6  -6-474.892 909.883   5
  -4   6  -5 92597.1 5514.36   3
  -4   6  -5 99406.1 5917.78   5
  -4   6  -4 2057.62 948.006   3
  -4   6  -4 1306.31 906.736   5
  -4   6  -3 81810.8 3332.06   4
  -4   6  -3 71405.6 4373.15   3
  -4   6  -2 17865.9 1996.54   3
  -4   6  -2 15969.4 1411.99   4
  -4   6  -1 58585.2 3878.15   6
  -4   6  -1 62137.9 3804.39   3
  -4   6  -1 64035.6 3277.73   4
  -4   6   0 9817.72 1455.82   3
  -4   6   0 9104.08 784.957   1
  -4   6   0 11898.0 1390.68   4
  -4   6   0 11052.0 1603.22   6
  -4   6   1 58814.0 3806.89   6
  -4   6   1 59625.3 3738.59   3
  -4   6   1 52119.9 2408.88   1
  -4   6   1 58239.5 3434.60   4
  -4   6   2 31616.1 1930.99   1
  -4   6   3 70337.6 3910.11   7
  -4   6   4 61254.8 3434.31   7
  -4   6   5 59155.4 3322.76   7
  -4   6   6 47222.7 2996.06   7
  -4   6   7 23048.3 2094.61   7
  -4   6   8 37080.4 2861.43   7
  -4   7  -8 16881.8 2711.92   3
  -4   7  -8 16338.7 2879.24   5
  -4   7  -7 48792.3 4341.23   3
  -4   7  -7 44324.2 4431.48   5
  -4   7  -6 29147.8 3140.61   3
  -4   7  -6 34611.9 3645.94   5
  -4   7  -5 64244.6 4539.95   3
  -4   7  -5 64696.1 4862.27   5
  -4   7  -4 83605.2 5090.86   3
  -4   7  -4 91688.3 5589.09   5
  -4   7  -3 80794.9 4748.44   3
  -4   7  -2 61367.1 3232.62   4
  -4   7  -2 57841.4 3838.59   3
  -4   7  -1 50792.2 3725.70   6
  -4   7  -1 54681.0 3605.01   3
  -4   7  -1 57490.8 3270.72   4
  -4   7   0 112527. 5785.88   6
  -4   7   0 108602. 5499.59   3
  -4   7   0 120328. 5353.27   4
  -4   7   1 64564.0 3907.09   3
  -4   7   1 70399.6 4317.85   6
  -4   7   1 64722.8 3897.23   4
  -4   7   2 101847. 5295.25   4
  -4   7   3 14742.0 1591.18   7
  -4   7   3 13970.5 1929.98   4
  -4   7   4 43863.3 2717.10   7
  -4   8  -8 33352.4 3836.53   3
  -4   8  -7 30017.5 3502.15   3
  -4   8  -7 30566.9 3755.61   5
  -4   8  -6 62014.7 4801.25   3
  -4   8  -6 55979.6 4871.74   5
  -4   8  -5 37720.2 3524.60   3
  -4   8  -5 43286.2 4080.46   5
  -4   8  -4 105698. 5916.55   3
  -4   8  -3 41150.0 3341.20   3
  -4   8  -2 108796. 5639.46   3
  -4   8  -1 81325.9 4341.29   4
  -4   8  -1 77209.9 4836.25   6
  -4   8   0 166373. 7732.35   6
  -4   8   0 186460. 7503.12   4
  -4   8   1 86333.8 5070.37   6
  -4   8   1 87171.6 4874.59   4
  -4   8   2 249000. 9844.28   4
  -4   8   3 8015.39 1536.07   4
  -4   9  -6 37631.6 4098.92   5
  -4   9  -2 63316.6 4631.21   6
  -4   9  -1 1498.95 972.405   6
  -4   9   0 85002.5 4913.04   4
  -4   9   0 85552.2 5189.46   6
  -4   9   1 1199.36 715.338   4
  -4   9   2 90064.5 5396.94   4
  -4   9   3 7682.83 1694.78   4
  -4   9   4 113243. 6582.24   4
  -4  10   1 34410.5 3275.86   4
  -4  10   2 39287.0 3635.94   4
  -4  10   3 34065.2 3469.46   4
  -4  10   4 52272.2 4481.42   4
  -4  11   2 44917.5 4117.00   4
  -4  11   3 34728.6 3623.44   4
  -4  11   4 33205.7 3745.86   4
  -4  12   4 6369.41 1644.08   4
  -3  -9   0 134721. 5068.59   7
  -3  -9   1 1821.80 584.265   7
  -3  -9   2 82983.3 4227.38   7
  -3  -9   3 80.1673 529.994   7
  -3  -9   4 78291.0 4574.91   7
  -3  -9   5 1805.31 997.372   7
  -3  -9   6 56901.2 4299.50   7
  -3  -9   7 3690.88 1276.42   7
  -3  -8  -6 135193. 5803.98   3
  -3  -8  -4 85456.5 2942.31   7
  -3  -8  -3 1382.31 318.087   7
  -3  -8  -2 171673. 5418.47   7
  -3  -8  -1 625.297 343.664   7
  -3  -8   0 313610. 9691.51   7
  -3  -8   1 12570.5 1361.16   7
  -3  -8   2 144840. 5994.96   7
  -3  -8   3 3921.27 872.521   7
  -3  -8   4 140434. 6442.56   7
  -3  -8   5 26799.0 2651.25   7
  -3  -8   6 108850. 6070.43   7
  -3  -8   7 17301.3 2431.12   7
  -3  -8   8 27776.5 3252.07   7
  -3  -7 -10 83831.1 5266.36   3
  -3  -7  -9 1027.88 935.368   3
  -3  -7  -8 144431. 6768.07   3
  -3  -7  -7 5901.79 1230.20   3
  -3  -7  -6 160221. 6932.90   3
  -3  -7  -5 2051.79 775.833   3
  -3  -7  -4 139539. 4941.10   7
  -3  -7  -3 24096.0 1481.06   7
  -3  -7  -2 200389. 6297.54   7
  -3  -7  -1 17444.5 1350.88   7
  -3  -7   0 126911. 4839.39   7
  -3  -7   1 20983.9 1752.48   7
  -3  -7   2 38961.1 2631.56   7
  -3  -7   3 14062.3 1673.73   7
  -3  -7   4 59024.6 3771.42   7
  -3  -7   5 44470.1 3418.87   7
  -3  -7   6 43314.0 3553.20   7
  -3  -7   7 30127.4 3095.97   7
  -3  -7   8 17181.5 2450.23   7
  -3  -7   9 24148.8 3077.92   7
  -3  -6 -12 76122.3 5422.59   3
  -3  -6 -11 1237.85 872.969   3
  -3  -6 -10 49295.9 3811.81   3
  -3  -6  -9 14552.0 1998.48   3
  -3  -6  -8 96145.5 5186.80   3
  -3  -6  -7 42063.6 3138.48   3
  -3  -6  -6 95658.3 4049.78   7
  -3  -6  -6 118317. 5427.01   3
  -3  -6  -5 35533.8 2742.80   3
  -3  -6  -4 110117. 5135.06   3
  -3  -6  -3 16925.5 1405.77   7
  -3  -6  -2 103596. 4000.13   7
  -3  -6  -1 33657.4 1958.09   7
  -3  -6   0 58269.6 2873.41   7
  -3  -6   1 68790.1 3373.43   7
  -3  -6   2 59527.2 3264.74   7
  -3  -6   3 36353.5 2644.50   7
  -3  -6   4 19616.4 2065.65   7
  -3  -6   5 36281.3 2982.79   7
  -3  -6   6 1491.17 778.227   7
  -3  -6   7 61276.6 4441.66   7
  -3  -6   8 2858.58 1134.27   7
  -3  -6   9 52183.3 4520.45   7
  -3  -5 -14 56527.1 5113.76   3
  -3  -5 -13 21112.9 2908.96   3
  -3  -5 -12 41897.4 3976.63   3
  -3  -5 -11 37327.1 3531.64   3
  -3  -5 -10 54623.4 4071.18   3
  -3  -5 -10 55339.5 3661.84   6
  -3  -5  -9 64925.5 4267.10   3
  -3  -5  -9 67717.7 3979.46   6
  -3  -5  -8 60494.2 3534.54   6
  -3  -5  -8 52605.8 3616.27   3
  -3  -5  -7 157299. 6319.03   6
  -3  -5  -7 153159. 6668.29   3
  -3  -5  -6 94085.4 4740.25   3
  -3  -5  -5 150306. 6346.59   3
  -3  -5  -4 24189.7 2195.23   3
  -3  -5  -3 201024. 7629.01   3
  -3  -5  -2 2965.56 582.125   7
  -3  -5  -1 149332. 5376.48   7
  -3  -5   0 7664.30 947.260   7
  -3  -5   1 330343. 10273.8   7
  -3  -5   2 57512.2 3151.19   7
  -3  -5   3 186713. 7141.83   7
  -3  -5   4 18560.6 1900.39   7
  -3  -5   5 171848. 7363.07   7
  -3  -5   6 3184.90 1074.19   7
  -3  -5   7 113412. 6203.13   7
  -3  -5   8-489.364 774.999   7
  -3  -5   9 99306.8 6229.99   7
  -3  -5  10 708.463 815.323   7
  -3  -4 -14 47746.1 4742.12   3
  -3  -4 -13 54308.2 4796.65   3
  -3  -4 -12 24237.2 3045.72   3
  -3  -4 -11 55043.3 4365.62   3
  -3  -4 -10 81307.2 5121.54   3
  -3  -4  -9 143812. 6852.92   3
  -3  -4  -8 42121.8 3187.05   3
  -3  -4  -8 40203.8 2861.99   6
  -3  -4  -7 139443. 6246.73   3
  -3  -4  -7 148757. 6047.54   6
  -3  -4  -6 28860.7 2208.92   6
  -3  -4  -6 28801.8 2352.08   3
  -3  -4  -5 127344. 5531.46   3
  -3  -4  -4 60552.0 3479.92   3
  -3  -4  -3 437333. 13781.0   3
  -3  -4  -2 13426.6 1569.41   3
  -3  -4  -1 360419. 10987.6   7
  -3  -4   0 646.459 421.040   7
  -3  -4   1 379486. 11499.5   7
  -3  -4   2 32340.4 2259.89   7
  -3  -4   3 295771. 9882.84   7
  -3  -4   4 2853.43 859.669   7
  -3  -4   5 259081. 9585.15   7
  -3  -4   6 7632.50 1458.70   7
  -3  -4   7 125996. 6494.93   7
  -3  -4   8 4600.28 1231.22   7
  -3  -4   9 35286.2 3482.79   7
  -3  -4  10 12625.4 2182.69   7
  -3  -4  11 46490.8 4536.30   7
  -3  -3 -13 43555.0 4400.26   3
  -3  -3 -13 48314.5 4182.28   5
  -3  -3 -12-311.195 799.094   3
  -3  -3 -12 3733.98 1244.33   5
  -3  -3 -11 40246.9 3712.16   3
  -3  -3 -11 35227.5 3199.39   5
  -3  -3 -10 27758.9 2964.39   3
  -3  -3 -10 24260.7 2515.96   5
  -3  -3  -9 87004.4 5127.26   3
  -3  -3  -8 1041.90 786.153   3
  -3  -3  -7 167284. 6984.17   3
  -3  -3  -6 24525.0 2187.62   3
  -3  -3  -6 25903.0 2036.93   6
  -3  -3  -5 217591. 7944.34   3
  -3  -3  -5 229730. 7810.62   4
  -3  -3  -5 217387. 7740.03   6
  -3  -3  -4 1156.72 526.408   3
  -3  -3  -4 258.638 383.590   4
  -3  -3  -4 253.889 417.020   6
  -3  -3  -3 256545. 8873.15   3
  -3  -3  -2 27990.0 2294.93   3
  -3  -3  -1 241693. 8538.33   3
  -3  -3   0 69199.0 3378.88   7
  -3  -3   1 114815. 4691.36   7
  -3  -3   2 117100. 4836.61   7
  -3  -3   3 72975.8 3723.65   7
  -3  -3   4 97476.3 4683.29   7
  -3  -3   5 74677.5 4195.33   7
  -3  -3   6 127595. 6124.29   7
  -3  -3   7 41138.0 3414.08   7
  -3  -3   8 74049.1 4933.51   7
  -3  -3   9 11855.2 1979.02   7
  -3  -3  10 82627.5 5698.07   7
  -3  -3  11 10428.7 2174.34   7
  -3  -2 -14-947.271 1104.23   5
  -3  -2 -13 71718.8 5714.04   1
  -3  -2 -13 58654.5 4874.50   5
  -3  -2 -12 4385.26 1267.24   5
  -3  -2 -11 87322.1 5408.40   5
  -3  -2 -10 4640.42 1283.40   5
  -3  -2  -9 60758.0 3984.85   5
  -3  -2  -8 43724.6 3128.25   5
  -3  -2  -7 208369. 8206.16   3
  -3  -2  -7 203168. 7753.66   5
  -3  -2  -6 40138.1 2838.73   3
  -3  -2  -6 43932.5 2530.28   4
  -3  -2  -5 322768. 10328.5   6
  -3  -2  -5 307987. 10496.7   3
  -3  -2  -5 333003. 9961.99   4
  -3  -2  -4 125093. 4672.09   4
  -3  -2  -4 121466. 5006.44   6
  -3  -2  -4 120849. 5127.11   3
  -3  -2  -3 265344. 8880.13   6
  -3  -2  -3 275031. 9090.23   3
  -3  -2  -2 197857. 7299.53   3
  -3  -2  -1 344470. 11311.3   3
  -3  -2   0 177895. 6523.14   7
  -3  -2   1 268364. 8759.43   7
  -3  -2   2 82214.7 3845.19   7
  -3  -2   3 130773. 5380.55   7
  -3  -2   4 171087. 6719.25   7
  -3  -2   5 34053.5 2641.92   7
  -3  -2   6 112674. 5121.52   2
  -3  -2   6 143611. 6202.53   7
  -3  -2   7 28234.0 2678.29   7
  -3  -2   7 18627.8 1787.50   2
  -3  -2   8 89863.2 5368.89   7
  -3  -2   9 49550.5 4045.18   7
  -3  -2  10 148891. 7904.51   7
  -3  -2  11 1012.19 1014.68   7
  -3  -1 -14 1594.18 1106.95   5
  -3  -1 -13 58909.1 5279.49   1
  -3  -1 -13 66672.9 5306.37   5
  -3  -1 -12 7724.91 1790.72   1
  -3  -1 -12 5088.12 1459.18   5
  -3  -1 -11 77996.9 5251.11   5
  -3  -1 -10 25228.0 2741.23   5
  -3  -1  -9 147667. 6954.70   5
  -3  -1  -8 22583.5 1315.59   2
  -3  -1  -8 27861.6 2513.38   5
  -3  -1  -7 96255.7 4880.11   5
  -3  -1  -7 98439.9 4135.82   4
  -3  -1  -6 45308.7 3043.71   3
  -3  -1  -6 41761.9 2269.57   4
  -3  -1  -6 38378.7 2711.82   5
  -3  -1  -5 102209. 3794.42   4
  -3  -1  -5 92976.6 4580.55   3
  -3  -1  -4 101822. 4567.70   3
  -3  -1  -4 103249. 3738.51   4
  -3  -1  -3 110041. 4605.88   6
  -3  -1  -3 110342. 4697.02   3
  -3  -1  -2 97550.6 4353.56   6
  -3  -1  -2 105905. 4535.72   3
  -3  -1  -1 91888.7 4448.16   3
  -3  -1   0 15265.8 1664.82   3
  -3  -1   1 12722.4 1392.35   7
  -3  -1   2 261934. 8718.92   7
  -3  -1   3 190648. 6963.16   7
  -3  -1   4 204407. 7517.01   7
  -3  -1   5 15547.0 1738.98   7
  -3  -1   5 15131.1 1513.86   2
  -3  -1   6 182691. 6875.30   2
  -3  -1   6 197281. 7749.96   7
  -3  -1   7 7369.78 1359.51   7
  -3  -1   7 6374.55 977.816   2
  -3  -1   8 70666.1 4618.05   7
  -3  -1   9 25586.2 2800.89   7
  -3  -1  10 88544.1 5772.88   7
  -3  -1  11-763.189 903.932   7
  -3  -1  12 31626.0 3706.29   7
  -3   0 -13 33411.1 3823.19   1
  -3   0 -13 27876.5 3525.90   5
  -3   0 -12 41510.9 4080.48   1
  -3   0 -12 38034.7 3890.60   5
  -3   0 -11 27342.6 3092.48   5
  -3   0 -10 45716.1 3859.82   5
  -3   0  -9 81166.7 5023.62   5
  -3   0  -8 66617.3 3221.85   4
  -3   0  -8 69763.9 4355.47   5
  -3   0  -7 11126.7 1089.50   4
  -3   0  -7 11462.2 751.636   2
  -3   0  -6 154819. 4963.17   4
  -3   0  -6 141116. 4777.87   2
  -3   0  -6 145419. 6238.03   5
  -3   0  -5 4355.96 536.647   4
  -3   0  -5 2782.43 819.649   3
  -3   0  -5 3674.97 610.788   2
  -3   0  -5 4512.51 949.693   5
  -3   0  -4 138613. 5625.77   3
  -3   0  -4 146491. 4251.95   4
  -3   0  -3 72032.3 3562.40   3
  -3   0  -2 321937. 10335.6   6
  -3   0  -2 339705. 10499.7   3
  -3   0  -1 15039.2 1508.16   6
  -3   0  -1 15480.8 1628.27   3
  -3   0   0 291666. 9945.32   3
  -3   0   1 143820. 5712.73   7
  -3   0   2 319089. 10210.6   7
  -3   0   3 13838.9 1457.26   7
  -3   0   3 12854.8 1359.41   2
  -3   0   4 175340. 6639.07   2
  -3   0   4 193631. 6982.65   7
  -3   0   5 6329.95 1140.54   7
  -3   0   5 9737.24 1207.06   2
  -3   0   6 218303. 8326.70   7
  -3   0   6 216891. 7646.70   2
  -3   0   7 32709.2 2278.60   2
  -3   0   7 35729.5 2920.53   7
  -3   0   8 144172. 6931.38   7
  -3   0   9 41463.7 3551.29   7
  -3   0  10 52506.3 4238.90   7
  -3   0  11 17924.6 2603.93   7
  -3   0  12 36887.6 3908.93   7
  -3   1 -13 5102.63 1569.45   1
  -3   1 -12 83984.0 5960.89   1
  -3   1 -12 81009.1 6025.92   5
  -3   1 -11 3772.00 1354.22   5
  -3   1 -11 6209.08 1562.84   1
  -3   1 -10 95932.0 6015.10   5
  -3   1  -9 3772.16 1222.78   5
  -3   1  -8 169918. 7727.49   5
  -3   1  -7 1077.87 339.490   4
  -3   1  -7 439.645 700.718   5
  -3   1  -6 230177. 6692.09   4
  -3   1  -6 225812. 8726.65   5
  -3   1  -5 5543.26 488.712   4
  -3   1  -5 6080.90 690.797   2
  -3   1  -5 5389.44 1061.74   5
  -3   1  -4 198605. 7328.44   5
  -3   1  -4 209338. 7460.06   3
  -3   1  -4 192785. 6325.66   2
  -3   1  -3 47280.6 2802.82   3
  -3   1  -3 45966.6 2406.83   2
  -3   1  -2 339374. 10667.1   6
  -3   1  -2 345076. 10377.3   2
  -3   1  -2 347975. 10762.9   3
  -3   1  -1 10996.1 1323.52   3
  -3   1  -1 9992.48 1115.98   2
  -3   1  -1 7383.05 1081.05   6
  -3   1   0 561526. 16661.3   3
  -3   1   1 6442.61 1168.83   3
  -3   1   2 316718. 10187.9   7
  -3   1   3 112342. 4730.60   7
  -3   1   3 104124. 4633.78   1
  -3   1   3 110222. 4683.72   2
  -3   1   4 115244. 4954.65   7
  -3   1   4 116694. 4893.79   2
  -3   1   5 85896.9 3999.84   2
  -3   1   5 79166.0 4082.76   7
  -3   1   6 81700.7 4353.10   7
  -3   1   6 82936.7 3980.08   2
  -3   1   7 85545.7 4660.29   7
  -3   1   8 54977.7 3836.39   7
  -3   1   9 89932.2 5388.40   7
  -3   1  10 50493.7 4083.91   7
  -3   1  11 65823.4 4946.85   7
  -3   1  12 28069.1 3351.78   7
  -3   2 -12 62066.4 5335.69   5
  -3   2 -12 56523.2 4790.46   1
  -3   2 -11 306.015 867.565   1
  -3   2 -11 670.552 1130.86   5
  -3   2 -10 125017. 6715.01   1
  -3   2 -10 123477. 7179.50   5
  -3   2  -9 555.092 931.052   5
  -3   2  -8 120013. 6417.31   5
  -3   2  -7 3149.73 487.276   4
  -3   2  -7 1175.30 848.139   5
  -3   2  -6 194464. 5610.68   4
  -3   2  -6 193396. 8035.35   5
  -3   2  -5 1436.85 710.084   5
  -3   2  -4 427104. 13491.0   5
  -3   2  -3 261780. 8768.62   3
  -3   2  -3 255450. 8807.26   5
  -3   2  -3 254988. 8048.39   2
  -3   2  -2 286562. 8843.15   2
  -3   2  -2 275771. 9122.13   3
  -3   2  -1 19392.7 1556.00   2
  -3   2  -1 19293.4 1676.39   3
  -3   2  -1 17078.2 1590.30   6
  -3   2   0 161322. 6227.41   3
  -3   2   0 156188. 6042.55   6
  -3   2   1 20624.3 1933.89   3
  -3   2   2 227866. 7955.99   7
  -3   2   3 142726. 5520.36   1
  -3   2   3 138674. 5530.31   7
  -3   2   4 97823.4 4388.11   7
  -3   2   5 104378. 4728.35   7
  -3   2   6 79436.1 4146.33   7
  -3   2   7 90361.8 4720.25   7
  -3   2   8 11316.3 1649.10   7
  -3   2   9 54707.7 3969.40   7
  -3   2  10 18485.0 2322.57   7
  -3   2  11 79417.4 5367.36   7
  -3   2  12-214.144 779.967   7
  -3   2  13 44082.2 4370.57   7
  -3   3 -12 36895.5 3804.19   1
  -3   3 -11 2051.61 904.899   5
  -3   3 -11 2778.25 1084.25   1
  -3   3 -10 75726.4 5044.69   1
  -3   3 -10 85086.2 5928.44   5
  -3   3  -9 9720.04 1932.49   5
  -3   3  -9 6451.27 1335.10   1
  -3   3  -8 74820.1 5065.55   5
  -3   3  -7 27374.4 2834.07   5
  -3   3  -6 71910.1 4441.33   5
  -3   3  -6 67943.1 2415.87   4
  -3   3  -5 11025.1 622.642   4
  -3   3  -5 11501.8 625.397   4
  -3   3  -4 259318. 9401.80   5
  -3   3  -3 65654.0 3473.77   3
  -3   3  -3 69291.0 3653.42   5
  -3   3  -3 56867.1 1859.14   4
  -3   3  -2 170030. 6410.57   3
  -3   3  -2 176035. 5049.69   4
  -3   3  -1 69070.1 3493.31   6
  -3   3  -1 70061.8 3473.43   3
  -3   3  -1 68480.4 2647.62   4
  -3   3   0 136200. 5452.47   3
  -3   3   0 130119. 5354.51   6
  -3   3   1 114120. 5053.37   3
  -3   3   2 43007.6 2677.41   7
  -3   3   2 39294.2 2275.13   1
  -3   3   3 274762. 9066.62   7
  -3   3   3 279007. 8937.00   1
  -3   3   4 25201.4 1937.88   7
  -3   3   5 102233. 4564.19   7
  -3   3   6 14995.6 1653.58   7
  -3   3   7 167867. 6899.79   7
  -3   3   8 5385.18 1198.50   7
  -3   3   9 102523. 5574.19   7
  -3   3  10 112.811 722.942   7
  -3   3  11 85514.0 5482.10   7
  -3   3  12 2194.12 992.243   7
  -3   3  13 34009.2 3731.30   7
  -3   4 -10 32504.2 3213.68   1
  -3   4 -10 31226.0 3671.70   5
  -3   4  -9 81546.8 4958.48   1
  -3   4  -9 89392.2 6005.63   5
  -3   4  -8 60294.0 3918.37   1
  -3   4  -8 61143.5 4683.96   5
  -3   4  -7 107297. 5207.41   1
  -3   4  -7 112664. 6330.85   5
  -3   4  -6 32136.1 1539.16   4
  -3   4  -6 34776.6 3134.52   5
  -3   4  -5 147225. 6768.08   5
  -3   4  -5 141044. 4328.51   4
  -3   4  -4 2391.50 362.583   4
  -3   4  -4 3814.76 1051.07   5
  -3   4  -3 247732. 8924.04   5
  -3   4  -3 241714. 6894.89   4
  -3   4  -3 234690. 8545.41   3
  -3   4  -2 823.203 277.679   4
  -3   4  -2 1159.60 521.068   3
  -3   4  -2 1674.92 546.835   5
  -3   4  -1 306834. 9961.16   3
  -3   4  -1 312346. 9100.88   4
  -3   4   0 15870.4 1601.28   6
  -3   4   0 17339.1 1613.08   3
  -3   4   0 14422.6 1279.63   4
  -3   4   1 297673. 9941.47   6
  -3   4   1 292034. 9977.12   3
  -3   4   1 306801. 9511.56   4
  -3   4   2 706.807 391.577   1
  -3   4   2-139.586 388.673   7
  -3   4   2 46.0575 429.437   4
  -3   4   3 346013. 10502.8   1
  -3   4   3 337634. 10685.7   7
  -3   4   4 31.8205 351.176   7
  -3   4   5 239131. 8153.26   7
  -3   4   6 913.235 471.482   7
  -3   4   7 266588. 9431.54   7
  -3   4   8 4350.17 1034.69   7
  -3   4   9 175415. 7660.77   7
  -3   4  10 19961.5 2337.85   7
  -3   4  11 80371.8 5195.74   7
  -3   4  12 10317.9 2007.16   7
  -3   4  13 45009.5 4214.20   7
  -3   5 -10 12532.2 2509.51   5
  -3   5  -9 117996. 7323.10   5
  -3   5  -8 10413.4 1980.95   5
  -3   5  -7 104469. 5004.10   1
  -3   5  -7 100304. 6149.14   5
  -3   5  -6 6840.48 1025.06   1
  -3   5  -6 8588.65 1584.93   5
  -3   5  -5 128129. 5044.55   1
  -3   5  -5 131516. 4371.53   4
  -3   5  -5 127052. 6505.70   5
  -3   5  -4 105.919 218.757   4
  -3   5  -4 710.284 676.252   5
  -3   5  -3 262192. 7640.25   4
  -3   5  -3 238972. 8917.04   3
  -3   5  -3 239266. 9260.06   5
  -3   5  -2 6374.81 793.580   4
  -3   5  -2 5858.99 975.690   3
  -3   5  -2 8834.23 1283.52   5
  -3   5  -1 282443. 8681.00   4
  -3   5  -1 273427. 9235.49   3
  -3   5   0 2084.60 342.085   1
  -3   5   0 1411.54 514.622   3
  -3   5   0 2526.59 756.419   6
  -3   5   0 2481.00 616.172   4
  -3   5   1 258595. 7654.76   1
  -3   5   1 274696. 9252.21   6
  -3   5   1 269307. 9125.81   3
  -3   5   1 272676. 8924.13   4
  -3   5   2 2410.53 494.419   1
  -3   5   2 2966.76 783.289   4
  -3   5   3 198204. 6938.06   7
  -3   5   3 199928. 7755.16   4
  -3   5   4 15125.0 1387.26   7
  -3   5   5 171370. 6208.86   7
  -3   5   6 9971.65 1196.93   7
  -3   5   7 120372. 5287.94   7
  -3   5   8 9614.49 1424.38   7
  -3   5   9 58897.5 3828.02   7
  -3   5  10 25410.0 2585.84   7
  -3   5  11 34350.7 3210.76   7
  -3   5  12 29337.1 3063.14   7
  -3   6  -9 36927.1 4092.54   5
  -3   6  -8 3200.37 1373.16   5
  -3   6  -7 89968.6 5947.26   5
  -3   6  -6 10058.5 1910.13   5
  -3   6  -5 115685. 6305.18   5
  -3   6  -4 720.211 413.743   4
  -3   6  -4-287.767 703.925   5
  -3   6  -4 169.506 674.279   3
  -3   6  -4 843.696 306.218   1
  -3   6  -3 57562.6 3553.77   3
  -3   6  -3 62053.2 2929.75   4
  -3   6  -3 61601.9 3959.42   5
  -3   6  -3 55953.7 2169.04   1
  -3   6  -2 63269.7 3504.00   3
  -3   6  -2 57035.1 2942.24   4
  -3   6  -2 55617.2 3596.69   5
  -3   6  -1 81029.6 3725.58   4
  -3   6  -1 74096.0 3825.79   3
  -3   6   0 35411.2 2403.35   4
  -3   6   0 36895.2 2627.37   6
  -3   6   0 33623.5 2397.56   3
  -3   6   1 85129.0 4279.61   4
  -3   6   1 88253.3 4380.30   6
  -3   6   1 89800.8 4248.93   3
  -3   6   2 39260.5 2829.10   4
  -3   6   3 72371.8 3355.12   7
  -3   6   3 73249.4 4221.79   4
  -3   6   4 101914. 4048.51   7
  -3   6   4 99664.0 5335.52   4
  -3   6   5 19617.1 1548.42   7
  -3   6   6 106069. 4429.32   7
  -3   6   7 27226.2 2093.56   7
  -3   6   8 75550.4 4007.21   7
  -3   6   9 4408.33 1046.46   7
  -3   7  -8 17931.8 2822.67   5
  -3   7  -7 87815.0 6053.43   5
  -3   7  -6 36513.7 3600.43   5
  -3   7  -5 131441. 7037.21   5
  -3   7  -4 32694.0 2857.75   3
  -3   7  -4 38249.5 3353.78   5
  -3   7  -3 86579.4 4707.65   3
  -3   7  -3 96618.2 4219.51   4
  -3   7  -3 88671.8 5162.78   5
  -3   7  -2 116164. 5273.84   3
  -3   7  -2 116388. 4936.53   4
  -3   7  -2 107036. 5532.25   5
  -3   7  -1 81918.5 4085.91   4
  -3   7  -1 83694.9 4200.69   3
  -3   7   0 153556. 6195.26   4
  -3   7   0 145095. 6276.73   6
  -3   7   0 141643. 5874.15   3
  -3   7   1 86676.6 4493.54   4
  -3   7   1 88199.8 4491.26   6
  -3   7   1 81872.6 4049.96   3
  -3   7   2 152368. 5947.43   7
  -3   7   2 166147. 6956.93   4
  -3   7   3 41963.0 2248.72   7
  -3   7   3 38963.2 3133.55   4
  -3   7   4 150616. 5113.34   7
  -3   7   4 154765. 7221.50   4
  -3   7   5 13150.7 1967.36   4
  -3   7   5 10450.8 1009.32   7
  -3   8  -7 51624.2 4735.94   5
  -3   8  -6 52770.7 4286.08   3
  -3   8  -6 58719.9 4803.14   5
  -3   8  -5 44586.7 3622.65   3
  -3   8  -5 35905.4 3539.02   5
  -3   8  -4 87854.9 5082.08   3
  -3   8  -4 90793.1 5592.50   5
  -3   8  -3 43041.7 3256.86   3
  -3   8  -3 47588.3 2983.83   4
  -3   8  -3 51079.3 3870.71   5
  -3   8  -2 68092.1 3775.10   4
  -3   8  -2 71303.0 4419.04   5
  -3   8  -2 61689.4 3765.21   3
  -3   8  -1 29691.5 2430.65   4
  -3   8  -1 26254.0 2228.03   3
  -3   8   0 131174. 5939.89   4
  -3   8   0 124204. 5900.12   6
  -3   8   1 16340.0 1924.69   4
  -3   8   1 15150.4 1825.54   6
  -3   8   2 220078. 8924.92   4
  -3   8   2 221885. 8437.00   6
  -3   8   3 8699.35 1595.05   4
  -3   8   4 124498. 6594.47   4
  -3   8   5 14749.2 2177.82   4
  -3   8   6 103393. 6332.54   4
  -3   9  -6 61793.7 5221.43   5
  -3   9  -5 4592.66 1502.86   5
  -3   9  -4 69589.6 5029.53   5
  -3   9  -3-616.249 845.796   5
  -3   9  -2 62707.0 3860.34   4
  -3   9  -1 912.722 600.233   4
  -3   9   0 66806.1 4213.91   4
  -3   9   0 71833.1 4316.33   6
  -3   9   1 10798.3 1724.41   4
  -3   9   2 105796. 5819.30   4
  -3   9   3 12922.7 2031.54   4
  -3   9   4 67612.7 4831.29   4
  -3   9   5 1562.15 1131.57   4
  -3   9   6 115067. 6961.38   4
  -3  10  -5 5096.67 1564.79   5
  -3  10  -4 68682.4 5180.60   5
  -3  10  -3 5730.00 1495.18   5
  -3  10   0 76947.1 4831.17   4
  -3  10   1 10828.7 1815.77   4
  -3  10   2 52269.2 4098.09   4
  -3  10   3 52305.8 4246.35   4
  -3  10   4 44457.5 4044.76   4
  -3  10   5 42312.4 4105.70   4
  -3  10   6 37956.3 3962.74   4
  -3  11   1 22573.3 2750.91   4
  -3  11   2 35068.3 3545.56   4
  -3  11   3 45665.9 4183.17   4
  -3  11   4 32070.5 3613.84   4
  -3  11   5 54973.1 4850.57   4
  -3  11   6 16272.9 2796.60   4
  -3  11   7 44718.0 4686.30   4
  -3  12   2 2452.93 1192.86   4
  -3  12   3 73990.1 5674.40   4
  -3  12   4 780.915 1038.61   4
  -3  12   5 48012.5 4731.98   4
  -2 -10 -11 40582.0 3995.81   1
  -2 -10 -10 384.169 771.740   1
  -2  -9 -12 30678.4 3584.23   1
  -2  -9 -11 20246.5 2725.79   1
  -2  -8 -12 52395.3 4714.67   1
  -2  -8 -11 13384.5 2307.75   1
  -2  -8  -1 2287.10 421.537   7
  -2  -8   0 171515. 5730.97   7
  -2  -8   1 6822.24 948.328   7
  -2  -8   2 147631. 5860.79   7
  -2  -8   3 5313.73 1043.56   7
  -2  -8   4 136133. 6179.99   7
  -2  -8   5 12472.8 1768.92   7
  -2  -8   6 74231.3 4749.67   7
  -2  -7 -12 48875.2 4558.07   1
  -2  -7  -9 1044.71 554.439   3
  -2  -7  -8 93120.2 4755.66   3
  -2  -7  -7 2224.86 643.850   3
  -2  -7  -6 102295. 4671.16   3
  -2  -7  -5 2673.49 355.760   7
  -2  -7  -5 3500.88 739.270   3
  -2  -7  -2 176411. 5063.99   7
  -2  -7  -1 7369.72 724.213   7
  -2  -7   0 100571. 3848.40   7
  -2  -7   1 31003.5 2014.73   7
  -2  -7   2 27896.0 2098.17   7
  -2  -7   2 26438.7 1835.61   1
  -2  -7   3 27584.0 2247.23   7
  -2  -7   3 23982.9 1777.09   1
  -2  -7   4 70675.2 4061.85   7
  -2  -7   5 46691.8 3409.88   7
  -2  -7   6 79968.7 4889.74   7
  -2  -7   7 25676.7 2774.76   7
  -2  -7   8 6673.70 1625.46   7
  -2  -6 -12 83423.0 5569.71   3
  -2  -6 -12 97422.6 6469.41   1
  -2  -6 -11 8474.96 1584.64   3
  -2  -6 -10 28022.1 2742.09   3
  -2  -6  -9 5692.53 1221.54   3
  -2  -6  -8 55852.6 3459.34   3
  -2  -6  -7 28065.4 1901.33   7
  -2  -6  -7 32690.4 2449.99   3
  -2  -6  -6 43449.3 2239.57   7
  -2  -6  -6 52332.4 2999.52   3
  -2  -6  -5 59188.2 2420.43   7
  -2  -6  -5 60808.0 3250.26   3
  -2  -6  -4 13220.8 1309.81   3
  -2  -6  -3 53620.0 2063.41   7
  -2  -6  -2 28678.5 1346.08   7
  -2  -6  -1 67281.5 2612.21   7
  -2  -6   0 51648.2 2404.21   7
  -2  -6   1 110446. 4337.58   7
  -2  -6   2 31879.3 2169.87   7
  -2  -6   3 210448. 7529.89   7
  -2  -6   3 195560. 6918.72   1
  -2  -6   4 18828.3 1928.60   7
  -2  -6   5 131869. 6150.06   7
  -2  -6   6 7355.17 1386.20   7
  -2  -6   7 74492.4 4849.42   7
  -2  -6   8-21.1245 739.544   7
  -2  -6   9 59570.9 4771.22   7
  -2  -5 -14 47659.3 4586.66   3
  -2  -5 -13 22691.7 2974.37   3
  -2  -5 -12 103115. 6644.82   1
  -2  -5 -12 90946.6 5856.02   3
  -2  -5 -11 61093.6 4425.37   3
  -2  -5 -10 59845.3 4095.00   3
  -2  -5  -9 49237.0 3469.99   3
  -2  -5  -9 52397.9 3133.91   6
  -2  -5  -8 150502. 6456.11   3
  -2  -5  -8 155048. 5914.01   6
  -2  -5  -7 114177. 5127.77   3
  -2  -5  -7 117250. 4676.93   6
  -2  -5  -6 127418. 4832.20   7
  -2  -5  -6 139756. 5501.69   3
  -2  -5  -5 222809. 7067.45   7
  -2  -5  -5 249869. 8066.84   3
  -2  -5  -4 73287.0 3523.86   3
  -2  -5  -3 356685. 10847.6   3
  -2  -5  -2 69077.8 2647.00   7
  -2  -5  -1 434767. 11891.7   7
  -2  -5   0 31381.5 1727.53   7
  -2  -5   1 320732. 9646.39   7
  -2  -5   2 28230.1 1971.96   7
  -2  -5   3 209432. 7270.57   1
  -2  -5   3 218029. 7668.58   7
  -2  -5   4 1774.25 720.855   7
  -2  -5   5 202057. 8027.34   7
  -2  -5   6-278.608 595.260   7
  -2  -5   7 136222. 6770.05   7
  -2  -5   8 1505.58 1004.95   7
  -2  -5   9 62505.9 4734.88   7
  -2  -5  10 2341.26 1079.88   7
  -2  -4 -13 19361.9 2959.69   1
  -2  -4 -12 38116.3 3954.76   1
  -2  -4 -11 55263.0 3799.15   5
  -2  -4 -10 66406.6 3970.94   5
  -2  -4  -9 97192.3 4692.30   5
  -2  -4  -7 165484. 6591.51   3
  -2  -4  -6 24101.4 1956.23   3
  -2  -4  -6 25868.9 1804.82   7
  -2  -4  -6 25861.6 1815.40   6
  -2  -4  -5 124148. 4573.31   7
  -2  -4  -5 129356. 4727.32   6
  -2  -4  -5 124394. 4970.42   3
  -2  -4  -4 10829.6 1174.88   3
  -2  -4  -3 372817. 11305.4   3
  -2  -4  -2 77251.5 3469.82   3
  -2  -4  -1 294679. 8518.53   7
  -2  -4   0 5860.26 707.862   7
  -2  -4   1 234393. 7367.05   7
  -2  -4   2 28907.1 1916.37   7
  -2  -4   3 37303.4 2307.33   1
  -2  -4   3 32919.6 2279.90   7
  -2  -4   4 27650.6 2236.47   7
  -2  -4   5 129515. 5859.89   7
  -2  -4   6 18148.8 2039.31   7
  -2  -4   7 82658.9 4933.37   7
  -2  -4   8 26357.0 2864.45   7
  -2  -4   9 32549.5 3293.32   7
  -2  -4  10 7807.18 1709.32   7
  -2  -4  11 41538.1 4170.54   7
  -2  -3 -13 40704.7 4322.36   1
  -2  -3 -13 46967.3 3981.74   5
  -2  -3 -12 1488.84 770.148   5
  -2  -3 -12-951.205 995.923   1
  -2  -3 -11 57486.2 4008.56   5
  -2  -3 -10-123.143 595.687   5
  -2  -3  -9 141331. 6174.12   5
  -2  -3  -8 668.222 446.982   5
  -2  -3  -7 200255. 7142.27   5
  -2  -3  -5 193623. 6800.51   3
  -2  -3  -4 18082.3 1487.92   3
  -2  -3  -4 22529.6 1740.95   4
  -2  -3  -4 18496.8 1417.96   6
  -2  -3  -3 256777. 8198.07   4
  -2  -3  -3 243339. 7945.40   3
  -2  -3  -2 98189.4 4120.43   3
  -2  -3  -1 114475. 4409.79   3
  -2  -3   0 27197.5 1595.26   7
  -2  -3   1 240650. 7451.11   7
  -2  -3   2 51705.3 2638.00   7
  -2  -3   3 92602.5 4089.54   7
  -2  -3   3 95294.0 4097.20   1
  -2  -3   4 42327.5 2704.68   7
  -2  -3   5 93711.6 4678.56   7
  -2  -3   6 172680. 7289.81   7
  -2  -3   7 86611.6 4953.15   7
  -2  -3   8 142722. 7027.60   7
  -2  -3   9 20475.8 2546.73   7
  -2  -3  10 62503.1 4834.18   7
  -2  -3  11 32277.1 3583.91   7
  -2  -2 -14 1056.75 1043.35   5
  -2  -2 -13 75996.8 5919.62   1
  -2  -2 -13 78585.8 5508.02   5
  -2  -2 -12 3844.43 1292.10   1
  -2  -2 -12 1948.80 1071.64   5
  -2  -2 -11 117424. 6820.77   1
  -2  -2 -11 112078. 6108.79   5
  -2  -2 -10 9138.44 1510.41   5
  -2  -2  -9 114504. 3814.57   2
  -2  -2  -9 117293. 5627.97   5
  -2  -2  -8 21859.4 2050.23   5
  -2  -2  -7 189628. 7059.03   5
  -2  -2  -6 1989.35 606.253   4
  -2  -2  -6 3332.87 697.749   5
  -2  -2  -5 187670. 6479.89   4
  -2  -2  -5 192545. 6501.75   5
  -2  -2  -4 5226.22 745.089   4
  -2  -2  -4 3350.78 679.231   3
  -2  -2  -3 163340. 5480.67   4
  -2  -2  -3 163595. 5477.00   6
  -2  -2  -3 161579. 5587.58   3
  -2  -2  -2 170685. 5857.49   3
  -2  -2  -1 180961. 6323.75   3
  -2  -2   0 233447. 7230.57   7
  -2  -2   1 612310. 16691.3   7
  -2  -2   2 28253.7 1817.19   7
  -2  -2   3 200046. 6900.07   7
  -2  -2   3 200017. 6904.84   1
  -2  -2   4 117536. 4902.13   1
  -2  -2   4 117059. 4958.22   7
  -2  -2   5 73942.0 3952.36   7
  -2  -2   6 186810. 7562.28   7
  -2  -2   7 50900.0 2608.69   2
  -2  -2   7 52873.1 3616.79   7
  -2  -2   8 78588.1 4866.25   7
  -2  -2   9 24741.9 2736.92   7
  -2  -2  10 63785.4 4741.86   7
  -2  -2  11 6781.92 1655.41   7
  -2  -2  12 53861.8 4832.14   7
  -2  -1 -14 3235.29 1182.02   5
  -2  -1 -13 51847.8 4769.04   1
  -2  -1 -13 51900.8 4591.55   5
  -2  -1 -12 10656.5 2149.08   1
  -2  -1 -12 11351.4 2049.16   5
  -2  -1 -11 112924. 6681.83   1
  -2  -1 -11 112378. 6298.88   5
  -2  -1 -10 4131.88 1141.47   5
  -2  -1  -9 70434.2 4304.23   5
  -2  -1  -8 54618.7 3499.99   5
  -2  -1  -7 149651. 5710.09   4
  -2  -1  -7 155324. 6286.01   5
  -2  -1  -6 109538. 4329.25   4
  -2  -1  -6 109480. 4763.75   5
  -2  -1  -5 95581.3 3707.87   4
  -2  -1  -5 91875.2 4024.13   5
  -2  -1  -4 153757. 4951.03   4
  -2  -1  -4 145839. 5310.40   5
  -2  -1  -3 90561.5 3810.02   3
  -2  -1  -3 103738. 3456.41   4
  -2  -1  -2 194519. 6141.71   6
  -2  -1  -2 185639. 6180.06   3
  -2  -1  -1 125769. 4685.57   3
  -2  -1   0 390667. 11487.5   3
  -2  -1   1 128868. 4582.72   7
  -2  -1   2 433773. 12416.8   7
  -2  -1   3 69617.2 3225.06   7
  -2  -1   3 65360.5 3185.30   1
  -2  -1   4 253881. 8569.77   7
  -2  -1   4 261935. 8622.95   1
  -2  -1   5 28604.3 2210.47   7
  -2  -1   5 23862.6 1680.62   2
  -2  -1   6 126532. 5726.27   7
  -2  -1   6 127888. 4718.36   2
  -2  -1   7 1215.93 802.045   7
  -2  -1   7 792.249 341.527   2
  -2  -1   8 90948.5 5171.01   7
  -2  -1   9 148.968 710.159   7
  -2  -1  10 78681.3 5216.68   7
  -2  -1  11 514.444 716.176   7
  -2  -1  12 19925.8 2958.55   7
  -2   0 -13 20325.7 2919.13   1
  -2   0 -13 17401.3 2730.11   5
  -2   0 -12 51927.9 4544.55   1
  -2   0 -12 50045.0 4365.65   5
  -2   0 -11 15627.5 2333.88   1
  -2   0 -11 21326.1 2650.44   5
  -2   0 -10 53592.1 4135.06   1
  -2   0 -10 53511.6 4073.08   5
  -2   0  -9 26483.7 2665.68   5
  -2   0  -8 126011. 6013.57   5
  -2   0  -7 12473.1 1237.06   4
  -2   0  -7 14266.4 1690.38   5
  -2   0  -6 296582. 8966.55   4
  -2   0  -6 296583. 10007.0   5
  -2   0  -5 16107.9 1139.53   4
  -2   0  -5 14185.5 876.293   2
  -2   0  -4 343498. 9504.99   4
  -2   0  -4 354559. 10609.1   5
  -2   0  -3 97117.5 3010.91   4
  -2   0  -3 95274.8 3829.45   5
  -2   0  -2 575245. 15826.3   3
  -2   0  -1 12819.4 1092.43   6
  -2   0  -1 10668.0 1038.82   3
  -2   0   0 155149. 5595.70   3
  -2   0   1 128136. 4605.50   7
  -2   0   2 769095. 20683.6   7
  -2   0   3 3243.05 664.658   7
  -2   0   3 4583.04 712.859   2
  -2   0   3 4559.08 801.955   1
  -2   0   4 118343. 4754.59   7
  -2   0   4 124592. 4931.33   1
  -2   0   4 111976. 4363.37   2
  -2   0   5 18550.4 1722.93   7
  -2   0   5 19776.9 1463.01   2
  -2   0   6 66251.7 2986.11   2
  -2   0   6 64689.5 3692.88   7
  -2   0   7 29962.8 2579.94   7
  -2   0   7 30365.2 1833.03   2
  -2   0   8 150086. 6891.10   7
  -2   0   9 39411.6 3366.42   7
  -2   0  10 130618. 6946.31   7
  -2   0  11 15627.9 2417.66   7
  -2   0  12 42575.3 4079.37   7
  -2   1 -13 3968.05 1290.49   1
  -2   1 -13 5139.59 1616.77   5
  -2   1 -12 79349.2 5693.09   1
  -2   1 -12 84815.9 6012.53   5
  -2   1 -11 3302.55 1279.36   1
  -2   1 -11 885.314 1051.26   5
  -2   1 -10 148112. 7479.15   1
  -2   1 -10 158915. 7806.66   5
  -2   1  -9 5288.40 1218.20   1
  -2   1  -9 5005.73 1250.29   5
  -2   1  -8 261384. 8832.67   4
  -2   1  -8 294912. 10623.8   5
  -2   1  -7 2566.24 539.598   4
  -2   1  -7 2871.75 989.219   5
  -2   1  -6 289958. 10089.4   5
  -2   1  -6 289029. 8666.33   4
  -2   1  -5 28951.4 2214.63   5
  -2   1  -5 26236.0 1442.30   4
  -2   1  -4 319143. 8809.62   2
  -2   1  -4 336721. 10347.2   5
  -2   1  -4 326582. 8784.23   4
  -2   1  -3 8956.51 758.029   2
  -2   1  -3 10472.0 1154.17   5
  -2   1  -2 791681. 21067.5   3
  -2   1  -2 775979. 21077.2   5
  -2   1  -2 786655. 20609.8   2
  -2   1  -1 248857. 7759.33   6
  -2   1  -1 262442. 7708.55   2
  -2   1  -1 261457. 7831.79   3
  -2   1   0 170677. 5684.03   6
  -2   1   0 164356. 5738.83   3
  -2   1   1 79680.7 3378.77   3
  -2   1   2 313082. 9319.54   7
  -2   1   3 49605.5 2522.80   7
  -2   1   3 53097.6 2574.62   2
  -2   1   3 51451.9 2638.14   1
  -2   1   4 368715. 10742.2   2
  -2   1   4 346177. 10908.5   7
  -2   1   4 373754. 11261.1   1
  -2   1   5 243871. 7764.84   2
  -2   1   5 242813. 8279.64   7
  -2   1   6 131351. 5593.56   7
  -2   1   7 129821. 5874.94   7
  -2   1   8 73485.0 4373.98   7
  -2   1   9 81739.8 4911.66   7
  -2   1  10 56632.6 4184.79   7
  -2   1  11 76511.9 5239.60   7
  -2   1  12 55561.8 4634.47   7
  -2   2 -13 4001.41 1635.29   1
  -2   2 -12 50740.2 4527.06   1
  -2   2 -12 54013.3 4875.99   5
  -2   2 -11-177.081 805.707   1
  -2   2 -11 1019.79 1016.24   5
  -2   2 -10 69856.2 4811.33   1
  -2   2 -10 71887.3 5107.18   5
  -2   2  -9 2637.51 975.377   1
  -2   2  -9 1029.82 821.175   5
  -2   2  -8 115865. 5782.82   1
  -2   2  -8 122059. 6283.32   5
  -2   2  -7 476.999 337.366   4
  -2   2  -7 695.661 756.775   5
  -2   2  -6 185774. 7550.95   5
  -2   2  -5 6647.97 1186.01   5
  -2   2  -4 204170. 7426.30   5
  -2   2  -3 16953.7 1534.75   5
  -2   2  -2 447899. 11559.0   4
  -2   2  -2 468277. 13097.2   5
  -2   2  -1 53980.7 2498.28   3
  -2   2  -1 54374.4 2573.76   5
  -2   2  -1 55972.8 1918.38   4
  -2   2   0 175633. 5812.17   6
  -2   2   0 175311. 5837.62   3
  -2   2   0 175860. 5304.08   4
  -2   2   1 102609. 4034.67   3
  -2   2   2 145967. 5046.75   7
  -2   2   2 143314. 4929.88   1
  -2   2   3 159166. 5492.06   7
  -2   2   3 164096. 5660.32   1
  -2   2   4 252621. 8198.31   1
  -2   2   4 235573. 7770.29   7
  -2   2   5 145382. 5545.48   7
  -2   2   6 242190. 8444.31   7
  -2   2   7 72072.6 3969.43   7
  -2   2   8 17776.1 1971.75   7
  -2   2   9 89589.4 5044.49   7
  -2   2  10 4719.82 1279.60   7
  -2   2  11 97693.8 5908.95   7
  -2   2  12 665.564 832.409   7
  -2   3 -12 34202.2 3634.55   1
  -2   3 -11 11277.8 2342.39   5
  -2   3 -11 10115.6 1946.43   1
  -2   3 -10 38781.0 3465.92   1
  -2   3 -10 51161.1 4358.87   5
  -2   3  -9 10388.9 1680.40   1
  -2   3  -9 6239.33 1415.24   5
  -2   3  -8 33696.9 3154.79   5
  -2   3  -8 27113.8 2541.05   1
  -2   3  -7 48580.1 3169.55   1
  -2   3  -7 42055.4 3387.50   5
  -2   3  -6 56355.2 3789.12   5
  -2   3  -5 49941.8 3336.99   5
  -2   3  -4 19335.9 1881.71   5
  -2   3  -3 129036. 4023.96   4
  -2   3  -3 128645. 5301.08   5
  -2   3  -2 10513.1 756.413   4
  -2   3  -2 8751.38 1107.54   5
  -2   3  -1 82509.6 3352.11   3
  -2   3  -1 82122.6 2928.50   4
  -2   3  -1 83208.1 3540.36   5
  -2   3   0 52742.1 2294.54   4
  -2   3   0 51310.4 2456.56   3
  -2   3   1 346934. 9823.87   1
  -2   3   1 368097. 10592.5   6
  -2   3   1 340225. 10510.2   3
  -2   3   1 376127. 10487.4   4
  -2   3   2 102916. 3899.21   7
  -2   3   2 96349.7 3629.39   1
  -2   3   2 103492. 4206.93   4
  -2   3   3 425601. 12276.0   7
  -2   3   3 446176. 12556.7   1
  -2   3   4 1998.92 531.541   7
  -2   3   5 166897. 5999.67   7
  -2   3   6 9208.23 1181.90   7
  -2   3   7 151186. 6204.28   7
  -2   3   8 1062.74 463.199   7
  -2   3   9 121716. 5956.26   7
  -2   3  10 863.808 640.915   7
  -2   3  11 100737. 5906.10   7
  -2   3  12 6740.24 1654.09   7
  -2   4 -11 46637.8 4109.00   1
  -2   4 -11 50725.4 4728.42   5
  -2   4 -10 54250.7 4694.57   5
  -2   4 -10 45695.4 3786.06   1
  -2   4  -9 105773. 5695.05   1
  -2   4  -9 102574. 6404.80   5
  -2   4  -8 42115.9 3150.09   1
  -2   4  -8 42135.0 3753.05   5
  -2   4  -7 123154. 5610.63   1
  -2   4  -7 129911. 6658.50   5
  -2   4  -6 66062.9 4264.75   5
  -2   4  -6 56654.1 3249.94   1
  -2   4  -5 192429. 6706.60   1
  -2   4  -5 182347. 7741.37   5
  -2   4  -4 36839.2 1901.67   4
  -2   4  -4 35001.8 2698.46   5
  -2   4  -3 339540. 9739.09   4
  -2   4  -3 346047. 11206.8   5
  -2   4  -2 10547.0 920.114   4
  -2   4  -2 7478.85 1087.21   5
  -2   4  -1 389908. 11550.0   3
  -2   4  -1 412545. 11350.3   4
  -2   4  -1 389546. 11884.6   5
  -2   4   0 18065.1 1365.27   4
  -2   4   0 17001.9 813.384   1
  -2   4   0 19109.7 1372.37   3
  -2   4   1 200776. 6620.81   4
  -2   4   1 192598. 6479.86   6
  -2   4   1 184135. 6359.68   3
  -2   4   1 196161. 5625.40   1
  -2   4   2 21849.8 1491.22   7
  -2   4   2 20304.3 1719.13   4
  -2   4   3 294906. 8724.37   7
  -2   4   3 300578. 9890.18   4
  -2   4   4 569.339 478.971   4
  -2   4   4 870.815 390.046   7
  -2   4   5 265884. 8364.21   7
  -2   4   6 10064.4 1153.26   7
  -2   4   7 253359. 8793.22   7
  -2   4   8 4275.40 1014.78   7
  -2   4   9 119834. 5741.11   7
  -2   4  10 13867.8 1889.12   7
  -2   4  11 108716. 6030.89   7
  -2   5 -10 15535.6 2622.20   5
  -2   5  -9 107556. 6808.65   5
  -2   5  -8 5552.09 1189.88   1
  -2   5  -8 4178.11 1246.10   5
  -2   5  -7 96628.8 5839.94   5
  -2   5  -7 97780.9 4802.43   1
  -2   5  -6 11118.1 1777.70   5
  -2   5  -6 12662.6 1416.74   1
  -2   5  -5 117980. 4524.25   4
  -2   5  -5 115558. 4640.94   1
  -2   5  -5 117032. 5949.75   5
  -2   5  -4 5995.49 801.731   4
  -2   5  -4 7213.91 812.692   1
  -2   5  -4 5833.20 1173.61   5
  -2   5  -3 232344. 7383.53   4
  -2   5  -3 226924. 6722.29   1
  -2   5  -3 237165. 8601.84   5
  -2   5  -2 37273.8 2115.70   4
  -2   5  -2 36421.5 2529.59   5
  -2   5  -2 35339.8 1343.28   1
  -2   5  -1 229506. 7514.46   3
  -2   5  -1 230820. 7559.95   4
  -2   5  -1 237655. 8002.40   5
  -2   5   0 2733.45 665.293   4
  -2   5   0 2648.81 539.228   3
  -2   5   0 1601.54 534.951   5
  -2   5   1 79030.4 3701.34   4
  -2   5   1 80955.9 3527.73   6
  -2   5   1 75143.2 3281.90   3
  -2   5   2 50440.7 2964.94   4
  -2   5   2 49099.6 2375.33   7
  -2   5   3 99803.7 3529.60   7
  -2   5   3 94873.5 4661.66   4
  -2   5   4 17496.0 1224.51   7
  -2   5   4 17969.7 1950.71   4
  -2   5   5 106556. 4026.52   7
  -2   5   5 102187. 5348.76   4
  -2   5   6 27379.2 1899.77   7
  -2   5   7 61692.8 3288.87   7
  -2   5   8 47339.3 3024.99   7
  -2   5   9 31081.7 2572.69   7
  -2   5  10 46198.6 3432.87   7
  -2   5  11 32226.1 3015.56   7
  -2   6  -9 41737.9 4240.02   5
  -2   6  -8 1036.69 927.042   5
  -2   6  -7 77776.6 5344.21   5
  -2   6  -6 9084.18 1121.94   4
  -2   6  -6 8348.32 1626.00   5
  -2   6  -5 127296. 5052.11   4
  -2   6  -5 128940. 6527.89   5
  -2   6  -4 39459.2 2406.32   4
  -2   6  -4 41635.5 3252.68   5
  -2   6  -3 121440. 4796.00   4
  -2   6  -3 110862. 5490.43   5
  -2   6  -2 56506.5 3014.55   4
  -2   6  -2 58043.0 3458.79   5
  -2   6  -1 67269.8 3264.26   3
  -2   6  -1 77109.5 3632.56   4
  -2   6  -1 67604.3 3182.96   7
  -2   6  -1 75934.4 3802.01   5
  -2   6   0 74097.2 3682.02   4
  -2   6   0 67974.0 2965.90   7
  -2   6   0 73730.1 3554.03   5
  -2   6   0 72409.7 3207.32   3
  -2   6   1 123778. 5279.88   4
  -2   6   1 127292. 4893.65   6
  -2   6   1 116629. 4476.87   3
  -2   6   2 115008. 5093.57   4
  -2   6   2 114885. 4517.39   6
  -2   6   3 114661. 5460.59   4
  -2   6   3 116694. 3770.17   7
  -2   6   4 165956. 5082.41   7
  -2   6   4 164883. 7159.17   4
  -2   6   5 27442.8 1566.54   7
  -2   6   5 27954.2 2720.18   4
  -2   6   6 120359. 4491.82   7
  -2   6   6 120910. 6340.13   4
  -2   6   7 61023.2 3083.45   7
  -2   6   8 109828. 4810.85   7
  -2   6   9 10396.2 1406.50   7
  -2   7  -8 12574.9 2286.42   5
  -2   7  -7 78859.8 5602.51   5
  -2   7  -6 40013.1 3705.51   5
  -2   7  -5 116878. 4999.48   4
  -2   7  -5 109436. 6191.43   5
  -2   7  -4 38582.2 2530.98   4
  -2   7  -4 34371.6 3120.99   5
  -2   7  -3 72636.7 3706.09   4
  -2   7  -3 67974.1 4261.58   5
  -2   7  -2 188903. 7184.23   3
  -2   7  -2 198127. 7282.76   4
  -2   7  -2 203252. 7883.65   5
  -2   7  -1 74109.3 3511.66   3
  -2   7  -1 80005.6 3974.20   4
  -2   7  -1 72893.9 3942.85   5
  -2   7  -1 67526.6 3331.30   7
  -2   7   0 112925. 4298.39   7
  -2   7   0 122075. 5372.12   4
  -2   7   0 124922. 5170.75   5
  -2   7   0 118437. 4594.64   3
  -2   7   1 98485.1 4899.95   4
  -2   7   1 100749. 3546.70   7
  -2   7   1 106753. 4499.66   6
  -2   7   1 97325.9 3890.51   3
  -2   7   2 116967. 5542.25   4
  -2   7   2 114820. 3568.68   7
  -2   7   2 123328. 4909.16   6
  -2   7   2 109179. 3907.48   7
  -2   7   3 76871.7 4343.05   4
  -2   7   3 65446.0 2094.46   7
  -2   7   4 172081. 4778.76   7
  -2   7   4 194209. 7997.12   4
  -2   7   5 4866.66 489.236   7
  -2   7   5 3962.01 1142.90   4
  -2   7   6 121246. 6589.04   4
  -2   7   7 72671.0 5069.41   4
  -2   8  -8 36795.4 4079.77   5
  -2   8  -7 45249.0 4271.83   5
  -2   8  -6 57848.7 4708.25   5
  -2   8  -5 28827.8 3067.76   5
  -2   8  -4 61986.9 3575.81   4
  -2   8  -4 54118.0 4115.77   5
  -2   8  -3 44336.0 3025.27   4
  -2   8  -3 47005.9 3545.15   5
  -2   8  -2 94705.9 4588.86   3
  -2   8  -2 100764. 4875.70   4
  -2   8  -2 101791. 5257.56   5
  -2   8  -1 42657.6 2611.63   3
  -2   8  -1 44340.4 3090.17   4
  -2   8  -1 43007.8 3033.75   5
  -2   8   0 99878.9 5053.50   4
  -2   8   0 98129.4 4111.15   3
  -2   8   1 26440.8 2477.33   4
  -2   8   1 28878.5 2219.68   6
  -2   8   2 126270. 6178.42   4
  -2   8   2 132308. 5407.69   6
  -2   8   3 15973.7 2089.15   4
  -2   8   4 166004. 7703.69   4
  -2   8   5 1660.00 943.360   4
  -2   8   6 93884.0 5862.37   4
  -2   8   7-763.730 888.298   4
  -2   9  -7 516.686 1179.35   5
  -2   9  -6 50740.5 4483.06   5
  -2   9  -5 43.5631 760.442   5
  -2   9  -4 84671.8 5413.68   5
  -2   9  -3 1928.18 815.391   4
  -2   9  -3 467.188 617.359   5
  -2   9  -2 108360. 5385.22   4
  -2   9  -2 95497.4 5357.74   5
  -2   9  -1-440.014 680.785   4
  -2   9  -1 164.321 485.313   5
  -2   9   0 93186.3 5128.29   4
  -2   9   1 6245.64 1328.80   4
  -2   9   1 7083.85 1202.92   6
  -2   9   2 94797.8 5419.68   4
  -2   9   3 7090.25 1440.63   4
  -2   9   4 53256.6 4169.30   4
  -2   9   5 11539.4 2004.44   4
  -2   9   6 69062.5 5113.94   4
  -2   9   7 45779.6 4283.98   4
  -2   9   8 84246.7 6124.45   4
  -2  10  -6 74618.0 5732.23   5
  -2  10  -5 3582.36 1266.11   5
  -2  10  -4 60016.6 4723.01   5
  -2  10  -3 28581.1 2996.78   5
  -2  10  -2 98248.7 5348.43   4
  -2  10  -2 84932.3 5201.05   5
  -2  10  -1 27265.0 2737.63   4
  -2  10   0 102781. 5713.90   4
  -2  10   1 35622.9 3243.31   4
  -2  10   2 86282.4 5413.02   4
  -2  10   3 60655.9 4535.06   4
  -2  10   4 53118.1 4358.57   4
  -2  10   5 80830.3 5653.39   4
  -2  10   6 44221.5 4201.66   4
  -2  10   7 64687.1 5346.70   4
  -2  10   8 40072.2 4358.56   4
  -2  11  -5 9415.92 1997.33   5
  -2  11   0 51260.6 4086.01   4
  -2  11   1 41497.1 3726.49   4
  -2  11   2 33290.9 3379.67   4
  -2  11   3 44363.1 4017.22   4
  -2  11   4 41845.3 4039.66   4
  -2  11   5 39183.8 3985.16   4
  -2  11   6 9423.14 2015.27   4
  -2  11   7 42887.1 4528.43   4
  -2  12   1 80428.3 5575.34   4
  -2  12   2 1021.06 973.217   4
  -2  12   3 56794.5 4825.54   4
  -2  12   4 343.144 781.469   4
  -2  12   5 56451.1 5078.45   4
  -2  13   2 317.332 700.656   4
  -1 -10 -11 47720.0 4255.14   1
  -1 -10 -10 2527.33 1059.81   1
  -1 -10  -9 30158.6 3043.27   1
  -1 -10  -8 4863.56 1123.54   1
  -1  -9 -12 36156.2 3855.74   1
  -1  -9 -11 42463.3 4021.11   1
  -1  -9 -10 43584.1 3872.79   1
  -1  -9  -9 33472.3 3217.98   1
  -1  -9  -8 88300.6 5132.22   1
  -1  -8 -12 41718.6 4183.46   1
  -1  -8 -11 13777.8 2379.55   1
  -1  -8 -10 83513.5 5503.47   1
  -1  -8  -9 19118.9 2394.98   1
  -1  -7 -12 43752.3 4241.15   1
  -1  -7 -11 432.055 904.101   1
  -1  -7 -10 64861.0 4753.50   1
  -1  -7  -8 24550.6 2013.43   3
  -1  -7  -7 3359.19 739.765   3
  -1  -7  -6 29756.3 1882.40   3
  -1  -7  -5 24559.3 1206.78   3
  -1  -7   1 35525.5 1649.55   1
  -1  -7   2 59944.4 2480.42   1
  -1  -7   2 63164.9 3210.05   7
  -1  -7   3 48897.9 2998.80   7
  -1  -6 -12 72452.8 5535.33   1
  -1  -6 -11 17861.5 2574.55   1
  -1  -6 -10 129344. 6982.40   1
  -1  -6 -10 125909. 6104.55   3
  -1  -6  -9 49007.2 3278.25   3
  -1  -6  -8 120715. 5256.38   3
  -1  -6  -7 68871.3 3386.18   3
  -1  -6  -7 63370.4 2985.33   7
  -1  -6  -6 126113. 4386.92   7
  -1  -6  -6 135411. 5001.70   3
  -1  -6  -5 95795.9 3173.20   7
  -1  -6  -5 101134. 3863.09   3
  -1  -6  -4 85035.2 3029.86   3
  -1  -6  -1 302915. 8179.49   7
  -1  -6   0 74928.4 2858.19   7
  -1  -6   1 158445. 5453.45   7
  -1  -6   2 54350.5 2856.94   7
  -1  -6   2 51923.6 2307.31   1
  -1  -6   3 155107. 5384.25   1
  -1  -6   3 162119. 6186.59   7
  -1  -6   4 14970.0 1702.68   7
  -1  -6   5 164973. 7031.09   7
  -1  -6   6 12561.7 1827.32   7
  -1  -5 -13 18434.2 2903.93   1
  -1  -5 -12 74782.0 5600.33   1
  -1  -5 -11 52305.5 4379.36   1
  -1  -5 -10 63981.6 4656.16   1
  -1  -5 -10 66755.4 3788.30   2
  -1  -5 -10 65053.7 3577.17   5
  -1  -5  -9 81783.2 3825.29   5
  -1  -5  -7 143470. 5586.07   7
  -1  -5  -7 163724. 5270.61   6
  -1  -5  -6 199173. 6761.25   3
  -1  -5  -6 190075. 6398.18   7
  -1  -5  -6 203069. 6035.47   6
  -1  -5  -5 154069. 5016.11   7
  -1  -5  -5 165137. 5484.44   3
  -1  -5  -4 122511. 3750.10   7
  -1  -5  -4 124260. 4359.84   3
  -1  -5  -3 116546. 3841.91   3
  -1  -5  -1 353058. 9361.38   7
  -1  -5   0 93153.3 3259.81   7
  -1  -5   1 131039. 4609.40   7
  -1  -5   2 15807.8 1380.75   7
  -1  -5   2 14721.7 1108.17   1
  -1  -5   3 149781. 5645.46   7
  -1  -5   3 133575. 4913.56   1
  -1  -5   4 244.875 453.583   7
  -1  -5   5 100597. 5002.83   7
  -1  -5   6 8761.51 1459.74   7
  -1  -5   7 154869. 7315.09   7
  -1  -5   8 1956.24 1018.54   7
  -1  -4 -13 28070.3 3511.13   1
  -1  -4 -12 33203.3 3637.84   1
  -1  -4 -11 57817.7 4637.49   1
  -1  -4 -11 62420.6 3884.64   5
  -1  -4 -10 3374.55 837.875   5
  -1  -4 -10 4548.47 873.873   2
  -1  -4 -10 2186.92 1086.42   1
  -1  -4  -9 61198.9 3382.10   5
  -1  -4  -8 17475.0 1545.04   5
  -1  -4  -7 179950. 6099.30   5
  -1  -4  -6 1607.06 460.357   7
  -1  -4  -6 1108.69 383.106   5
  -1  -4  -5 244691. 7843.09   3
  -1  -4  -5 251429. 7647.57   7
  -1  -4  -5 254380. 7278.24   6
  -1  -4  -4 573.911 206.656   7
  -1  -4  -4 680.575 357.835   3
  -1  -4  -3 136298. 3961.95   7
  -1  -4  -3 134509. 4514.54   3
  -1  -4  -2 25683.2 1056.80   7
  -1  -4  -1 235466. 6375.30   7
  -1  -4   0 2958.05 420.576   7
  -1  -4   1 422950. 11814.7   7
  -1  -4   2 6205.74 836.314   7
  -1  -4   2 6471.32 718.912   1
  -1  -4   3 359058. 11045.9   7
  -1  -4   3 356452. 10484.9   1
  -1  -4   4 44429.4 2512.24   1
  -1  -4   4 45490.6 2864.43   7
  -1  -4   5 151407. 6344.21   7
  -1  -4   6 20819.4 2198.40   7
  -1  -4   7 87910.7 5071.66   7
  -1  -4   8 52852.2 4031.64   7
  -1  -4   9 70530.9 4955.07   7
  -1  -3 -13 72985.5 5775.13   1
  -1  -3 -12 4787.08 1409.13   1
  -1  -3 -12 4972.60 1211.94   5
  -1  -3 -11 71889.2 5146.78   1
  -1  -3 -11 68248.8 4334.27   5
  -1  -3 -10 72.0799 680.942   5
  -1  -3 -10 95.9068 612.461   1
  -1  -3  -9 95293.8 3921.80   2
  -1  -3  -9 94931.0 4626.72   5
  -1  -3  -8 7575.38 1041.73   5
  -1  -3  -7 156940. 5737.59   5
  -1  -3  -6 340.975 367.091   7
  -1  -3  -6 592.090 416.339   5
  -1  -3  -5 149553. 5179.25   7
  -1  -3  -5 144298. 4801.45   5
  -1  -3  -4 39748.5 2357.87   4
  -1  -3  -4 38828.1 1893.83   7
  -1  -3  -3 343018. 9611.66   3
  -1  -3  -2 155335. 4905.53   3
  -1  -3  -1 238812. 6489.76   7
  -1  -3   0 356371. 9607.44   7
  -1  -3   1 428584. 11781.9   7
  -1  -3   2 104173. 3920.50   7
  -1  -3   2 98710.9 3638.49   1
  -1  -3   3 393156. 11687.4   7
  -1  -3   3 387370. 11271.3   1
  -1  -3   4 71879.0 3379.92   1
  -1  -3   4 72395.3 3658.49   7
  -1  -3   5 254361. 9016.84   7
  -1  -3   6 117972. 5571.51   7
  -1  -3   7 44760.4 3365.86   7
  -1  -3   8 134039. 6719.64   7
  -1  -3   9 21324.1 2639.69   7
  -1  -2 -14 910.515 1080.17   5
  -1  -2 -13 74830.9 5813.35   1
  -1  -2 -13 75537.9 5285.97   5
  -1  -2 -12 1230.24 1234.36   1
  -1  -2 -12 1329.24 853.737   5
  -1  -2 -11 81799.7 5532.85   1
  -1  -2 -11 84584.8 5046.05   5
  -1  -2 -10 7489.66 1606.65   1
  -1  -2 -10 6358.42 1251.68   5
  -1  -2  -9 169794. 7074.12   5
  -1  -2  -9 177208. 5547.88   2
  -1  -2  -9 173295. 7913.87   1
  -1  -2  -8 9945.31 886.345   2
  -1  -2  -8 9513.96 1330.94   5
  -1  -2  -7 187717. 6791.03   5
  -1  -2  -6 29844.8 1950.15   5
  -1  -2  -5 152903. 5537.26   4
  -1  -2  -5 140570. 5268.02   7
  -1  -2  -5 148773. 5089.55   5
  -1  -2  -4 43240.4 2297.85   4
  -1  -2  -4 42611.5 2111.12   7
  -1  -2  -4 42036.8 1956.36   5
  -1  -2  -3 306745. 8459.88   5
  -1  -2  -2 94260.0 3055.07   6
  -1  -2  -2 93627.3 3173.21   3
  -1  -2  -1 279072. 7976.39   3
  -1  -2   0 354194. 9495.08   7
  -1  -2   1 78508.3 2848.40   7
  -1  -2   2 336349. 9730.18   7
  -1  -2   2 335779. 9587.51   1
  -1  -2   3 41922.2 2309.01   7
  -1  -2   3 37667.7 2071.64   1
  -1  -2   4 163544. 5837.86   1
  -1  -2   4 155687. 5966.61   7
  -1  -2   5 57334.2 3306.72   7
  -1  -2   6 148633. 6053.87   7
  -1  -2   6 122878. 4297.91   2
  -1  -2   7 55799.6 3660.67   7
  -1  -2   7 45119.6 1874.01   2
  -1  -2   8 67721.3 4389.48   7
  -1  -2   9 8800.25 1637.18   7
  -1  -2  10 58540.3 4526.06   7
  -1  -1 -14 5163.61 1534.94   5
  -1  -1 -13 37717.6 4024.92   1
  -1  -1 -13 38673.3 3833.80   5
  -1  -1 -12 19233.5 2777.43   1
  -1  -1 -12 13293.4 2138.87   5
  -1  -1 -11 81966.4 5527.90   1
  -1  -1 -11 83317.1 5148.27   5
  -1  -1 -10 16670.0 2228.74   1
  -1  -1 -10 12942.0 1876.74   5
  -1  -1  -9 33700.2 3026.33   1
  -1  -1  -9 34706.3 2854.63   5
  -1  -1  -8 34904.7 2656.41   5
  -1  -1  -7 162200. 6190.84   5
  -1  -1  -7 148125. 4373.08   2
  -1  -1  -6 280814. 9032.90   4
  -1  -1  -6 278007. 9053.83   5
  -1  -1  -5 164175. 5553.28   4
  -1  -1  -5 153927. 5660.78   7
  -1  -1  -5 147033. 5439.07   5
  -1  -1  -4 346724. 10119.9   4
  -1  -1  -4 361960. 10342.1   7
  -1  -1  -4 347432. 10122.4   5
  -1  -1  -3 76776.8 2869.51   4
  -1  -1  -3 77995.6 2857.16   5
  -1  -1  -2 7952.77 627.910   5
  -1  -1   1 61285.0 2285.27   7
  -1  -1   2 18655.3 1229.69   1
  -1  -1   2 18061.2 1212.71   7
  -1  -1   3 7514.81 860.979   1
  -1  -1   3 7625.27 915.955   7
  -1  -1   4 172145. 6145.34   1
  -1  -1   4 175710. 6258.55   7
  -1  -1   5 1135.49 638.910   7
  -1  -1   5 596.792 242.640   2
  -1  -1   6 136829. 5889.93   7
  -1  -1   6 137826. 4272.88   2
  -1  -1   7 2644.72 870.336   7
  -1  -1   8 99707.6 5337.31   7
  -1  -1   9 2964.99 1038.08   7
  -1  -1  10 92557.0 5711.98   7
  -1   0 -13 22890.8 3191.49   1
  -1   0 -13 17857.9 2732.66   5
  -1   0 -12 66066.5 5094.26   1
  -1   0 -12 61607.0 4792.24   5
  -1   0 -11 61718.7 4653.82   1
  -1   0 -11 57535.3 4387.07   5
  -1   0 -10 85231.1 5323.85   1
  -1   0 -10 85436.6 5167.54   5
  -1   0  -9 4015.59 1099.36   1
  -1   0  -9 4707.00 1120.63   5
  -1   0  -8 157196. 7034.89   1
  -1   0  -8 163532. 6933.25   5
  -1   0  -7 11200.7 1535.46   5
  -1   0  -6 255435. 8939.33   5
  -1   0  -6 274760. 8646.13   4
  -1   0  -5 6748.37 819.562   4
  -1   0  -5 8099.98 1064.08   5
  -1   0  -4 329599. 9801.77   5
  -1   0  -4 323919. 9357.00   4
  -1   0  -3 6874.83 767.076   5
  -1   0  -3 8152.76 687.024   4
  -1   0  -2 418754. 10650.4   4
  -1   0  -2 396259. 11131.6   5
  -1   0   2 303673. 8556.49   7
  -1   0   2 299695. 8619.68   1
  -1   0   3 51827.0 2454.64   7
  -1   0   3 58901.5 2621.30   1
  -1   0   3 52476.3 2128.54   2
  -1   0   4 304508. 9455.98   7
  -1   0   4 308069. 8566.07   2
  -1   0   5 63988.4 2447.41   2
  -1   0   5 66528.1 3384.55   7
  -1   0   6 245815. 8690.24   7
  -1   0   7 66070.3 3864.70   7
  -1   0   8 161470. 7107.40   7
  -1   0   9 60405.1 4116.16   7
  -1   0  10 101193. 5874.53   7
  -1   1 -13 9976.91 2163.76   1
  -1   1 -13 8981.99 2012.95   5
  -1   1 -12 66480.2 5120.80   5
  -1   1 -12 62480.6 4994.66   1
  -1   1 -11 16160.8 2400.61   1
  -1   1 -11 17261.0 2401.96   5
  -1   1 -10 143331. 7244.94   1
  -1   1 -10 144724. 7310.13   5
  -1   1  -9 33151.0 2993.00   1
  -1   1  -9 31855.8 2963.15   5
  -1   1  -8 217136. 8720.74   1
  -1   1  -8 225704. 8879.88   5
  -1   1  -7 18760.8 1948.05   5
  -1   1  -7 14018.2 1478.21   4
  -1   1  -7 16894.7 1798.33   1
  -1   1  -6 167173. 6659.30   5
  -1   1  -5 776.231 608.287   5
  -1   1  -4 279499. 8881.98   5
  -1   1  -3 13042.5 1170.21   5
  -1   1  -2 999999. 25978.2   5
  -1   1  -1 16332.3 1010.59   5
  -1   1   0 398628. 10341.8   4
  -1   1   2 853055. 22012.5   7
  -1   1   2 851400. 22192.1   1
  -1   1   3 48465.4 2374.93   1
  -1   1   3 48337.6 2197.64   7
  -1   1   4 579100. 16081.8   7
  -1   1   5 174528. 6276.34   7
  -1   1   6 249740. 8612.96   7
  -1   1   7 87299.9 4462.92   7
  -1   1   8 136456. 6234.67   7
  -1   1   9 71421.0 4464.51   7
  -1   1  10 27457.9 2790.57   7
  -1   2 -13 765.805 810.538   1
  -1   2 -12 45575.1 4283.65   1
  -1   2 -12 53739.1 4729.87   5
  -1   2 -11 753.447 878.613   1
  -1   2 -11 1533.63 921.613   5
  -1   2 -10 44615.3 3701.10   1
  -1   2 -10 48166.2 3971.72   5
  -1   2  -9 209.301 574.112   1
  -1   2  -9 985.462 899.319   5
  -1   2  -8 76511.3 4430.28   1
  -1   2  -8 76852.0 4730.01   5
  -1   2  -7 211.442 482.902   1
  -1   2  -7 659.173 637.178   5
  -1   2  -6 72214.3 3805.78   1
  -1   2  -6 80823.6 4260.35   5
  -1   2  -5 32165.6 2407.58   5
  -1   2  -5 33269.8 2202.86   1
  -1   2  -4 215795. 7540.68   5
  -1   2  -3 3165.55 620.637   5
  -1   2  -2 335394. 9826.56   5
  -1   2  -1 104201. 3229.58   4
  -1   2  -1 101415. 3594.22   5
  -1   2   0 53761.5 1954.53   3
  -1   2   0 55709.4 2057.28   4
  -1   2   0 51836.8 2048.17   5
  -1   2   1 19373.2 1186.97   4
  -1   2   1 19592.7 961.108   1
  -1   2   1 18773.0 991.946   3
  -1   2   1 18500.5 1063.82   6
  -1   2   2 105614. 3595.41   1
  -1   2   2 104758. 3355.41   7
  -1   2   2 104820. 3919.90   4
  -1   2   3 60027.1 2443.24   7
  -1   2   3 64675.0 3043.70   4
  -1   2   4 65691.9 2871.09   7
  -1   2   5 120860. 4701.49   7
  -1   2   6 7319.03 1060.68   7
  -1   2   7 39248.7 2703.43   7
  -1   2   8 18312.2 1962.00   7
  -1   2   9 98657.6 5292.34   7
  -1   2  10 6499.46 1432.99   7
  -1   3 -12 34675.9 3699.24   1
  -1   3 -12 43001.9 4319.99   5
  -1   3 -11 18318.3 2555.14   1
  -1   3 -11 14519.8 2477.29   5
  -1   3 -10 52747.9 4402.35   5
  -1   3 -10 55802.1 4223.92   1
  -1   3  -9 47422.1 3950.47   5
  -1   3  -9 49659.1 3731.12   1
  -1   3  -8 66550.4 4135.93   1
  -1   3  -8 72651.4 4728.71   5
  -1   3  -7 132888. 5920.17   1
  -1   3  -7 138282. 6584.80   5
  -1   3  -6 98121.9 4546.84   1
  -1   3  -6 98420.3 5105.24   5
  -1   3  -5 146320. 5597.25   1
  -1   3  -5 150013. 6289.91   5
  -1   3  -4 74075.5 3213.22   1
  -1   3  -4 73861.1 3807.53   5
  -1   3  -3 233531. 7024.28   1
  -1   3  -3 244478. 7748.61   7
  -1   3  -3 223430. 7828.11   5
  -1   3  -2 105300. 3337.20   1
  -1   3  -2 105680. 3961.07   7
  -1   3  -2 102610. 4137.76   5
  -1   3  -1 314344. 8897.74   4
  -1   3  -1 314235. 8885.55   7
  -1   3  -1 307918. 9140.92   5
  -1   3   0 81796.2 2782.12   3
  -1   3   0 83503.1 3143.95   4
  -1   3   0 83008.2 3036.26   5
  -1   3   1 341559. 9456.56   4
  -1   3   1 335153. 8870.19   6
  -1   3   2 166056. 5694.95   4
  -1   3   2 163558. 4749.52   7
  -1   3   3 170577. 5160.67   7
  -1   3   3 174536. 6192.08   4
  -1   3   4 7336.99 1154.10   4
  -1   3   4 7358.66 797.146   7
  -1   3   5 295039. 9045.61   7
  -1   3   6 1326.44 552.859   7
  -1   3   7 162923. 6346.96   7
  -1   3   8 102.257 474.238   7
  -1   3   9 183363. 7640.33   7
  -1   3  10 3182.67 930.733   7
  -1   4 -11 57605.8 4620.86   1
  -1   4 -11 53613.5 4832.31   5
  -1   4 -10 67722.1 4785.40   1
  -1   4 -10 77579.9 5540.30   5
  -1   4  -9 73658.3 4720.98   1
  -1   4  -9 75267.8 5225.70   5
  -1   4  -8 77999.7 4545.00   1
  -1   4  -8 78748.6 5114.98   5
  -1   4  -7 143508. 6968.65   5
  -1   4  -7 138550. 6119.19   1
  -1   4  -6 73093.6 4479.41   5
  -1   4  -6 75874.2 3854.24   1
  -1   4  -5 164508. 6056.69   1
  -1   4  -5 167826. 7068.92   5
  -1   4  -4 55719.5 2662.00   1
  -1   4  -4 53196.3 3305.13   5
  -1   4  -3 248708. 8447.95   5
  -1   4  -3 239816. 7179.64   1
  -1   4  -2 62499.3 2799.87   4
  -1   4  -2 59923.6 2149.68   1
  -1   4  -2 61646.6 2866.97   7
  -1   4  -2 59945.3 3070.64   5
  -1   4  -1 296875. 8897.43   4
  -1   4  -1 297756. 8610.11   7
  -1   4  -1 286286. 8951.25   5
  -1   4   0 2575.34 377.070   7
  -1   4   0 2059.40 558.215   4
  -1   4   0 3137.81 565.343   5
  -1   4   1 291872. 8985.82   4
  -1   4   1 286146. 7875.20   3
  -1   4   2 10528.8 634.222   7
  -1   4   2 10615.2 1185.59   4
  -1   4   3 175220. 6414.26   4
  -1   4   3 169505. 4925.01   7
  -1   4   4 2971.76 477.997   7
  -1   4   4 3638.75 846.563   4
  -1   4   5 263730. 8033.59   7
  -1   4   5 262674. 9447.70   4
  -1   4   6 1025.05 467.623   7
  -1   4   7 240297. 8208.94   7
  -1   4   8 4535.91 928.598   7
  -1   4   9 151347. 6560.12   7
  -1   5 -10 10793.2 2306.71   5
  -1   5  -9 79212.9 5577.06   5
  -1   5  -8 1267.15 929.457   1
  -1   5  -8 929.494 938.572   5
  -1   5  -7 76431.5 4224.67   1
  -1   5  -7 74835.7 4920.34   5
  -1   5  -6 1120.77 795.121   5
  -1   5  -6 938.641 668.213   1
  -1   5  -5 160713. 5994.54   1
  -1   5  -5 164623. 7171.73   5
  -1   5  -4 3553.35 1007.49   5
  -1   5  -3 154774. 5746.61   4
  -1   5  -3 157420. 6358.41   5
  -1   5  -2 532.585 360.953   7
  -1   5  -2 322.536 286.808   4
  -1   5  -2 575.023 422.540   5
  -1   5  -1 243519. 7510.15   7
  -1   5  -1 242184. 7983.21   4
  -1   5  -1 242341. 7951.39   5
  -1   5   0 39241.4 1800.74   7
  -1   5   0 37902.0 2115.02   5
  -1   5   0 39630.5 2381.10   4
  -1   5   1 169952. 6126.56   4
  -1   5   1 160991. 4638.06   7
  -1   5   1 162775. 5248.67   5
  -1   5   1 157807. 4757.23   3
  -1   5   2 109367. 4687.69   4
  -1   5   2 102565. 3626.05   6
  -1   5   3 296164. 9492.52   4
  -1   5   3 267120. 7119.00   7
  -1   5   4 66351.6 3811.09   4
  -1   5   4 67735.5 2386.67   7
  -1   5   5 181770. 5667.94   7
  -1   5   5 178607. 7430.10   4
  -1   5   6 62959.9 2927.24   7
  -1   5   6 68649.2 4276.27   4
  -1   5   7 34114.8 2230.39   7
  -1   5   8 47237.0 2911.35   7
  -1   6  -9 80839.1 5875.75   5
  -1   6  -8 15171.1 2399.72   5
  -1   6  -7 75485.3 5113.09   5
  -1   6  -6 2174.77 926.202   5
  -1   6  -5 88834.1 5124.98   5
  -1   6  -4 112099. 4878.65   4
  -1   6  -4 112088. 5603.00   5
  -1   6  -3 157281. 6087.31   4
  -1   6  -3 158929. 6637.68   5
  -1   6  -2 105451. 4646.79   4
  -1   6  -2 109956. 4905.95   5
  -1   6  -1 164560. 6320.32   4
  -1   6  -1 167078. 5730.66   7
  -1   6  -1 167071. 6219.07   5
  -1   6   0 127612. 5417.43   4
  -1   6   0 135301. 4454.83   7
  -1   6   0 129439. 4968.23   5
  -1   6   1 93148.3 4456.23   4
  -1   6   1 96009.8 3045.02   7
  -1   6   1 93738.9 3683.85   5
  -1   6   1 91379.6 3109.33   3
  -1   6   2 86589.4 4412.03   4
  -1   6   2 93940.7 3463.79   6
  -1   6   3 164421. 6808.03   4
  -1   6   4 129598. 5975.14   4
  -1   6   5 107104. 5499.40   4
  -1   6   6 165439. 7580.62   4
  -1   6   7 8141.27 1592.15   4
  -1   7  -9 82269.6 6105.15   5
  -1   7  -8 13662.5 2426.72   5
  -1   7  -7 77916.3 5399.57   5
  -1   7  -6 10293.0 1414.94   4
  -1   7  -6 9865.90 1827.05   5
  -1   7  -5 69522.6 3902.85   4
  -1   7  -5 74643.8 4753.84   5
  -1   7  -4 40637.9 2782.38   4
  -1   7  -4 41037.0 3271.84   5
  -1   7  -3 99474.2 4720.75   4
  -1   7  -3 100119. 5146.23   5
  -1   7  -2 88046.4 4390.18   4
  -1   7  -2 87099.7 4463.43   5
  -1   7  -1 150751. 6187.84   4
  -1   7  -1 142457. 5299.73   7
  -1   7  -1 147342. 5933.30   5
  -1   7   0 135435. 4678.43   3
  -1   7   0 142972. 6013.30   4
  -1   7   0 137336. 4674.22   7
  -1   7   0 134580. 5330.38   5
  -1   7   1 102334. 4976.02   4
  -1   7   1 101469. 3263.39   7
  -1   7   1 103010. 4114.21   5
  -1   7   1 97918.5 3335.19   3
  -1   7   2 142375. 6313.72   4
  -1   7   2 144475. 4997.66   6
  -1   7   3 40486.5 3075.89   4
  -1   7   4 162611. 7207.89   4
  -1   7   5 13532.1 1897.79   4
  -1   7   6 159691. 7640.27   4
  -1   7   7 53872.7 4207.86   4
  -1   7   8 112444. 6656.41   4
  -1   8  -8 29466.4 3532.69   5
  -1   8  -7 39961.6 3927.68   5
  -1   8  -6 61193.4 4684.36   5
  -1   8  -5 65597.4 3876.71   4
  -1   8  -5 53372.8 4177.70   5
  -1   8  -4 34819.8 2733.74   4
  -1   8  -4 30543.1 2930.54   5
  -1   8  -3 19181.4 2020.10   4
  -1   8  -3 17813.9 2090.39   5
  -1   8  -2 48808.8 3303.33   4
  -1   8  -2 48262.3 3312.86   5
  -1   8  -1 17511.1 1912.33   4
  -1   8  -1 18466.9 1852.14   5
  -1   8   0 53619.4 2513.14   3
  -1   8   0 56964.5 3658.06   4
  -1   8   0 55145.1 3138.43   5
  -1   8   1 19094.2 2137.63   4
  -1   8   1 18661.3 1588.08   5
  -1   8   2 94852.0 5218.04   4
  -1   8   2 101375. 4034.48   6
  -1   8   3 4104.61 1034.07   4
  -1   8   4 101285. 5646.06   4
  -1   8   5 6397.89 1441.75   4
  -1   8   6 90240.9 5663.92   4
  -1   8   7 3837.32 1327.40   4
  -1   8   8 91739.0 6137.86   4
  -1   8   9 8630.54 1908.01   4
  -1   9  -7 1028.52 1079.13   5
  -1   9  -6 61372.1 4880.55   5
  -1   9  -5 933.658 884.901   5
  -1   9  -4 122502. 5985.81   4
  -1   9  -4 127014. 6667.59   5
  -1   9  -3 5771.05 1244.84   4
  -1   9  -3 5262.45 1309.68   5
  -1   9  -2 131885. 6244.59   4
  -1   9  -2 124102. 6088.93   5
  -1   9  -1 25880.0 2516.56   4
  -1   9  -1 27552.2 2433.17   5
  -1   9   0 124326. 6189.35   4
  -1   9   0 127874. 5541.74   5
  -1   9   1 21188.1 2348.94   4
  -1   9   1 24293.0 1960.20   5
  -1   9   2 109256. 5874.47   4
  -1   9   3 19912.7 2376.08   4
  -1   9   4 89342.0 5455.02   4
  -1   9   5 40726.6 3764.24   4
  -1   9   6 58367.6 4638.12   4
  -1   9   7 65947.4 5132.27   4
  -1   9   8 67308.1 5368.26   4
  -1   9   9 36910.0 4077.62   4
  -1  10  -6 57418.6 4885.25   5
  -1  10  -5 671.422 713.244   5
  -1  10  -4 86738.2 5568.75   5
  -1  10  -3 17722.9 2222.74   4
  -1  10  -3 15466.0 2164.54   5
  -1  10  -2 98981.3 5540.88   4
  -1  10  -2 98172.5 5430.03   5
  -1  10  -1 18153.1 2235.62   4
  -1  10  -1 20511.1 2163.93   5
  -1  10   0 91003.8 5358.23   4
  -1  10   1 35872.0 3286.17   4
  -1  10   2 130193. 6853.16   4
  -1  10   3 34068.0 3306.54   4
  -1  10   4 102682. 6227.50   4
  -1  10   5 46072.6 4147.77   4
  -1  10   6 66611.1 5212.73   4
  -1  10   7 49783.7 4588.51   4
  -1  10   8 33305.2 3957.27   4
  -1  10   9 39824.6 4419.27   4
  -1  11  -5 2065.44 1134.16   5
  -1  11  -4 32392.1 3417.71   5
  -1  11  -2 29013.6 2979.71   4
  -1  11  -1 9128.38 1753.44   4
  -1  11   0 23184.1 2699.75   4
  -1  11   1 39584.4 3631.30   4
  -1  11   2 13050.1 2144.35   4
  -1  11   3 48192.9 4162.24   4
  -1  11   4 13593.8 2231.69   4
  -1  11   5 48164.2 4395.92   4
  -1  11   6 6674.96 1772.70   4
  -1  11   7 35884.3 4038.36   4
  -1  12   0 18023.7 2478.96   4
  -1  12   1 84338.8 5745.94   4
  -1  12   2 1932.42 917.473   4
  -1  12   3 78507.4 5707.15   4
  -1  12   4-413.800 794.410   4
  -1  12   5 85937.9 6304.05   4
  -1  13   1 69701.5 5386.34   4
  -1  13   2-2937.36 1262.64   4
   0 -10 -11 34512.7 3779.01   2
   0 -10 -10 22407.4 2951.79   2
   0  -9 -12 31399.9 3600.57   1
   0  -9 -11 39129.9 3835.45   2
   0  -9 -11 42934.3 4013.40   1
   0  -9 -10 52941.5 4440.48   2
   0  -9 -10 55303.5 4310.81   1
   0  -9  -9 43714.7 3618.75   1
   0  -9  -8 87991.7 5051.61   1
   0  -9  -7 38466.3 2983.10   1
   0  -9  -6 143624. 6114.98   1
   0  -9  -5 51452.0 2993.45   1
   0  -9  -4 104171. 4233.04   1
   0  -8 -12 29631.2 3524.73   1
   0  -8 -11 15103.9 2331.28   1
   0  -8 -11 14384.4 2204.33   2
   0  -8 -10 49670.3 4020.66   2
   0  -8 -10 42526.8 3783.59   1
   0  -8  -9 15888.6 2176.55   1
   0  -8  -8 66743.5 4329.83   1
   0  -8  -7 3754.93 1087.40   1
   0  -8  -6 137421. 5968.19   1
   0  -8  -5 14214.2 1510.99   1
   0  -8  -4 116588. 4653.05   1
   0  -8  -3 168.743 244.134   1
   0  -8  -2 127058. 4011.55   1
   0  -7 -12 58595.7 4957.42   1
   0  -7 -11 1135.53 1039.11   1
   0  -7 -11 2259.61 1095.87   2
   0  -7 -10 85151.9 5169.95   2
   0  -7 -10 87565.6 5612.55   1
   0  -7  -9 20759.1 2455.82   1
   0  -7  -8 57196.0 3955.77   1
   0  -7  -7 18126.9 2053.63   1
   0  -7  -7 20864.4 1493.94   3
   0  -7  -6 91284.9 4461.24   1
   0  -7  -6 79210.4 2924.48   3
   0  -7  -5 72561.5 3715.96   1
   0  -7  -1 84306.8 2566.98   1
   0  -6 -12 84355.5 6006.23   1
   0  -6 -11 9014.05 1873.18   1
   0  -6 -10 172302. 7423.79   2
   0  -6 -10 164737. 8172.99   1
   0  -6  -9 48173.6 3843.68   1
   0  -6  -9 53117.9 3596.79   2
   0  -6  -8 128683. 6327.09   1
   0  -6  -7 22761.9 2227.76   1
   0  -6  -7 18927.8 1481.05   7
   0  -6  -6 238416. 7008.64   3
   0  -6  -6 209881. 6755.05   7
   0  -6  -5 107938. 3532.75   7
   0  -6  -5 116345. 3716.10   3
   0  -5 -13 11994.8 2378.16   1
   0  -5 -12 41903.0 4129.68   1
   0  -5 -11 26912.8 3117.73   1
   0  -5 -10 66782.2 3915.33   2
   0  -5 -10 66186.7 4804.16   1
   0  -5  -9 42159.7 3548.76   1
   0  -5  -9 40200.5 2890.60   2
   0  -5  -9 39464.8 2368.20   5
   0  -5  -8 71867.0 4485.41   1
   0  -5  -8 72732.8 3109.86   5
   0  -5  -7 33799.3 2757.43   1
   0  -5  -7 29193.1 2019.30   7
   0  -5  -7 33526.8 1655.75   5
   0  -5  -6 122979. 4489.49   7
   0  -5  -5 117597. 3986.14   7
   0  -5  -4 87120.9 2843.41   7
   0  -5  -4 93418.0 2972.83   3
   0  -4 -13 36958.2 4030.46   1
   0  -4 -12 25843.7 3278.58   1
   0  -4 -11 38681.4 3699.97   1
   0  -4 -11 41225.8 3041.20   5
   0  -4 -10 18862.7 2450.96   1
   0  -4 -10 19900.1 1912.57   5
   0  -4 -10 15502.6 1653.03   2
   0  -4  -9 73814.1 3774.07   2
   0  -4  -9 67998.5 4575.39   1
   0  -4  -9 71854.1 3617.27   5
   0  -4  -8 8896.89 1443.34   1
   0  -4  -8 7819.59 989.673   5
   0  -4  -8 7146.83 1067.56   2
   0  -4  -7 122717. 5810.61   1
   0  -4  -7 126061. 4518.29   5
   0  -4  -6 9812.38 1072.29   7
   0  -4  -6 12089.1 930.380   5
   0  -4  -5 301862. 8813.56   7
   0  -4  -5 297394. 8104.99   5
   0  -4  -4 7013.03 624.628   7
   0  -4  -3 306687. 8176.42   7
   0  -4  -3 315351. 8244.00   3
   0  -4   1 211948. 5740.10   1
   0  -4   2 15154.7 1285.75   7
   0  -4   3 334236. 10392.8   7
   0  -4   4 29127.4 2219.41   7
   0  -4   5 116033. 5351.23   7
   0  -3 -13 84506.4 6288.95   1
   0  -3 -12 2048.37 1231.36   1
   0  -3 -12 2142.65 913.672   5
   0  -3 -11 111641. 6656.92   1
   0  -3 -11 120329. 5880.94   5
   0  -3 -10 3743.85 1154.52   1
   0  -3 -10 3396.52 823.582   5
   0  -3  -9 167129. 7642.80   1
   0  -3  -9 163027. 6471.82   5
   0  -3  -9 157955. 5950.25   2
   0  -3  -8 221.657 609.640   1
   0  -3  -8 341.042 418.104   2
   0  -3  -8 386.786 429.543   5
   0  -3  -7 211118. 8352.49   1
   0  -3  -7 218693. 7272.09   2
   0  -3  -7 220685. 7260.07   5
   0  -3  -6 13174.8 1320.41   7
   0  -3  -6 13803.9 1147.91   5
   0  -3  -5 283226. 8574.35   7
   0  -3  -5 278406. 8007.17   5
   0  -3  -4 78124.3 2929.97   7
   0  -3  -4 74126.9 2481.04   5
   0  -3  -3 316635. 8560.15   7
   0  -3   1 237483. 6779.53   7
   0  -3   1 227339. 6179.54   1
   0  -3   2 86424.6 3422.62   7
   0  -3   3 92910.7 3916.37   7
   0  -3   4 105764. 4599.45   7
   0  -3   5 148280. 6124.33   7
   0  -3   6 67279.4 3992.50   7
   0  -3   7 81086.2 2461.95   2
   0  -2 -13 87041.1 5696.05   5
   0  -2 -13 88607.4 6412.75   1
   0  -2 -12 2402.31 927.201   5
   0  -2 -12 5944.54 1624.99   1
   0  -2 -11 100855. 6197.42   1
   0  -2 -11 100631. 5525.04   5
   0  -2 -10 23915.9 2745.69   1
   0  -2 -10 20938.6 2181.30   5
   0  -2  -9 217709. 9073.37   1
   0  -2  -9 212441. 6943.58   2
   0  -2  -9 210345. 8084.88   5
   0  -2  -8 12512.6 1746.95   1
   0  -2  -8 10073.7 1022.56   2
   0  -2  -8 10409.3 1326.07   5
   0  -2  -7 197461. 6405.88   2
   0  -2  -7 205703. 7125.90   5
   0  -2  -6 1864.32 443.633   2
   0  -2  -6 1910.59 503.261   5
   0  -2  -5 164823. 6217.57   4
   0  -2  -5 172876. 5929.14   7
   0  -2  -5 168129. 5544.57   5
   0  -2  -4 100552. 3733.13   7
   0  -2  -3 177537. 5326.88   7
   0  -2  -2 26854.4 1077.22   7
   0  -2   0 65039.1 1989.42   7
   0  -2   1 110110. 3232.27   1
   0  -2   1 117054. 3619.46   7
   0  -2   2 59783.0 2545.59   7
   0  -2   3 35047.0 2050.42   7
   0  -2   4 296897. 9508.28   7
   0  -2   5 58360.1 3310.59   7
   0  -2   6 103799. 5016.83   7
   0  -2   7 36186.6 2923.86   7
   0  -1 -14 6444.20 1691.67   5
   0  -1 -13 52723.3 4779.54   1
   0  -1 -13 42911.6 4022.49   5
   0  -1 -12 14296.8 2362.05   1
   0  -1 -12 15171.3 2210.50   5
   0  -1 -11 21030.1 2701.29   1
   0  -1 -11 21353.3 2494.76   5
   0  -1 -10 68729.7 4744.46   1
   0  -1 -10 65202.5 4226.57   5
   0  -1  -9 58263.3 4095.91   1
   0  -1  -9 57837.1 3729.12   5
   0  -1  -8 67274.9 4222.25   1
   0  -1  -8 70162.8 3910.68   5
   0  -1  -7 63573.8 2552.94   2
   0  -1  -7 65424.0 3503.85   5
   0  -1  -6 146124. 4625.00   2
   0  -1  -5 60293.3 2340.09   2
   0  -1  -5 67427.8 3193.12   7
   0  -1  -5 65353.8 3247.83   4
   0  -1  -4 267700. 8070.03   7
   0  -1  -4 256416. 7242.05   2
   0  -1  -4 264536. 8209.85   4
   0  -1  -3 40621.8 1901.02   7
   0  -1   1 7244.84 474.474   1
   0  -1   1 8764.07 600.852   7
   0  -1   2 80418.4 2965.32   7
   0  -1   3 28668.2 1742.02   7
   0  -1   4 237563. 7796.01   7
   0  -1   5 2881.13 735.047   7
   0  -1   6 298312. 10175.0   7
   0  -1   7 21602.2 2162.15   7
   0   0 -13 28416.0 3319.82   5
   0   0 -13 25767.9 3301.85   1
   0   0 -12 54955.8 4702.88   1
   0   0 -12 52151.8 4357.43   5
   0   0 -11 49238.8 4002.48   5
   0   0 -11 56966.0 4498.28   1
   0   0 -10 79996.5 5188.42   1
   0   0 -10 78045.3 4852.27   5
   0   0  -9 23180.6 2495.89   1
   0   0  -9 27320.8 2577.59   5
   0   0  -8 208960. 8357.46   1
   0   0  -8 197348. 7940.02   5
   0   0  -7 57506.6 3595.39   1
   0   0  -7 57433.7 3434.13   5
   0   0   2 832443. 21487.9   7
   0   0   3 1511.68 416.029   7
   0   0   4 370842. 10964.0   7
   0   0   5 10847.3 1261.43   7
   0   0   6 411397. 12891.9   7
   0   0   7 54373.8 3423.93   7
   0   0   8 186868. 7805.23   7
   0   1 -13 7749.87 1854.40   1
   0   1 -13 6956.97 1829.25   5
   0   1 -12 55525.2 4762.56   1
   0   1 -12 56127.4 4632.47   5
   0   1 -11 15025.9 2353.44   1
   0   1 -11 17977.4 2486.26   5
   0   1 -10 74392.3 4933.23   5
   0   1 -10 78790.8 5089.28   1
   0   1  -9 8819.61 1591.65   5
   0   1  -9 10557.9 1704.83   1
   0   1  -8 124237. 6076.14   1
   0   1  -8 131209. 6182.66   5
   0   1  -7 24696.3 2233.93   1
   0   1  -7 23139.1 2218.61   5
   0   1  -6 275744. 9437.66   1
   0   1  -5 4453.47 851.947   1
   0   1   2 257716. 6947.80   7
   0   1   2 244188. 7211.75   4
   0   1   3 41256.1 1911.59   7
   0   1   4 251231. 7770.08   7
   0   1   5 62535.9 3086.64   7
   0   1   6 147854. 5824.73   7
   0   1   7 62709.9 3614.73   7
   0   1   8 68642.8 4075.43   7
   0   2 -13-339.980 878.818   1
   0   2 -12 55853.1 4833.24   1
   0   2 -12 56535.1 4804.09   5
   0   2 -11 5076.73 1314.40   1
   0   2 -11 6431.50 1671.99   5
   0   2 -10 55663.1 4256.68   1
   0   2 -10 59540.3 4461.44   5
   0   2  -9 31066.1 2913.55   1
   0   2  -9 29616.0 2919.69   5
   0   2  -8 66707.8 4309.64   5
   0   2  -8 64875.6 4116.14   1
   0   2  -7 39106.1 2897.24   1
   0   2  -7 40478.6 3090.75   5
   0   2  -6 105269. 4836.63   1
   0   2  -5 57940.0 3067.56   1
   0   2  -4 291319. 8996.10   1
   0   2  -3 34612.5 1838.99   1
   0   2  -2 59628.1 2280.46   1
   0   2   0 62250.8 2385.01   4
   0   2   1 196120. 5882.77   4
   0   2   2 24541.4 1458.58   4
   0   2   2 25502.8 1027.67   7
   0   2   3 168560. 5720.11   4
   0   2   3 171436. 5136.15   7
   0   2   4 89662.1 3378.67   7
   0   2   4 84374.8 3786.19   4
   0   2   5 157550. 5573.58   7
   0   2   6 3757.93 762.703   7
   0   2   7 205490. 7600.91   7
   0   3 -12 59237.0 5121.09   5
   0   3 -11 8295.27 1852.69   1
   0   3 -11 11568.5 2058.57   5
   0   3 -10 53060.6 4224.60   1
   0   3 -10 66531.5 4869.91   5
   0   3  -9 54014.5 4182.86   5
   0   3  -9 51479.2 3887.02   1
   0   3  -8 115453. 5794.25   1
   0   3  -8 110449. 6022.32   5
   0   3  -7 100236. 5027.68   1
   0   3  -7 103006. 5477.05   5
   0   3  -6 65013.4 3614.68   1
   0   3  -6 63973.9 3923.79   5
   0   3  -5 151531. 5804.85   1
   0   3  -4 98854.4 4028.84   1
   0   3  -3 100198. 4048.91   7
   0   3  -3 89576.7 3525.23   1
   0   3  -2 88128.3 3488.38   7
   0   3  -1 245872. 7160.46   7
   0   3   0 206563. 5725.41   7
   0   3   0 205956. 6504.55   4
   0   3   1 425754. 12253.5   4
   0   3   1 437973. 11243.9   5
   0   3   2 98634.0 3890.38   4
   0   3   3 294882. 9165.20   4
   0   3   4 76284.8 3675.84   4
   0   3   4 76617.5 2903.28   7
   0   3   5 272621. 8321.13   7
   0   3   5 268541. 9253.86   4
   0   3   6 10631.1 1191.21   7
   0   3   6 11716.3 1532.39   4
   0   4 -11 20303.1 3021.72   5
   0   4 -10 62716.0 4935.72   5
   0   4  -9 41672.9 3776.44   5
   0   4  -8 61714.9 4432.01   5
   0   4  -8 66081.8 4223.56   1
   0   4  -7 84254.4 4548.27   1
   0   4  -7 79672.2 4897.18   5
   0   4  -6 24880.5 2159.50   1
   0   4  -6 31193.8 2733.79   5
   0   4  -5 124671. 5822.72   5
   0   4  -2 16600.2 1345.27   7
   0   4  -1 237569. 7037.47   7
   0   4  -1 224166. 7511.58   4
   0   4   0 1356.82 276.507   7
   0   4   0 1443.82 450.040   4
   0   4   0 1225.35 391.119   5
   0   4   1 558163. 15845.7   4
   0   4   1 560495. 14629.4   5
   0   4   2 14678.3 1429.32   4
   0   4   3 316484. 10111.6   4
   0   4   4 7609.21 1111.68   4
   0   4   5 292546. 10067.7   4
   0   4   6 8984.40 1388.46   4
   0   4   7 121630. 5982.15   4
   0   5 -10 14799.6 2457.86   5
   0   5  -9 76693.1 5417.76   5
   0   5  -8-655.922 900.146   5
   0   5  -7 101020. 5789.27   5
   0   5  -6 6808.57 1362.83   5
   0   5  -5 161643. 7079.38   5
   0   5  -4 1221.41 688.717   5
   0   5  -3 230123. 8292.29   5
   0   5  -2 2706.52 603.716   7
   0   5  -2 1798.79 517.441   4
   0   5  -2 3008.71 765.053   5
   0   5  -1 157430. 5224.48   7
   0   5  -1 150541. 5837.43   4
   0   5  -1 150713. 5521.32   5
   0   5   0 60826.8 3241.92   4
   0   5   0 63483.0 2445.50   7
   0   5   0 64886.0 2803.12   5
   0   5   1 176774. 6388.77   4
   0   5   1 163884. 4623.94   7
   0   5   1 170846. 5195.64   5
   0   5   2 58199.4 3232.99   4
   0   5   2 56321.4 1960.97   5
   0   5   3 156865. 6282.21   4
   0   5   4 90316.6 4503.04   4
   0   5   5 112669. 5383.39   4
   0   5   6 133957. 6287.76   4
   0   5   7 32479.7 3010.32   4
   0   5   8 71432.8 4728.73   4
   0   6  -9 78876.9 5659.22   5
   0   6  -8 5452.28 1444.33   5
   0   6  -7 117702. 6628.18   5
   0   6  -6 9366.17 1673.90   5
   0   6  -5 160374. 7283.62   5
   0   6  -4 37800.3 2927.16   5
   0   6  -3 188007. 7238.49   4
   0   6  -3 193290. 7506.64   5
   0   6  -2 70231.5 3394.45   7
   0   6  -2 68554.5 3707.87   4
   0   6  -2 69457.2 3649.50   5
   0   6  -1 249186. 8662.46   4
   0   6  -1 246272. 7738.09   7
   0   6  -1 241796. 8170.42   5
   0   6   0 82610.7 4209.25   4
   0   6   0 89107.6 3243.16   7
   0   6   0 89199.6 3690.13   5
   0   6   1 76741.3 3982.31   4
   0   6   1 73367.9 2474.28   7
   0   6   1 81780.8 3079.12   5
   0   6   2 53282.9 3311.94   4
   0   6   2 53893.6 2094.05   5
   0   6   3 75492.3 4161.69   4
   0   6   4 136372. 6151.10   4
   0   6   5 117063. 5761.33   4
   0   6   6 213837. 8825.52   4
   0   6   7 23769.0 2674.06   4
   0   6   8 112094. 6372.62   4
   0   7  -9 70191.3 5511.70   5
   0   7  -8 12401.4 2265.33   5
   0   7  -7 96207.0 6007.97   5
   0   7  -6 2983.49 1053.75   5
   0   7  -5 46458.4 3625.09   5
   0   7  -4 47994.9 3295.92   4
   0   7  -4 50679.1 3578.15   5
   0   7  -3 111299. 5337.47   4
   0   7  -3 118904. 5582.12   5
   0   7  -2 35027.9 2705.01   4
   0   7  -2 35249.3 2593.70   5
   0   7  -1 138055. 6148.86   4
   0   7  -1 146672. 5308.04   7
   0   7  -1 145430. 5776.58   5
   0   7   0 54435.5 3489.02   4
   0   7   0 54277.3 2455.02   7
   0   7   0 57735.7 2929.25   5
   0   7   1 95015.9 4760.06   4
   0   7   1 84794.2 2876.17   7
   0   7   1 87610.2 3231.32   3
   0   7   1 90450.0 3573.49   5
   0   7   2 92064.3 4848.04   4
   0   7   2 92808.4 3341.56   5
   0   7   3 59828.1 3836.26   4
   0   7   4 158543. 7097.65   4
   0   7   5 67897.6 4409.09   4
   0   7   6 85421.6 5163.06   4
   0   7   7 18101.6 2414.77   4
   0   7   8 55467.0 4462.79   4
   0   7   9 23072.5 2973.12   4
   0   8  -8 46642.6 4391.84   5
   0   8  -7 15497.9 2424.27   5
   0   8  -6 72513.1 4510.57   4
   0   8  -6 77684.9 5202.03   5
   0   8  -5 6117.27 1280.03   4
   0   8  -5 7217.85 1467.08   5
   0   8  -4 70222.2 4260.29   4
   0   8  -4 74231.0 4626.21   5
   0   8  -3 4334.08 996.284   4
   0   8  -3 6577.13 1289.46   5
   0   8  -2 91652.0 4943.33   4
   0   8  -2 96485.0 4831.55   5
   0   8  -1 1047.09 703.520   4
   0   8  -1 1570.17 575.413   5
   0   8   0 102543. 5356.87   4
   0   8   0 110249. 4658.81   5
   0   8   1 1571.72 783.184   4
   0   8   1 836.328 218.174   3
   0   8   1 1328.56 433.570   5
   0   8   2 124857. 6110.21   4
   0   8   2 119794. 4303.94   5
   0   8   3-3.67090 610.705   4
   0   8   3 351.919 163.310   6
   0   8   4 108869. 5869.54   4
   0   8   5 9079.61 1668.41   4
   0   8   6 125682. 6797.99   4
   0   8   7 5534.02 1494.85   4
   0   8   8 68193.7 5157.60   4
   0   8   9 16151.9 2531.28   4
   0   8  10 48047.4 4728.06   4
   0   9  -7 1112.02 1004.28   5
   0   9  -6 107490. 6547.35   5
   0   9  -5 841.923 888.932   4
   0   9  -5-287.365 901.322   5
   0   9  -4 130550. 6449.47   4
   0   9  -4 131447. 6715.40   5
   0   9  -3 2860.65 999.291   4
   0   9  -3 1535.53 885.461   5
   0   9  -2 190614. 8332.29   4
   0   9  -2 210636. 8236.65   5
   0   9  -1 9749.87 1630.08   4
   0   9  -1 9171.98 1350.62   5
   0   9   0 250195. 10066.6   4
   0   9   0 265345. 9000.96   5
   0   9   1 8881.80 1581.07   4
   0   9   1 9858.02 1143.97   5
   0   9   2 161017. 7573.54   4
   0   9   3 20931.0 2446.72   4
   0   9   4 96691.0 5772.94   4
   0   9   5 44581.5 3909.35   4
   0   9   6 129523. 7199.72   4
   0   9   7 39857.3 3839.29   4
   0   9   8 96419.5 6485.02   4
   0   9   9 49053.3 4742.02   4
   0   9  10 56911.1 5284.31   4
   0  10  -6 31700.3 3475.37   5
   0  10  -5 38.1066 770.199   5
   0  10  -4 91256.0 5412.93   4
   0  10  -4 86624.0 5512.00   5
   0  10  -3 18117.7 2304.20   4
   0  10  -3 11332.8 1827.09   5
   0  10  -2 68027.5 4564.07   4
   0  10  -2 65672.7 4214.30   5
   0  10  -1 5852.98 1411.09   4
   0  10  -1 6118.38 1211.24   5
   0  10   0 72120.1 4759.02   4
   0  10   1 9914.99 1705.19   4
   0  10   2 93198.9 5663.17   4
   0  10   3 34220.6 3336.00   4
   0  10   4 58647.7 4574.47   4
   0  10   5 34525.3 3553.38   4
   0  10   6 43484.1 4110.60   4
   0  10   7 42073.2 4188.08   4
   0  10   8 17243.8 2729.91   4
   0  10   9 35650.1 4162.03   4
   0  11  -5 764.361 922.564   5
   0  11  -4 35741.0 3520.35   5
   0  11  -3 30482.2 3127.32   4
   0  11  -2 25128.5 2843.57   4
   0  11  -1 30993.3 3146.83   4
   0  11   0 6658.58 1470.28   4
   0  11   1 58885.6 4561.79   4
   0  11   2 14711.8 2277.13   4
   0  11   3 77208.4 5401.01   4
   0  11   4 1571.76 1131.55   4
   0  11   5 75346.6 5597.88   4
   0  11   6 2990.08 1134.64   4
   0  11   7 66658.4 5581.44   4
   0  11   8 317.327 1081.20   4
   0  12  -1 67476.6 4969.85   4
   0  12   0 15744.4 2492.92   4
   0  12   1 83508.0 5749.48   4
   0  12   2 4673.77 1514.32   4
   0  12   3 75235.5 5678.49   4
   0  12   4-1087.26 1090.00   4
   0  12   5 73798.6 5799.89   4
   0  12   6 1011.85 1364.94   4
   0  13   0 840.090 936.863   4
   0  13   1 73133.1 5578.81   4
   0  13   2 138.053 966.055   4
   1 -11  -8 6863.07 1773.75   2
   1 -10 -11 27931.2 3482.28   2
   1 -10 -10 13054.5 2383.73   2
   1 -10  -9 28397.5 3430.44   2
   1 -10  -8 33651.0 3628.37   2
   1  -9 -12 11788.4 2305.30   1
   1  -9 -11 35639.2 3673.47   2
   1  -9 -11 37708.6 3796.75   1
   1  -9 -10 43305.4 3871.96   1
   1  -9 -10 36341.7 3736.06   2
   1  -9  -9 38781.3 3428.29   1
   1  -9  -9 40110.3 3829.83   2
   1  -9  -8 73400.8 4535.53   1
   1  -9  -8 64343.3 4906.80   2
   1  -9  -7 62395.8 3912.30   1
   1  -9  -6 52783.3 3287.99   1
   1  -8 -12 32312.2 3708.53   1
   1  -8 -11 14469.8 2398.26   1
   1  -8 -11 11810.2 2037.60   2
   1  -8 -10 64557.6 4784.87   2
   1  -8 -10 68546.6 4907.04   1
   1  -8  -9 9506.50 1756.92   1
   1  -8  -9 11771.4 2009.38   2
   1  -8  -8 90641.8 5668.01   2
   1  -8  -8 99319.5 5433.71   1
   1  -8  -7 3892.96 1021.81   1
   1  -8  -6 88794.1 4507.32   1
   1  -8  -5 6922.43 1057.24   1
   1  -8  -4 108793. 4367.91   1
   1  -7 -12 87652.1 6262.83   1
   1  -7 -11 2488.62 1090.69   1
   1  -7 -11 477.287 735.783   2
   1  -7 -10 99275.6 5733.34   2
   1  -7 -10 91981.4 5883.27   1
   1  -7  -9 1280.67 761.795   1
   1  -7  -9 2058.61 960.284   2
   1  -7  -8 110254. 5999.29   2
   1  -7  -8 118701. 6024.33   1
   1  -7  -7 58784.8 3761.77   1
   1  -7  -6 162630. 6461.57   1
   1  -7  -6 147601. 4318.19   3
   1  -7  -5 15366.1 1558.15   1
   1  -7  -4 161846. 5835.47   1
   1  -7  -3 44148.1 2179.68   1
   1  -6 -12 79651.2 5940.34   1
   1  -6 -11 9610.94 2066.41   1
   1  -6 -10 95792.9 5335.56   2
   1  -6 -10 93514.3 5845.91   1
   1  -6  -9 16182.3 2185.50   1
   1  -6  -9 15555.6 1944.32   2
   1  -6  -8 105038. 5406.20   2
   1  -6  -8 101631. 5532.50   1
   1  -6  -7 5212.88 852.089   7
   1  -6  -7 5908.22 1126.16   1
   1  -6  -7 8066.12 1464.61   2
   1  -6  -6 156689. 5525.55   7
   1  -6  -6 175455. 6799.88   1
   1  -6  -5 119770. 4841.79   1
   1  -6  -5 98231.6 3354.51   3
   1  -6  -4 132995. 5071.18   1
   1  -6  -3 175852. 5790.99   1
   1  -6  -2 88437.3 3093.12   1
   1  -6   6 3009.04 799.003   2
   1  -5 -12 41457.9 4104.64   1
   1  -5 -11 41109.1 3925.03   1
   1  -5 -10 80381.7 5361.62   1
   1  -5 -10 81785.3 4597.37   2
   1  -5  -9 50678.2 3477.04   2
   1  -5  -9 52549.0 4000.04   1
   1  -5  -9 54541.5 2829.84   5
   1  -5  -8 44415.3 3091.13   2
   1  -5  -8 40060.4 3234.35   1
   1  -5  -8 40799.2 2165.58   5
   1  -5  -7 37604.9 2786.72   2
   1  -5  -7 32352.5 2250.18   7
   1  -5  -7 38668.7 2967.94   1
   1  -5  -7 37170.2 1785.43   5
   1  -5  -6 65122.0 3077.57   7
   1  -5  -6 65170.5 3729.68   1
   1  -5  -6 68009.1 2350.89   5
   1  -5  -5 164549. 5551.35   7
   1  -5  -5 178015. 6549.14   1
   1  -5  -4 74047.5 3437.16   1
   1  -5  -3 304605. 9063.44   1
   1  -5  -2 108067. 3644.51   1
   1  -5   0 42237.3 2680.50   4
   1  -5   6 1291.30 542.735   2
   1  -4 -13 40475.7 4402.46   1
   1  -4 -12 9823.01 2126.83   1
   1  -4 -11 82833.5 4538.81   5
   1  -4 -11 87796.2 5831.27   1
   1  -4 -10 13960.9 2128.61   1
   1  -4 -10 12610.9 1624.12   2
   1  -4 -10 13566.0 1627.89   5
   1  -4  -9 159968. 7577.58   1
   1  -4  -9 159023. 6100.00   5
   1  -4  -9 155464. 6479.60   2
   1  -4  -8 4931.72 1161.53   1
   1  -4  -8 4141.72 852.742   2
   1  -4  -8 3461.55 735.457   5
   1  -4  -7 231441. 8435.85   2
   1  -4  -7 256977. 9313.27   1
   1  -4  -6 2366.72 730.726   1
   1  -4  -6 2034.88 475.935   7
   1  -4  -6 1889.13 701.630   2
   1  -4  -5 253565. 7925.92   7
   1  -4  -5 258574. 8730.44   1
   1  -4  -4 2375.24 625.149   1
   1  -4  -4 3373.88 508.411   7
   1  -4  -3 168109. 5476.83   1
   1  -4  -3 161803. 4720.25   3
   1  -4  -3 157454. 4415.43   5
   1  -4  -2 8923.57 771.904   1
   1  -4  -2 9890.13 626.396   5
   1  -4  -1 308451. 9377.58   4
   1  -4  -1 293970. 8319.83   5
   1  -4   0 2424.52 589.219   4
   1  -4   6 78564.1 3157.29   2
   1  -3 -13 65232.1 5558.91   1
   1  -3 -12 1992.95 1136.17   1
   1  -3 -12 1636.96 798.869   5
   1  -3 -11 121414. 5941.24   5
   1  -3 -11 116712. 6941.28   1
   1  -3 -10 3632.27 1219.07   1
   1  -3 -10 4721.93 1020.63   2
   1  -3 -10 2797.20 791.439   5
   1  -3  -9 181051. 8207.79   1
   1  -3  -9 177801. 6858.96   2
   1  -3  -9 180886. 7016.47   5
   1  -3  -8 1016.55 453.467   2
   1  -3  -8 1939.63 874.480   1
   1  -3  -7 156395. 5986.49   2
   1  -3  -7 165278. 6947.03   1
   1  -3  -6 39.5723 270.101   7
   1  -3  -6 1121.24 700.505   1
   1  -3  -6 497.948 470.624   2
   1  -3  -5 289888. 8916.75   7
   1  -3  -5 274221. 9032.44   2
   1  -3  -5 302147. 9607.28   1
   1  -3  -4 8588.33 871.847   7
   1  -3  -4 10146.7 1175.74   1
   1  -3  -3 170875. 5352.88   7
   1  -3  -3 183888. 5857.17   1
   1  -3  -2 156963. 4669.77   3
   1  -3  -2 165868. 5034.13   1
   1  -3  -1 327941. 8840.20   5
   1  -3   0 84244.4 3298.98   4
   1  -3   0 86988.8 3068.16   5
   1  -3   5 146007. 4655.80   2
   1  -3   6 89945.2 3039.62   2
   1  -2 -13 39932.9 4316.73   1
   1  -2 -13 38800.4 3671.21   5
   1  -2 -12 2736.29 1280.37   1
   1  -2 -12 2374.33 996.359   5
   1  -2 -11 71356.5 5226.36   1
   1  -2 -11 74837.6 4654.03   5
   1  -2 -10 6385.63 1485.37   1
   1  -2 -10 8437.63 1410.21   5
   1  -2  -9 98054.2 4366.10   2
   1  -2  -9 93380.8 5513.43   1
   1  -2  -8 25862.1 1942.69   2
   1  -2  -8 22678.5 2406.89   1
   1  -2  -7 42284.3 2430.17   2
   1  -2  -6 5785.27 815.655   2
   1  -2  -5 116440. 4321.97   2
   1  -2  -5 108367. 4453.49   7
   1  -2  -4 69015.4 3020.17   2
   1  -2  -4 73852.2 3094.31   7
   1  -2  -3 63427.6 2783.84   2
   1  -2  -3 69116.1 2684.10   7
   1  -2  -3 66025.0 2885.84   1
   1  -2  -2 102606. 3422.31   7
   1  -2  -2 106527. 3591.54   1
   1  -2  -1 16957.6 904.624   3
   1  -2   0 51378.8 1975.12   5
   1  -2   3 4170.35 477.545   2
   1  -2   4 210284. 5962.56   2
   1  -2   5 28741.7 1196.77   2
   1  -1 -14 9008.79 2016.97   5
   1  -1 -13 64534.2 5546.64   1
   1  -1 -13 74909.7 5325.31   5
   1  -1 -12 14808.3 2635.65   1
   1  -1 -12 11568.2 2008.77   5
   1  -1 -11 25563.3 3038.30   1
   1  -1 -11 19228.3 2336.07   5
   1  -1 -10 29114.6 3031.63   1
   1  -1 -10 27078.3 2644.31   5
   1  -1  -9 68303.6 4528.59   1
   1  -1  -8 138847. 6592.38   1
   1  -1  -6 256272. 7990.93   2
   1  -1  -5 187747. 6556.31   7
   1  -1  -5 176388. 5863.76   2
   1  -1  -5 179970. 6848.39   4
   1  -1  -4 623909. 16926.9   7
   1  -1  -4 598699. 16426.3   2
   1  -1  -3 49849.4 2255.21   7
   1  -1  -3 46548.1 2098.29   2
   1  -1  -2 846642. 21964.3   2
   1  -1  -1 66544.1 2434.35   2
   1  -1   2 958748. 24289.1   2
   1  -1   3 11040.8 635.328   2
   1   0 -13 60246.9 4969.77   5
   1   0 -13 62811.9 5428.41   1
   1   0 -12 38409.7 3967.68   1
   1   0 -12 37912.8 3677.05   5
   1   0 -11 34024.8 3484.33   1
   1   0 -11 33699.0 3256.78   5
   1   0 -10 105200. 6139.92   1
   1   0 -10 96661.2 5576.65   5
   1   0  -9 57007.7 4116.47   1
   1   0  -8 157119. 7119.30   1
   1   0   2 409382. 10674.4   4
   1   1 -13 1352.83 1083.38   5
   1   1 -12 68287.8 5184.72   5
   1   1 -12 75421.8 5705.34   1
   1   1 -11 8510.30 1887.24   1
   1   1 -11 9663.26 1855.72   5
   1   1 -10 90986.0 5696.35   1
   1   1 -10 84522.8 5313.45   5
   1   1  -9 4554.11 1349.28   1
   1   1  -8 105441. 5571.40   1
   1   1  -7 2144.91 686.496   1
   1   1  -6 147543. 6166.39   1
   1   1   2 8157.59 670.206   4
   1   1   3 80307.9 2996.61   4
   1   1   4 343579. 10104.9   4
   1   2 -12 79815.3 5815.07   5
   1   2 -11 15071.2 2350.42   5
   1   2 -10 53986.1 4297.87   5
   1   2 -10 48472.8 4082.00   1
   1   2  -9 7614.10 1564.57   1
   1   2  -8 68425.2 4388.65   1
   1   2  -7 53803.4 3553.05   1
   1   2  -6 153292. 6388.42   1
   1   2  -5 55730.4 3171.51   1
   1   2   1 312249. 8972.60   4
   1   2   2 94598.7 3492.79   4
   1   2   3 308792. 9217.06   4
   1   2   3 315968. 8538.97   5
   1   2   4 40057.2 2248.84   4
   1   2   5 136892. 5339.55   4
   1   3 -12 70728.1 5595.00   5
   1   3 -11 29180.5 3394.11   5
   1   3 -10 57497.4 4548.52   5
   1   3  -9 24066.3 2787.07   5
   1   3  -3 415363. 12405.1   7
   1   3  -2 111653. 4237.68   7
   1   3  -1 457578. 12615.3   7
   1   3   0 368424. 10076.3   7
   1   3   1 250280. 7668.94   4
   1   3   1 233389. 7161.76   3
   1   3   2 156486. 4557.52   3
   1   3   2 160312. 5454.98   4
   1   3   2 145418. 4467.97   6
   1   3   3 342721. 10423.8   4
   1   3   3 345873. 9073.72   5
   1   3   4 37491.3 2340.85   4
   1   3   5 154104. 6000.36   4
   1   3   6 323.745 489.309   4
   1   3   7 149950. 6519.40   4
   1   4 -11 25011.6 3242.15   5
   1   4 -10 34266.5 3639.41   5
   1   4  -9 78110.4 5317.16   5
   1   4  -2 6184.85 873.244   7
   1   4  -1 436954. 12313.9   7
   1   4   0 3315.62 482.967   7
   1   4   0 3060.14 654.448   4
   1   4   1 241107. 7951.73   4
   1   4   1 232563. 7206.69   3
   1   4   2 25717.0 1943.87   4
   1   4   2 28952.2 1327.26   3
   1   4   3 140712. 5531.65   4
   1   4   4 310.253 425.823   4
   1   4   5 243281. 8649.07   4
   1   4   6 2243.52 735.299   4
   1   4   7 169192. 7265.24   4
   1   4   8 18331.5 2193.03   4
   1   5 -10 2305.39 1009.87   5
   1   5  -9 110522. 6657.42   5
   1   5  -8 433.301 952.231   5
   1   5  -2 15541.6 1429.90   7
   1   5  -1 138482. 4961.87   7
   1   5   0 85190.4 4180.22   4
   1   5   0 88284.0 3330.23   7
   1   5   1 351217. 11158.9   4
   1   5   1 342240. 10126.3   3
   1   5   2 164116. 6405.43   4
   1   5   2 162414. 4874.34   3
   1   5   3 113507. 5122.60   4
   1   5   4 122624. 5475.96   4
   1   5   5 153459. 6563.69   4
   1   5   6 195657. 7965.22   4
   1   5   7 165217. 7393.41   4
   1   5   8 264430. 10522.9   4
   1   6  -9 69038.3 5304.74   5
   1   6  -8 701.001 866.876   5
   1   6  -7 80497.7 5241.45   5
   1   6  -1 152498. 6466.21   4
   1   6  -1 160222. 5676.17   7
   1   6   0 69482.8 3951.77   4
   1   6   0 79699.9 3192.07   7
   1   6   1 311266. 10567.0   4
   1   6   1 303726. 9335.31   3
   1   6   2 61706.0 3704.71   4
   1   6   2 63094.5 2327.18   3
   1   6   3 203853. 7701.39   4
   1   6   3 183406. 4976.41   5
   1   6   4 81939.8 4539.52   4
   1   6   5 92834.1 5016.40   4
   1   6   6 127972. 6285.13   4
   1   6   7 53241.5 3959.14   4
   1   6   8 118544. 6494.36   4
   1   6   9 48635.6 4122.46   4
   1   7  -9 30693.2 3579.03   5
   1   7  -8 7335.21 1782.68   5
   1   7  -7 32300.0 3316.61   5
   1   7  -6 25087.8 2803.88   5
   1   7  -5 31070.2 2975.76   5
   1   7  -3 41252.7 3120.85   4
   1   7  -2 66697.3 4049.34   4
   1   7  -1 34837.9 2809.29   4
   1   7  -1 37163.8 2310.11   7
   1   7   0 67735.0 4099.95   4
   1   7   0 75268.1 3224.77   7
   1   7   1 23479.6 2298.15   4
   1   7   1 22634.6 1696.18   3
   1   7   2 101121. 5067.75   4
   1   7   2 96094.4 3290.39   5
   1   7   3 26295.6 2525.48   4
   1   7   3 25702.4 1102.86   5
   1   7   4 123658. 6134.51   4
   1   7   5 24065.5 2534.34   4
   1   7   6 25816.2 2772.82   4
   1   7   7 1336.62 925.314   4
   1   7   8 22310.3 2749.84   4
   1   7   9-177.043 1134.77   4
   1   7  10 78896.4 5814.80   4
   1   8  -8 65618.2 5272.51   5
   1   8  -7 25858.0 3114.94   5
   1   8  -6 71128.0 5018.69   5
   1   8  -5 3358.77 1235.95   5
   1   8  -4 105397. 5714.66   4
   1   8  -4 113312. 5889.82   5
   1   8  -3 11270.9 1679.85   4
   1   8  -3 15859.6 1879.44   5
   1   8  -2 162423. 7425.41   4
   1   8  -2 178141. 7149.76   5
   1   8  -1-26.3197 577.463   4
   1   8  -1 144.227 591.556   5
   1   8   0 170095. 7521.27   4
   1   8   0 174654. 6426.38   5
   1   8   1 9436.34 1549.37   4
   1   8   1 9844.52 1088.45   5
   1   8   2 166964. 7538.34   4
   1   8   2 166020. 5427.91   5
   1   8   3 10896.6 1759.68   4
   1   8   3 8861.41 658.324   5
   1   8   4 196594. 8643.08   4
   1   8   5 436.079 657.025   4
   1   8   6 142393. 7367.53   4
   1   8   7 19605.9 2554.01   4
   1   8   8 138393. 7692.60   4
   1   8   9 26042.0 3212.49   4
   1   8  10 94105.2 6641.74   4
   1   9  -7 6900.92 1743.31   5
   1   9  -6 89408.5 5585.79   4
   1   9  -6 92617.6 5978.78   5
   1   9  -5-333.969 841.865   4
   1   9  -5 1363.57 939.964   5
   1   9  -4 75256.9 4833.16   4
   1   9  -4 69654.3 4650.34   5
   1   9  -3 5118.49 1226.92   4
   1   9  -3 6323.81 1278.82   5
   1   9  -2 155262. 7476.50   4
   1   9  -2 171140. 7147.89   5
   1   9  -1 406.600 704.269   4
   1   9  -1 651.346 489.311   5
   1   9   0 150608. 7179.39   4
   1   9   0 141344. 5804.07   5
   1   9   1 4497.30 1276.59   4
   1   9   1 2611.34 641.246   5
   1   9   2 108200. 5992.80   4
   1   9   3 9278.11 1663.74   4
   1   9   4 94669.4 5717.31   4
   1   9   5 48769.3 4041.92   4
   1   9   6 133003. 7305.14   4
   1   9   7 23788.0 2976.78   4
   1   9   8 78786.5 5791.01   4
   1   9   9 40493.2 4200.87   4
   1   9  10 47000.9 4744.78   4
   1   9  11 40119.0 4555.71   4
   1  10  -6 45445.0 4176.85   5
   1  10  -5 2598.69 1007.81   4
   1  10  -5 2656.26 1138.93   5
   1  10  -4 63888.5 4535.74   4
   1  10  -4 51834.9 4095.28   5
   1  10  -3 6154.25 1488.50   4
   1  10  -3 6790.33 1369.68   5
   1  10  -2 45300.5 3780.94   4
   1  10  -2 47968.9 3492.15   5
   1  10  -1 22647.5 2632.45   4
   1  10  -1 23792.3 2251.55   5
   1  10   0 50933.1 4053.37   4
   1  10   1 11929.4 1956.25   4
   1  10   2 47633.2 4014.17   4
   1  10   3 39009.2 3656.04   4
   1  10   4 50569.6 4254.05   4
   1  10   5 53421.0 4499.01   4
   1  10   6 28965.5 3283.44   4
   1  10   7 50566.9 4562.93   4
   1  10   8 5868.01 1625.33   4
   1  10   9 33281.2 3970.85   4
   1  11  -5 13489.0 2261.35   5
   1  11  -4 34773.9 3495.26   4
   1  11  -4 36738.5 3463.15   5
   1  11  -3 35633.9 3505.60   4
   1  11  -3 35249.5 3228.64   5
   1  11  -2 22619.1 2774.65   4
   1  11  -1 49364.8 4158.32   4
   1  11   0 22559.7 2799.65   4
   1  11   1 70672.2 5100.64   4
   1  11   2 30698.3 3306.47   4
   1  11   3 87348.9 5910.10   4
   1  11   4 7860.91 1863.59   4
   1  11   5 59918.2 4983.83   4
   1  11   6 9395.84 2041.49   4
   1  11   7 67191.7 5560.36   4
   1  11   8 2444.42 1453.91   4
   1  12  -2 16810.8 2557.51   4
   1  12  -1 60139.7 4822.46   4
   1  12   0 13883.1 2308.58   4
   1  12   1 56979.5 4737.99   4
   1  12   2 14044.1 2434.50   4
   1  12   3 76168.8 5730.87   4
   1  12   4 860.566 771.168   4
   1  12   5 93201.5 6620.01   4
   1  13  -1 45452.7 4287.83   4
   1  13   0 1600.97 1133.79   4
   1  13   1 37787.0 3976.16   4
   2 -12   0 4425.83 1743.97   2
   2 -12   1 48217.6 4650.65   2
   2 -12   2 8713.39 2081.74   2
   2 -11  -7 45673.1 4585.97   2
   2 -11  -6 16882.7 2727.75   2
   2 -11  -5 42967.4 4402.92   2
   2 -11  -4 35133.2 3888.31   2
   2 -11  -3 42408.0 4246.47   2
   2 -11   0 40997.7 4136.72   2
   2 -11   1 31662.0 3559.34   2
   2 -11   2 27697.4 3270.70   2
   2 -11   3 12023.2 2242.32   2
   2 -10 -10 15018.9 2606.64   2
   2 -10  -9 44390.7 4380.93   2
   2 -10  -8 35087.3 3767.92   2
   2 -10  -7 66228.6 5286.60   2
   2 -10  -6 35825.4 3791.17   2
   2 -10  -5 78916.4 5703.25   2
   2 -10   2 104452. 6365.65   2
   2 -10   3 32888.7 3370.44   2
   2 -10   4 63547.3 4706.26   2
   2  -9 -11 21642.6 3009.47   2
   2  -9 -10 30742.6 3552.62   2
   2  -9  -9 30568.0 3432.50   2
   2  -9  -8 75361.5 5425.93   2
   2  -9  -7 50005.4 4338.06   2
   2  -9  -6 70702.5 5190.26   2
   2  -9  -5 14741.1 2358.84   2
   2  -9   3 1225.88 935.909   2
   2  -9   4 94936.1 5577.24   2
   2  -8 -12 44232.1 4485.21   1
   2  -8 -11 3469.25 1289.77   1
   2  -8 -11 5759.02 1503.25   2
   2  -8 -10 56316.9 4546.96   2
   2  -8 -10 56163.3 4570.81   1
   2  -8  -9 145.317 787.306   1
   2  -8  -9 956.755 921.750   2
   2  -8  -8 114799. 6582.19   2
   2  -8  -8 118982. 6216.48   1
   2  -8  -7 411.157 575.544   1
   2  -8  -7 868.422 878.547   2
   2  -8  -6 107971. 6204.22   2
   2  -8  -5 5059.16 1425.11   2
   2  -8   3 44448.3 3464.67   2
   2  -8   4 59785.8 4036.12   2
   2  -8   5 33599.6 2918.03   2
   2  -7 -12 55266.7 5053.02   1
   2  -7 -11 860.290 901.049   1
   2  -7 -11 646.760 707.261   2
   2  -7 -10 94691.2 5756.63   2
   2  -7 -10 87283.1 5804.31   1
   2  -7  -9 4698.27 1189.01   1
   2  -7  -9 8439.29 1622.69   2
   2  -7  -8 91528.8 5590.15   2
   2  -7  -8 109877. 5826.51   1
   2  -7  -7 65881.7 4513.49   2
   2  -7  -7 69150.8 4229.79   1
   2  -7  -6 118797. 6335.46   2
   2  -7  -6 131425. 5816.70   1
   2  -7  -5 3122.76 1023.99   2
   2  -7   3 72392.3 4238.93   2
   2  -7   4 36299.3 2881.44   2
   2  -7   5 109740. 5355.74   2
   2  -6 -12 54554.2 4946.27   1
   2  -6 -11 2707.78 1074.04   2
   2  -6 -11 4369.29 1520.94   1
   2  -6 -10 91115.4 5821.71   1
   2  -6 -10 89116.9 5347.58   2
   2  -6  -9 12049.4 1875.71   1
   2  -6  -9 10170.1 1675.12   2
   2  -6  -8 107984. 5714.51   2
   2  -6  -8 106282. 5814.25   1
   2  -6  -7 62024.2 4065.92   2
   2  -6  -7 59886.9 3985.58   1
   2  -6  -6 127541. 6146.86   2
   2  -6  -6 124420. 5723.15   1
   2  -6  -5 29065.7 2603.07   2
   2  -6  -5 24169.8 1544.90   3
   2  -6  -5 27619.2 2150.13   1
   2  -6  -5 25248.5 1124.70   5
   2  -6  -4 159825. 6982.87   2
   2  -6  -4 158258. 4654.45   5
   2  -6  -3 111215. 3700.05   5
   2  -6  -2 106375. 3860.38   5
   2  -6   3 123564. 5533.17   2
   2  -6   4 39532.4 2801.10   2
   2  -6   5 130757. 5637.97   2
   2  -6   6 8665.61 1186.99   2
   2  -5 -12 32379.3 3872.09   1
   2  -5 -11 32245.5 3507.18   1
   2  -5 -10 44848.9 3973.05   1
   2  -5 -10 44738.4 3482.76   2
   2  -5  -9 37945.8 3474.67   1
   2  -5  -9 34617.3 2939.02   2
   2  -5  -8 52711.1 3604.09   2
   2  -5  -8 55990.9 3971.57   1
   2  -5  -7 57078.4 3734.56   2
   2  -5  -7 60330.8 3899.96   1
   2  -5  -6 27682.9 2462.74   2
   2  -5  -6 30858.6 2494.63   1
   2  -5  -6 24607.1 1930.32   7
   2  -5  -5 99366.0 4887.19   2
   2  -5  -5 99753.9 4585.92   1
   2  -5  -5 90356.8 3545.37   6
   2  -5  -4 20702.9 2028.23   2
   2  -5  -4 17520.1 1315.21   3
   2  -5  -4 18027.3 1619.07   1
   2  -5  -3 94676.4 3304.15   5
   2  -5  -3 93030.7 3191.23   3
   2  -5  -2 51493.1 2264.47   5
   2  -5  -1 77112.7 3164.34   5
   2  -5   0 2528.27 643.463   4
   2  -5   0 1734.11 507.628   5
   2  -5   3 231955. 8121.35   2
   2  -5   4 6516.53 1033.83   2
   2  -5   5 133922. 5355.54   2
   2  -5   6 13547.7 1381.66   2
   2  -4 -12 13239.9 2407.87   1
   2  -4 -11 109652. 6848.24   1
   2  -4 -10 8865.03 1426.88   2
   2  -4 -10 10716.9 1970.45   1
   2  -4  -9 126139. 6765.04   1
   2  -4  -9 130821. 6113.52   2
   2  -4  -8 2990.52 812.294   2
   2  -4  -8 3637.57 1171.94   1
   2  -4  -7 246394. 9368.36   1
   2  -4  -7 237530. 8817.02   2
   2  -4  -6 8145.37 1098.51   7
   2  -4  -6 9836.66 1341.55   2
   2  -4  -6 12533.3 1592.15   1
   2  -4  -5 268426. 9254.98   2
   2  -4  -5 270033. 9187.63   1
   2  -4  -5 259561. 8574.36   7
   2  -4  -4 1640.16 566.666   1
   2  -4  -4 278.883 474.519   2
   2  -4  -3 312449. 9904.81   2
   2  -4  -3 281824. 8533.85   6
   2  -4  -3 297642. 8793.66   3
   2  -4  -2 20118.2 1710.98   4
   2  -4  -2 21418.4 1849.59   2
   2  -4  -2 20881.9 1303.45   5
   2  -4  -2 19883.3 1217.20   3
   2  -4  -1 201283. 6747.69   4
   2  -4  -1 193816. 7053.18   2
   2  -4  -1 193656. 6153.07   5
   2  -4   0 19715.3 1495.12   4
   2  -4   0 18108.9 1655.24   2
   2  -4   0 16833.1 1321.23   5
   2  -4   1 413490. 12240.1   2
   2  -4   1 393632. 11836.1   5
   2  -4   2 7085.05 996.510   2
   2  -4   3 330712. 10229.4   2
   2  -4   4 35348.5 2163.83   2
   2  -4   5 200968. 6765.25   2
   2  -4   6 53128.1 2641.22   2
   2  -3 -12 5699.40 1392.80   5
   2  -3 -12 8382.32 1998.17   1
   2  -3 -11 115537. 6868.94   1
   2  -3 -11 95248.8 5352.39   5
   2  -3 -10-93.6321 593.813   2
   2  -3 -10 1208.63 1142.90   1
   2  -3  -9 130697. 6867.39   1
   2  -3  -9 133201. 6007.34   2
   2  -3  -8 492.600 543.465   1
   2  -3  -8 2230.27 804.049   2
   2  -3  -7 147611. 6704.80   1
   2  -3  -7 150472. 6167.43   2
   2  -3  -6 7892.71 1299.30   1
   2  -3  -6 7857.93 1194.64   2
   2  -3  -5 165732. 6443.53   2
   2  -3  -5 181578. 6842.50   1
   2  -3  -5 178371. 6363.87   7
   2  -3  -4 1406.65 652.251   1
   2  -3  -4 1869.35 480.096   7
   2  -3  -4 1282.32 501.159   2
   2  -3  -3 428306. 12810.9   2
   2  -3  -2 102429. 4254.20   2
   2  -3  -2 100241. 3761.87   6
   2  -3  -2 99370.7 3824.65   3
   2  -3  -1 387708. 10897.3   4
   2  -3  -1 374928. 11213.6   2
   2  -3  -1 368474. 10556.0   5
   2  -3  -1 365353. 10418.3   3
   2  -3   0 53015.4 2366.37   4
   2  -3   0 56999.4 2791.68   2
   2  -3   0 52342.3 2445.57   5
   2  -3   1 85366.2 3591.98   2
   2  -3   1 82980.9 3109.33   4
   2  -3   1 81530.8 3429.66   5
   2  -3   2 9691.21 1033.12   2
   2  -3   2 8669.27 1057.64   5
   2  -3   3 126617. 4635.38   2
   2  -3   4 17353.4 1324.80   2
   2  -3   5 52646.1 2454.29   2
   2  -3   6 53196.0 2370.85   2
   2  -2 -13 32914.9 3350.35   5
   2  -2 -12 1067.76 904.349   1
   2  -2 -12 2142.67 1054.74   5
   2  -2 -11 95560.9 6308.21   1
   2  -2 -10 7918.22 1791.21   1
   2  -2  -9 87178.9 5353.48   1
   2  -2  -8 20543.6 2351.77   1
   2  -2  -8 19580.4 1933.61   2
   2  -2  -7 81300.5 4626.36   1
   2  -2  -7 79208.9 4010.63   2
   2  -2  -6 245105. 9026.76   1
   2  -2  -6 245720. 8434.42   2
   2  -2  -5 160829. 5958.52   7
   2  -2  -5 145037. 5709.53   2
   2  -2  -4 236588. 7900.14   7
   2  -2  -4 249994. 8274.90   1
   2  -2  -4 246097. 8072.51   2
   2  -2  -3 168619. 5777.46   7
   2  -2  -3 167020. 5911.62   2
   2  -2  -2 146088. 5279.31   2
   2  -2  -2 147251. 5065.63   3
   2  -2  -1 101187. 3963.65   2
   2  -2  -1 97639.2 3768.19   6
   2  -2  -1 99827.2 3817.57   3
   2  -2   0 177756. 5617.50   3
   2  -2   0 178632. 5903.60   2
   2  -2   0 174699. 5323.29   4
   2  -2   0 181274. 5736.07   5
   2  -2   1 55974.8 1974.06   4
   2  -2   1 57061.0 2583.80   2
   2  -2   2 466147. 12988.6   2
   2  -2   3 16349.2 1194.79   2
   2  -2   4 192518. 6025.79   2
   2  -1 -14 17005.0 2664.23   5
   2  -1 -13 45413.7 4118.18   5
   2  -1 -12 54258.6 4376.88   5
   2  -1 -11 72645.0 5377.37   1
   2  -1 -10 57868.3 4533.50   1
   2  -1  -9 84081.8 5327.92   1
   2  -1  -8 76787.6 4777.05   1
   2  -1  -5 241736. 8113.62   2
   2  -1  -4 399432. 11782.8   7
   2  -1  -4 375849. 11600.8   2
   2  -1  -3 53496.9 2658.47   7
   2  -1  -3 54412.7 2758.15   2
   2  -1  -2 331409. 9817.19   7
   2  -1  -2 332076. 9932.07   2
   2  -1  -1 78569.3 3409.55   3
   2  -1  -1 85510.5 3404.75   2
   2  -1   0 168053. 5549.68   2
   2  -1   1 255778. 7700.63   2
   2  -1   2 741244. 19682.5   2
   2   0 -13 26081.1 3258.76   5
   2   0 -12 41509.3 3894.16   5
   2   0  -9 46736.3 3798.04   1
   2   0  -8 148868. 7103.27   1
   2   0  -7 29662.6 2672.92   1
   2   0   2 579624. 14782.4   4
   2   0   3 93172.5 2975.39   4
   2   1 -13 1832.73 1088.10   5
   2   1 -12 18207.2 2648.10   5
   2   1   2 185653. 5579.65   4
   2   1   3 96579.8 3376.75   4
   2   1   4 141788. 4824.69   4
   2   1   4 145422. 5097.82   5
   2   1   5 92176.1 3903.05   5
   2   1   5 89655.6 3733.37   4
   2   2 -12 58520.5 5028.22   5
   2   2   2 172695. 5661.34   4
   2   2   2 168117. 5617.85   6
   2   2   3 166440. 5516.16   4
   2   2   3 160418. 5276.00   5
   2   2   4 3669.75 690.370   4
   2   2   4 2611.90 541.261   5
   2   2   5 192924. 6646.95   4
   2   2   5 189365. 6356.81   5
   2   2   6 2452.26 706.741   4
   2   3 -11 28686.5 3405.99   5
   2   3  -2 60998.8 3059.64   7
   2   3  -1 259239. 8152.98   7
   2   3   0 28097.1 1948.00   3
   2   3   1 112160. 4467.08   4
   2   3   1 102856. 4454.45   3
   2   3   2 105539. 4312.85   4
   2   3   2 105518. 4124.98   3
   2   3   3 243745. 7990.00   4
   2   3   4 18391.6 1612.43   4
   2   3   4 18688.0 1234.95   5
   2   3   5 192738. 6924.23   4
   2   3   5 187044. 6062.59   5
   2   3   6 7509.88 1136.26   4
   2   3   7 191913. 7547.84   4
   2   4 -11 35644.5 3864.01   5
   2   4  -2 33469.3 2254.11   7
   2   4  -1 254763. 8186.08   7
   2   4   0 6966.00 906.100   7
   2   4   1 291344. 9656.47   4
   2   4   1 294133. 9572.59   3
   2   4   2 83727.8 4004.88   4
   2   4   2 82208.7 3564.36   3
   2   4   3 393680. 11225.8   3
   2   4   3 396094. 12223.8   4
   2   4   3 386533. 11019.5   6
   2   4   4 7302.45 1165.24   4
   2   4   4 8334.92 729.461   5
   2   4   5 127221. 5452.11   4
   2   4   5 123657. 4183.63   5
   2   4   6 24445.0 2192.90   4
   2   4   7 160071. 6948.06   4
   2   4   8 50636.1 3654.95   4
   2   5 -10 1422.20 993.860   5
   2   5  -2 32717.0 2331.54   7
   2   5  -1 327395. 10207.9   7
   2   5   0 29197.3 2383.85   4
   2   5   0 36176.4 2157.50   7
   2   5   1 443046. 13939.5   4
   2   5   1 445788. 13572.7   3
   2   5   2 74981.3 3931.25   4
   2   5   2 65602.1 3197.64   3
   2   5   3 368359. 10248.3   3
   2   5   3 356092. 11696.3   4
   2   5   3 334815. 10169.0   6
   2   5   4 77661.2 4168.38   4
   2   5   4 75094.0 2703.59   5
   2   5   5 224110. 8535.87   4
   2   5   5 223760. 6440.61   5
   2   5   6 119165. 5737.65   4
   2   5   7 115345. 5826.47   4
   2   5   8 140112. 6881.79   4
   2   5   9 43649.0 3727.42   4
   2   6  -9 61410.0 5008.31   5
   2   6  -1 116166. 4854.68   7
   2   6   0 54692.0 3551.78   4
   2   6   0 57670.1 2985.21   7
   2   6   1 68620.0 3999.46   4
   2   6   1 63569.0 3539.50   3
   2   6   2 29411.0 2530.64   4
   2   6   2 30176.4 2033.19   3
   2   6   3 51326.3 2357.96   3
   2   6   3 55033.0 3554.22   4
   2   6   4 15140.0 1840.24   4
   2   6   4 15119.2 892.574   5
   2   6   5 61448.2 3943.67   4
   2   6   5 57909.1 1936.84   5
   2   6   6 43970.0 3431.09   4
   2   6   7 32302.6 2991.22   4
   2   6   8 48339.2 3889.58   4
   2   6   9 4894.60 1455.10   4
   2   6  10 25804.0 3138.20   4
   2   7  -9 44673.5 4339.78   5
   2   7  -8 12113.7 2207.51   5
   2   7  -1 34416.3 2923.48   4
   2   7  -1 33045.9 2386.02   7
   2   7   0 92481.6 5164.81   4
   2   7   0 101642. 4365.09   7
   2   7   1 7144.46 1182.29   3
   2   7   1 6290.25 1276.48   4
   2   7   2 179651. 7616.53   4
   2   7   2 164659. 6060.10   3
   2   7   3 3325.63 1036.48   4
   2   7   3 3892.07 547.277   3
   2   7   4 124260. 6267.77   4
   2   7   5 2949.04 1102.71   4
   2   7   6 102287. 5775.58   4
   2   7   7 1240.49 799.635   4
   2   7   8 87189.9 5638.43   4
   2   7   9 989.455 757.823   4
   2   7  10 65194.7 5231.92   4
   2   7  11 1157.15 1017.05   4
   2   8  -8 40178.0 4057.49   5
   2   8  -7 30940.1 3334.87   5
   2   8  -3 1643.01 776.313   4
   2   8  -2 141404. 6928.69   4
   2   8  -1 7607.53 1438.43   4
   2   8   0 166297. 7593.65   4
   2   8   1 3685.51 1173.13   4
   2   8   2 157422. 7442.57   4
   2   8   3 5626.01 1426.05   4
   2   8   4 264176. 10652.3   4
   2   8   5-364.697 679.317   4
   2   8   6 165705. 8072.80   4
   2   8   7 6372.83 1517.98   4
   2   8   8 165021. 8510.65   4
   2   8   9 10092.7 2092.02   4
   2   8  10 109909. 7239.70   4
   2   8  11 14560.1 2730.56   4
   2   9  -7 6316.67 1649.45   5
   2   9  -6 48419.4 4205.62   5
   2   9  -5-82.2585 743.001   4
   2   9  -5 1547.18 923.320   5
   2   9  -4 76371.4 5167.45   4
   2   9  -4 81055.3 5046.88   5
   2   9  -3 1478.61 823.144   4
   2   9  -2 184297. 8487.54   4
   2   9  -1 2800.75 1026.50   4
   2   9   0 131809. 6865.22   4
   2   9   1 4903.28 1360.78   4
   2   9   2 92718.3 5687.91   4
   2   9   2 100099. 3977.64   5
   2   9   3 19885.8 2556.78   4
   2   9   4 154379. 7814.94   4
   2   9   5 33653.0 3393.55   4
   2   9   6 77805.5 5404.21   4
   2   9   7 36386.7 3715.73   4
   2   9   8 58390.4 4884.08   4
   2   9   9 36622.4 4017.38   4
   2   9  10 24986.2 3452.54   4
   2   9  11 21203.7 3296.14   4
   2  10  -6 38884.1 3877.07   4
   2  10  -6 48931.9 4358.94   5
   2  10  -5 11892.6 2123.68   4
   2  10  -5 11429.5 2004.72   5
   2  10  -4 36951.7 3606.28   4
   2  10  -4 41593.5 3605.21   5
   2  10  -3 5413.09 1346.56   4
   2  10  -3 4944.27 1178.68   5
   2  10  -2 64655.0 4720.11   4
   2  10  -2 70768.0 4345.95   5
   2  10  -1 34411.4 3408.32   4
   2  10  -1 37530.2 2884.21   5
   2  10   0 46553.1 3987.29   4
   2  10   0 42615.2 2897.80   5
   2  10   1 27571.7 3008.48   4
   2  10   2 45300.0 3968.52   4
   2  10   3 25547.0 2953.20   4
   2  10   4 44818.0 4055.86   4
   2  10   5 59485.6 4806.70   4
   2  10   6 12119.6 2237.78   4
   2  10   7 51069.9 4654.72   4
   2  10   8 11679.4 2270.23   4
   2  10   9 53004.9 5103.08   4
   2  11  -5 28035.5 3252.03   4
   2  11  -5 31124.9 3422.90   5
   2  11  -4 24000.9 3042.24   4
   2  11  -4 19995.8 2588.30   5
   2  11  -3 20400.7 2702.75   4
   2  11  -3 29024.2 2936.08   5
   2  11  -2 16981.6 2476.57   4
   2  11  -1 62918.5 4832.70   4
   2  11   0 29783.3 3294.30   4
   2  11   1 59533.9 4727.22   4
   2  11   2 16790.7 2499.69   4
   2  11   3 73745.5 5464.82   4
   2  11   4 9148.51 1937.23   4
   2  11   5 67918.7 5388.43   4
   2  11   6 1965.48 1129.03   4
   2  11   7 86189.0 6465.26   4
   2  11   8 8547.44 2110.26   4
   2  12  -3 29093.7 3379.29   4
   2  12  -2 8211.84 1870.93   4
   2  12  -1 40083.9 3987.22   4
   2  12   0 5371.57 1571.72   4
   2  12   1 55647.9 4766.22   4
   2  12   2 6764.13 1643.99   4
   2  12   3 56532.0 4960.45   4
   2  12   4 692.751 980.962   4
   2  12   5 81697.7 6187.16   4
   3 -11  -5 54825.7 5114.09   2
   3 -11  -4 31421.3 3764.09   2
   3 -11  -3 44747.7 4474.58   2
   3 -11  -2 41003.2 4253.39   2
   3 -11  -1 30353.2 3654.41   2
   3 -11   0 61324.0 5200.42   2
   3 -11   1 24648.9 3235.26   2
   3 -11   2 60902.1 5099.13   2
   3 -11   3 21585.8 2915.13   2
   3 -10  -9 42823.3 4488.75   2
   3 -10  -8 39464.4 4206.40   2
   3 -10  -7 54712.0 4888.56   2
   3 -10  -6 29763.6 3510.55   2
   3 -10  -5 46942.4 4496.92   2
   3 -10  -4 58157.4 4962.63   2
   3 -10  -3 49006.1 4485.21   2
   3 -10  -2 51525.9 4564.55   2
   3 -10  -1 7926.61 1878.26   2
   3 -10   0 84756.2 5842.99   2
   3 -10   1 10303.2 2048.31   2
   3 -10   2 58723.3 4719.10   2
   3 -10   3 6763.12 1639.72   2
   3  -9 -11 14485.7 2546.68   2
   3  -9 -10 22625.2 3071.76   2
   3  -9  -9 33458.4 3724.76   2
   3  -9  -8 59322.2 4930.29   2
   3  -9  -7 16878.2 2652.14   2
   3  -9  -6 115042. 6962.54   2
   3  -9  -5 431.853 680.329   2
   3  -9  -4 84910.5 5758.28   2
   3  -9  -3 15684.7 2347.88   2
   3  -9  -2 110343. 6577.21   2
   3  -9  -1 11152.9 1980.71   2
   3  -9   0 67552.8 4925.29   2
   3  -9   1-298.363 769.152   2
   3  -9   2 61235.4 4593.38   2
   3  -9   3 1551.68 1127.83   2
   3  -9   4 67772.9 4752.26   2
   3  -8 -11-246.737 913.566   2
   3  -8 -10 42430.9 4081.91   2
   3  -8  -9-711.264 809.529   2
   3  -8  -8 83859.5 5708.57   2
   3  -8  -7 878.301 919.438   2
   3  -8  -6 118033. 6778.11   2
   3  -8  -5 18072.3 2433.55   2
   3  -8  -4 124019. 6792.71   2
   3  -8  -3 4221.24 1318.00   2
   3  -8  -2 220631. 9646.70   2
   3  -8  -1 12850.5 2030.92   2
   3  -8   0 130299. 6838.50   2
   3  -8   1 22692.7 2617.02   2
   3  -8   2 70463.9 4691.83   2
   3  -8   3 47375.7 3662.51   2
   3  -8   4 93880.1 5440.66   2
   3  -8   5 40691.3 3375.68   2
   3  -7 -11 1677.20 1236.78   2
   3  -7 -10 97138.2 6126.57   2
   3  -7  -9 9819.86 1874.81   2
   3  -7  -8 182273. 8589.58   2
   3  -7  -7 5823.04 1442.20   2
   3  -7  -6 144376. 7241.11   2
   3  -7  -5 8071.87 1626.78   2
   3  -7  -4 162631. 7679.10   2
   3  -7  -3 42462.5 3480.25   2
   3  -7  -3 37508.4 2069.23   5
   3  -7  -2 164712. 7420.42   2
   3  -7  -2 145373. 5469.09   5
   3  -7  -1 86121.2 5064.77   2
   3  -7   0 138983. 6717.65   2
   3  -7   1 83853.1 4902.55   2
   3  -7   2 116743. 5926.25   2
   3  -7   3 94057.6 5124.29   2
   3  -7   4 34245.7 2896.28   2
   3  -7   5 109240. 5569.54   2
   3  -6 -11 3109.07 1232.94   2
   3  -6 -10 76328.8 5135.12   2
   3  -6  -9 5842.15 1478.04   2
   3  -6  -8 81884.8 5088.77   2
   3  -6  -7 25635.4 2662.48   2
   3  -6  -6 96112.0 5422.58   2
   3  -6  -5 16326.1 1452.33   3
   3  -6  -5 14529.8 1948.52   2
   3  -6  -4 92544.6 3637.56   5
   3  -6  -4 89670.4 3575.53   3
   3  -6  -3 64797.4 2601.29   3
   3  -6  -3 74660.7 4407.82   2
   3  -6  -3 67904.7 2992.50   5
   3  -6  -2 35406.8 2925.43   2
   3  -6  -2 32563.3 2002.92   5
   3  -6  -1 91232.3 4884.46   2
   3  -6  -1 78813.6 3673.07   5
   3  -6   0 34291.2 2827.35   2
   3  -6   1 76729.2 4370.47   2
   3  -6   2 61654.3 3821.75   2
   3  -6   3 57938.5 3644.82   2
   3  -6   4 905.620 715.185   2
   3  -6   5 102266. 5033.01   2
   3  -5 -10 30071.8 2996.50   2
   3  -5  -9 61264.7 4296.88   2
   3  -5  -8 8462.67 1539.79   2
   3  -5  -7 112681. 5784.36   2
   3  -5  -6 10407.0 1609.90   2
   3  -5  -5 146659. 5759.77   6
   3  -5  -5 155255. 5980.36   3
   3  -5  -4 12837.8 1262.19   6
   3  -5  -4 13892.6 1375.55   3
   3  -5  -4 13344.9 1662.76   2
   3  -5  -3 207359. 7877.14   2
   3  -5  -3 179889. 6278.84   3
   3  -5  -2 1878.25 455.769   3
   3  -5  -2 1787.32 505.790   5
   3  -5  -2 1774.46 754.340   2
   3  -5  -1 274280. 9482.50   2
   3  -5  -1 245391. 8189.91   5
   3  -5   0 2301.67 619.759   4
   3  -5   0 1686.15 693.253   2
   3  -5   1 268155. 9462.41   2
   3  -5   1 265463. 8753.64   4
   3  -5   2 5437.21 1061.38   2
   3  -5   3 253794. 8993.19   2
   3  -5   4 1096.99 561.196   2
   3  -5   5 118518. 5235.64   2
   3  -5   6 6212.00 1037.46   2
   3  -4 -10 22564.4 2536.30   2
   3  -4  -9 173669. 7808.71   2
   3  -4  -8 3938.26 1062.32   2
   3  -4  -7 236961. 9188.58   2
   3  -4  -6 3475.77 1025.82   2
   3  -4  -5 236463. 8870.79   2
   3  -4  -4 181.944 344.867   3
   3  -4  -4-160.177 415.674   6
   3  -4  -4 383.598 440.915   2
   3  -4  -3 334228. 10974.1   2
   3  -4  -3 322450. 10076.1   6
   3  -4  -3 310933. 10144.1   3
   3  -4  -2-61.1631 332.995   3
   3  -4  -2 200.519 477.741   2
   3  -4  -1 290754. 9008.21   3
   3  -4  -1 297182. 10073.3   2
   3  -4  -1 306128. 9503.77   4
   3  -4  -1 301209. 9343.28   5
   3  -4   0 14950.8 1293.85   4
   3  -4   0 14098.2 1321.82   5
   3  -4   0 12059.6 1451.38   2
   3  -4   1 308706. 10165.1   2
   3  -4   1 305031. 9201.49   4
   3  -4   2 1561.08 586.617   2
   3  -4   3 242452. 8362.55   2
   3  -4   4 3123.54 696.679   2
   3  -4   5 153303. 5958.77   2
   3  -4   6 35161.0 2346.14   2
   3  -3  -9 103490. 5541.24   2
   3  -3  -8 4265.36 956.490   2
   3  -3  -7 171379. 7230.66   2
   3  -3  -6 12970.6 1635.04   2
   3  -3  -5 109887. 5135.01   2
   3  -3  -4 26242.8 2197.26   2
   3  -3  -3 279889. 9141.82   3
   3  -3  -3 273396. 9408.75   2
   3  -3  -2 45484.8 2639.24   4
   3  -3  -2 38384.7 2455.24   6
   3  -3  -2 40796.1 2519.83   3
   3  -3  -2 40832.7 2667.01   2
   3  -3  -1 128290. 4770.94   4
   3  -3  -1 122000. 4835.15   3
   3  -3  -1 125243. 5216.31   2
   3  -3   0 127455. 4878.81   3
   3  -3   0 135525. 4641.01   4
   3  -3   0 129135. 5048.47   5
   3  -3   0 139673. 5432.68   2
   3  -3   1 64601.9 2589.61   4
   3  -3   1 65858.1 3276.31   5
   3  -3   1 72862.2 3501.19   2
   3  -3   2 170892. 6285.49   2
   3  -3   3 69649.9 3423.66   2
   3  -3   4 241609. 8049.41   2
   3  -3   5 14333.3 1404.05   2
   3  -2 -13 44571.9 4036.98   5
   3  -2  -7 89914.9 4758.57   2
   3  -2  -6 78362.3 4267.11   2
   3  -2  -5 106185. 4989.68   2
   3  -2  -4 95816.1 4436.45   7
   3  -2  -4 99124.6 4628.23   2
   3  -2  -3 153076. 5840.03   3
   3  -2  -3 149254. 5982.79   2
   3  -2  -2 245444. 8317.94   3
   3  -2  -2 238133. 8271.77   2
   3  -2  -1 18779.4 1684.66   6
   3  -2  -1 19175.0 1663.87   3
   3  -2  -1 21117.2 1782.08   2
   3  -2  -1 23021.8 1617.52   4
   3  -2   0 158531. 6017.63   2
   3  -2   0 162516. 5956.43   3
   3  -2   0 166995. 5293.97   4
   3  -2   1 17602.3 991.814   4
   3  -2   1 20722.5 1591.36   3
   3  -2   1 17372.5 1569.17   2
   3  -2   2 281361. 9017.84   2
   3  -2   3 254505. 8293.21   2
   3  -1 -14 8223.09 1805.10   5
   3  -1 -13 24293.3 3125.65   5
   3  -1  -4 118451. 5228.87   2
   3  -1  -3 121324. 5062.47   7
   3  -1  -3 124316. 5263.65   2
   3  -1  -2 329891. 10361.7   3
   3  -1  -2 315054. 10358.2   2
   3  -1  -1 8236.37 1185.69   3
   3  -1  -1 5998.15 1071.90   2
   3  -1   0 564199. 16057.9   2
   3  -1   0 544047. 16089.7   3
   3  -1   1 6613.75 959.415   2
   3   0 -13 9785.28 2162.30   5
   3   0   3 69594.7 2327.57   4
   3   0   4 136196. 4221.06   4
   3   1   3 113629. 3951.33   4
   3   1   4 101135. 3691.07   4
   3   1   4 104660. 4351.05   5
   3   1   5 90992.6 3609.85   4
   3   2   2 191602. 6450.87   4
   3   2   2 184051. 6761.05   6
   3   2   3 265983. 8328.12   4
   3   2   4 121700. 4573.72   4
   3   2   4 116813. 4687.73   5
   3   2   5 312044. 9653.26   4
   3   2   5 309587. 9818.39   5
   3   2   6 40047.9 2507.49   4
   3   2   7 198813. 7409.65   4
   3   3  -2 126082. 5321.02   7
   3   3  -1 123794. 5169.70   7
   3   3   0 77811.0 4104.28   3
   3   3   1 248137. 8987.10   3
   3   3   2 24645.5 1959.11   4
   3   3   2 23254.3 1914.42   6
   3   3   2 26360.1 2105.67   3
   3   3   3 255062. 8372.81   3
   3   3   3 245805. 8310.93   4
   3   3   3 240251. 8113.66   6
   3   3   4 1273.32 553.094   4
   3   3   4 891.174 405.324   5
   3   3   5 206183. 7442.51   4
   3   3   5 214439. 7121.33   5
   3   3   6 21087.7 1923.58   4
   3   3   6 22626.0 1766.39   5
   3   3   7 164711. 6700.50   4
   3   3   8 81.0587 412.689   4
   3   4  -1 419194. 12983.0   7
   3   4   0-31.4199 405.376   3
   3   4   1 363201. 12188.5   3
   3   4   2 14974.8 1661.11   4
   3   4   2 15550.9 1654.84   3
   3   4   3 424158. 13334.1   4
   3   4   3 415977. 12799.5   6
   3   4   3 439864. 12999.7   3
   3   4   4 59521.2 3432.68   4
   3   4   5 122931. 5472.34   4
   3   4   5 125737. 4693.25   5
   3   4   6 26372.8 2317.26   4
   3   4   6 27828.9 1851.47   5
   3   4   7 142760. 6349.55   4
   3   4   8 39485.9 3142.56   4
   3   4   9 147066. 7067.08   4
   3   5  -1 357203. 11557.0   7
   3   5   0 10091.0 1504.29   3
   3   5   1 145508. 6494.78   4
   3   5   1 158396. 6763.95   3
   3   5   2 2582.55 683.130   3
   3   5   2 2725.08 692.125   4
   3   5   3 198537. 7796.92   4
   3   5   3 187254. 7029.00   6
   3   5   3 206401. 7200.27   3
   3   5   4 25802.7 1916.41   3
   3   5   4 26036.0 2353.43   4
   3   5   5 144442. 6393.28   4
   3   5   5 138547. 4949.93   5
   3   5   6 85879.7 4730.41   4
   3   5   6 85034.5 3500.29   5
   3   5   7 144118. 6637.49   4
   3   5   7 134320. 5050.71   5
   3   5   8 57219.4 4063.45   4
   3   5   9 60198.0 4377.97   4
   3   5  10 54323.9 4369.00   4
   3   6   0 66573.9 4096.24   3
   3   6   1 37269.4 2999.06   4
   3   6   1 35082.6 2898.00   3
   3   6   2 101196. 5193.97   4
   3   6   2 87342.1 4580.75   3
   3   6   3 14589.1 1889.58   4
   3   6   3 16819.7 1581.67   3
   3   6   4 118093. 4710.24   3
   3   6   4 111421. 5730.20   4
   3   6   4 115145. 4515.94   6
   3   6   5 40848.7 3254.93   4
   3   6   5 36623.6 1931.70   5
   3   6   6 109777. 5789.26   4
   3   6   6 105407. 3828.42   5
   3   6   7 35947.7 3203.69   4
   3   6   8 86788.0 5399.56   4
   3   6   9 12112.7 2003.25   4
   3   6  10 48447.0 4261.06   4
   3   6  11 1900.90 1179.80   4
   3   7   0 125166. 6330.49   4
   3   7   1 16823.8 2047.79   3
   3   7   1 17006.8 2189.88   4
   3   7   2 200994. 8367.16   4
   3   7   2 176613. 7311.24   3
   3   7   3 25158.7 2593.17   4
   3   7   3 23671.3 1887.03   3
   3   7   4 139569. 6762.42   4
   3   7   4 128418. 4970.78   6
   3   7   5 2162.37 989.296   4
   3   7   6 156709. 7607.41   4
   3   7   7 1932.91 981.441   4
   3   7   8 146100. 7603.75   4
   3   7   9 660.298 1021.82   4
   3   7  10 69123.9 5389.03   4
   3   7  11 2644.27 1432.76   4
   3   8  -1 10607.5 1815.81   4
   3   8   0 307774. 11886.4   4
   3   8   1 959.179 643.549   4
   3   8   2 172658. 8079.56   4
   3   8   3 904.081 859.759   4
   3   8   4 98951.7 5853.11   4
   3   8   5 1767.42 803.319   4
   3   8   6 138374. 7372.05   4
   3   8   7 24414.7 2920.39   4
   3   8   8 92209.0 6106.23   4
   3   8   9 17405.0 2688.12   4
   3   8  10 82394.7 6132.33   4
   3   8  11 13455.0 2523.44   4
   3   8  12 36659.2 4403.46   4
   3   9  -3 346.561 781.474   4
   3   9  -2 80249.1 5365.96   4
   3   9  -1 761.451 881.759   4
   3   9   0 133160. 7099.07   4
   3   9   1 10240.6 1901.01   4
   3   9   2 81926.4 5408.04   4
   3   9   3 19799.1 2577.33   4
   3   9   4 105407. 6366.37   4
   3   9   5 3134.07 1056.23   4
   3   9   6 50772.1 4394.64   4
   3   9   7 27730.2 3316.57   4
   3   9   8 36249.2 3871.39   4
   3   9   9 43496.7 4403.18   4
   3   9  10 18485.0 3024.21   4
   3   9  11 26227.5 3656.24   4
   3  10  -6 25683.2 3344.37   4
   3  10  -6 41307.8 4017.05   5
   3  10  -5 8723.40 1939.05   4
   3  10  -4 33661.9 3575.60   4
   3  10  -3 11677.6 2071.46   4
   3  10  -2 30787.0 3351.22   4
   3  10  -1 25426.1 3034.48   4
   3  10   0 11448.2 2054.88   4
   3  10   1 28921.9 3254.91   4
   3  10   2 24831.2 3063.48   4
   3  10   3 60955.2 4842.92   4
   3  10   4 45436.6 4173.78   4
   3  10   5 57706.4 4800.13   4
   3  10   6 15102.4 2519.43   4
   3  10   7 71603.2 5610.69   4
   3  10   8 8313.83 1980.38   4
   3  10   9 79159.0 6275.01   4
   3  11  -5 23660.2 3225.35   4
   3  11  -5 24818.1 3131.55   5
   3  11  -4 28917.0 3473.66   4
   3  11  -4 34982.0 3441.14   5
   3  11  -3 34326.4 3722.85   4
   3  11  -3 34119.6 3283.97   5
   3  11  -2 35868.0 3784.95   4
   3  11  -1 53165.5 4537.04   4
   3  11   0 31532.0 3491.86   4
   3  11   1 63821.8 5063.51   4
   3  11   2 22443.8 2985.78   4
   3  11   3 74823.7 5630.57   4
   3  11   4 23935.0 3187.09   4
   3  11   5 80978.3 6020.69   4
   3  11   6 3778.65 1591.24   4
   3  11   7 81432.4 6321.37   4
   3  12  -2-142.352 899.572   4
   3  12  -1 42316.5 4178.84   4
   3  12   0 10276.9 2080.13   4
   3  12   1 51706.9 4773.93   4
   3  12   2-1215.30 1184.91   4
   3  12   3 64927.3 5411.49   4
   3  12   4 1381.98 1238.97   4
   3  12   5 48446.1 4779.11   4
   4 -11  -3 36090.8 4139.80   2
   4 -11  -2 41236.3 4440.34   2
   4 -11  -1 38846.9 4295.86   2
   4 -11   0 47002.0 4689.31   2
   4 -11   1 24646.8 3375.20   2
   4 -11   2 53367.4 4881.02   2
   4 -11   3 25052.5 3252.03   2
   4 -10  -7 59331.8 5347.53   2
   4 -10  -6 33285.6 3828.13   2
   4 -10  -5 54823.0 4996.48   2
   4 -10  -4 69660.6 5570.76   2
   4 -10  -3 27702.2 3471.42   2
   4 -10  -2 40616.2 4141.86   2
   4 -10  -1 36110.0 3901.93   2
   4 -10   0 67338.8 5292.35   2
   4 -10   1 22819.8 3139.84   2
   4 -10   2 40564.9 4058.81   2
   4 -10   3 22.7767 760.657   2
   4  -9 -10 38633.8 4260.28   2
   4  -9  -9 10106.5 2178.88   2
   4  -9  -8 37710.2 4034.63   2
   4  -9  -7 12740.0 2434.69   2
   4  -9  -6 81975.0 5990.30   2
   4  -9  -5 3131.08 1375.19   2
   4  -9  -4 123269. 7351.81   2
   4  -9  -3 8595.88 1809.95   2
   4  -9  -2 86885.5 5880.42   2
   4  -9  -1 141.739 807.406   2
   4  -9   0 85537.0 5809.74   2
   4  -9   1 1702.48 1127.13   2
   4  -9   2 70027.9 5101.96   2
   4  -9   3 4379.58 1325.77   2
   4  -9   4 70436.5 5051.76   2
   4  -8 -11 2280.54 1221.42   2
   4  -8 -10 67741.1 5442.42   2
   4  -8  -9 2227.48 1250.88   2
   4  -8  -8 113679. 6996.07   2
   4  -8  -7 1729.17 1086.18   2
   4  -8  -6 153191. 8124.03   2
   4  -8  -5 14148.8 2354.95   2
   4  -8  -4 108081. 6507.26   2
   4  -8  -3 9113.69 1859.51   2
   4  -8  -2 249527. 10744.0   2
   4  -8  -1 84786.9 5511.34   2
   4  -8   0 174320. 8405.00   2
   4  -8   1 81988.0 5330.27   2
   4  -8   2 108715. 6226.19   2
   4  -8   3 36710.5 3376.26   2
   4  -8   4 112656. 6272.37   2
   4  -7 -11-798.474 730.253   2
   4  -7 -10 55823.2 4738.56   2
   4  -7  -9 1090.30 982.788   2
   4  -7  -8 172760. 8682.38   2
   4  -7  -7 1238.91 954.906   2
   4  -7  -6 118913. 6736.10   2
   4  -7  -5 15200.7 2204.98   2
   4  -7  -4 53058.0 4168.00   2
   4  -7  -3 14485.0 2105.43   2
   4  -7  -2 103012. 5947.97   2
   4  -7  -1 59994.1 4330.59   2
   4  -7   0 116607. 6251.38   2
   4  -7   1 49032.0 3776.16   2
   4  -7   2 61089.7 4259.26   2
   4  -7   3 85257.2 5087.78   2
   4  -7   4 87865.6 5159.00   2
   4  -7   5 63689.8 4283.69   2
   4  -6 -11 9570.95 1851.72   2
   4  -6 -10 17303.2 2506.39   2
   4  -6  -9 31225.2 3314.63   2
   4  -6  -8 38583.1 3561.79   2
   4  -6  -7 23769.5 2693.69   2
   4  -6  -6 44947.1 3704.71   2
   4  -6  -5 59929.9 4247.73   2
   4  -6  -4 52844.5 3928.19   2
   4  -6  -4 51156.8 2900.10   5
   4  -6  -4 54781.8 3000.45   3
   4  -6  -3 71981.6 3580.98   5
   4  -6  -3 68675.0 3295.78   3
   4  -6  -2 32421.8 2996.79   2
   4  -6  -1 55039.4 3870.59   2
   4  -6   0 12317.5 1805.08   2
   4  -6   1 61692.2 4075.73   2
   4  -6   1 59080.6 3368.77   4
   4  -6   2 15600.7 1979.43   2
   4  -6   3 77682.7 4564.44   2
   4  -6   4 1315.21 777.442   2
   4  -6   5 96698.3 5194.15   2
   4  -5 -10 32807.8 3362.39   2
   4  -5  -9 74531.6 5109.56   2
   4  -5  -8 8638.32 1634.20   2
   4  -5  -7 168582. 7876.90   2
   4  -5  -6 17045.3 2202.01   2
   4  -5  -5 161147. 6758.48   6
   4  -5  -5 171446. 7054.22   3
   4  -5  -4 42324.0 2809.77   6
   4  -5  -4 41337.6 2868.35   3
   4  -5  -4 50261.8 3596.77   2
   4  -5  -3 118181. 5208.30   3
   4  -5  -3 147711. 6584.48   2
   4  -5  -2 27604.8 2116.57   5
   4  -5  -2 25722.7 1941.67   3
   4  -5  -2 31210.7 2747.03   2
   4  -5  -1 216299. 7577.85   3
   4  -5  -1 245686. 9115.84   2
   4  -5   0 1655.78 566.350   4
   4  -5   0 3605.02 1039.70   2
   4  -5   1 274408. 8865.99   4
   4  -5   1 274826. 10088.2   2
   4  -5   2 12990.4 1722.74   2
   4  -5   3 165513. 7020.19   2
   4  -5   4 5125.36 1069.72   2
   4  -5   5 149424. 6545.11   2
   4  -5   6 9714.07 1367.00   2
   4  -4 -10 39643.7 3639.83   2
   4  -4  -9 135651. 7096.87   2
   4  -4  -8 20513.1 2484.09   2
   4  -4  -7 164814. 7630.56   2
   4  -4  -6 12770.7 1812.00   2
   4  -4  -5 220227. 8871.80   2
   4  -4  -4 585.555 549.888   3
   4  -4  -4 315.044 485.354   2
   4  -4  -4 850.238 615.830   6
   4  -4  -3 115515. 5295.24   6
   4  -4  -3 120590. 5427.17   3
   4  -4  -3 131260. 6031.24   2
   4  -4  -2 2995.85 666.490   3
   4  -4  -2 4274.78 1090.33   2
   4  -4  -2 3447.76 850.135   6
   4  -4  -1 275461. 9006.74   4
   4  -4  -1 280280. 9957.80   2
   4  -4  -1 261502. 8965.85   3
   4  -4   0 41507.8 2594.32   3
   4  -4   0 41337.0 2373.63   4
   4  -4   0 42548.1 3019.62   2
   4  -4   1 178129. 6039.98   4
   4  -4   1 194379. 7462.74   2
   4  -4   2 60155.5 3648.72   2
   4  -4   3 135886. 5954.40   2
   4  -4   4 24254.0 2233.68   2
   4  -4   5 167344. 6837.50   2
   4  -3  -8 9381.13 1733.36   2
   4  -3  -7 97359.8 5466.27   2
   4  -3  -6 1423.15 656.373   2
   4  -3  -5 149076. 6769.28   2
   4  -3  -4 57245.3 3517.59   3
   4  -3  -4 56152.9 3673.85   2
   4  -3  -3 195880. 7707.43   6
   4  -3  -3 205403. 7949.78   3
   4  -3  -3 217325. 8238.82   2
   4  -3  -2 30251.7 2376.05   6
   4  -3  -2 30767.5 2456.37   3
   4  -3  -2 31708.9 2565.38   2
   4  -3  -1 124714. 4865.90   4
   4  -3  -1 113316. 5092.61   6
   4  -3  -1 116569. 5400.79   2
   4  -3  -1 107456. 5003.91   3
   4  -3   0 107596. 4798.02   3
   4  -3   0 112967. 4269.50   4
   4  -3   0 110275. 5152.58   2
   4  -3   1 58840.0 2519.13   4
   4  -3   1 62300.6 3386.41   3
   4  -3   1 65658.9 3695.41   2
   4  -3   2 145991. 4482.49   4
   4  -3   2 152617. 6234.61   2
   4  -3   3 54609.7 3293.29   2
   4  -3   4 186823. 7209.24   2
   4  -2  -6 90938.3 5089.85   2
   4  -2  -5 98867.9 5212.69   2
   4  -2  -4 146069. 6527.91   2
   4  -2  -3 163257. 6679.28   3
   4  -2  -3 153881. 6694.25   2
   4  -2  -2 240580. 8719.98   2
   4  -2  -2 219409. 8538.62   3
   4  -2  -1 69477.8 3949.64   6
   4  -2  -1 77928.0 4154.44   2
   4  -2  -1 79269.6 4189.43   3
   4  -2   0 154427. 6405.46   6
   4  -2   0 168061. 6666.09   2
   4  -2   0 155449. 6422.40   3
   4  -2   0 164748. 5611.49   4
   4  -2   1 96244.2 4554.40   3
   4  -2   1 101557. 4803.62   2
   4  -2   1 102062. 3564.07   4
   4  -2   2 57003.2 1965.23   4
   4  -2   2 71362.6 3738.62   2
   4  -1  -2 305512. 10661.3   3
   4  -1  -1 143354. 6296.58   3
   4  -1   0 397000. 12909.9   3
   4  -1   1 100102. 4769.46   3
   4   0   3 31613.0 1507.24   4
   4   0   4 205837. 5911.04   4
   4   1   3 177616. 5897.32   4
   4   1   4 157160. 5241.49   4
   4   1   5 169356. 5610.18   4
   4   1   6 109553. 4287.65   4
   4   2   2 115213. 5364.08   6
   4   2   3 195518. 6751.98   4
   4   2   3 182739. 7187.11   6
   4   2   4 69793.3 3306.91   4
   4   2   5 195149. 6750.50   4
   4   2   6 18978.1 1607.81   4
   4   2   7 55043.4 3160.42   4
   4   3   1 134537. 6439.87   3
   4   3   2 1440.73 766.434   3
   4   3   2 1757.23 658.050   6
   4   3   3 136062. 5649.42   4
   4   3   3 135979. 5861.68   6
   4   3   4 1942.44 671.271   4
   4   3   5 228592. 8100.94   4
   4   3   6 9001.06 1252.23   4
   4   3   7 139829. 5970.55   4
   4   3   8 642.701 631.363   4
   4   4   1 297524. 11216.1   3
   4   4   2 1952.62 878.994   3
   4   4   2 2455.84 826.289   4
   4   4   3 140896. 6048.92   4
   4   4   3 129153. 5879.75   6
   4   4   4 14380.1 1670.66   4
   4   4   5 189148. 7439.02   4
   4   4   5 183258. 6908.31   5
   4   4   6 25264.5 2268.28   4
   4   4   7 179957. 7461.78   4
   4   4   8 38890.9 3114.95   4
   4   4   9 121627. 6268.86   4
   4   5   2 33671.3 2818.18   4
   4   5   3 180002. 7468.03   4
   4   5   3 164229. 6988.38   6
   4   5   4 41522.8 3140.03   4
   4   5   4 34663.5 2570.52   6
   4   5   5 105535. 5462.35   4
   4   5   5 111070. 4778.41   5
   4   5   6 50044.6 3536.10   4
   4   5   7 122491. 6147.06   4
   4   5   8 61403.0 4200.46   4
   4   5   9 36617.2 3277.82   4
   4   5  10 63562.9 4656.92   4
   4   6   1 75783.4 4720.78   4
   4   6   2 144997. 6910.58   4
   4   6   3 52935.7 3806.96   4
   4   6   4 118765. 6110.54   4
   4   6   4 112844. 5213.94   6
   4   6   5 15907.7 2090.57   4
   4   6   6 62212.8 4248.94   4
   4   6   6 56445.1 2990.17   5
   4   6   7 15002.6 2094.01   4
   4   6   8 46239.6 3843.46   4
   4   6   9 3778.86 1320.12   4
   4   6  10 67184.3 5049.35   4
   4   6  11 1750.26 1345.81   4
   4   7   0 99706.7 5790.52   4
   4   7   1 13042.7 1993.18   4
   4   7   2 146893. 7274.57   4
   4   7   3 2712.81 986.899   4
   4   7   4 138226. 6786.28   4
   4   7   4 102135. 5087.26   6
   4   7   5 1318.90 932.108   4
   4   7   6 130291. 6960.41   4
   4   7   7 9840.36 1861.60   4
   4   7   8 126077. 7076.80   4
   4   7   9 4860.30 1438.36   4
   4   7  10 96312.3 6412.59   4
   4   7  11 1422.62 920.624   4
   4   7  12 56234.1 5258.71   4
   4   8  -1 27052.8 2984.88   4
   4   8   0 192129. 8985.69   4
   4   8   1 481.714 695.887   4
   4   8   2 190517. 8850.30   4
   4   8   3 6382.65 1536.23   4
   4   8   4 88775.5 5651.94   4
   4   8   5 298.467 813.726   4
   4   8   6 154541. 8060.15   4
   4   8   7 2626.39 1153.28   4
   4   8   8 111600. 6899.75   4
   4   8   9 5528.99 1735.43   4
   4   8  10 77741.2 5963.98   4
   4   8  11 19482.0 3061.93   4
   4   8  12 35117.1 4252.46   4
   4   9  -2 26800.2 3105.72   4
   4   9  -1 1121.63 840.544   4
   4   9   0 65458.6 4936.09   4
   4   9   1 29339.4 3168.32   4
   4   9   2 83430.6 5621.60   4
   4   9   3 20146.7 2737.55   4
   4   9   4 95867.5 6161.61   4
   4   9   5 22734.4 2945.43   4
   4   9   6 81303.0 5798.01   4
   4   9   7 36980.3 3925.86   4
   4   9   8 26755.9 3388.28   4
   4   9   9 24903.3 3350.22   4
   4   9  10 21748.5 3200.53   4
   4   9  11 41418.3 4636.46   4
   4  10  -4 51767.4 4789.20   4
   4  10  -3 31411.7 3627.52   4
   4  10  -2 44414.3 4181.64   4
   4  10  -1 36358.2 3737.43   4
   4  10   0 32818.6 3482.82   4
   4  10   1 65510.5 5139.09   4
   4  10   2 17261.0 2561.74   4
   4  10   3 100290. 6534.88   4
   4  10   4 40512.6 4026.03   4
   4  10   5 93783.2 6390.57   4
   4  10   6 23317.0 3092.27   4
   4  10   7 96673.0 6750.87   4
   4  10   8 11348.2 2286.14   4
   4  10   9 82405.2 6516.79   4
   4  11  -4 21654.7 3130.58   4
   4  11  -3 46119.5 4511.74   4
   4  11  -2 46313.6 4479.48   4
   4  11  -1 32130.9 3679.35   4
   4  11   0 39644.7 4063.25   4
   4  11   1 37614.1 4014.28   4
   4  11   2 20388.2 2941.96   4
   4  11   3 38210.3 4039.77   4
   4  11   4 6943.44 1947.46   4
   4  11   5 50704.4 4805.81   4
   4  11   6 976.574 1068.95   4
   4  11   7 38503.3 4341.64   4
   4  12   0 2214.74 1300.36   4
   4  12   1 54728.4 4956.58   4
   4  12   2 1979.11 1410.49   4
   4  12   3 46525.7 4637.05   4
   5 -10  -5 40234.7 4350.70   2
   5 -10  -4 34034.5 4069.84   2
   5 -10  -3 11501.1 2394.93   2
   5 -10  -2 32157.3 3800.08   2
   5 -10  -1 22893.0 3247.17   2
   5 -10   0 57057.8 5106.05   2
   5 -10   1 1077.87 1160.29   2
   5 -10   2 53203.9 4844.72   2
   5 -10   3-1293.03 1217.05   2
   5  -9  -8 46993.8 4701.00   2
   5  -9  -7 3118.89 1259.33   2
   5  -9  -6 104067. 7097.48   2
   5  -9  -5 339.993 907.008   2
   5  -9  -4 135163. 8034.38   2
   5  -9  -3 3510.14 1419.73   2
   5  -9  -2 58590.2 4981.51   2
   5  -9  -1 325.775 942.993   2
   5  -9   0 121736. 7344.06   2
   5  -9   1 10470.7 2046.50   2
   5  -9   2 82829.2 5863.26   2
   5  -9   3 14836.1 2408.10   2
   5  -9   4 67413.1 5207.33   2
   5  -8 -11 2982.31 1244.77   2
   5  -8 -10 89554.1 6689.26   2
   5  -8  -9 4549.58 1573.87   2
   5  -8  -8 74127.7 5843.15   2
   5  -8  -7 480.865 1083.48   2
   5  -8  -6 138113. 8056.02   2
   5  -8  -5 2368.39 1147.38   2
   5  -8  -4 189210. 9419.98   2
   5  -8  -3 60.0189 802.837   2
   5  -8  -2 138297. 7673.98   2
   5  -8  -1 12411.1 2161.12   2
   5  -8   0 171181. 8623.33   2
   5  -8   1 31837.8 3306.88   2
   5  -8   2 148634. 7824.97   2
   5  -8   3 14741.5 2242.19   2
   5  -8   4 95654.6 6018.13   2
   5  -7 -11 95.5842 1017.58   2
   5  -7 -10 61873.2 5310.87   2
   5  -7  -9 2403.31 1216.04   2
   5  -7  -8 54265.2 4712.50   2
   5  -7  -7 2541.27 1142.59   2
   5  -7  -6 62465.7 4930.72   2
   5  -7  -5 11135.3 2082.34   2
   5  -7  -4 74457.0 5306.60   2
   5  -7  -3 12656.4 2133.15   2
   5  -7  -2 95361.3 5914.87   2
   5  -7  -1 21514.8 2660.64   2
   5  -7   0 49970.6 4057.41   2
   5  -7   1 15851.9 2240.80   2
   5  -7   2 22452.4 2697.31   2
   5  -7   3 51654.1 4091.05   2
   5  -7   4 48123.6 3942.92   2
   5  -7   5 90313.7 5571.03   2
   5  -6 -11 13640.5 2474.30   2
   5  -6 -10 22471.8 3137.29   2
   5  -6  -9 39436.0 3930.11   2
   5  -6  -8 57883.0 4723.19   2
   5  -6  -7 40434.9 3797.94   2
   5  -6  -6 29951.0 3203.14   2
   5  -6  -5 91607.3 5776.41   2
   5  -6  -4 45478.1 3857.94   2
   5  -6  -3 113736. 6393.56   2
   5  -6  -2 59859.9 4384.98   2
   5  -6  -1 117077. 6355.94   2
   5  -6   0 20830.6 2454.88   2
   5  -6   1 73306.9 4789.10   2
   5  -6   2 6065.42 1360.10   2
   5  -6   3 127956. 6595.29   2
   5  -6   4 1432.12 732.683   2
   5  -6   5 109791. 6001.94   2
   5  -5 -10 27001.0 3292.42   2
   5  -5  -9 64899.8 5034.69   2
   5  -5  -8 66256.3 4920.30   2
   5  -5  -7 130833. 7177.19   2
   5  -5  -6 17244.0 2413.76   2
   5  -5  -5 168543. 8078.94   2
   5  -5  -4 1380.37 731.952   2
   5  -5  -3 204414. 8915.14   2
   5  -5  -2 351.195 672.738   2
   5  -5  -1 219193. 9198.60   2
   5  -5   0 9893.17 1681.52   2
   5  -5   1 270113. 8905.10   4
   5  -5   1 295598. 10868.0   2
   5  -5   2 1352.18 809.178   2
   5  -5   3 169138. 7598.89   2
   5  -5   4 4466.87 1053.99   2
   5  -5   5 120869. 6149.64   2
   5  -4  -9 85764.0 5784.60   2
   5  -4  -8 9355.28 1861.41   2
   5  -4  -7 96486.2 5881.14   2
   5  -4  -6 4550.25 1404.33   2
   5  -4  -5 142600. 7154.22   2
   5  -4  -4 2403.07 950.713   2
   5  -4  -3 156914. 7346.13   2
   5  -4  -2 33809.8 3014.88   2
   5  -4  -1 257114. 10014.0   2
   5  -4   0 22497.1 1764.44   4
   5  -4   0 26597.1 2576.82   2
   5  -4   1 189110. 6385.26   4
   5  -4   1 202669. 8262.47   2
   5  -4   2 2630.51 476.737   4
   5  -4   2 2422.76 862.521   2
   5  -4   3 110351. 5656.74   2
   5  -4   4 17354.3 2103.41   2
   5  -3  -7 65069.9 4662.94   2
   5  -3  -6 32385.7 3139.40   2
   5  -3  -5 111994. 6099.17   2
   5  -3  -4 19149.7 2286.86   2
   5  -3  -3 93609.8 5278.10   2
   5  -3  -2 21790.4 2312.64   2
   5  -3  -1 187872. 7801.42   2
   5  -3  -1 170111. 6657.52   4
   5  -3   0 133379. 5145.30   4
   5  -3   0 135338. 6365.99   2
   5  -3   1 49467.4 2394.31   4
   5  -3   1 54308.2 3656.89   2
   5  -3   2 119736. 3925.81   4
   5  -3   2 133448. 6125.32   2
   5  -3   3 27212.9 2483.28   2
   5  -2  -4 129741. 6511.56   2
   5  -2  -3 117287. 6020.81   2
   5  -2  -2 107815. 5676.99   2
   5  -2  -1 96183.7 5238.77   2
   5  -2   0 288117. 10620.2   2
   5  -2   1 146890. 5099.53   4
   5  -2   2 158527. 4855.95   4
   5  -1   3 7927.70 614.110   4
   5   0   3 48509.4 2303.97   4
   5   0   4 195232. 5816.11   4
   5   0   5 36585.8 1634.17   4
   5   1   3 92200.1 3971.82   4
   5   1   4 78467.4 3361.27   4
   5   1   5 76189.1 3198.88   4
   5   1   6 66460.3 3000.15   4
   5   2   3 144056. 5801.88   4
   5   2   4 29806.6 2143.36   4
   5   2   5 208033. 7270.22   4
   5   2   6 14266.8 1431.42   4
   5   2   7 48610.9 2881.57   4
   5   2   8 476.525 481.635   4
   5   3   3 241672. 8856.19   4
   5   3   4 11382.8 1459.73   4
   5   3   5 238931. 8577.60   4
   5   3   6-371.716 437.694   4
   5   3   7 116381. 5319.35   4
   5   3   8 672.994 513.257   4
   5   3   9 113121. 5637.74   4
   5   4   3 237391. 9144.02   4
   5   4   4 22051.8 2215.52   4
   5   4   5 195466. 7874.25   4
   5   4   6 29486.0 2546.34   4
   5   4   7 153406. 6791.38   4
   5   4   8 17024.0 2001.18   4
   5   4   9 118396. 6130.07   4
   5   4  10 21680.7 2478.11   4
   5   5   2 6562.83 1287.67   4
   5   5   3 98258.9 5429.20   4
   5   5   4 50693.8 3722.37   4
   5   5   5 106032. 5623.38   4
   5   5   6 38528.9 3189.87   4
   5   5   7 44741.9 3496.03   4
   5   5   8 45076.8 3593.32   4
   5   5   9 26301.4 2770.22   4
   5   5  10 50640.5 4131.10   4
   5   5  11 8652.33 1875.12   4
   5   6   2 131674. 6822.65   4
   5   6   3 3087.59 1057.52   4
   5   6   4 116173. 6266.13   4
   5   6   5 5750.87 1519.93   4
   5   6   6 102867. 5914.71   4
   5   6   7 311.876 717.812   4
   5   6   8 77223.7 5176.65   4
   5   6   9 1694.81 876.046   4
   5   6  10 78414.3 5509.73   4
   5   6  11 40.3478 771.838   4
   5   7   1 74657.5 5120.42   4
   5   7   2 197299. 9090.60   4
   5   7   3 1357.92 772.061   4
   5   7   4 182316. 8636.05   4
   5   7   5 1743.59 1034.23   4
   5   7   6 203790. 9367.34   4
   5   7   7 3686.57 1209.04   4
   5   7   8 162720. 8378.65   4
   5   7   9 1641.86 854.481   4
   5   7  10 102299. 6706.59   4
   5   7  11 1390.30 870.989   4
   5   7  12 53915.8 5054.09   4
   5   8   0 83572.3 5699.09   4
   5   8   1 27883.4 3127.85   4
   5   8   2 110120. 6623.58   4
   5   8   3 970.779 863.440   4
   5   8   4 79395.8 5477.23   4
   5   8   5-1144.74 1180.18   4
   5   8   6 73517.9 5404.56   4
   5   8   7 1808.36 969.971   4
   5   8   8 67204.1 5278.99   4
   5   8   9 4377.07 1563.54   4
   5   8  10 38399.9 4205.10   4
   5   8  11 11308.6 2407.71   4
   5   8  12 18942.8 3243.51   4
   5   9  -1 25630.2 3155.50   4
   5   9   0 48497.7 4384.55   4
   5   9   1 54792.7 4661.54   4
   5   9   2 88546.8 6033.35   4
   5   9   3 14327.2 2407.16   4
   5   9   4 41472.5 4036.47   4
   5   9   5 57959.0 4830.90   4
   5   9   6 43535.1 4245.60   4
   5   9   7 70438.7 5588.03   4
   5   9   8 22760.0 3163.56   4
   5   9   9 41742.6 4430.00   4
   5   9  10 13096.9 2647.18   4
   5   9  11 27488.6 3821.09   4
   5  10  -3 16223.0 2748.23   4
   5  10  -2 54125.1 4956.50   4
   5  10  -1 39943.9 4143.99   4
   5  10   0 45547.5 4337.42   4
   5  10   1 50631.9 4595.39   4
   5  10   2 45096.6 4363.97   4
   5  10   3 42287.8 4203.86   4
   5  10   4 12382.6 2271.58   4
   5  10   5 38356.8 4121.47   4
   5  10   6 18629.7 2973.63   4
   5  10   7 82954.1 6321.34   4
   5  10   8 15997.8 2799.71   4
   5  10   9 55062.9 5317.82   4
   5  11  -2 28245.0 3597.53   4
   5  11  -1 28757.6 3623.72   4
   5  11   0 22471.7 3153.36   4
   5  11   1 21641.2 3178.40   4
   5  11   2 23249.4 3223.04   4
   5  11   3 61358.5 5381.58   4
   5  11   4 7756.63 2018.09   4
   5  11   5 31812.7 3862.28   4
   5  11   6 2769.55 1249.91   4
   6 -10  -1 3688.14 1433.47   2
   6 -10   0 42766.5 4579.21   2
   6 -10   1 587.423 961.827   2
   6 -10   2 60975.5 5441.82   2
   6 -10   3-1389.70 1002.02   2
   6  -9  -6 126134. 8253.60   2
   6  -9  -5 2126.90 1167.91   2
   6  -9  -4 140553. 8620.19   2
   6  -9  -3 835.766 1235.78   2
   6  -9  -2 109280. 7307.48   2
   6  -9  -1 2515.24 1300.18   2
   6  -9   0 129274. 8027.22   2
   6  -9   1 4514.16 1303.04   2
   6  -9   2 105137. 7018.28   2
   6  -9   3 8287.32 2061.14   2
   6  -8  -9 3051.05 1644.18   2
   6  -8  -8 76447.3 6159.18   2
   6  -8  -7 3157.42 1471.85   2
   6  -8  -6 86414.4 6394.26   2
   6  -8  -5-61.3618 1022.65   2
   6  -8  -4 111919. 7295.19   2
   6  -8  -3-316.698 1236.17   2
   6  -8  -2 94110.6 6463.69   2
   6  -8  -1 1417.99 1324.56   2
   6  -8   0 136934. 7961.51   2
   6  -8   1 17470.0 2686.94   2
   6  -8   2 84372.0 5937.83   2
   6  -8   3 17492.4 2658.97   2
   6  -8   4 45886.5 4276.76   2
   6  -7 -11 4922.99 1739.52   2
   6  -7 -10 56811.5 5357.17   2
   6  -7  -9 1020.06 1114.37   2
   6  -7  -8 41299.4 4329.05   2
   6  -7  -7 7586.90 1872.28   2
   6  -7  -6 45050.5 4385.13   2
   6  -7  -5 33512.5 3718.26   2
   6  -7  -4 42528.0 4173.74   2
   6  -7  -3 50970.9 4543.14   2
   6  -7  -2 44861.9 4152.45   2
   6  -7  -1 50282.2 4366.92   2
   6  -7   0 22544.1 2927.54   2
   6  -7   1 64213.6 4906.52   2
   6  -7   2 22932.9 2879.88   2
   6  -7   3 50764.0 4285.82   2
   6  -7   4 15352.3 2347.76   2
   6  -6 -10 36001.4 4136.61   2
   6  -6  -9 27822.9 3579.34   2
   6  -6  -8 34279.9 3784.31   2
   6  -6  -7 46975.4 4423.90   2
   6  -6  -6 41262.3 4068.63   2
   6  -6  -5 101138. 6449.68   2
   6  -6  -4 18603.3 2589.94   2
   6  -6  -3 126424. 7226.16   2
   6  -6  -2 9938.71 1894.56   2
   6  -6  -1 154894. 7983.39   2
   6  -6   0 13341.6 2117.03   2
   6  -6   1 124493. 6930.54   2
   6  -6   2 4177.94 1274.13   2
   6  -6   3 146239. 7620.51   2
   6  -6   4 7212.95 1613.63   2
   6  -6   5 87393.2 5628.55   2
   6  -5  -9 78361.1 5976.96   2
   6  -5  -8 44922.9 4252.33   2
   6  -5  -7 112638. 6974.33   2
   6  -5  -6 38875.7 3872.32   2
   6  -5  -5 91842.3 5957.79   2
   6  -5  -4 22150.3 2745.35   2
   6  -5  -3 144740. 7665.16   2
   6  -5  -2 2046.25 1037.49   2
   6  -5  -1 166307. 8113.65   2
   6  -5   0 42895.7 3713.98   2
   6  -5   1 160192. 7842.14   2
   6  -5   2 862.485 700.579   2
   6  -5   3 153772. 7651.07   2
   6  -5   4 2051.79 996.440   2
   6  -4  -7 126061. 7308.09   2
   6  -4  -6-380.924 708.951   2
   6  -4  -5 96377.9 6058.69   2
   6  -4  -4 3864.73 1150.91   2
   6  -4  -3 157293. 7846.30   2
   6  -4  -2 2665.66 1119.66   2
   6  -4  -1 115098. 6367.33   2
   6  -4   0 10178.9 1807.36   2
   6  -4   1 95360.0 4032.05   4
   6  -4   1 108128. 5994.89   2
   6  -4   2 39995.8 3459.21   2
   6  -4   3 51066.7 3965.79   2
   6  -3  -5 202345. 9427.86   2
   6  -3  -4 37572.2 3504.65   2
   6  -3  -3 126518. 6795.77   2
   6  -3  -2 63178.7 4525.75   2
   6  -3  -1 110182. 6170.23   2
   6  -3   0 150010. 7207.63   2
   6  -3   0 134184. 5526.66   4
   6  -3   1 89592.3 3786.80   4
   6  -3   1 96051.2 5563.00   2
   6  -3   2 208652. 6353.90   4
   6  -2   2 65716.3 2767.88   4
   6   0   4 180509. 5768.98   4
   6   0   5 82367.7 2901.18   4
   6   1   4 56097.3 2937.53   4
   6   1   5 97036.0 3926.15   4
   6   1   6 30234.3 1848.08   4
   6   1   7 169442. 5877.21   4
   6   2   4 34519.6 2505.99   4
   6   2   5 94958.4 4359.12   4
   6   2   6 12669.5 1375.10   4
   6   2   7 105331. 4635.41   4
   6   3   3 199545. 8104.19   4
   6   3   4 245.646 481.300   4
   6   3   5 138702. 6106.43   4
   6   3   6 2109.11 665.194   4
   6   3   7 87572.6 4505.50   4
   6   3   8 14611.1 1754.55   4
   6   4   3 199879. 8493.06   4
   6   4   4 11099.6 1708.03   4
   6   4   5 141692. 6588.63   4
   6   4   6 22854.1 2330.93   4
   6   4   7 98400.6 5225.19   4
   6   4   8 25031.5 2469.44   4
   6   4   9 98312.3 5444.74   4
   6   5   3 33727.4 3151.00   4
   6   5   4 62054.4 4333.93   4
   6   5   5 34673.2 3145.42   4
   6   5   6 47156.1 3677.99   4
   6   5   7 16088.5 2134.42   4
   6   5   8 52784.7 3977.76   4
   6   5   9 5432.51 1358.65   4
   6   5  10 43023.2 3784.70   4
   6   6   2 134633. 7192.91   4
   6   6   3 54120.1 4258.01   4
   6   6   4 212443. 9498.99   4
   6   6   5 17091.9 2383.25   4
   6   6   6 110503. 6345.43   4
   6   6   7 2908.92 1062.15   4
   6   6   8 97345.2 5979.53   4
   6   6   9 2086.16 952.318   4
   6   6  10 75046.9 5407.79   4
   6   7   1 58901.9 4750.15   4
   6   7   2 96335.1 6153.61   4
   6   7   3 26336.5 3114.70   4
   6   7   4 117493. 6807.24   4
   6   7   5 8929.34 1938.56   4
   6   7   6 113050. 6711.74   4
   6   7   7 8318.97 1779.14   4
   6   7   8 81239.4 5738.50   4
   6   7   9 2204.67 1125.09   4
   6   7  10 60697.2 5100.97   4
   6   7  11 200.030 948.863   4
   6   8   1 917.741 886.771   4
   6   8   2 60267.6 4887.59   4
   6   8   3 22091.0 2872.70   4
   6   8   4 52268.8 4554.40   4
   6   8   5 6146.40 1585.90   4
   6   8   6 60411.5 5012.88   4
   6   8   7 4224.05 1416.82   4
   6   8   8 50351.9 4630.22   4
   6   8   9 22462.7 3187.18   4
   6   8  10 27078.0 3542.21   4
   6   8  11 13445.7 2618.52   4
   6   9  -1 22595.9 3152.91   4
   6   9   0 57673.4 5092.84   4
   6   9   1 24971.1 3309.23   4
   6   9   2 74432.9 5729.26   4
   6   9   3 35466.4 3823.50   4
   6   9   4 69791.2 5543.50   4
   6   9   5 41174.1 4209.83   4
   6   9   6 41175.4 4251.75   4
   6   9   7 50762.9 4836.95   4
   6   9   8 40494.1 4383.54   4
   6   9   9 65878.3 5709.61   4
   6   9  10 19251.5 3189.84   4
   6  10  -2 37288.9 4219.52   4
   6  10  -1 19427.0 2962.72   4
   6  10   0 21773.9 3168.09   4
   6  10   1 45786.3 4549.39   4
   6  10   2 57790.9 5149.50   4
   6  10   3 34541.9 3988.32   4
   6  10   4 23648.0 3295.91   4
   6  10   5 56978.5 5231.45   4
   6  10   6 17012.8 2847.23   4
   6  10   7 55393.6 5263.03   4
   6  10   8 19626.1 3196.80   4
   6  11   0 6033.17 1908.87   4
   6  11   1 32836.6 3970.73   4
   6  11   2 8133.32 2025.07   4
   6  11   3 58812.4 5476.82   4
   6  11   4 888.146 1049.97   4
   6  11   5 49618.2 4992.50   4
   7  -9  -2 109494. 7717.02   2
   7  -9  -1 823.623 1074.78   2
   7  -9   0 65393.2 5783.90   2
   7  -9   1 657.212 836.147   2
   7  -9   2 100442. 7202.59   2
   7  -9   3 1783.06 1173.48   2
   7  -8  -6 81316.1 6557.63   2
   7  -8  -5 714.714 981.980   2
   7  -8  -4 49482.1 4942.94   2
   7  -8  -3 2951.33 1325.70   2
   7  -8  -2 84520.1 6398.52   2
   7  -8  -1 5109.05 1775.46   2
   7  -8   0 93062.6 6715.10   2
   7  -8   1 19314.2 2958.97   2
   7  -8   2 51552.0 4821.44   2
   7  -8   3 12141.0 2361.46   2
   7  -8   4 34476.1 3938.95   2
   7  -7  -9 5653.29 1906.22   2
   7  -7  -8 30444.2 3982.79   2
   7  -7  -7 21406.0 3309.58   2
   7  -7  -6 51743.6 5184.70   2
   7  -7  -5 53959.9 5095.05   2
   7  -7  -4 55561.0 5027.61   2
   7  -7  -3 53825.9 4957.88   2
   7  -7  -2 42125.3 4290.30   2
   7  -7  -1 55623.7 4977.07   2
   7  -7   0 24266.5 3184.50   2
   7  -7   1 68463.0 5450.43   2
   7  -7   2 27376.7 3394.93   2
   7  -7   3 58486.0 4985.91   2
   7  -7   4 16926.4 2645.83   2
   7  -6  -9 17194.1 2978.51   2
   7  -6  -8 16448.3 2853.40   2
   7  -6  -7 46243.3 4689.65   2
   7  -6  -6 47044.3 4628.36   2
   7  -6  -5 105349. 7028.23   2
   7  -6  -4 56490.4 4911.83   2
   7  -6  -3 92688.7 6380.32   2
   7  -6  -2 51293.8 4590.95   2
   7  -6  -1 89129.2 6111.84   2
   7  -6   0 8878.78 1919.83   2
   7  -6   1 148063. 8175.25   2
   7  -6   2 21989.6 2885.82   2
   7  -6   3 135639. 7726.41   2
   7  -6   4 2338.99 1156.32   2
   7  -5  -8 42618.5 4398.14   2
   7  -5  -7 75533.9 5893.62   2
   7  -5  -6 31834.0 3703.72   2
   7  -5  -5 90064.4 6262.69   2
   7  -5  -4 22831.8 3052.33   2
   7  -5  -3 88865.4 6110.07   2
   7  -5  -2 16273.9 2536.78   2
   7  -5  -1 109352. 6747.51   2
   7  -5   0 8965.95 1977.09   2
   7  -5   1 84454.3 5770.19   2
   7  -5   2 4647.91 1508.72   2
   7  -5   3 109162. 6634.58   2
   7  -4  -5 99906.6 6584.42   2
   7  -4  -4 26842.1 3267.17   2
   7  -4  -3 168204. 8720.87   2
   7  -4  -2 26593.7 3089.18   2
   7  -4  -1 134954. 7506.47   2
   7  -4   0 11647.8 2029.47   2
   7  -4   1 82169.1 5569.77   2
   7   0   4 148188. 5296.76   4
   7   1   4 100057. 4556.13   4
   7   1   5 37865.5 2338.01   4
   7   2   4 23365.8 2197.72   4
   7   2   5 74968.9 3970.79   4
   7   2   6 1812.61 592.634   4
   7   3   4-491.349 524.291   4
   7   3   5 159110. 6952.14   4
   7   3   6 2314.28 722.589   4
   7   3   7 132612. 5968.96   4
   7   4   3 66687.4 4600.48   4
   7   4   4 5679.24 1272.39   4
   7   4   5 134741. 6659.16   4
   7   4   6 4744.07 1163.54   4
   7   4   7 61297.2 4066.97   4
   7   4   8 13798.1 1868.68   4
   7   5   3 52694.8 4203.53   4
   7   5   4 82922.5 5319.41   4
   7   5   5 40867.0 3600.90   4
   7   5   6 74433.9 4927.50   4
   7   5   7 27857.7 2870.19   4
   7   5   8 72995.6 4856.79   4
   7   5   9 13645.9 2106.48   4
   7   6   2 49750.3 4280.25   4
   7   6   3 91672.7 5963.08   4
   7   6   4 165752. 8413.71   4
   7   6   5 10844.7 2017.94   4
   7   6   6 88450.4 5756.11   4
   7   6   7 661.917 853.372   4
   7   6   8 96539.7 6079.91   4
   7   6   9 12002.4 2092.80   4
   7   7   2 30200.1 3405.30   4
   7   7   3 10556.8 2081.85   4
   7   7   4 84332.2 5886.46   4
   7   7   5 839.036 906.781   4
   7   7   6 51957.9 4539.42   4
   7   7   7 696.434 826.974   4
   7   7   8 61262.5 5002.34   4
   7   7   9 1300.54 1126.00   4
   7   7  10 46153.9 4439.50   4
   7   8   1 1763.37 1159.66   4
   7   8   2 75539.3 5802.05   4
   7   8   3 7585.59 1835.57   4
   7   8   4 64165.0 5283.13   4
   7   8   5 11385.6 2309.67   4
   7   8   6 52814.5 4799.35   4
   7   8   7 8615.34 1917.34   4
   7   8   8 44430.5 4451.44   4
   7   8   9 26820.5 3527.53   4
   7   8  10 30130.6 3704.11   4
   7   9   0 88336.4 6637.14   4
   7   9   1 6372.85 1783.92   4
   7   9   2 43937.0 4471.97   4
   7   9   3 27626.5 3574.84   4
   7   9   4 63346.5 5518.21   4
   7   9   5 36080.9 4156.18   4
   7   9   6 41340.7 4382.78   4
   7   9   7 34775.8 4069.56   4
   7   9   8 28076.8 3760.57   4
   7   9   9 42100.2 4639.07   4
   7   9  10 11976.5 2518.76   4
   7  10  -1 29841.2 3963.05   4
   7  10   0 54306.3 5260.96   4
   7  10   1 30662.2 3933.63   4
   7  10   2 23192.6 3404.08   4
   7  10   3 16047.0 2873.56   4
   7  10   4 25970.1 3626.66   4
   7  10   5 47394.7 4942.87   4
   7  10   6 9027.78 2211.44   4
   7  10   7 32367.0 4119.17   4
   8  -8  -2 55253.7 5441.33   2
   8  -8  -1 9152.47 2310.75   2
   8  -8   0 52172.1 5190.11   2
   8  -8   1 18089.1 3055.16   2
   8  -8   2 32712.8 4004.18   2
   8  -8   3 25621.7 3575.01   2
   8  -7  -6 39700.5 4651.35   2
   8  -7  -5 34550.6 4351.04   2
   8  -7  -4 51805.5 5210.15   2
   8  -7  -3 55128.2 5303.26   2
   8  -7  -2 34473.8 4146.82   2
   8  -7  -1 76015.1 6214.37   2
   8  -7   0 15768.6 2769.27   2
   8  -7   1 61392.2 5444.55   2
   8  -7   2 10673.8 2358.55   2
   8  -7   3 69480.3 5813.03   2
   8  -6  -7 34892.8 4301.96   2
   8  -6  -6 47441.8 4996.40   2
   8  -6  -5 53907.1 5196.25   2
   8  -6  -4 30330.3 3869.82   2
   8  -6  -3 67943.2 5739.00   2
   8  -6  -2 33535.3 3973.56   2
   8  -6  -1 81004.7 6260.27   2
   8  -6   0 9618.62 2183.95   2
   8  -6   1 114793. 7495.05   2
   8  -6   2 19422.6 2928.48   2
   8  -5  -5 82168.2 6397.67   2
   8  -5  -4 272.090 948.187   2
   8  -5  -3 76763.0 6001.13   2
   8  -5  -2 3476.53 1402.98   2
   8  -5  -1 65674.2 5410.64   2
   8  -5   0-870.269 1042.98   2
   8   1   4 33217.3 2541.42   4
   8   2   4 1492.64 811.077   4
   8   2   5 172391. 7096.54   4
   8   3   4 6862.68 1321.95   4
   8   3   5 31342.9 2845.40   4
   8   3   6 2507.43 708.316   4
   8   4   4 3610.54 1273.20   4
   8   4   5 68755.2 4677.86   4
   8   4   6 28384.5 2847.05   4
   8   4   7 41101.1 3409.30   4
   8   5   3 52601.6 4436.01   4
   8   5   4 48637.9 4170.63   4
   8   5   5 82492.7 5474.45   4
   8   5   6 111625. 6439.07   4
   8   5   7 15569.5 2267.31   4
   8   6   3 30938.5 3545.78   4
   8   6   4 52408.0 4546.76   4
   8   6   5 9651.76 1960.24   4
   8   6   6 86978.9 5935.25   4
   8   6   7 1179.52 832.325   4
   8   6   8 67817.0 5121.78   4
   8   7   2 53493.8 4869.88   4
   8   7   3 3511.35 1175.60   4
   8   7   4 73678.4 5684.53   4
   8   7   5 4596.62 1514.66   4
   8   7   6 21066.1 2977.44   4
   8   7   7-784.709 1067.36   4
   8   7   8 31709.5 3625.36   4
   8   7   9-912.446 804.545   4
   8   8   1 11387.4 2368.36   4
   8   8   2 77965.9 6199.67   4
   8   8   3 6918.98 1978.57   4
   8   8   4 91250.6 6664.16   4
   8   8   5 11817.1 2310.20   4
   8   8   6 38412.3 4259.28   4
   8   8   7 15135.8 2781.06   4
   8   8   8 37394.0 4215.31   4
   8   8   9 15959.0 2716.13   4
   8   9   0 60984.9 5700.83   4
   8   9   1 15020.5 2785.02   4
   8   9   2 40927.2 4506.17   4
   8   9   3 23313.1 3393.98   4
   8   9   4 50508.8 5040.59   4
   8   9   5 40233.9 4483.63   4
   8   9   6 54229.1 5288.83   4
   8   9   7 41080.8 4641.35   4
   8   9   8 26086.2 3688.29   4
   8   9   9 29405.7 3920.74   4
   8  10   2 9757.08 2345.64   4
   8  10   3 26122.0 3659.13   4
   8  10   4 6151.25 2040.13   4
   8  10   5 42849.4 4815.74   4
   9  -7  -1 62482.3 5858.00   2
   9  -7   0 33030.5 4328.24   2
   9   2   4 6215.69 1339.23   4
   9   3   4 64.5807 554.616   4
   9   3   5 35841.4 3216.52   4
   9   4   4 16211.8 2352.72   4
   9   4   5 45552.9 3905.40   4
   9   5   3 25663.5 3235.85   4
   9   5   4 51336.1 4496.59   4
   9   5   5 49198.2 4323.82   4
   9   5   6 77929.8 5461.76   4
   9   6   3 17532.5 2757.96   4
   9   6   4 39557.9 4063.94   4
   9   6   5 19285.5 2811.42   4
   9   6   6 73907.8 5628.36   4
   9   6   7-463.125 988.711   4
   9   7   2 41210.3 4445.44   4
   9   7   3 1770.17 1183.04   4
   9   7   4 35178.6 4012.29   4
   9   7   5 475.288 816.195   4
   9   7   6 38248.0 4177.33   4
   9   7   7-677.595 1032.88   4
   9   8   1 13034.9 2711.29   4
   9   8   2 82191.0 6583.42   4
   9   8   3 20632.7 3197.51   4
   9   8   4 73795.7 6121.02   4
   9   8   5 17554.9 3015.34   4
   9   8   6 53606.0 5192.60   4
   9   8   7 16838.8 2969.63   4
   9   8   8 36149.7 4171.99   4
   9   9   1 9974.59 2467.55   4
   9   9   2 38308.8 4638.05   4
   9   9   3 14806.6 2802.26   4
   9   9   4 22467.6 3522.85   4
   9   9   5 13775.2 2767.22   4
   9   9   6 29250.8 4024.65   4
   9   9   7 26089.0 3771.90   4
  10   4   4 24386.8 3046.44   4
  10   5   3 58050.8 5079.08   4
  10   5   4 37517.1 3972.91   4
  10   5   5 23669.7 3056.79   4
  10   6   3 15925.7 2748.26   4
  10   6   4 26934.6 3568.84   4
  10   6   5 7403.52 1958.06   4
  10   6   6 40231.8 4200.03   4
  10   7   2 70401.6 6104.99   4
  10   7   3 886.891 1003.30   4
  10   7   4 40694.0 4523.05   4
  10   7   5 9508.30 2160.85   4
  10   7   6 36102.6 4224.35   4
  10   8   1 5513.19 1860.25   4
  10   8   2 79054.1 6697.87   4
  10   8   3 180.923 1104.70   4
  10   8   4 58920.3 5652.54   4
  10   8   5 7104.56 2059.42   4
  10   8   6 42863.9 4685.06   4
  10   8   7 4356.60 1528.91   4
  11   5   3 36831.3 4182.01   4
  11   6   3 1537.80 1343.35   4
  11   6   4 32288.1 4012.37   4
  11   7   2 73217.5 6564.27   4
  11   7   3-623.983 1232.86   4
  11   7   4 60255.8 5824.24   4
  11   7   5 2473.50 1369.69   4
  12   6   3 1788.59 1330.35   4
   0   0   0    0.00    0.00   0
TITL At147 in P1
REM P1 (#1 in standard setting)
CELL 0.71073   9.879742  10.184762  10.973310  78.1898  86.7379  83.3318
ZERR    2.00   0.000625   0.000412   0.000460   0.0035   0.0044   0.0042
LATT -1
SFAC C N O F S Bi
UNIT 44.00 2.00 6.00 6.00 2.00 2.00
TREF
HKLF 4
END
;
_shelx_hkl_checksum              48086
loop_
_space_group_symop_operation_xyz
'x, y, z'
'-x, -y, -z'
loop_
_atom_site_label
_atom_site_type_symbol
_atom_site_fract_x
_atom_site_fract_y
_atom_site_fract_z
_atom_site_U_iso_or_equiv
_atom_site_adp_type
_atom_site_occupancy
_atom_site_site_symmetry_order
_atom_site_calc_flag
_atom_site_refinement_flags_posn
_atom_site_refinement_flags_adp
C1 C 0.3639(5) 0.1540(4) 0.1089(4) 0.0132(10) Uani 1 1 d . .
C2 C 0.3195(5) 0.0890(4) 0.0225(4) 0.0190(11) Uani 1 1 d . .
H2 H 0.3470 -0.0023 0.0269 0.023 Uiso 1 1 calc R U
C3 C 0.2339(5) 0.1587(5) -0.0711(4) 0.0214(12) Uani 1 1 d . .
H3 H 0.2015 0.1139 -0.1275 0.026 Uiso 1 1 calc R U
C4 C 0.1979(5) 0.2944(4) -0.0792(4) 0.0227(12) Uani 1 1 d . .
H4 H 0.1429 0.3421 -0.1430 0.027 Uiso 1 1 calc R U
C5 C 0.2420(5) 0.3610(4) 0.0060(4) 0.0165(11) Uani 1 1 d . .
H5 H 0.2154 0.4526 0.0003 0.020 Uiso 1 1 calc R U
C6 C 0.3265(5) 0.2912(4) 0.1008(4) 0.0127(10) Uani 1 1 d . .
C7 C 0.3680(5) 0.3608(4) 0.1998(4) 0.0173(11) Uani 1 1 d . .
H7A H 0.3761 0.4549 0.1637 0.021 Uiso 1 1 calc R U
H7B H 0.2978 0.3572 0.2655 0.021 Uiso 1 1 calc R U
C8 C 0.5013(5) 0.3002(4) 0.3889(4) 0.0157(11) Uani 1 1 d . .
H8A H 0.4847 0.3928 0.3999 0.019 Uiso 1 1 calc R U
H8B H 0.5893 0.2622 0.4223 0.019 Uiso 1 1 calc R U
C9 C 0.3914(5) 0.2201(4) 0.4563(4) 0.0124(10) Uani 1 1 d . .
C10 C 0.3068(6) 0.2649(5) 0.5487(4) 0.0182(12) Uani 1 1 d . .
H10 H 0.3219 0.3433 0.5745 0.022 Uiso 1 1 calc R U
C11 C 0.2011(5) 0.1938(5) 0.6021(4) 0.0195(12) Uani 1 1 d . .
H11 H 0.1446 0.2250 0.6631 0.023 Uiso 1 1 calc R U
C12 C 0.1781(5) 0.0759(5) 0.5656(4) 0.0193(11) Uani 1 1 d . .
H12 H 0.1066 0.0280 0.6020 0.023 Uiso 1 1 calc R U
C13 C 0.2624(5) 0.0302(4) 0.4744(4) 0.0177(11) Uani 1 1 d . .
H13 H 0.2485 -0.0498 0.4507 0.021 Uiso 1 1 calc R U
C14 C 0.3659(5) 0.1020(4) 0.4189(4) 0.0126(10) Uani 1 1 d . .
C15 C 0.6124(5) 0.3660(4) 0.1803(4) 0.0152(11) Uani 1 1 d . .
H15A H 0.6083 0.4558 0.1982 0.018 Uiso 1 1 calc R U
H15B H 0.5954 0.3762 0.0925 0.018 Uiso 1 1 calc R U
C16 C 0.7535(5) 0.2977(4) 0.2034(4) 0.0179(11) Uani 1 1 d . .
C17 C 0.8104(5) 0.2090(4) 0.1294(4) 0.0195(11) Uani 1 1 d . .
H17 H 0.7595 0.1904 0.0675 0.023 Uiso 1 1 calc R U
C18 C 0.9420(6) 0.1480(5) 0.1468(5) 0.0236(12) Uani 1 1 d . .
H18 H 0.9787 0.0882 0.0970 0.028 Uiso 1 1 calc R U
C19 C 1.0191(6) 0.1749(5) 0.2370(5) 0.0274(13) Uani 1 1 d . .
H19 H 1.1078 0.1336 0.2482 0.033 Uiso 1 1 calc R U
C20 C 0.9639(6) 0.2640(5) 0.3112(5) 0.0309(14) Uani 1 1 d . .
H20 H 1.0156 0.2826 0.3727 0.037 Uiso 1 1 calc R U
C21 C 0.8334(6) 0.3247(5) 0.2941(5) 0.0247(12) Uani 1 1 d . .
H21 H 0.7975 0.3850 0.3438 0.030 Uiso 1 1 calc R U
C22 C 0.1793(6) -0.2768(5) 0.2719(5) 0.0260(13) Uani 1 1 d . .
N1 N 0.5008(4) 0.2958(3) 0.2538(3) 0.0126(9) Uani 1 1 d . .
O1 O 0.3742(4) -0.1374(3) 0.2766(3) 0.0223(8) Uani 1 1 d . .
O2 O 0.4184(4) -0.3791(3) 0.3424(3) 0.0291(10) Uani 1 1 d . .
O3 O 0.3902(4) -0.2807(3) 0.1231(3) 0.0282(9) Uani 1 1 d . .
F1 F 0.1385(4) -0.2680(3) 0.3877(3) 0.0434(9) Uani 1 1 d . .
F2 F 0.1110(3) -0.1766(3) 0.1962(3) 0.0424(9) Uani 1 1 d . .
F3 F 0.1436(4) -0.3913(3) 0.2504(3) 0.0437(9) Uani 1 1 d . .
S1 S 0.36227(14) -0.27010(11) 0.24994(11) 0.0166(3) Uani 1 1 d . .
Bi1 Bi 0.50581(2) 0.05837(2) 0.25896(2) 0.01267(7) Uani 1 1 d . .
loop_
_atom_site_aniso_label
_atom_site_aniso_U_11
_atom_site_aniso_U_22
_atom_site_aniso_U_33
_atom_site_aniso_U_23
_atom_site_aniso_U_13
_atom_site_aniso_U_12
C1 0.010(3) 0.020(2) 0.010(2) -0.0029(19) -0.001(2) -0.0031(19)
C2 0.018(3) 0.018(2) 0.021(3) -0.005(2) 0.002(2) -0.003(2)
C3 0.022(3) 0.029(3) 0.015(3) -0.005(2) -0.004(2) -0.001(2)
C4 0.020(3) 0.026(3) 0.018(3) 0.005(2) -0.008(2) 0.000(2)
C5 0.016(3) 0.015(2) 0.016(3) 0.000(2) 0.006(2) -0.003(2)
C6 0.010(3) 0.012(2) 0.016(2) -0.0032(19) 0.003(2) -0.0021(19)
C7 0.021(3) 0.011(2) 0.018(3) -0.0002(19) -0.004(2) 0.002(2)
C8 0.019(3) 0.014(2) 0.015(2) -0.0031(19) -0.006(2) -0.001(2)
C9 0.007(3) 0.017(2) 0.011(2) -0.0003(19) -0.004(2) 0.0018(19)
C10 0.025(3) 0.019(2) 0.012(2) -0.007(2) -0.006(2) 0.003(2)
C11 0.012(3) 0.029(3) 0.014(3) -0.002(2) -0.001(2) 0.009(2)
C12 0.013(3) 0.029(3) 0.013(2) 0.003(2) -0.001(2) -0.003(2)
C13 0.021(3) 0.018(2) 0.014(2) -0.001(2) -0.007(2) 0.000(2)
C14 0.012(3) 0.013(2) 0.011(2) -0.0018(18) -0.002(2) 0.0034(19)
C15 0.017(3) 0.014(2) 0.014(2) -0.0005(19) -0.001(2) -0.002(2)
C16 0.017(3) 0.018(2) 0.018(3) 0.001(2) -0.003(2) -0.002(2)
C17 0.017(3) 0.024(3) 0.017(3) -0.001(2) -0.001(2) -0.005(2)
C18 0.017(3) 0.025(3) 0.025(3) -0.001(2) 0.006(2) 0.001(2)
C19 0.018(4) 0.033(3) 0.026(3) 0.007(2) 0.002(2) -0.005(2)
C20 0.026(4) 0.041(3) 0.026(3) 0.003(3) -0.009(3) -0.014(3)
C21 0.026(4) 0.026(3) 0.022(3) -0.002(2) -0.001(2) -0.008(2)
C22 0.029(4) 0.019(3) 0.033(3) -0.010(2) -0.002(3) -0.003(2)
N1 0.013(3) 0.0093(18) 0.015(2) -0.0027(15) -0.0051(17) -0.0001(16)
O1 0.023(2) 0.0163(16) 0.028(2) -0.0060(15) -0.0004(16) -0.0022(15)
O2 0.033(3) 0.0171(17) 0.035(2) 0.0015(15) -0.0166(19) 0.0031(16)
O3 0.030(3) 0.0316(19) 0.024(2) -0.0097(16) 0.0023(17) -0.0020(17)
F1 0.036(2) 0.059(2) 0.038(2) -0.0177(17) 0.0180(17) -0.0136(17)
F2 0.024(2) 0.0415(18) 0.058(2) -0.0068(17) -0.0137(18) 0.0111(16)
F3 0.030(2) 0.0343(17) 0.076(3) -0.0270(17) -0.0033(18) -0.0120(15)
S1 0.0182(8) 0.0118(5) 0.0203(6) -0.0039(5) -0.0052(5) 0.0003(5)
Bi1 0.01312(12) 0.01118(10) 0.01322(10) -0.00291(7) -0.00219(7) 0.00247(7)
loop_
_atom_type_symbol
_atom_type_description
_atom_type_scat_dispersion_real
_atom_type_scat_dispersion_imag
_atom_type_scat_source
C C 0.0033 0.0016 'International Tables Vol C Tables 4.2.6.8 and 6.1.1.4'
N N 0.0061 0.0033 'International Tables Vol C Tables 4.2.6.8 and 6.1.1.4'
O O 0.0106 0.0060 'International Tables Vol C Tables 4.2.6.8 and 6.1.1.4'
F F 0.0171 0.0103 'International Tables Vol C Tables 4.2.6.8 and 6.1.1.4'
S S 0.1246 0.1234 'International Tables Vol C Tables 4.2.6.8 and 6.1.1.4'
Bi Bi -4.1077 10.2566 'International Tables Vol C Tables 4.2.6.8 and 6.1.1.4'
H H 0.0000 0.0000 'International Tables Vol C Tables 4.2.6.8 and 6.1.1.4'
loop_
_geom_angle_atom_site_label_1
_geom_angle_atom_site_label_2
_geom_angle_atom_site_label_3
_geom_angle
C2 C1 C6 120.1(4)
C2 C1 Bi1 124.7(3)
C6 C1 Bi1 115.1(3)
C1 C2 C3 120.6(4)
C1 C2 H2 119.7
C3 C2 H2 119.7
C4 C3 C2 119.1(4)
C4 C3 H3 120.4
C2 C3 H3 120.4
C3 C4 C5 121.0(4)
C3 C4 H4 119.5
C5 C4 H4 119.5
C4 C5 C6 120.1(4)
C4 C5 H5 120.0
C6 C5 H5 120.0
C1 C6 C5 119.2(4)
C1 C6 C7 120.1(4)
C5 C6 C7 120.6(4)
N1 C7 C6 111.3(3)
N1 C7 H7A 109.4
C6 C7 H7A 109.4
N1 C7 H7B 109.4
C6 C7 H7B 109.4
H7A C7 H7B 108.0
N1 C8 C9 108.6(4)
N1 C8 H8A 110.0
C9 C8 H8A 110.0
N1 C8 H8B 110.0
C9 C8 H8B 110.0
H8A C8 H8B 108.3
C10 C9 C14 118.6(5)
C10 C9 C8 122.0(4)
C14 C9 C8 119.2(4)
C11 C10 C9 120.4(4)
C11 C10 H10 119.8
C9 C10 H10 119.8
C10 C11 C12 120.5(5)
C10 C11 H11 119.8
C12 C11 H11 119.8
C13 C12 C11 119.5(5)
C13 C12 H12 120.3
C11 C12 H12 120.3
C14 C13 C12 120.3(4)
C14 C13 H13 119.8
C12 C13 H13 119.8
C13 C14 C9 120.7(4)
C13 C14 Bi1 127.1(3)
C9 C14 Bi1 112.1(4)
N1 C15 C16 115.7(4)
N1 C15 H15A 108.4
C16 C15 H15A 108.4
N1 C15 H15B 108.4
C16 C15 H15B 108.4
H15A C15 H15B 107.4
C17 C16 C21 118.2(5)
C17 C16 C15 119.7(4)
C21 C16 C15 122.1(4)
C18 C17 C16 120.6(5)
C18 C17 H17 119.7
C16 C17 H17 119.7
C19 C18 C17 120.6(5)
C19 C18 H18 119.7
C17 C18 H18 119.7
C18 C19 C20 119.5(5)
C18 C19 H19 120.3
C20 C19 H19 120.3
C21 C20 C19 120.1(5)
C21 C20 H20 120.0
C19 C20 H20 120.0
C20 C21 C16 121.1(5)
C20 C21 H21 119.4
C16 C21 H21 119.4
F2 C22 F3 107.7(4)
F2 C22 F1 107.4(4)
F3 C22 F1 107.8(5)
F2 C22 S1 111.5(4)
F3 C22 S1 111.3(3)
F1 C22 S1 111.0(4)
C15 N1 C8 112.5(4)
C15 N1 C7 108.1(3)
C8 N1 C7 110.4(4)
C15 N1 Bi1 116.8(3)
C8 N1 Bi1 102.1(2)
C7 N1 Bi1 106.7(3)
S1 O1 Bi1 149.4(2)
O2 S1 O3 116.8(2)
O2 S1 O1 113.72(19)
O3 S1 O1 114.9(2)
O2 S1 C22 103.8(2)
O3 S1 C22 104.4(2)
O1 S1 C22 100.5(2)
C1 Bi1 C14 96.44(16)
C1 Bi1 N1 75.86(14)
C14 Bi1 N1 73.74(15)
C1 Bi1 O1 84.18(14)
C14 Bi1 O1 83.20(14)
N1 Bi1 O1 147.27(13)
loop_
_geom_bond_atom_site_label_1
_geom_bond_atom_site_label_2
_geom_bond_distance
C1 C2 1.379(6)
C1 C6 1.390(6)
C1 Bi1 2.217(4)
C2 C3 1.392(6)
C2 H2 0.9300
C3 C4 1.373(6)
C3 H3 0.9300
C4 C5 1.378(6)
C4 H4 0.9300
C5 C6 1.394(6)
C5 H5 0.9300
C6 C7 1.510(6)
C7 N1 1.496(6)
C7 H7A 0.9700
C7 H7B 0.9700
C8 N1 1.492(5)
C8 C9 1.502(7)
C8 H8A 0.9700
C8 H8B 0.9700
C9 C10 1.393(6)
C9 C14 1.401(6)
C10 C11 1.375(7)
C10 H10 0.9300
C11 C12 1.388(6)
C11 H11 0.9300
C12 C13 1.385(6)
C12 H12 0.9300
C13 C14 1.369(7)
C13 H13 0.9300
C14 Bi1 2.256(5)
C15 N1 1.491(6)
C15 C16 1.495(6)
C15 H15A 0.9700
C15 H15B 0.9700
C16 C17 1.387(6)
C16 C21 1.393(7)
C17 C18 1.380(7)
C17 H17 0.9300
C18 C19 1.371(7)
C18 H18 0.9300
C19 C20 1.386(7)
C19 H19 0.9300
C20 C21 1.369(7)
C20 H20 0.9300
C21 H21 0.9300
C22 F2 1.321(5)
C22 F3 1.325(5)
C22 F1 1.329(6)
C22 S1 1.817(6)
N1 Bi1 2.402(3)
O1 S1 1.460(3)
O1 Bi1 2.474(3)
O2 S1 1.424(3)
O3 S1 1.427(3)
loop_
_geom_torsion_atom_site_label_1
_geom_torsion_atom_site_label_2
_geom_torsion_atom_site_label_3
_geom_torsion_atom_site_label_4
_geom_torsion
C6 C1 C2 C3 -1.9(8)
Bi1 C1 C2 C3 -177.8(4)
C1 C2 C3 C4 2.2(8)
C2 C3 C4 C5 -1.9(8)
C3 C4 C5 C6 1.2(8)
C2 C1 C6 C5 1.1(8)
Bi1 C1 C6 C5 177.4(4)
C2 C1 C6 C7 176.3(5)
Bi1 C1 C6 C7 -7.4(6)
C4 C5 C6 C1 -0.8(8)
C4 C5 C6 C7 -175.9(5)
C1 C6 C7 N1 30.9(6)
C5 C6 C7 N1 -154.0(4)
N1 C8 C9 C10 -138.0(4)
N1 C8 C9 C14 37.0(5)
C14 C9 C10 C11 0.2(6)
C8 C9 C10 C11 175.3(4)
C9 C10 C11 C12 0.7(7)
C10 C11 C12 C13 -0.2(6)
C11 C12 C13 C14 -1.3(7)
C12 C13 C14 C9 2.2(7)
C12 C13 C14 Bi1 -174.8(3)
C10 C9 C14 C13 -1.7(6)
C8 C9 C14 C13 -176.9(4)
C10 C9 C14 Bi1 175.8(3)
C8 C9 C14 Bi1 0.6(5)
N1 C15 C16 C17 92.5(5)
N1 C15 C16 C21 -90.5(6)
C21 C16 C17 C18 0.9(7)
C15 C16 C17 C18 178.1(5)
C16 C17 C18 C19 -0.5(8)
C17 C18 C19 C20 0.1(8)
C18 C19 C20 C21 -0.1(8)
C19 C20 C21 C16 0.6(8)
C17 C16 C21 C20 -0.9(8)
C15 C16 C21 C20 -178.0(5)
C16 C15 N1 C8 69.9(5)
C16 C15 N1 C7 -167.9(3)
C16 C15 N1 Bi1 -47.7(4)
C9 C8 N1 C15 -176.6(3)
C9 C8 N1 C7 62.6(4)
C9 C8 N1 Bi1 -50.5(4)
C6 C7 N1 C15 91.3(4)
C6 C7 N1 C8 -145.4(4)
C6 C7 N1 Bi1 -35.1(4)
Bi1 O1 S1 O2 89.3(4)
Bi1 O1 S1 O3 -48.9(4)
Bi1 O1 S1 C22 -160.4(4)
F2 C22 S1 O2 176.8(3)
F3 C22 S1 O2 -63.0(4)
F1 C22 S1 O2 57.1(4)
F2 C22 S1 O3 -60.3(4)
F3 C22 S1 O3 59.9(4)
F1 C22 S1 O3 180.0(3)
F2 C22 S1 O1 59.0(4)
F3 C22 S1 O1 179.2(3)
F1 C22 S1 O1 -60.7(4)
