#------------------------------------------------------------------------------
#$Date: 2017-06-15 03:53:14 +0300 (Thu, 15 Jun 2017) $
#$Revision: 197829 $
#$URL: file:///home/coder/svn-repositories/cod/cif/1/54/63/1546323.cif $
#------------------------------------------------------------------------------
#
# This file is available in the Crystallography Open Database (COD),
# http://www.crystallography.net/
#
# All data on this site have been placed in the public domain by the
# contributors.
#
data_1546323
loop_
_publ_author_name
'Toma, Ana M.'
'Ra\,t, Ciprian I.'
'Pavel, Octavian D.'
'Hardacre, Christopher'
'R\"uffer, Tobias'
'Lang, Heinrich'
'Mehring, Michael'
'Silvestru, Anca'
'P\^arvulescu, Vasile I.'
_publ_section_title
;
 Heterocyclic bismuth(iii) compounds with transannular N\\rightarrow Bi
 interactions as catalysts for the oxidation of thiophenol to
 diphenyldisulfide
;
_journal_name_full               'Catal. Sci. Technol.'
_journal_paper_doi               10.1039/C7CY00521K
_journal_year                    2017
_chemical_formula_sum            'C29 H26 Bi N O3 S'
_chemical_formula_weight         677.55
_space_group_crystal_system      monoclinic
_space_group_IT_number           14
_space_group_name_Hall           '-P 2yn'
_space_group_name_H-M_alt        'P 1 21/n 1'
_symmetry_space_group_name_Hall  '-P 2yn'
_symmetry_space_group_name_H-M   'P 1 21/n 1'
_atom_sites_solution_hydrogens   geom
_audit_creation_method           SHELXL-2014/7
_audit_update_record
;
2017-02-21 deposited with the CCDC.
2017-06-14 downloaded from the CCDC.
;
_cell_angle_alpha                90
_cell_angle_beta                 91.579(2)
_cell_angle_gamma                90
_cell_formula_units_Z            4
_cell_length_a                   12.0680(11)
_cell_length_b                   14.0151(13)
_cell_length_c                   15.1158(14)
_cell_measurement_reflns_used    4921
_cell_measurement_temperature    294(2)
_cell_measurement_theta_max      22.16
_cell_measurement_theta_min      2.19
_cell_volume                     2555.6(4)
_computing_cell_refinement       'Bruker SMART'
_computing_data_collection       'Bruker SMART'
_computing_data_reduction        'Bruker SAINT'
_computing_molecular_graphics
;Brandenburg, K. [or Brandenburg, K. & Putz, H., or Brandenburg, K. & Berndt,
 M.] (1999). DIAMOND. Crystal Impact GbR, Bonn, Germany.
;
_computing_publication_material
; Allen, F. H., Johnson, O., Shields, G. P., Smith, B. R. & Towler, M. (2004).
 J. Appl. Cryst. 37, 335-338.
;
_computing_structure_refinement  SHELXL-2014
_computing_structure_solution    'Bruker SHELXTL'
_diffrn_ambient_temperature      294(2)
_diffrn_measured_fraction_theta_full 0.998
_diffrn_measured_fraction_theta_max 0.998
_diffrn_measurement_device_type  'CCD area detector'
_diffrn_measurement_method       'phi and omega scans'
_diffrn_radiation_monochromator  graphite
_diffrn_radiation_source         'sealed tube'
_diffrn_radiation_type           MoK\a
_diffrn_radiation_wavelength     0.71073
_diffrn_reflns_av_R_equivalents  0.0714
_diffrn_reflns_av_unetI/netI     0.0507
_diffrn_reflns_Laue_measured_fraction_full 0.998
_diffrn_reflns_Laue_measured_fraction_max 0.998
_diffrn_reflns_limit_h_max       14
_diffrn_reflns_limit_h_min       -14
_diffrn_reflns_limit_k_max       16
_diffrn_reflns_limit_k_min       -16
_diffrn_reflns_limit_l_max       17
_diffrn_reflns_limit_l_min       -17
_diffrn_reflns_number            23643
_diffrn_reflns_point_group_measured_fraction_full 0.998
_diffrn_reflns_point_group_measured_fraction_max 0.998
_diffrn_reflns_theta_full        24.997
_diffrn_reflns_theta_max         24.997
_diffrn_reflns_theta_min         1.982
_exptl_absorpt_coefficient_mu    7.012
_exptl_absorpt_correction_T_max  0.181
_exptl_absorpt_correction_T_min  0.106
_exptl_absorpt_correction_type   multi-scan
_exptl_absorpt_process_details
; SADABS - V2.03 (Bruker 2001)was used for 
absorption  correction. 
;
_exptl_crystal_colour            colourless
_exptl_crystal_density_diffrn    1.761
_exptl_crystal_description       block
_exptl_crystal_F_000             1320
_exptl_crystal_size_max          0.580
_exptl_crystal_size_mid          0.410
_exptl_crystal_size_min          0.370
_refine_diff_density_max         0.614
_refine_diff_density_min         -0.853
_refine_diff_density_rms         0.112
_refine_ls_extinction_method     none
_refine_ls_goodness_of_fit_ref   0.973
_refine_ls_hydrogen_treatment    constr
_refine_ls_matrix_type           full
_refine_ls_number_parameters     316
_refine_ls_number_reflns         4497
_refine_ls_number_restraints     0
_refine_ls_restrained_S_all      0.973
_refine_ls_R_factor_all          0.0466
_refine_ls_R_factor_gt           0.0330
_refine_ls_shift/su_max          0.001
_refine_ls_shift/su_mean         0.000
_refine_ls_structure_factor_coef Fsqd
_refine_ls_weighting_details
'w=1/[\s^2^(Fo^2^)+(0.0294P)^2^] where P=(Fo^2^+2Fc^2^)/3'
_refine_ls_weighting_scheme      calc
_refine_ls_wR_factor_gt          0.0655
_refine_ls_wR_factor_ref         0.0689
_reflns_Friedel_coverage         0.000
_reflns_number_gt                3578
_reflns_number_total             4497
_reflns_threshold_expression     'I > 2\s(I)'
_cod_data_source_file            c7cy00521k2.cif
_cod_data_source_block           shelx
_cod_database_code               1546323
_shelx_shelxl_version_number     2014/7
_shelx_space_group_comment
;
The symmetry employed for this shelxl refinement is uniquely defined
by the following loop, which should always be used as a source of
symmetry information in preference to the above space-group names.
They are only intended as comments.
;
_shelx_estimated_absorpt_t_min   0.106
_shelx_estimated_absorpt_t_max   0.181
_shelx_res_file
;

    shelx.res created by SHELXL-2014/7

TITL 272alb in P2(1)/n
CELL  0.71073  12.0680  14.0151  15.1158   90.000   91.579   90.000
ZERR     4.00   0.0011   0.0013   0.0014    0.000    0.002    0.000
LATT   1
SYMM  1/2 - X, 1/2 + Y, 1/2 - Z
SFAC  C    H    N    O    S    BI
UNIT  116 104 4 12 4 4
MERG   2
OMIT     0.00  50.00
FMAP   2
PLAN   20
SIZE     0.370   0.410   0.580
ACTA
BOND   $H
CONF
L.S.   4
TEMP    21.00
WGHT    0.029400
FVAR       0.08459
MOLE    1
BI1   6    0.561351    0.699767    0.104692    11.00000    0.03669    0.03868 =
         0.04455    0.00216   -0.00205    0.00075
C14   1    0.475221    0.809528    0.184773    11.00000    0.04889    0.03673 =
         0.04537    0.00097    0.01050    0.00131
C9    1    0.384403    0.854512    0.144308    11.00000    0.05242    0.03707 =
         0.04607    0.00995    0.01482    0.00159
C10   1    0.335070    0.929878    0.186186    11.00000    0.06799    0.04953 =
         0.05888    0.01361    0.02326    0.00828
AFIX  43
H10   2    0.273899    0.960153    0.160059    11.00000   -1.20000
AFIX   0
C11   1    0.376863    0.960170    0.267018    11.00000    0.10544    0.04658 =
         0.07293   -0.00295    0.02825    0.01171
AFIX  43
H11   2    0.344134    1.011930    0.294581    11.00000   -1.20000
AFIX   0
C12   1    0.464005    0.916603    0.307083    11.00000    0.10885    0.05681 =
         0.04959   -0.01338    0.01584   -0.00760
AFIX  43
H12   2    0.489536    0.937490    0.362372    11.00000   -1.20000
AFIX   0
C13   1    0.515757    0.841044    0.266573    11.00000    0.07623    0.05067 =
         0.05205    0.00061   -0.00156   -0.00852
AFIX  43
H13   2    0.576889    0.811673    0.293677    11.00000   -1.20000
AFIX   0
C8    1    0.338475    0.814284    0.057137    11.00000    0.04520    0.04645 =
         0.05682    0.00962    0.00959    0.01587
AFIX  23
H8A   2    0.288053    0.762207    0.068961    11.00000   -1.20000
H8B   2    0.297236    0.863511    0.025384    11.00000   -1.20000
AFIX   0
C7    1    0.390365    0.702153   -0.058373    11.00000    0.05372    0.05861 =
         0.04524   -0.00104   -0.00334    0.00101
AFIX  23
H7A   2    0.445032    0.688845   -0.102583    11.00000   -1.20000
H7B   2    0.322534    0.722484   -0.088712    11.00000   -1.20000
AFIX   0
C6    1    0.368841    0.613816   -0.006015    11.00000    0.03959    0.05100 =
         0.04314   -0.00707    0.00558   -0.00127
C1    1    0.426750    0.594575    0.072475    11.00000    0.03869    0.04110 =
         0.03994   -0.00138   -0.00070   -0.00526
C2    1    0.406895    0.511876    0.116778    11.00000    0.05246    0.04643 =
         0.05734   -0.00154    0.00171   -0.00378
AFIX  43
H2    2    0.447387    0.499306    0.168710    11.00000   -1.20000
AFIX   0
C3    1    0.329783    0.446678    0.087862    11.00000    0.05965    0.04954 =
         0.07725   -0.00034    0.01785   -0.00973
AFIX  43
H3    2    0.316927    0.391379    0.120001    11.00000   -1.20000
AFIX   0
C4    1    0.272130    0.464666    0.010726    11.00000    0.04633    0.05918 =
         0.08280   -0.02424    0.01456   -0.01159
AFIX  43
H4    2    0.220652    0.420394   -0.010718    11.00000   -1.20000
AFIX   0
C5    1    0.289333    0.547629   -0.035699    11.00000    0.04699    0.06858 =
         0.05266   -0.01447    0.00202   -0.00047
AFIX  43
H5    2    0.247785    0.559785   -0.087198    11.00000   -1.20000
AFIX   0
C15   1    0.474908    0.862715   -0.047564    11.00000    0.07160    0.04910 =
         0.03604    0.00923    0.00425    0.00630
AFIX  23
H15A  2    0.481371    0.916216   -0.007040    11.00000   -1.20000
H15B  2    0.422114    0.880232   -0.094321    11.00000   -1.20000
AFIX   0
C16   1    0.585803    0.845084   -0.087461    11.00000    0.05178    0.04216 =
         0.03436    0.01089   -0.00778   -0.00647
C21   1    0.681535    0.863490   -0.038251    11.00000    0.08938    0.08350 =
         0.04423    0.02694   -0.01298   -0.03603
AFIX  43
H21   2    0.676790    0.886193    0.019333    11.00000   -1.20000
AFIX   0
C20   1    0.784383    0.848446   -0.073884    11.00000    0.04597    0.12109 =
         0.13467    0.08385   -0.01461   -0.01857
AFIX  43
H20   2    0.848353    0.860197   -0.039914    11.00000   -1.20000
AFIX   0
C19   1    0.792373    0.816296   -0.159045    11.00000    0.07325    0.09460 =
         0.15128    0.05736    0.04701    0.03077
AFIX  43
H19   2    0.861438    0.806855   -0.183423    11.00000   -1.20000
AFIX   0
C18   1    0.697368    0.798223   -0.207858    11.00000    0.10941    0.06367 =
         0.09300    0.00291    0.05220    0.00134
AFIX  43
H18   2    0.701466    0.775618   -0.265520    11.00000   -1.20000
AFIX   0
C17   1    0.597523    0.813424   -0.171759    11.00000    0.07164    0.06387 =
         0.04637    0.00107    0.00131   -0.01062
AFIX  43
H17   2    0.533936    0.801676   -0.206196    11.00000   -1.20000
AFIX   0
C22   1    0.624298    0.470626    0.330343    11.00000    0.04508    0.04119 =
         0.04246    0.00352   -0.01177    0.00371
C23   1    0.678502    0.391032    0.301710    11.00000    0.04212    0.06454 =
         0.04247    0.00464   -0.00205    0.00269
AFIX  43
H23   2    0.741599    0.396632    0.268132    11.00000   -1.20000
AFIX   0
C24   1    0.636993    0.300647    0.324015    11.00000    0.06399    0.05272 =
         0.07357    0.00103   -0.00591    0.01666
AFIX  43
H24   2    0.671728    0.246830    0.301821    11.00000   -1.20000
AFIX   0
C25   1    0.552487    0.288883    0.374122    11.00000    0.07124    0.04218 =
         0.05999    0.01094   -0.02608   -0.00489
C26   1    0.494846    0.369785    0.402572    11.00000    0.06174    0.08060 =
         0.07245    0.02459    0.00231   -0.01266
AFIX  43
H26   2    0.431955    0.362904    0.436195    11.00000   -1.20000
AFIX   0
C27   1    0.532214    0.460211    0.380250    11.00000    0.06457    0.05501 =
         0.07446    0.00814    0.00604    0.01446
AFIX  43
H27   2    0.494425    0.513911    0.399338    11.00000   -1.20000
AFIX   0
C28   1    0.517420    0.191211    0.399034    11.00000    0.10061    0.08296 =
         0.09585    0.02078   -0.03745   -0.02522
AFIX  43
H28   2    0.546892    0.142639    0.364984    11.00000   -1.20000
AFIX   0
C29   1    0.457570    0.164863    0.455638    11.00000    0.10055    0.11796 =
         0.12629    0.05057   -0.02787   -0.03457
AFIX  93
H29A  2    0.424762    0.209108    0.492557    11.00000   -1.20000
H29B  2    0.443738    0.100086    0.462830    11.00000   -1.20000
AFIX   0
N1    3    0.431151    0.778759    0.000888    11.00000    0.04401    0.04408 =
         0.03955    0.00791    0.00534    0.00033
O1    4    0.579666    0.620906    0.243115    11.00000    0.07931    0.05979 =
         0.06693    0.02482   -0.03004   -0.00550
O2    4    0.771159    0.575838    0.255784    11.00000    0.06799    0.10603 =
         0.15200    0.05052    0.02037   -0.01460
O3    4    0.676558    0.639388    0.380810    11.00000    0.16559    0.06832 =
         0.06866   -0.00824   -0.04043   -0.03639
S1    5    0.669984    0.585543    0.301034    11.00000    0.06452    0.05291 =
         0.05579    0.01287   -0.01673   -0.01106
HKLF    4

REM  272alb in P2(1)/n
REM R1 =  0.0330 for    3578 Fo > 4sig(Fo)  and  0.0466 for all    4497 data
REM    316 parameters refined using      0 restraints

END

WGHT      0.0294      0.0000

REM Highest difference peak  0.614,  deepest hole -0.853,  1-sigma level  0.112
Q1    1   0.6270  0.7529  0.0822  11.00000  0.05    0.61
Q2    1   0.6342  0.6452  0.0836  11.00000  0.05    0.61
Q3    1   0.5833  0.7050  0.0355  11.00000  0.05    0.58
Q4    1   0.4921  0.6412  0.1270  11.00000  0.05    0.56
Q5    1   0.4954  0.7594  0.1333  11.00000  0.05    0.53
Q6    1   0.4548  0.2246  0.4349  11.00000  0.05    0.46
Q7    1   0.5455  0.7029  0.1776  11.00000  0.05    0.42
Q8    1   0.2815  0.3543 -0.1157  11.00000  0.05    0.39
Q9    1   0.4803  0.4025  0.3581  11.00000  0.05    0.39
Q10   1   0.5051  0.2983  0.4168  11.00000  0.05    0.39
Q11   1   0.4648  0.3778  0.4387  11.00000  0.05    0.37
Q12   1   0.5509  0.6968  0.2489  11.00000  0.05    0.37
Q13   1   0.4967  0.1196  0.4092  11.00000  0.05    0.36
Q14   1   0.3402  0.3850  0.1499  11.00000  0.05    0.35
Q15   1   0.5155  0.6937  0.3866  11.00000  0.05    0.34
Q16   1   0.6059  0.7386  0.3949  11.00000  0.05    0.34
Q17   1   0.5000  0.5000  0.0000  10.50000  0.05    0.33
Q18   1   0.4597  0.9793  0.2634  11.00000  0.05    0.33
Q19   1   0.1770  0.9055 -0.0099  11.00000  0.05    0.33
Q20   1   0.3549  0.2964  0.3593  11.00000  0.05    0.33
;
_shelx_res_checksum              84090
_shelx_hkl_file
;
   1   0   0    2.90    0.28
  -1   0   0    1.75    0.27
  -1   0   0    1.77    0.18
   2   0   0  382.05   12.72
  -2   0   0  358.91   13.02
  -2   0   0  336.06   14.42
  -3   0   0    0.86    0.29
   3   0   0    0.39    0.30
  -3   0   0    0.54    0.35
  -3   0   0    0.04    0.22
  -4   0   0    1.36    0.38
  -4   0   0    1.55    0.51
   4   0   0    2.01    0.52
  -4   0   0    2.08    0.63
   5   0   0    0.49    0.40
  -5   0   0   -0.16    0.40
  -5   0   0    0.10    0.31
  -5   0   0    1.05    0.59
  -6   0   0   82.57    4.18
   6   0   0   83.00    4.13
  -6   0   0   80.49    4.38
  -6   0   0   90.44    4.61
  -7   0   0    0.74    0.58
   7   0   0    0.12    0.57
  -7   0   0    0.22    0.62
  -7   0   0    0.13    0.64
   8   0   0  239.98   10.28
  -8   0   0  249.51   11.13
  -8   0   0  260.96   11.17
  -8   0   0  257.46   11.22
  -9   0   0    0.79    1.11
  -9   0   0    0.41    0.89
   9   0   0    0.00    0.77
 -10   0   0   62.46    4.55
  10   0   0   46.45    3.50
 -10   0   0   49.01    3.86
  11   0   0    0.09    1.01
 -11   0   0    0.55    1.17
 -11   0   0    1.09    1.47
 -12   0   0    1.28    1.73
  12   0   0    0.37    1.36
  13   0   0    0.74    1.41
 -13   0   0    0.61    1.82
 -14   0   0   11.02    3.20
  14   0   0   11.17    3.05
  15   0   0   -1.04    1.55
 -15   0   0    0.57    2.32
   0   1   0    1.31    0.20
   0   1   0    0.33    0.12
  -1  -1   0  120.42    5.53
  -1   1   0  133.71    4.85
  -1  -1   0  131.81    5.08
   1   1   0  131.87    4.79
  -1   1   0  138.71    5.01
  -1   1   0  130.84    4.83
  -2   1   0  125.06    4.76
  -2   1   0  122.67    4.85
  -2   1   0  124.54    5.44
  -2  -1   0  125.55    5.13
   2   1   0  136.54    4.85
  -2   1   0  127.88    5.04
  -2  -1   0  122.01    5.20
  -3  -1   0   30.94    1.80
  -3  -1   0   35.84    2.13
  -3  -1   0   28.79    1.48
   3   1   0   32.19    1.70
  -3   1   0   29.66    1.76
  -3   1   0   31.06    1.75
  -3   1   0   28.77    1.69
  -3   1   0   31.34    1.62
  -4   1   0  359.05   12.77
  -4   1   0  335.89   14.58
  -4  -1   0  357.76   13.65
  -4  -1   0  341.36   14.26
  -4  -1   0  346.67   13.79
   4   1   0  371.51   12.95
  -4   1   0  340.78   13.19
  -4   1   0  363.14   13.75
  -5   1   0    2.02    0.61
  -5  -1   0    2.39    0.52
   5   1   0    2.01    0.61
  -5  -1   0    2.84    0.86
  -5  -1   0    1.56    0.61
  -5   1   0    2.43    0.76
  -5   1   0    2.08    0.68
  -6  -1   0  140.59    6.14
  -6   1   0  140.78    6.49
   6  -1   0  130.29    5.99
   6   1   0  139.67    6.00
  -6  -1   0  140.75    6.64
  -6  -1   0  124.51    6.33
  -6   1   0  137.41    6.32
  -6   1   0  144.02    6.48
  -7   1   0   29.40    2.20
  -7   1   0   30.86    2.49
  -7   1   0   28.13    2.34
   7   1   0   30.52    2.25
  -7  -1   0   24.59    2.64
   7  -1   0   27.76    2.22
  -7  -1   0   29.53    1.95
   8   1   0   -0.33    0.64
  -8   1   0    0.67    0.87
   8  -1   0    0.40    0.75
  -8   1   0    0.03    0.70
  -8   1   0    0.44    0.74
  -8  -1   0   -0.03    0.82
  -8  -1   0    0.45    0.51
  -8  -1   0    1.38    0.67
   9  -1   0   17.42    2.13
  -9   1   0   19.93    2.13
  -9   1   0   21.20    2.74
   9   1   0   16.81    2.07
  -9   1   0   16.08    2.28
  -9  -1   0   22.98    2.95
  10   1   0   62.87    4.18
 -10   1   0   77.13    5.05
 -10  -1   0   81.89    5.38
 -10   1   0   66.24    4.68
  10  -1   0   64.74    4.25
 -11   1   0    0.34    1.24
  11   1   0    1.52    1.11
 -11   1   0   -0.07    1.37
 -11  -1   0    1.88    1.71
  11  -1   0    1.18    1.17
  12   1   0   39.09    4.30
 -12  -1   0   52.74    4.80
 -12   1   0   51.20    4.61
 -13   1   0    0.20    1.90
 -13  -1   0    2.74    1.94
  13  -1   0   -0.56    1.39
  13   1   0    0.71    1.51
  14   1   0   13.61    3.00
  14  -1   0   11.10    2.94
 -14  -1   0   13.91    3.51
 -14   1   0   20.47    4.02
 -15   1   0    2.79    2.69
 -15  -1   0    3.19    2.58
  15  -1   0    1.91    2.04
  15   1   0   -0.44    1.77
   0  -2   0  422.22   15.21
   0   2   0  435.58   17.16
   0   2   0  416.04   15.88
   1   2   0   47.60    2.18
  -1   2   0   57.22    2.08
  -1  -2   0   46.51    2.49
  -1  -2   0   55.40    2.49
  -1   2   0   45.96    2.48
   1  -2   0   54.50    2.23
  -1   2   0   49.54    2.36
  -2   2   0  417.00   14.89
  -2   2   0  443.04   15.59
  -2   2   0  402.85   14.95
   2   2   0  413.39   14.78
  -2  -2   0  421.96   15.74
  -2   2   0  425.02   17.10
  -2  -2   0  399.29   16.92
  -3   2   0  133.88    5.37
  -3   2   0  137.99    5.33
  -3   2   0  130.76    6.03
  -3  -2   0  131.86    5.55
  -3  -2   0  133.23    5.67
  -4   2   0    0.77    0.42
  -4   2   0    0.45    0.41
  -4   2   0    0.94    0.52
   4   2   0    0.88    0.46
  -4   2   0    0.29    0.38
  -4  -2   0    0.70    0.42
  -4  -2   0    0.22    0.51
  -4  -2   0    1.48    0.29
  -5   2   0   90.16    4.63
  -5   2   0   89.39    4.07
  -5  -2   0   88.77    3.99
  -5   2   0   90.29    4.32
  -5   2   0   94.35    4.47
   5   2   0   89.39    4.23
  -5  -2   0   89.23    4.51
  -5  -2   0   98.69    5.05
  -6  -2   0  107.98    4.66
  -6   2   0   93.15    4.92
  -6   2   0   99.51    5.27
  -6  -2   0   97.24    5.14
   6   2   0  112.04    4.97
  -6   2   0  106.38    4.69
  -6   2   0  108.76    5.21
  -6  -2   0  106.18    5.63
  -7   2   0   39.01    2.78
  -7   2   0   36.69    2.77
  -7   2   0   41.50    2.87
   7   2   0   42.64    2.71
  -7  -2   0   41.78    3.31
  -7  -2   0   40.47    2.27
  -7   2   0   41.17    2.52
  -7  -2   0   38.37    2.83
   8  -2   0  126.01    6.35
  -8   2   0  138.59    6.75
  -8   2   0  136.17    6.90
  -8  -2   0  126.72    6.69
   8   2   0  136.86    6.35
  -8   2   0  136.31    6.80
  -8  -2   0  140.05    7.23
   9  -2   0    0.74    0.91
   9   2   0    1.47    0.95
  -9  -2   0    0.15    1.13
  -9   2   0    1.57    1.01
  -9   2   0    1.78    1.13
  -9   2   0    2.13    1.11
  -9  -2   0    0.45    0.91
 -10  -2   0   36.39    3.30
 -10   2   0   38.15    3.14
 -10   2   0   32.64    3.36
  10   2   0   38.04    3.02
 -10   2   0   38.67    3.44
 -10  -2   0   45.44    4.02
  10  -2   0   31.64    3.07
  11   2   0   31.13    3.07
  11  -2   0   29.87    3.07
  11   2   0   33.16    3.76
 -11  -2   0   35.54    4.15
 -11   2   0   37.57    3.90
 -11   2   0   28.72    3.34
 -12   2   0    0.70    1.81
 -12  -2   0    1.53    1.76
  12   2   0    2.04    1.48
 -13  -2   0    7.54    2.71
  13  -2   0    7.93    2.45
 -13   2   0    5.86    2.30
  13   2   0    6.96    2.32
  14   2   0    4.89    2.42
  14  -2   0    9.27    2.71
 -14  -2   0    8.39    3.04
 -14   2   0    8.79    2.88
   0   3   0    0.89    0.25
   0   3   0    1.78    0.44
   0   3   0    0.28    0.30
   0  -3   0    0.19    0.26
   1   3   0  100.71    3.95
  -1  -3   0  107.90    4.55
  -1  -3   0   85.92    4.27
  -1   3   0   85.42    4.12
  -1   3   0   97.54    4.51
   1   3   0   91.11    3.95
   1  -3   0   98.23    3.99
  -1   3   0  101.22    3.71
  -2  -3   0   60.37    3.04
   2  -3   0   59.58    2.73
  -2  -3   0   46.57    3.08
   2   3   0   64.17    2.78
  -2   3   0   60.01    2.94
  -2  -3   0   61.98    2.79
  -3   3   0    4.85    0.88
   3   3   0    4.50    0.74
  -3  -3   0    3.47    0.97
  -3   3   0    4.20    0.76
   3  -3   0    4.82    0.79
  -3  -3   0    4.41    0.74
  -3   3   0    5.59    0.67
  -3  -3   0    4.96    0.61
  -4  -3   0  182.75    7.65
  -4   3   0  175.19    7.21
  -4   3   0  186.05    8.25
   4   3   0  176.60    7.18
  -5  -3   0   32.65    2.31
   5   3   0   36.18    2.26
  -5   3   0   35.87    2.26
  -5   3   0   36.54    2.18
  -5   3   0   41.64    2.37
  -5   3   0   32.70    2.40
  -5  -3   0   23.47    2.68
  -5  -3   0   36.17    1.68
  -6   3   0   50.17    3.05
  -6   3   0   57.54    3.22
  -6  -3   0   47.12    3.10
  -6  -3   0   48.65    3.61
  -6   3   0   49.20    2.81
  -6  -3   0   50.08    2.36
  -6   3   0   47.69    3.19
   6   3   0   50.38    2.99
  -7  -3   0  111.08    5.80
  -7   3   0  117.24    5.32
  -7   3   0  119.04    6.13
  -7  -3   0  111.66    6.32
   7   3   0  113.03    5.48
  -7   3   0  111.24    5.62
  -7   3   0  123.60    5.93
  -8   3   0    1.46    0.83
  -8  -3   0    0.91    0.80
  -8   3   0    1.42    0.95
  -8  -3   0    1.92    1.28
  -8   3   0    1.24    0.89
   8   3   0    2.02    0.97
  -8   3   0    1.46    0.93
  -9   3   0   85.50    5.01
  -9  -3   0   72.97    5.25
   9  -3   0   76.87    4.74
  -9  -3   0   70.28    4.75
   9   3   0   85.14    4.65
  -9   3   0   84.13    5.00
  -9   3   0   83.57    5.02
  10   3   0    4.54    1.34
 -10  -3   0    3.30    1.78
 -10   3   0    2.31    1.27
  10  -3   0    4.36    1.34
 -10   3   0    3.63    1.52
 -10   3   0    2.52    1.39
  11   3   0   13.29    2.22
 -11  -3   0   15.38    2.97
  11   3   0   11.43    2.49
 -11   3   0   16.02    2.63
  11  -3   0   15.24    2.44
 -11   3   0   14.12    2.67
  12   3   0   15.13    2.97
 -12   3   0   24.76    3.54
 -12  -3   0   22.25    3.81
  13   3   0    1.96    1.66
 -13  -3   0    5.79    2.61
 -13   3   0    3.27    2.20
  13  -3   0    2.86    2.08
 -14  -3   0    6.54    2.77
  14   3   0    7.73    2.64
 -14   3   0   11.84    3.32
  14  -3   0   10.36    2.99
   0   4   0   19.77    1.54
   0   4   0   22.55    1.20
   0  -4   0   22.91    1.59
   0   4   0   21.32    1.51
   1   4   0    7.38    0.70
  -1  -4   0    8.17    1.17
   1   4   0    8.53    1.02
  -1   4   0    8.08    1.01
  -1   4   0    7.85    0.48
  -1   4   0    5.72    0.96
  -1  -4   0    9.77    1.09
   1  -4   0    9.10    0.99
   2   4   0   18.86    1.40
  -2   4   0   18.07    1.54
   2  -4   0   20.08    1.41
  -2  -4   0   15.83    1.85
  -2  -4   0   21.16    1.59
  -2   4   0   22.50    1.11
   2   4   0   22.74    1.41
  -2   4   0   20.75    1.65
   3  -4   0  374.02   14.33
   3   4   0  389.72   14.16
  -3   4   0  389.35   14.41
  -3  -4   0  372.69   16.10
   3   4   0  398.11   14.94
  -4   4   0    0.47    0.55
  -4  -4   0    0.37    0.58
  -4   4   0    0.33    0.49
   4  -4   0    0.59    0.48
   4   4   0    0.08    0.37
  -4  -4   0    0.23    0.40
  -4   4   0    0.39    0.40
  -5   4   0  286.49   13.02
  -5   4   0  287.70   11.44
  -5  -4   0  289.33   11.97
  -5   4   0  322.13   11.94
   5   4   0  302.90   11.41
  -5  -4   0  270.52   11.96
  -5   4   0  299.26   11.40
   6   4   0   42.46    2.77
  -6  -4   0   40.01    2.86
  -6   4   0   44.21    3.14
  -6   4   0   49.51    2.92
  -6   4   0   44.06    2.79
  -6   4   0   42.33    2.69
  -7  -4   0   29.85    3.32
  -7   4   0   28.46    2.32
  -7   4   0   32.80    2.51
  -7   4   0   26.86    2.12
  -7  -4   0   26.91    2.40
   7   4   0   28.03    2.28
  -7   4   0   29.68    2.60
  -8   4   0   11.18    1.90
  -8   4   0    9.76    1.52
   8   4   0   10.77    1.66
  -8   4   0   12.23    1.91
  -8  -4   0   14.77    2.56
  -9   4   0    7.12    1.39
  -9  -4   0    6.44    1.99
  -9   4   0    9.71    1.93
   9   4   0    5.49    1.39
  -9   4   0    9.33    1.88
  -9   4   0    6.61    1.64
  10   4   0    2.91    1.28
  10   4   0    5.77    1.60
 -10   4   0    6.01    1.72
 -10   4   0    7.95    2.00
 -10   4   0    6.42    1.89
 -10  -4   0    3.76    1.77
 -11  -4   0   40.04    4.50
 -11   4   0   48.14    3.94
  11   4   0   44.05    3.50
  11  -4   0   40.12    3.62
  11   4   0   40.91    3.88
 -11   4   0   42.78    3.83
 -11   4   0   46.53    4.03
 -12   4   0    2.28    1.86
 -12  -4   0    0.32    1.86
  12   4   0   -0.38    1.51
 -13  -4   0   34.20    4.69
  13   4   0   33.76    4.37
  13  -4   0   36.55    4.66
 -13   4   0   33.46    4.22
  14   4   0    0.76    1.73
  14  -4   0    0.06    2.22
 -14  -4   0    2.65    2.32
   0   5   0    0.91    0.53
   0   5   0    0.39    0.40
   0   5   0    2.03    0.45
   0  -5   0    1.69    0.60
  -1  -5   0  203.76    9.31
  -1   5   0  224.10   10.05
  -1   5   0  240.97    8.55
  -1  -5   0  239.58   10.24
   1   5   0  228.87    9.04
   1  -5   0  220.46    9.03
   1   5   0  235.35    8.91
   2  -5   0   18.27    1.48
  -2  -5   0   20.15    1.70
  -2  -5   0   16.41    1.98
  -2   5   0   18.73    1.66
   2   5   0   19.73    1.39
   2   5   0   19.75    1.58
  -2   5   0   23.40    1.11
  -2   5   0   19.02    1.88
  -3   5   0   79.13    4.37
   3  -5   0   91.50    4.27
  -3  -5   0  100.56    4.87
  -3   5   0  101.67    3.93
  -3  -5   0   87.61    5.00
   3   5   0   91.25    4.26
   3   5   0   90.62    4.26
  -3   5   0   78.85    4.67
  -4  -5   0   19.52    2.53
  -4   5   0   17.73    1.37
  -4  -5   0   19.25    1.59
  -4   5   0   14.83    1.70
   4   5   0   17.88    1.57
  -4   5   0   16.27    1.71
   4   5   0   17.49    1.61
   4  -5   0   16.77    1.56
  -5  -5   0   50.80    2.63
  -5   5   0   54.41    3.16
  -5  -5   0   44.74    3.67
   5  -5   0   47.72    3.06
  -5   5   0   47.82    3.34
   5   5   0   54.04    3.23
  -5   5   0   56.51    2.97
   5   5   0   48.67    2.97
  -6   5   0    3.20    0.93
   6   5   0    2.19    0.86
  -6   5   0    1.18    0.86
  -6  -5   0    1.90    1.05
   6  -5   0    0.71    0.89
   6   5   0    1.16    0.95
  -7   5   0  163.56    7.17
   7   5   0  159.66    7.77
  -7   5   0  163.33    7.36
  -7   5   0  156.24    8.18
   7   5   0  160.09    7.24
  -8   5   0    1.73    1.07
  -8   5   0    1.98    0.97
  -8   5   0    0.90    0.75
   8   5   0    0.90    0.78
   8   5   0    1.95    1.14
  -8  -5   0   -0.13    1.03
  -8   5   0    1.26    1.00
  -9   5   0   64.44    3.90
  -9  -5   0   63.72    4.98
   9   5   0   64.86    4.50
  -9   5   0   60.61    4.49
  -9   5   0   63.16    4.33
   9   5   0   66.93    4.13
  -9   5   0   62.45    4.21
 -10  -5   0    0.95    1.55
 -10   5   0    1.31    1.23
  10   5   0    0.23    0.91
 -10   5   0    0.27    1.21
  10   5   0    0.92    1.12
 -10   5   0    0.91    1.17
 -10   5   0   -0.80    0.75
 -11   5   0   22.95    3.18
  11   5   0   23.79    2.81
 -11  -5   0   23.56    3.65
  11   5   0   18.95    3.04
 -11   5   0   23.33    3.17
 -11   5   0   29.65    3.37
  12   5   0   -0.17    1.00
 -12   5   0    0.76    1.75
 -12  -5   0   -0.14    1.76
  12  -5   0    1.73    1.87
  13  -5   0    1.12    2.00
  13   5   0    2.71    1.75
 -13  -5   0    0.85    1.99
 -13   5   0    0.70    1.79
  14   5   0    1.82    1.97
 -14  -5   0    0.55    2.01
   0   6   0   57.71    2.63
   0  -6   0   55.95    3.32
   0   6   0   52.10    3.27
   0   6   0   59.29    3.35
  -1  -6   0   38.16    2.65
  -1   6   0   34.89    2.45
   1  -6   0   33.35    2.33
   1   6   0   32.73    2.37
  -1  -6   0   32.18    2.53
   1   6   0   37.85    2.03
   2   6   0   75.65    3.95
  -2   6   0   85.54    3.15
  -2   6   0   73.56    4.25
  -2  -6   0   81.54    4.38
   2  -6   0   80.15    3.98
   2   6   0   71.25    3.59
  -2   6   0   71.89    4.14
  -2  -6   0   69.75    4.34
  -3   6   0  152.01    7.07
  -3  -6   0  142.96    7.48
   3  -6   0  152.90    6.74
  -3  -6   0  165.72    7.64
   3   6   0  161.72    6.77
  -3   6   0  154.80    7.60
   3   6   0  155.90    6.75
   4   6   0    0.57    0.59
  -4   6   0    0.03    0.61
   4  -6   0    0.67    0.60
  -4   6   0    0.64    0.48
  -4  -6   0    0.56    0.79
   4   6   0    0.37    0.65
  -4   6   0    0.27    0.44
  -4  -6   0   -0.40    0.72
   5   6   0  165.49    7.56
  -5   6   0  184.50    7.27
  -5   6   0  166.32    7.47
   5  -6   0  153.88    7.33
   5   6   0  161.49    7.23
  -5   6   0  153.68    8.18
  -5  -6   0  161.21    8.36
  -5  -6   0  180.73    7.52
  -6  -6   0   21.48    2.99
   6   6   0   21.94    2.14
  -6   6   0   21.69    2.40
  -6   6   0   15.97    1.99
  -6   6   0   22.83    1.96
   6   6   0   18.94    2.11
   6  -6   0   18.25    2.14
   7   6   0   36.62    2.77
  -7   6   0   40.03    2.89
  -7   6   0   31.64    2.94
   7   6   0   35.19    2.91
  -7  -6   0   36.51    3.91
   7  -6   0   31.31    2.83
  -7   6   0   35.12    2.73
  -8   6   0    4.16    1.27
   8  -6   0    3.13    1.37
   8   6   0    3.57    1.16
   8   6   0    3.64    1.37
  -8  -6   0    0.37    1.04
  -8   6   0    3.01    1.31
  -8   6   0    3.56    1.23
  -9   6   0   11.27    2.18
   9   6   0    9.69    2.13
  -9   6   0   11.10    1.86
  -9   6   0    8.67    1.89
   9   6   0   13.06    2.08
   9  -6   0    7.01    1.86
  -9  -6   0   10.96    2.63
 -10   6   0    0.89    1.03
  10  -6   0    1.39    1.41
  10   6   0    1.10    1.16
 -10  -6   0   -0.26    1.40
 -10   6   0    0.96    1.41
 -10   6   0    1.41    1.29
  10   6   0   -0.10    1.31
 -11  -6   0   58.04    5.09
 -11   6   0   52.67    4.55
  11   6   0   53.18    4.62
 -11   6   0   58.50    3.93
  11   6   0   50.07    3.89
 -12  -6   0    1.80    1.90
  12   6   0    0.08    1.59
  13   6   0   19.12    3.55
 -13  -6   0   26.21    4.46
  14   6   0    0.45    1.59
 -14  -6   0    1.43    2.28
   0   7   0    0.43    0.41
   0  -7   0    0.82    0.78
   0   7   0   -0.33    0.62
   1   7   0  167.17    7.45
  -1  -7   0  160.32    7.70
   1  -7   0  166.47    7.43
   2  -7   0   18.64    1.95
  -2   7   0   15.04    2.03
  -2  -7   0   22.50    2.58
   2   7   0   19.11    2.03
   2   7   0   20.82    1.60
  -2  -7   0   19.58    1.99
  -2   7   0   19.25    1.89
  -3  -7   0   18.83    2.09
   3   7   0   17.65    1.59
  -3   7   0   19.83    1.19
   3  -7   0   16.00    1.83
  -3  -7   0   17.69    2.46
   3   7   0   17.05    1.94
  -3   7   0   15.51    2.04
  -3   7   0   12.02    1.79
   4  -7   0  105.52    5.42
  -4  -7   0  112.02    6.40
   4   7   0  111.38    5.40
  -4   7   0  102.85    5.61
   4   7   0  105.96    5.40
  -4   7   0   97.23    5.91
  -4   7   0  122.15    4.91
  -4  -7   0  128.72    6.25
   5   7   0   19.85    2.12
  -5   7   0   20.16    2.27
  -5  -7   0   19.34    2.90
  -5   7   0   21.47    1.73
   5  -7   0   18.98    2.16
  -5  -7   0   23.38    2.02
   5   7   0   19.38    2.06
   6  -7   0   38.25    2.99
  -6  -7   0   38.01    3.94
  -6   7   0   37.90    3.00
   6   7   0   45.36    3.09
  -6   7   0   35.56    3.13
  -6   7   0   47.06    2.86
   6   7   0   36.64    2.96
  -7   7   0   57.11    4.27
  -7  -7   0   63.53    4.95
  -7   7   0   57.48    3.79
   7  -7   0   54.22    3.90
  -7   7   0   71.21    3.97
   7   7   0   58.32    3.82
   7   7   0   58.53    3.97
  -8  -7   0    0.13    1.44
   8  -7   0    0.88    1.00
   8   7   0    0.20    0.96
  -8   7   0    1.33    1.13
  -8   7   0    0.69    1.02
   8   7   0    0.70    0.93
  -8   7   0    0.17    0.97
   9   7   0   59.90    4.05
  -9   7   0   56.67    3.85
   9   7   0   57.73    4.31
   9  -7   0   52.01    4.24
  -9   7   0   56.81    4.52
 -10  -7   0    8.33    2.42
 -10   7   0   12.03    2.14
  10  -7   0   14.68    2.71
 -10   7   0   13.03    2.56
  10   7   0   15.48    2.41
  10   7   0   12.71    2.56
  11   7   0    6.35    1.86
  11   7   0    3.22    1.89
  11  -7   0    3.61    1.92
 -11   7   0    3.02    1.88
 -11   7   0    8.39    1.90
 -11  -7   0    4.37    2.24
  12   7   0   13.72    2.96
 -12  -7   0   16.78    3.56
 -12   7   0   15.43    3.08
 -13  -7   0    0.86    2.12
  13   7   0    1.94    1.94
   0   8   0  250.56   11.07
   0  -8   0  281.79   12.65
   0   8   0  265.36   10.22
   0  -8   0  257.06   11.30
   1   8   0   21.27    1.61
   1   8   0   14.81    2.05
  -1   8   0   18.24    1.91
  -1  -8   0   20.31    2.37
   1  -8   0   16.76    2.14
  -1  -8   0   20.59    2.49
   2   8   0   59.32    3.20
   2  -8   0   53.50    3.57
  -2  -8   0   53.92    3.97
   2   8   0   55.99    3.64
  -2  -8   0   59.96    3.96
  -2   8   0   55.00    3.72
  -2   8   0   62.43    3.97
  -3  -8   0   58.83    4.38
   3   8   0   67.80    3.57
  -3   8   0   59.43    4.04
  -3   8   0   61.45    4.10
  -3  -8   0   70.57    4.39
   3   8   0   64.71    3.92
   3  -8   0   62.72    3.86
  -4  -8   0    1.76    1.08
   4  -8   0    1.26    0.84
  -4   8   0    0.74    0.79
  -4   8   0    1.32    0.97
   4   8   0    1.60    0.93
   4   8   0    0.76    0.75
  -4  -8   0    0.76    1.20
   5   8   0   52.63    3.57
   5   8   0   64.89    3.75
  -5   8   0   54.56    3.79
  -5   8   0   44.69    3.71
  -5  -8   0   60.49    4.56
   5  -8   0   57.67    3.74
  -6  -8   0   34.69    3.90
   6   8   0   32.00    2.72
  -6   8   0   24.68    2.88
   6   8   0   27.38    2.70
  -6   8   0   24.82    2.74
   6  -8   0   30.11    2.69
   7   8   0   16.51    2.28
  -7  -8   0   16.97    2.98
   7   8   0   19.70    2.46
  -7   8   0   17.15    2.52
  -7   8   0   13.91    2.16
   7  -8   0   15.89    2.25
   8  -8   0   61.61    4.54
   8   8   0   71.89    4.60
   8   8   0   71.14    4.75
  -8   8   0   75.36    4.58
  -8  -8   0   68.40    5.46
  -8   8   0   65.61    4.91
  -9  -8   0    2.05    1.80
  -9   8   0    5.53    1.64
   9   8   0    4.01    1.58
  -9   8   0    3.58    1.67
   9  -8   0    3.74    1.58
   9   8   0    5.97    1.63
 -10  -8   0   12.56    2.94
 -10   8   0   23.40    3.37
 -10   8   0   29.29    3.07
  10   8   0   25.11    3.34
  10   8   0   24.30    2.98
  10  -8   0   29.07    3.64
 -11   8   0   13.90    2.37
 -11   8   0   12.84    2.83
 -11  -8   0    2.89    1.74
  11   8   0   14.97    2.91
  11   8   0   14.16    2.50
  12   8   0    2.19    1.93
 -12  -8   0   -1.27    1.88
  13   8   0    3.60    2.21
 -13  -8   0   10.42    3.13
   0  -9   0    0.73    0.91
   0  -9   0   -0.36    0.80
   0   9   0   -0.15    0.78
   1   9   0   56.53    3.03
   1  -9   0   53.96    3.73
  -1  -9   0   43.42    3.63
  -1  -9   0   53.34    4.00
   1   9   0   54.45    3.76
  -2  -9   0   79.57    5.27
  -2  -9   0   86.19    5.33
   2   9   0   91.70    4.38
  -2   9   0   82.70    5.05
   2  -9   0   82.81    4.88
  -2   9   0   84.96    5.08
   2   9   0   73.92    4.73
  -3   9   0    2.54    1.26
  -3  -9   0    3.85    1.52
  -3   9   0    2.29    1.07
   3   9   0    1.76    0.99
   3  -9   0    1.04    0.92
   3   9   0    2.50    0.99
  -3  -9   0    1.49    1.15
   4  -9   0  109.96    6.15
  -4  -9   0  138.40    7.20
   4   9   0  124.57    6.35
  -4   9   0  113.47    6.74
  -4   9   0  112.81    6.42
  -4  -9   0  129.61    7.28
   4   9   0  120.31    6.00
   5   9   0   12.40    2.02
   5   9   0   10.32    1.71
  -5  -9   0   12.99    2.64
   5  -9   0    8.56    1.74
  -5   9   0   10.28    1.98
  -5   9   0    7.63    1.79
   6  -9   0   31.53    3.19
   6   9   0   40.96    3.16
  -6   9   0   35.02    3.16
   6   9   0   40.19    3.23
  -6  -9   0   49.82    4.73
  -7   9   0    3.76    1.46
   7   9   0    4.23    1.46
   7  -9   0    2.80    1.29
  -7  -9   0    5.17    1.94
  -7   9   0    5.05    1.60
   7   9   0    2.95    1.28
  -8  -9   0   -0.64    1.18
   8   9   0    1.66    1.30
   8   9   0    1.90    1.23
   8  -9   0    0.53    1.29
  -8   9   0    0.64    1.19
  -8   9   0    0.32    1.21
  -9   9   0    3.87    1.75
  -9   9   0    7.33    1.89
   9  -9   0    6.62    1.98
  -9  -9   0    4.92    2.35
   9   9   0    3.79    1.63
   9   9   0    6.10    2.03
 -10   9   0   21.36    2.90
  10   9   0   23.03    3.08
  10   9   0   20.23    3.11
 -10   9   0   14.32    2.92
 -10  -9   0   24.61    4.01
 -11   9   0    0.64    1.54
  11   9   0    1.68    1.50
 -11  -9   0    1.58    1.87
  11   9   0    0.77    1.68
  12  -9   0   20.32    4.43
  12   9   0   19.37    3.59
   0  10   0  190.07    9.13
   0 -10   0  191.79   10.16
   0 -10   0  194.34    9.41
  -1  10   0    0.64    0.94
  -1 -10   0    4.23    1.55
   1 -10   0    5.55    1.55
   1  10   0    3.92    1.43
   1 -10   0    3.09    1.38
  -1 -10   0    2.64    1.39
   2 -10   0   85.75    5.20
  -2  10   0   78.31    5.20
  -2 -10   0   87.61    5.61
   2  10   0   95.79    5.45
  -2 -10   0   80.72    5.51
   3  10   0   -0.59    0.81
  -3 -10   0    1.44    1.30
  -3  10   0    0.11    0.96
  -3  10   0    0.38    0.85
  -3 -10   0    0.03    1.10
   3 -10   0    0.69    0.92
  -4  10   0    0.50    0.96
  -4  10   0    0.15    0.98
   4 -10   0    0.90    1.06
   4  10   0    1.26    1.02
  -4 -10   0    0.95    1.27
   4  10   0    0.85    0.98
  -5 -10   0    6.58    2.15
   5  10   0    2.98    1.37
  -5  10   0    3.98    1.44
   5  10   0    4.20    1.37
   5 -10   0    3.82    1.32
  -5  10   0    4.92    1.56
   6 -10   0   36.67    3.40
  -6  10   0   38.30    3.46
  -6 -10   0   48.11    4.85
  -6  10   0   36.15    3.62
   6  10   0   46.58    3.45
   6  10   0   50.99    3.79
  -7  10   0    2.09    1.41
  -7  10   0    3.15    1.50
   7  10   0    3.93    1.53
  -7 -10   0    1.42    1.61
   7 -10   0    3.03    1.38
   7  10   0    3.81    1.51
   8  10   0   68.03    4.82
   8  10   0   69.60    4.88
   8 -10   0   63.03    4.88
  -8 -10   0   81.33    5.99
  -8  10   0   62.37    4.63
  -8  10   0   65.46    5.26
  -9  10   0    1.40    1.34
  -9  10   0    0.17    1.50
   9  10   0    1.51    1.49
  -9 -10   0    0.83    1.56
   9  10   0    0.96    1.30
  10  10   0   30.41    3.71
 -10 -10   0   38.52    4.95
  10  10   0   33.80    3.75
 -10  10   0   28.00    3.33
  11 -10   0    1.07    2.21
 -11 -10   0   -0.23    2.12
  11  10   0    2.24    1.77
 -11  10   0    0.17    1.55
  11  10   0    0.28    1.56
 -12 -10   0   -0.88    1.80
  12 -10   0   -0.23    2.30
  12  10   0    0.48    2.00
   0 -11   0    0.56    1.09
   0  11   0   -0.93    0.91
   0 -11   0    0.88    1.15
   1 -11   0    6.97    1.99
  -1  11   0    7.23    1.86
  -1 -11   0    9.97    2.25
   1  11   0   13.78    2.43
   1 -11   0   13.90    2.52
  -1 -11   0    9.42    2.18
  -2 -11   0   25.18    3.47
   2  11   0   23.97    3.04
  -2 -11   0   29.84    3.42
  -2  11   0   24.51    3.13
   2 -11   0   24.23    3.45
   2 -11   0   22.21    3.04
   3  11   0   -0.24    0.98
  -3 -11   0    0.48    1.24
  -3 -11   0    0.92    1.43
   3 -11   0   -0.47    1.15
   3 -11   0    0.40    0.99
  -3  11   0   -0.51    1.02
   4 -11   0   71.35    4.95
  -4 -11   0   74.40    5.60
   4  11   0   75.42    5.02
  -4  11   0   69.44    4.96
  -5  11   0    2.49    1.36
  -5 -11   0    3.53    1.80
   5 -11   0    5.34    1.65
   5  11   0    2.84    1.47
  -5  11   0    4.13    1.74
  -6  11   0   34.24    3.58
   6  11   0   38.08    3.83
  -6  11   0   37.67    3.77
   6 -11   0   39.35    3.86
  -7  11   0    2.60    1.32
   7  11   0    4.25    1.66
  -7  11   0    6.83    2.07
   7  11   0    5.33    1.76
   7 -11   0    4.54    1.59
  -7 -11   0    6.31    2.16
  -8 -11   0    0.27    1.49
   8  11   0    0.11    1.53
  -8  11   0    0.03    1.35
   8  11   0    0.25    1.45
  -9  11   0    5.63    2.22
   9  11   0    6.34    2.05
  -9 -11   0   11.89    3.09
   9  11   0   11.31    2.43
  10  11   0   12.04    2.58
  10 -11   0   10.96    3.36
 -10 -11   0    8.27    2.88
 -10  11   0   11.61    2.60
  10  11   0   13.26    2.88
  11 -11   0    1.58    2.26
  11  11   0    0.94    1.53
 -11  11   0    1.03    1.72
 -11 -11   0    0.52    1.93
  11  11   0    0.81    1.99
   0  12   0   75.55    5.27
   0 -12   0   72.01    5.66
   0 -12   0   77.52    5.55
   1  12   0   -0.01    1.18
  -1 -12   0   -0.17    1.44
  -1  12   0    0.35    1.17
   1 -12   0    1.13    1.24
   1 -12   0    0.45    1.31
  -1 -12   0    0.82    1.39
   2  12   0   32.40    3.67
   2 -12   0   35.61    3.92
   2 -12   0   32.03    4.06
  -2 -12   0   38.57    3.82
  -2 -12   0   36.50    4.27
  -2  12   0   26.59    3.49
   3 -12   0   15.60    2.81
   3 -12   0   14.62    3.02
   3  12   0   15.88    2.68
  -3  12   0   17.75    2.91
  -3 -12   0   17.97    3.26
  -4  12   0   -0.38    1.13
  -4 -12   0    0.90    1.66
   4  12   0    0.09    1.10
   4 -12   0    0.15    1.45
   4 -12   0    0.97    1.34
   5 -12   0   24.30    4.05
  -5  12   0   24.84    3.34
   5 -12   0   29.97    3.64
   5  12   0   31.62    3.61
  -5 -12   0   33.53    4.48
   6  12   0   22.79    3.23
   6 -12   0   16.74    2.94
   6 -12   0   16.34    3.44
  -6 -12   0   25.59    4.06
  -6  12   0   17.57    2.95
  -7  12   0    8.38    2.14
   7 -12   0    6.98    2.54
   7  12   0    8.06    2.16
  -7 -12   0    5.12    2.20
  -8 -12   0   20.79    3.64
  -8  12   0   19.10    3.20
   8 -12   0   17.14    4.00
   8  12   0   18.35    3.07
   9  12   0    3.15    1.73
   9 -12   0    0.23    1.91
  -9  12   0   -0.90    1.21
  -9 -12   0    0.17    1.49
 -10  12   0    8.36    2.41
  10  12   0   10.21    2.62
 -10 -12   0   12.45    3.11
  10 -12   0    7.94    3.05
   0 -13   0    3.21    1.94
   0 -13   0    1.55    1.39
   0  13   0    1.16    1.38
   1 -13   0   55.15    5.12
  -1 -13   0   59.33    5.04
  -1  13   0   52.55    4.52
   1  13   0   48.35    4.29
  -1 -13   0   54.82    4.84
   1 -13   0   47.07    4.42
  -2 -13   0   13.50    3.02
   2  13   0    8.52    2.21
  -2 -13   0   15.72    3.00
  -2  13   0    8.31    2.26
   2 -13   0   10.62    2.76
   2 -13   0    8.20    2.26
  -3  13   0    9.77    2.51
  -3 -13   0   13.42    2.95
   3 -13   0    8.39    2.66
   3  13   0    8.55    2.26
   3 -13   0    8.46    2.41
   4 -13   0   14.73    2.80
   4  13   0   20.59    3.23
   4 -13   0   17.47    3.52
  -4 -13   0   19.05    3.56
  -4  13   0   16.18    2.90
  -5 -13   0    7.48    2.57
   5 -13   0    0.38    1.38
   5 -13   0    5.80    2.00
   5  13   0    4.84    1.78
  -5  13   0    7.78    2.21
  -6 -13   0    6.45    2.41
   6 -13   0    6.00    2.58
   6  13   0   11.41    2.57
  -6  13   0    6.73    2.33
   7 -13   0   16.52    3.81
  -7 -13   0   26.09    4.16
  -7  13   0   22.37    3.42
   7  13   0   24.72    3.60
   8  13   0    0.31    1.51
  -8  13   0   -0.60    1.45
   8 -13   0    1.40    2.05
  -8 -13   0    0.55    1.80
   9 -13   0    4.87    2.82
  -9  13   0    7.96    2.49
   9  13   0   10.52    2.61
  -9 -13   0   12.02    3.04
 -10 -13   0    5.60    2.37
 -10  13   0    5.54    2.32
  10 -13   0    6.22    2.86
  10  13   0    5.18    2.09
   0 -14   0    6.21    2.58
   0  14   0    2.41    1.79
   0 -14   0    8.00    2.41
  -1 -14   0    4.73    2.39
  -1  14   0    3.74    1.87
   1  14   0    6.22    2.04
   1 -14   0    2.98    2.02
   1 -14   0    3.02    1.84
  -1 -14   0    4.03    2.03
   2 -14   0    5.57    2.35
  -2  14   0    0.25    1.35
   2  14   0    2.98    1.82
   2 -14   0    2.18    1.87
  -2 -14   0    5.51    2.14
  -3 -14   0   50.33    5.44
   3 -14   0   40.26    4.64
   3  14   0   47.98    4.73
  -3  14   0   39.18    4.44
   3 -14   0   31.93    4.82
  -4  14   0   -0.76    1.47
   4 -14   0   -1.79    1.44
  -4 -14   0    0.19    1.55
   4  14   0   -0.13    1.32
   4 -14   0   -0.68    1.62
  -5  14   0   35.13    4.26
  -5 -14   0   57.02    5.90
   5  14   0   39.92    4.57
   6  14   0    3.53    1.83
  -6 -14   0    3.67    2.24
  -6  14   0    0.15    1.59
   6 -14   0    1.17    1.83
   7 -14   0    4.82    2.52
   7  14   0    4.80    2.25
  -7 -14   0    4.44    2.23
  -7  14   0    3.97    2.07
  -8  14   0    1.96    1.92
  -8 -14   0    6.60    2.47
   8  14   0    6.50    2.35
   8 -14   0    3.36    2.42
   9  14   0    2.87    1.86
  -9  14   0    4.07    2.19
   9 -14   0    1.95    2.06
  -9 -14   0    3.71    2.09
   0  15   0   -0.64    1.52
   0 -15   0    0.81    1.92
   0 -15   0    1.16    1.74
  -1 -15   0   39.86    5.02
   1 -15   0   33.14    4.45
  -1  15   0   30.27    4.15
   1 -15   0   34.10    4.85
  -1 -15   0   26.46    4.32
   1  15   0   25.73    3.94
   2 -15   0   -0.75    1.78
  -2 -15   0    0.48    1.81
   2 -15   0   -0.24    2.20
   2  15   0    1.21    1.57
  -2  15   0    0.20    1.22
  -3  15   0    7.27    2.33
   3 -15   0    6.04    2.79
   3  15   0   10.16    2.63
   3 -15   0    5.87    2.40
  -3 -15   0    8.01    2.66
   4 -15   0    1.01    2.07
  -4  15   0    2.95    1.85
   4  15   0    2.47    1.80
  -4 -15   0    3.78    2.35
   5 -15   0    5.78    2.74
   5  15   0    8.72    2.65
  -5 -15   0    6.57    2.56
  -5  15   0    5.91    2.19
  -6  15   0    0.01    1.52
   6  15   0    1.79    1.79
   6 -15   0    0.29    2.20
  -6 -15   0    0.24    1.60
  -7  15   0   17.54    3.34
  -7 -15   0   17.70    3.61
   7 -15   0   19.96    4.53
   7  15   0   19.53    3.71
   0 -16   0    2.30    2.24
   0  16   0    3.28    2.11
   0 -16   0    2.02    2.00
  -1  16   0    2.85    1.95
   1  16   0    5.02    2.17
  -1 -16   0    7.53    2.73
   1 -16   0    6.77    2.54
   1 -16   0    4.22    2.68
  -2 -16   0    3.29    2.25
  -2  16   0   -0.11    1.52
   2  16   0    0.39    1.61
   2 -16   0    0.40    2.36
   2 -16   0    3.53    2.37
  -3 -16   0   19.75    3.97
  -3  16   0   18.32    3.38
   3 -16   0   18.79    4.10
   3  16   0   14.43    3.16
   4 -16   0    2.14    2.37
  -4  16   0    1.14    1.94
  -4 -16   0    0.31    2.11
   4  16   0    0.28    1.74
  -5 -16   0   23.00    4.26
   5  16   0   18.29    3.61
  -5  16   0   12.32    3.07
   5 -16   0   11.33    3.55
   6  16   0    0.54    1.75
   6 -16   0    0.22    1.91
  -6 -16   0    1.22    1.69
  -6  16   0    0.05    1.69
   0 -17   0    0.53    2.24
   0 -17   0    2.51    2.20
   0  17   0   -0.75    1.68
  -1 -17   0   13.32    3.49
   1 -17   0   14.66    3.52
   1  17   0   11.71    2.97
  -1  17   0   13.43    3.26
   1 -17   0   15.35    3.92
  -2 -17   0   11.24    3.16
   2  17   0    5.80    2.26
   2 -17   0    2.21    2.70
  -2  17   0    1.93    1.74
   3  17   0    0.56    1.62
  -3 -17   0    3.11    2.28
   3 -17   0    1.97    2.69
  -3  17   0   -1.87    1.70
 -15   0   1    4.79    2.88
  15   0  -1    1.26    1.97
  14   0  -1   -0.83    1.50
 -14   0   1    0.67    2.18
 -13   0   1    2.10    2.13
  13   0  -1    2.02    1.62
  12   0  -1   -0.88    1.15
 -12   0   1   -0.78    1.54
  11   0  -1   66.57    5.06
 -11   0   1   74.82    5.44
  10   0  -1    0.16    1.02
 -10   0   1    0.17    1.30
  10   0  -1   -0.11    0.76
   9   0  -1  108.38    6.27
  -9   0   1  120.54    6.63
   9   0  -1  101.33    5.34
  -9   0   1  115.72    5.90
   8   0  -1    0.38    0.64
  -8   0   1    0.32    0.72
  -8   0   1   -0.20    0.71
  -8   0   1    0.04    0.83
  -7   0   1   62.18    3.95
  -7   0   1   62.20    3.46
  -7   0   1   56.16    3.63
   7   0  -1   60.80    3.34
  -6   0   1    0.17    0.53
  -6   0   1    0.47    0.48
   6   0  -1   -0.15    0.38
  -6   0   1    0.34    0.65
  -5   0   1    2.02    0.73
  -5   0   1    1.11    0.49
   5   0  -1    1.30    0.53
  -5   0   1    2.48    0.72
  -4   0   1    0.48    0.33
  -4   0   1    0.22    0.37
  -4   0   1    0.33    0.32
   4   0  -1    0.48    0.33
  -3   0   1  143.67    6.41
   3   0  -1  154.57    5.63
   2   0  -1    3.24    0.35
  -2   0   1    3.36    0.46
   2   0  -1    1.99    0.43
  -1   0   1  657.44   25.99
  -1   0   1  641.57   22.83
   0   0   1    0.32    0.13
   0   0  -1    0.05    0.06
   0   0  -1    0.09    0.06
   1   0   1  173.10    7.38
   2   0   1    2.23    0.45
  -2   0  -1    3.99    0.56
   2   0   1    3.91    0.52
   4   0   1    0.15    0.34
  -4   0  -1    0.23    0.26
  -4   0  -1    0.22    0.42
  -4   0  -1    0.55    0.35
   5   0   1  411.00   15.33
  -6   0  -1    0.52    0.56
   6   0   1    0.68    0.56
  -6   0  -1    0.44    0.45
  -6   0  -1    0.55    0.62
   7   0   1  377.24   15.05
  -7   0  -1  404.57   16.51
  -7   0  -1  403.49   15.59
  -7   0  -1  376.99   15.87
  -8   0  -1   -0.34    0.75
  -8   0  -1   -0.19    0.69
   8   0   1    0.52    0.73
  -8   0  -1    0.37    0.69
  -9   0  -1   43.72    3.60
  -9   0  -1   50.51    3.65
   9   0   1   46.60    3.43
 -10   0  -1   -0.78    1.05
  10   0   1    1.69    1.09
 -10   0  -1    0.32    1.03
  11   0   1    7.36    1.89
 -11   0  -1    7.65    1.95
 -11   0  -1    9.17    2.28
 -12   0  -1    0.49    1.32
 -12   0  -1   -1.01    1.44
  12   0   1    0.68    1.28
 -13   0  -1   39.53    4.58
 -13   0  -1   31.85    3.96
 -14   0  -1   -0.33    1.96
  14   0   1    0.47    1.82
  15   0   1   24.18    4.27
 -15   0  -1   30.73    4.68
  15   1  -1   12.29    3.17
 -15   1   1   11.81    3.65
  15  -1  -1   14.66    3.43
 -15  -1   1   16.80    3.95
  14   1  -1    0.98    1.54
 -14  -1   1   -0.15    2.23
 -14   1   1   -0.26    2.15
  14  -1  -1   -0.02    1.79
 -13   1   1   43.02    4.90
  13  -1  -1   35.08    4.43
 -13  -1   1   38.09    4.88
  13   1  -1   32.10    4.20
 -12   1   1    2.51    2.02
 -12  -1   1    3.10    2.13
  12  -1  -1    1.93    1.65
  12   1  -1    1.81    1.51
 -11   1   1   15.97    3.00
  11  -1  -1   15.50    2.77
  11   1  -1   13.15    2.52
 -11  -1   1   15.04    2.99
  10  -1  -1   16.07    2.15
  10  -1  -1   17.85    2.73
 -10   1   1   18.80    2.90
  10   1  -1   16.96    2.62
 -10  -1   1   22.95    3.20
  10   1  -1   18.28    2.12
   9   1  -1   12.29    1.74
  -9  -1   1   15.54    2.60
  -9   1   1   14.04    2.37
  -9   1   1   14.78    1.91
   9   1  -1   12.22    2.13
   9  -1  -1   11.95    1.76
   8   1  -1    0.56    0.65
  -8   1   1    0.69    0.86
  -8   1   1    0.42    0.70
  -8  -1   1    1.04    1.06
   8  -1  -1    0.55    0.69
  -8  -1   1    1.24    0.72
  -8   1   1    0.20    0.71
   7   1  -1  156.06    6.69
  -7   1   1  153.02    7.32
  -7   1   1  159.78    7.49
   7  -1  -1  155.56    6.76
  -7  -1   1  162.08    7.72
  -7   1   1  157.25    7.41
  -7  -1   1  155.67    7.16
  -6  -1   1   23.59    1.70
   6   1  -1   25.48    1.81
  -6   1   1   23.75    1.90
   6  -1  -1   25.71    1.84
  -6   1   1   25.70    2.17
  -6  -1   1   29.44    2.45
  -6   1   1   25.31    2.06
  -5   1   1  285.07   12.25
  -5   1   1  281.49   11.58
  -5  -1   1  287.01   11.98
  -5  -1   1  296.83   11.72
  -5   1   1  274.99   11.30
   5   1  -1  292.72   10.73
  -4   1   1    7.45    0.76
  -4   1   1    5.87    0.88
  -4  -1   1    6.32    0.74
  -4   1   1    5.18    0.81
   4   1  -1    6.43    0.79
  -4   1   1    6.75    1.03
  -3   1   1   42.63    1.85
  -3  -1   1   37.10    2.02
   3   1  -1   40.21    2.20
  -3   1   1   38.37    2.16
   3   1  -1   40.70    1.90
  -3   1   1   41.11    2.13
  -3   1   1   38.23    2.11
  -2   1   1  298.71   12.92
  -2   1   1  321.30   11.08
   2  -1  -1  318.23   11.96
  -2  -1   1  330.77   11.84
  -2  -1   1  290.91   12.87
   2   1  -1  331.12   11.10
   0   1  -1   13.94    0.77
   0  -1   1   11.04    0.67
  -1  -1  -1  320.59   11.70
  -2   1  -1  126.53    5.04
   2   1   1  137.89    5.27
  -2   1  -1  144.19    5.45
  -2  -1  -1  136.20    5.44
  -2   1  -1  129.88    5.16
  -3  -1  -1  253.17    9.95
  -3   1  -1  245.57    9.88
  -3  -1  -1  245.75    9.93
  -3   1  -1  259.65   10.65
  -3   1  -1  243.92    9.38
   3   1   1  277.89   10.45
   3   1   1  247.73    9.46
  -3   1  -1  247.13    9.34
  -4  -1  -1    2.90    0.46
   4   1   1    2.12    0.61
  -4  -1  -1    2.88    0.80
  -4   1  -1    2.21    0.60
  -4   1  -1    2.38    0.61
  -4   1  -1    2.78    0.62
  -4  -1  -1    1.90    0.56
  -4   1  -1    2.15    0.56
  -5   1  -1  120.40    5.39
  -5  -1  -1  135.81    5.43
  -5   1  -1  120.89    5.73
  -5   1  -1  119.26    5.55
  -5  -1  -1  115.44    5.58
  -5  -1  -1  119.44    5.76
   5   1   1  120.42    5.39
  -6   1  -1   58.02    3.37
  -6  -1  -1   57.39    3.43
   6  -1   1   54.28    3.30
  -6  -1  -1   62.49    3.05
  -6   1  -1   55.42    3.28
  -6   1  -1   60.04    3.44
   6   1   1   58.58    3.33
  -6  -1  -1   61.25    3.67
   7   1   1    8.32    1.47
  -7   1  -1   11.66    1.45
  -7  -1  -1    9.98    1.56
  -7   1  -1    8.10    1.46
  -7  -1  -1   12.20    1.24
  -7  -1  -1    9.75    1.73
  -7   1  -1   10.16    1.62
   7  -1   1    9.93    1.59
  -8  -1  -1   20.03    2.43
  -8  -1  -1   31.32    2.85
  -8   1  -1   30.30    2.62
  -8   1  -1   34.39    2.51
  -8   1  -1   31.24    2.69
   8   1   1   28.91    2.46
   8  -1   1   26.24    2.37
  -9   1  -1  117.53    6.22
   9   1   1  106.31    5.78
  -9   1  -1  126.74    6.26
  -9  -1  -1  125.18    6.65
  -9   1  -1  107.97    6.17
   9  -1   1   99.95    5.77
 -10  -1  -1    0.22    0.73
  10   1   1    0.63    0.91
  10  -1   1   -0.94    0.72
 -10  -1  -1    0.55    1.27
 -10   1  -1    0.70    1.20
 -10   1  -1   -0.20    1.06
  11  -1   1   61.18    4.44
 -11  -1  -1   71.10    5.19
 -11   1  -1   62.70    4.73
  11   1   1   64.35    4.38
 -11   1  -1   56.63    4.49
 -12  -1  -1    1.13    1.10
  12   1   1    1.19    1.20
 -12   1  -1    0.84    1.42
  12  -1   1    0.56    1.34
 -12  -1  -1    1.44    1.65
 -12   1  -1    1.27    1.54
 -13   1  -1   13.80    2.79
 -13  -1  -1   13.34    3.16
 -13   1  -1   11.79    2.96
 -14  -1  -1    5.09    2.66
  14   1   1    8.54    2.65
  14  -1   1    5.74    2.52
 -14   1  -1    4.12    2.46
  15   1   1    1.54    1.74
 -15  -1  -1    2.31    2.61
  15  -1   1    0.48    2.04
 -14  -2   1   14.74    3.68
  14  -2  -1   10.89    3.02
  14   2  -1   10.59    2.68
 -14   2   1   17.04    3.90
  13  -2  -1    3.51    2.00
  13   2  -1    3.94    1.92
 -13  -2   1    8.19    2.80
 -13   2   1    6.13    2.57
 -12  -2   1   23.90    3.88
  12   2  -1   17.34    3.12
  12  -2  -1   18.38    3.23
 -12   2   1   26.85    3.82
  11   2  -1   43.49    3.94
 -11  -2   1   47.70    4.79
 -11   2   1   49.63    4.25
  11  -2  -1   39.75    3.86
  10  -2  -1    0.17    1.09
  10  -2  -1    0.10    0.87
 -10   2   1   -0.44    0.94
 -10  -2   1    0.29    1.21
  10   2  -1    0.19    0.96
 -10   2   1    0.53    1.16
  10   2  -1    1.29    1.02
  -9   2   1   91.42    5.17
  -9   2   1   85.20    5.24
   9  -2  -1   76.01    4.52
   9   2  -1   89.76    5.37
   9   2  -1   82.88    4.54
  -9  -2   1   85.78    5.60
   8   2  -1   72.11    3.88
  -8   2   1   71.71    4.40
   8  -2  -1   65.16    3.84
   8   2  -1   67.12    4.35
  -8  -2   1   59.24    4.47
  -8   2   1   71.29    4.26
  -8   2   1   79.06    4.47
  -7   2   1   24.32    2.19
   7   2  -1   23.90    2.29
  -7  -2   1   24.43    2.77
  -7   2   1   26.24    2.55
  -7   2   1   27.56    2.27
   7   2  -1   25.29    1.95
  -7  -2   1   25.40    1.75
  -6   2   1  211.56    8.92
   6   2  -1  207.26    8.22
  -6   2   1  201.88    9.35
  -6   2   1  201.54    8.73
  -6   2   1  215.81    8.06
  -6  -2   1  207.68    8.82
   6   2  -1  203.21    9.07
  -6  -2   1  192.16    9.16
  -5   2   1    3.89    0.70
  -5   2   1    3.80    0.90
  -5   2   1    3.94    0.87
   5   2  -1    2.32    0.80
   5   2  -1    5.47    0.87
  -5  -2   1    4.44    0.67
  -5   2   1    3.99    0.86
  -4   2   1  104.82    5.11
  -4   2   1  108.65    4.38
  -4   2   1  109.11    4.79
  -4  -2   1   96.07    5.14
   4   2  -1  109.87    4.46
  -4   2   1  110.50    4.79
  -4  -2   1  105.63    4.76
  -3   2   1  440.82   16.01
  -3   2   1  405.73   17.40
   3   2  -1  442.46   15.01
  -3   2   1  449.42   15.05
  -3   2   1  410.58   15.45
  -3  -2   1  405.89   17.21
  -3  -2   1  419.15   16.07
   3   2  -1  402.60   16.18
  -2  -2   1   29.25    2.00
   2  -2  -1   32.03    1.59
   2   2  -1   32.66    1.57
  -2   2   1   33.48    1.70
   2   2  -1   33.75    1.81
  -2  -2   1   29.08    1.79
  -1   2   1  291.31   11.66
   1  -2  -1  279.41   10.58
   1  -2  -1  280.08   10.32
  -1   2   1  294.34   10.23
  -1  -2   1  243.23   11.92
   1   2  -1  302.04   10.16
   0   2  -1  145.73    5.62
   0  -2  -1  147.63    5.62
   0  -2   1  140.99    6.57
   0   2   1  138.16    5.40
   0   2  -1  141.34    5.76
   0  -2  -1  154.61    5.50
   0   2   1  150.82    6.14
   0  -2   1  141.00    5.55
   1   2   1  182.70    6.78
  -2   2  -1   47.17    2.15
  -2  -2  -1   36.89    2.44
  -2   2  -1   39.76    2.18
   2   2   1   47.27    2.26
  -2   2  -1   45.14    1.98
   2   2   1   49.13    1.98
  -2  -2  -1   48.58    2.23
  -2   2  -1   49.53    2.55
  -3   2  -1   59.12    2.85
  -3   2  -1   61.60    3.19
  -3  -2  -1   49.52    3.18
  -3   2  -1   60.46    2.68
  -3  -2  -1   59.63    2.94
   3   2   1   61.87    2.95
  -3   2  -1   67.36    2.95
  -4  -2  -1   97.91    4.66
  -4   2  -1  106.50    4.61
  -4   2  -1  103.29    4.43
  -4   2  -1   93.51    4.28
  -4   2  -1  103.58    4.96
   4   2   1  102.72    4.56
  -4  -2  -1   98.28    5.06
  -5   2  -1  233.08    9.06
   5   2   1  237.42    9.29
  -5  -2  -1  233.69    9.97
  -5   2  -1  228.99    9.15
  -5  -2  -1  220.86    9.65
  -5   2  -1  238.77    9.64
  -5   2  -1  231.81   10.27
  -6   2  -1    1.23    0.67
  -6   2  -1    1.59    0.70
   6   2   1    1.28    0.69
  -6  -2  -1    0.63    0.86
  -6   2  -1    1.40    0.70
  -6   2  -1    0.84    0.57
  -6  -2  -1    0.77    0.57
  -7   2  -1  116.83    5.83
  -7   2  -1  117.21    5.97
  -7   2  -1  110.53    5.55
   7   2   1  115.56    5.61
  -7  -2  -1  114.53    5.86
  -7  -2  -1  116.44    6.18
  -8  -2  -1   36.56    2.93
  -8   2  -1   38.06    2.90
  -8   2  -1   34.70    2.85
   8  -2   1   36.72    2.89
  -8  -2  -1   40.67    3.31
   8   2   1   36.74    2.79
  -8   2  -1   38.70    2.95
   9   2   1   34.51    2.85
  -9   2  -1   38.07    3.00
  -9   2  -1   37.04    3.08
  -9  -2  -1   36.60    3.65
   9  -2   1   35.76    3.01
  -9  -2  -1   31.70    2.93
  -9   2  -1   36.72    3.10
  10   2   1   24.24    2.71
 -10   2  -1   27.25    3.06
 -10  -2  -1   27.47    3.00
 -10  -2  -1   27.01    3.41
  10  -2   1   24.95    2.83
 -10   2  -1   29.95    3.14
 -11  -2  -1    5.34    1.72
 -11   2  -1    5.66    1.91
  11  -2   1    5.51    1.64
  11   2   1    4.01    1.53
 -11  -2  -1    5.88    2.05
 -11   2  -1    5.33    1.82
 -12  -2  -1   10.34    2.76
  12   2   1   12.99    2.36
  12  -2   1    8.55    2.08
 -12   2  -1   11.13    2.63
 -12  -2  -1    9.91    2.28
 -12   2  -1   14.51    2.79
 -13   2  -1   17.55    3.18
  13   2   1   16.87    3.20
 -13  -2  -1   19.51    3.67
 -13   2  -1   23.47    3.67
 -14  -2  -1    0.62    2.27
  14  -2   1    0.31    2.18
  14   2   1    0.18    1.63
 -14   2  -1    1.81    2.09
  14   3  -1   -0.53    1.42
 -14   3   1   -0.66    2.11
 -14  -3   1    0.86    2.22
  14  -3  -1    0.25    1.68
  13   3  -1    9.30    2.47
  13  -3  -1   10.60    2.95
 -13   3   1   15.08    3.40
 -13  -3   1   12.36    3.38
 -12  -3   1   26.48    3.98
 -12   3   1   20.35    3.42
  12   3  -1   18.38    3.13
  12  -3  -1   21.73    3.51
  11  -3  -1    0.48    1.34
 -11   3   1    1.25    1.47
  11   3  -1    0.79    1.32
 -11  -3   1    1.02    1.58
  10  -3  -1   93.37    5.26
 -10   3   1   98.01    5.97
 -10  -3   1  104.66    6.53
  10   3  -1   87.60    5.79
  10  -3  -1   93.25    6.06
  10   3  -1   91.60    5.07
 -10   3   1   96.46    5.83
   9   3  -1    0.46    0.66
  -9  -3   1   -1.05    1.01
  -9   3   1    0.61    1.12
  -9   3   1    1.17    0.98
   9  -3  -1    0.89    0.96
   9   3  -1    0.87    1.06
  -8   3   1   54.72    3.67
   8   3  -1   46.31    3.58
   8   3  -1   55.97    3.28
  -8   3   1   53.07    3.67
  -8   3   1   56.92    3.13
  -8   3   1   54.04    3.72
  -8  -3   1   49.67    4.04
   7   3  -1   69.06    3.67
  -7   3   1   69.75    4.01
  -7  -3   1   68.33    3.40
  -7   3   1   66.29    4.00
  -7   3   1   65.01    4.13
  -7   3   1   68.80    3.50
  -6   3   1    4.50    0.99
  -6   3   1    2.24    0.87
  -6   3   1    3.22    1.01
   6   3  -1    3.35    0.82
  -6  -3   1    0.50    0.62
  -6   3   1    3.69    0.78
   6   3  -1    0.13    0.57
  -6  -3   1    3.61    0.66
  -5   3   1   70.61    4.00
  -5  -3   1   63.92    4.20
  -5   3   1   76.29    3.73
   5   3  -1   76.47    3.98
  -5  -3   1   70.82    3.43
   5   3  -1   65.15    3.37
  -5   3   1   72.55    3.75
  -5   3   1   73.23    3.43
  -4   3   1  116.00    5.92
  -4   3   1  126.28    5.43
   4   3  -1  123.45    5.65
   4   3  -1  123.12    5.12
  -4   3   1  131.36    5.43
  -4   3   1  122.90    5.16
  -4  -3   1  127.03    5.60
  -4  -3   1  119.06    6.07
   3   3  -1   10.24    1.10
  -3   3   1    8.76    1.01
   3  -3  -1    7.65    1.03
  -3  -3   1    8.74    0.90
  -3  -3   1    8.13    1.39
  -3   3   1    8.14    1.08
   3   3  -1    8.07    0.89
  -3   3   1    9.22    0.81
  -2  -3   1  657.40   28.67
   2  -3  -1  718.67   25.16
   2  -3  -1  730.39   25.91
   1  -3  -1   10.58    0.91
   1   3  -1   11.62    0.94
  -1  -3   1    8.74    1.14
  -1  -3   1   11.80    1.35
   1   3  -1   10.90    0.93
  -1   3   1    7.86    0.95
  -1   3   1   10.52    0.94
   0  -3   1   10.38    0.91
   0  -3  -1   12.33    0.58
   0   3  -1   13.15    1.10
   0   3   1    8.16    0.89
   0   3  -1   12.17    0.90
   0   3   1   11.61    0.92
   0  -3   1   12.17    1.20
   0  -3  -1   10.54    0.95
   1  -3   1   45.22    2.00
  -1  -3  -1   38.20    2.29
   1   3   1   44.17    2.08
   1   3   1   41.50    2.08
  -1   3  -1   46.17    1.93
  -1   3  -1   30.52    2.09
  -2  -3  -1    4.00    0.58
  -2   3  -1    3.84    0.51
   2   3   1    4.26    0.44
   2   3   1    4.77    0.73
  -2   3  -1    2.59    0.63
  -2   3  -1    1.28    0.46
   2  -3   1    3.54    0.54
  -3   3  -1  263.50   10.36
  -3   3  -1  272.28   11.80
  -3  -3  -1  271.50   10.77
   3  -3   1  272.66   10.23
  -3   3  -1  295.02   10.69
   3   3   1  263.82   10.30
  -4   3  -1  124.84    5.28
  -4  -3  -1  120.25    5.41
  -4   3  -1  119.80    5.00
  -4   3  -1  121.91    5.23
  -4   3  -1  119.99    5.85
  -4  -3  -1  109.46    5.85
   4   3   1  120.00    5.27
   5   3   1   46.63    2.76
  -5   3  -1   42.06    2.47
  -5   3  -1   50.36    2.74
  -5   3  -1   44.29    2.64
  -5  -3  -1   41.15    2.68
  -5  -3  -1   38.45    3.10
  -5   3  -1   44.72    2.90
  -6   3  -1  184.29    7.83
   6   3   1  177.39    7.56
  -6  -3  -1  167.47    8.26
  -6  -3  -1  164.84    7.80
  -6   3  -1  173.28    7.37
  -6   3  -1  174.45    8.29
  -6   3  -1  174.93    7.33
   7   3   1    4.82    1.19
  -7   3  -1    5.51    1.14
  -7   3  -1    5.97    1.36
  -7  -3  -1    6.81    1.67
  -7  -3  -1    7.08    1.36
  -7   3  -1    5.68    1.25
  -7   3  -1    5.63    1.22
  -8  -3  -1   54.72    3.71
  -8   3  -1   52.52    3.47
  -8   3  -1   53.18    3.26
  -8   3  -1   55.76    3.72
   8   3   1   51.60    3.45
  -8  -3  -1   44.93    3.87
  -8   3  -1   54.11    3.64
  -9  -3  -1   14.74    2.58
   9   3   1   14.24    2.11
  -9   3  -1   15.89    2.20
  -9  -3  -1   12.51    2.10
  -9   3  -1   16.61    2.24
   9  -3   1   16.08    2.37
  -9   3  -1   14.05    2.17
 -10   3  -1    1.70    1.28
  10   3   1    1.74    1.03
 -10   3  -1    1.63    1.21
  10  -3   1    1.53    1.20
 -10  -3  -1    0.95    1.35
 -10   3  -1    0.08    1.25
 -10  -3  -1    0.04    0.96
 -11  -3  -1   28.36    3.27
 -11  -3  -1   25.62    3.67
  11   3   1   30.59    3.16
 -11   3  -1   34.90    3.64
  11  -3   1   29.93    3.34
 -11   3  -1   33.87    3.58
  12   3   1    5.69    1.82
 -12  -3  -1    7.61    2.42
 -12   3  -1    9.32    2.37
  12  -3   1    6.43    2.09
 -12   3  -1    6.47    2.18
 -13  -3  -1    5.84    2.46
 -13   3  -1    9.13    2.65
  13   3   1    4.34    2.01
 -13   3  -1    4.97    2.05
  14   3   1   11.54    2.89
  14  -3   1   16.31    3.68
 -14  -3  -1   16.97    3.68
 -14   4   1   32.07    4.57
  14  -4  -1   25.52    4.49
 -14  -4   1   25.17    4.49
  14   4  -1   22.48    3.78
 -13  -4   1    1.61    2.15
 -13   4   1    1.68    1.98
  13   4  -1    1.50    1.89
  13  -4  -1    0.01    1.97
 -12   4   1   23.32    3.65
  12   4  -1   20.14    3.44
  12  -4  -1   24.45    3.75
 -12  -4   1   26.72    4.05
 -11  -4   1    1.20    1.71
 -11   4   1    1.25    1.34
  11   4  -1   -1.00    1.09
 -11   4   1    2.13    1.69
  11  -4  -1    2.62    1.70
  10   4  -1    2.10    1.13
 -10   4   1    2.93    1.56
  10  -4  -1    1.13    1.38
 -10  -4   1    0.77    1.65
  10   4  -1    2.58    1.42
 -10   4   1    3.37    1.42
  -9   4   1    4.13    1.55
  -9   4   1    5.33    1.60
   9   4  -1    6.53    1.39
  -9   4   1    5.89    1.23
  -9  -4   1    5.63    1.93
  -8   4   1   80.28    4.58
   8   4  -1   57.48    4.29
   8   4  -1   72.57    4.05
  -8   4   1   81.59    4.85
  -8   4   1   72.97    3.87
  -8   4   1   71.93    4.46
  -7   4   1   24.43    1.91
  -7   4   1   21.15    2.13
  -7   4   1   20.63    2.27
  -7   4   1   18.83    2.22
   7   4  -1   23.48    1.96
   7   4  -1   19.34    2.26
  -6   4   1  298.33   11.32
  -6  -4   1  272.40   12.67
  -6   4   1  293.98   13.19
  -6   4   1  319.93   12.19
   6   4  -1  292.75   11.37
  -6   4   1  277.56   11.74
   6   4  -1  293.09   12.39
  -6  -4   1  297.13   12.22
   5   4  -1   18.31    1.54
  -5   4   1   21.02    1.68
  -5   4   1   20.90    1.79
  -5   4   1   19.97    1.88
  -5   4   1   20.67    1.65
  -5  -4   1   16.52    2.34
   5   4  -1   17.54    1.87
  -5  -4   1   20.65    1.52
  -4   4   1  242.10    9.21
  -4  -4   1  224.76    9.85
   4  -4  -1  212.90    9.23
   4   4  -1  231.27    9.57
  -4   4   1  226.35   10.29
  -4   4   1  231.25    9.02
   4   4  -1  227.85    8.86
   3   4  -1   34.98    2.02
  -3  -4   1   27.30    2.70
  -3  -4   1   37.31    2.41
  -3   4   1   33.39    2.19
   3   4  -1   36.67    2.20
   3  -4  -1   33.54    2.15
   2  -4  -1   25.20    1.70
   2   4  -1   25.26    1.66
  -2   4   1   23.47    1.78
  -2   4   1   24.94    1.81
  -2  -4   1   24.92    2.08
   2   4  -1   25.91    1.67
   2  -4  -1   26.27    1.28
  -2  -4   1   23.04    2.02
   1  -4  -1    5.17    0.83
   1   4  -1    7.85    0.87
  -1   4   1    5.63    0.84
  -1  -4   1    6.17    1.14
   1   4  -1    4.66    0.82
  -1  -4   1    3.21    0.80
  -1   4   1    4.11    0.83
   0   4  -1  218.70    8.63
   0   4   1  220.97    9.38
   0   4  -1  213.34    8.60
   0  -4   1  232.92    9.97
   0   4   1  231.29    8.21
   0  -4   1  202.77    8.55
   0  -4  -1  209.52    8.63
   1   4   1   44.43    2.47
   1   4   1   50.02    2.56
   1  -4   1   53.37    2.53
  -1  -4  -1   52.60    2.25
  -1   4  -1   42.94    2.68
  -1  -4  -1   48.71    2.83
  -1   4  -1   51.32    2.24
  -2  -4  -1  449.57   17.14
  -2   4  -1  460.18   19.02
  -2  -4  -1  415.05   17.22
   2   4   1  434.50   16.42
   2  -4   1  458.25   16.49
   2   4   1  469.40   18.42
  -2   4  -1  489.84   17.01
  -3  -4  -1    5.89    1.24
  -3  -4  -1   11.62    0.96
  -3   4  -1    9.94    0.91
  -3   4  -1   10.35    1.34
  -3   4  -1   11.03    1.36
   3  -4   1    9.97    1.04
  -3  -4  -1   11.22    1.12
   3   4   1   10.26    1.20
   4  -4   1  217.63    8.99
   4   4   1  226.48    9.13
  -4   4  -1  225.96    9.18
  -4   4  -1  226.55   10.36
  -4   4  -1  250.27    9.32
  -4  -4  -1  228.81    9.48
  -5   4  -1    9.69    1.22
  -5   4  -1    8.99    1.35
  -5   4  -1    9.95    1.49
   5   4   1   12.35    1.50
  -5   4  -1   10.01    1.25
  -5  -4  -1    9.67    1.33
  -5  -4  -1    7.40    1.69
  -6   4  -1   14.60    1.56
  -6   4  -1   12.67    1.58
  -6   4  -1   13.59    1.59
  -6  -4  -1   15.51    2.44
  -6   4  -1   12.61    1.75
  -6  -4  -1   12.77    1.65
   6   4   1   12.82    1.67
  -7   4  -1   20.29    2.01
  -7  -4  -1   20.39    2.74
  -7  -4  -1   17.90    2.11
  -7   4  -1   18.05    2.17
  -7   4  -1   22.80    2.10
   7   4   1   20.13    2.15
  -7   4  -1   20.90    1.93
  -8  -4  -1   38.16    3.11
  -8  -4  -1   42.14    3.71
  -8   4  -1   40.92    2.91
   8   4   1   39.35    3.04
  -8   4  -1   39.81    2.93
  -8   4  -1   45.82    3.41
  -8   4  -1   51.07    3.42
  -9  -4  -1    6.43    2.00
  -9   4  -1    4.48    1.48
  -9   4  -1    5.22    1.44
  -9  -4  -1    5.41    1.58
  -9   4  -1    5.68    1.37
  -9   4  -1    7.53    1.76
   9   4   1    5.66    1.46
  10   4   1   78.44    4.80
 -10  -4  -1   70.73    5.42
 -10  -4  -1   66.51    4.75
 -10   4  -1   84.05    5.29
 -10   4  -1   76.67    5.06
 -10   4  -1   74.45    4.82
 -11   4  -1    0.90    1.53
  11  -4   1    1.07    1.18
  11   4   1    0.02    1.10
 -11  -4  -1    0.70    1.49
 -11   4  -1   -1.40    1.32
  12  -4   1   42.76    4.23
 -12   4  -1   45.45    4.28
 -12   4  -1   50.41    4.32
 -12  -4  -1   49.75    5.02
  12   4   1   46.38    4.43
  12   4   1   49.11    3.98
 -13  -4  -1    6.57    2.65
  13   4   1    5.23    2.20
 -13   4  -1    7.44    2.49
  14   4   1    1.59    1.90
 -14  -4  -1    2.66    2.42
  14  -4   1    4.87    2.57
  14   5  -1    2.36    2.05
 -14  -5   1    3.21    2.31
 -14   5   1    1.75    2.16
 -13   5   1   -0.45    1.71
  13   5  -1    0.46    1.54
 -13  -5   1    0.09    1.84
  13  -5  -1   -0.83    1.85
  12  -5  -1   18.51    3.50
 -12   5   1   28.88    3.83
  12   5  -1   10.20    2.43
 -12  -5   1   21.83    3.87
 -11   5   1   -0.04    1.54
  11  -5  -1    0.36    1.45
 -11   5   1   -0.09    1.36
 -11  -5   1   -0.29    1.45
  11   5  -1    0.92    1.07
  10  -5  -1   44.63    4.02
  10   5  -1   50.50    3.51
 -10   5   1   40.99    3.08
 -10   5   1   49.81    4.01
 -10  -5   1   46.90    4.78
 -10   5   1   49.51    3.96
  10   5  -1   42.92    3.87
   9   5  -1    9.93    2.02
   9  -5  -1    8.74    2.16
  -9   5   1   11.63    2.15
  -9   5   1    7.82    1.90
   9   5  -1    7.38    1.58
  -9   5   1   10.77    1.64
  -8   5   1   73.92    4.63
   8   5  -1   89.72    4.57
  -8   5   1   85.04    4.37
  -8   5   1   95.64    5.04
   8   5  -1   81.32    5.02
  -8   5   1   81.81    5.16
  -8  -5   1   61.84    5.06
   7   5  -1   -0.14    0.77
   7   5  -1    0.26    0.67
  -7   5   1    0.42    0.76
  -7   5   1    0.33    0.72
  -7  -5   1    0.04    0.97
  -7   5   1    0.23    0.71
  -7   5   1   -0.28    0.71
   6   5  -1    1.02    0.74
  -6  -5   1    1.86    0.65
  -6   5   1    1.21    0.83
  -6   5   1    2.50    0.87
  -6   5   1    1.74    0.83
  -6  -5   1    0.76    0.93
   6  -5  -1    0.18    0.68
   6   5  -1    0.21    0.70
  -5   5   1    0.61    0.52
  -5   5   1    1.10    0.67
  -5   5   1    0.04    0.59
   5   5  -1    0.23    0.55
   5   5  -1   -0.43    0.55
   5  -5  -1    1.21    0.71
  -5  -5   1    0.30    0.76
  -5  -5   1    0.79    0.61
   4   5  -1  233.40    8.94
  -4  -5   1  189.93    9.81
   4  -5  -1  218.27    9.25
  -4   5   1  221.99    9.12
  -4  -5   1  240.30   10.05
   4   5  -1  238.93    9.56
   3   5  -1    1.83    0.69
  -3  -5   1    2.81    1.06
   3  -5  -1    0.96    0.53
  -3  -5   1    1.67    0.87
  -3   5   1    1.25    0.71
   3   5  -1    0.75    0.49
  -3   5   1    0.91    0.60
   2   5  -1  346.73   12.69
  -2   5   1  318.58   13.82
  -2  -5   1  280.29   12.79
  -2  -5   1  333.70   14.31
   2   5  -1  328.57   12.20
   2  -5  -1  323.28   12.39
  -2   5   1  311.88   12.43
   2  -5  -1  320.82   11.99
  -1  -5   1    0.55    0.54
  -1   5   1    0.15    0.43
  -1  -5   1    0.97    0.68
   1   5  -1    0.88    0.54
   1   5  -1    1.50    0.55
  -1   5   1    0.30    0.41
   1  -5  -1    1.06    0.53
   0   5   1  252.04    9.33
   0  -5   1  240.22    9.88
   0   5   1  253.46   10.76
   0   5  -1  239.28    9.73
   0   5  -1  246.24    9.89
   0  -5  -1  246.09    9.98
   0  -5   1  260.44   11.38
  -1   5  -1    2.12    0.42
   1   5   1    1.16    0.44
  -1   5  -1    1.01    0.62
   1  -5   1    1.86    0.65
   1  -5   1    1.17    0.64
   1   5   1    1.02    0.38
  -1  -5  -1    1.17    0.67
   1   5   1    1.65    0.65
  -2   5  -1    6.72    1.18
   2   5   1    6.98    0.86
  -2  -5  -1    5.44    1.17
   2  -5   1    6.66    0.94
  -2  -5  -1    7.56    0.82
   2   5   1    6.36    1.01
  -2   5  -1    7.39    0.70
  -3   5  -1    2.77    0.58
   3  -5   1    2.39    0.68
  -3  -5  -1    2.02    0.59
  -3  -5  -1    3.49    0.73
   3   5   1    2.60    0.75
  -3   5  -1    4.37    1.03
  -3  -5  -1    1.64    0.82
  -4  -5  -1  138.32    6.19
   4  -5   1  135.02    5.93
   4   5   1  141.01    6.14
  -4   5  -1  134.83    6.24
  -4  -5  -1  147.68    6.30
  -4   5  -1  145.96    5.96
  -4  -5  -1  113.80    6.68
  -4   5  -1  143.25    6.94
  -5   5  -1    1.84    0.84
  -5  -5  -1    0.11    0.77
  -5   5  -1    1.95    0.69
  -5   5  -1    2.47    0.93
   5  -5   1    1.73    0.70
   5   5   1    1.44    0.71
  -5  -5  -1    1.09    0.63
  -6  -5  -1  168.67    7.84
   6  -5   1  158.24    7.50
  -6   5  -1  168.50    7.53
  -6   5  -1  162.65    8.43
   6   5   1  178.15    7.65
  -6   5  -1  186.71    7.76
  -6  -5  -1  174.38    8.69
  -7  -5  -1    1.37    0.83
  -7   5  -1    2.12    0.88
  -7   5  -1    1.94    1.01
  -7   5  -1    1.93    0.88
  -7   5  -1    1.22    0.84
  -7  -5  -1    1.73    1.32
   7   5   1    0.81    0.76
  -8   5  -1   80.68    4.43
   8   5   1   79.70    4.57
  -8   5  -1   63.99    4.15
  -8  -5  -1   86.62    5.61
  -8   5  -1   67.05    4.76
  -8   5  -1   87.22    4.78
  -8  -5  -1   67.76    4.46
  -9   5  -1    1.75    1.13
  -9   5  -1    0.87    1.17
  -9   5  -1    0.87    0.94
  -9   5  -1   -0.26    1.03
  -9  -5  -1    2.36    1.08
   9   5   1    2.61    1.14
  -9  -5  -1    2.50    1.68
 -10   5  -1    8.55    2.11
  10   5   1    7.28    1.85
 -10  -5  -1    6.86    2.32
 -10   5  -1    7.24    1.76
 -10   5  -1    8.32    2.03
 -10   5  -1    8.38    1.77
 -11   5  -1    3.05    1.61
  11  -5   1    2.65    1.99
 -11   5  -1    1.05    1.58
  11   5   1    6.86    2.36
  11   5   1    1.64    1.33
 -11  -5  -1    1.35    1.75
 -12  -5  -1   18.94    3.43
  12   5   1   15.88    2.65
 -12   5  -1   20.72    3.20
  12  -5   1   17.53    3.09
 -13   5  -1    0.40    1.75
  13   5   1    0.06    1.26
 -13  -5  -1    2.11    2.06
 -14  -5  -1   19.78    3.97
  14   5   1   16.65    3.50
  14  -5   1   17.46    3.88
 -14  -6   1   21.35    4.20
 -13  -6   1    1.26    2.05
  13   6  -1    2.33    1.96
 -12   6   1   27.62    3.67
  12   6  -1   25.83    3.72
 -12  -6   1   26.74    4.26
 -11   6   1    3.75    1.77
  11   6  -1    2.41    1.57
 -11  -6   1    1.34    1.66
  10  -6  -1    5.36    1.98
 -10   6   1    5.69    1.48
 -10   6   1    3.29    1.50
  10  -6  -1    4.14    1.81
  10   6  -1    4.47    1.37
  10   6  -1    3.06    1.64
 -10  -6   1    0.38    1.14
  -9  -6   1    4.50    2.01
   9   6  -1    3.29    1.53
   9  -6  -1    4.47    1.70
   9  -6  -1    2.56    1.52
   9   6  -1    3.08    1.19
  -9   6   1    2.50    1.36
  -9   6   1    3.80    1.25
  -8   6   1   57.95    4.39
   8   6  -1   64.70    3.92
   8  -6  -1   64.59    4.50
  -8  -6   1   64.40    4.99
  -8   6   1   70.20    3.96
   8   6  -1   63.55    4.36
   7  -6  -1    1.80    1.01
  -7   6   1    1.04    0.84
  -7   6   1    1.95    1.08
   7   6  -1    1.77    0.84
  -7  -6   1    2.76    1.49
   7   6  -1    1.30    1.03
   6  -6  -1  176.54    8.47
  -6   6   1  188.84    9.31
  -6  -6   1  172.32    9.18
   6   6  -1  196.65    8.71
  -6   6   1  188.59    8.13
   6   6  -1  192.16    8.05
  -5   6   1    2.73    0.89
   5  -6  -1    2.43    0.93
  -5   6   1    2.56    0.88
   5   6  -1    2.44    0.94
  -5  -6   1    1.98    1.12
  -5   6   1    2.21    0.92
   5   6  -1    3.91    0.99
  -5  -6   1    3.10    0.86
  -4  -6   1  107.28    5.47
   4   6  -1   98.65    4.75
   4   6  -1   99.85    4.92
  -4  -6   1   94.92    5.66
   4  -6  -1   92.18    4.89
  -4   6   1   94.82    4.95
  -3   6   1   27.66    2.34
  -3  -6   1   34.36    2.86
  -3   6   1   26.86    2.30
   3  -6  -1   32.61    2.34
  -3  -6   1   32.14    2.75
   3  -6  -1   30.32    1.69
   3   6  -1   29.31    2.21
   3   6  -1   34.34    2.27
  -2   6   1   55.71    3.48
   2  -6  -1   59.12    3.34
  -2  -6   1   54.13    3.65
  -2  -6   1   60.79    3.91
   2   6  -1   60.83    3.18
   2   6  -1   55.21    3.26
  -2   6   1   57.34    3.51
  -1  -6   1    1.69    0.76
   1   6  -1    2.08    0.76
   1   6  -1    1.81    0.64
   1  -6  -1    1.25    0.63
  -1  -6   1    2.15    0.91
  -1   6   1    2.05    0.73
  -1   6   1    5.11    1.14
   0  -6   1   40.72    3.03
   0  -6  -1   39.08    2.71
   0   6   1   43.67    2.66
   0   6  -1   41.85    2.75
   0  -6   1   38.25    2.65
   0   6  -1   40.52    2.24
   0   6   1   40.89    1.87
  -1   6  -1   63.31    2.81
   1   6   1   63.67    3.43
   1   6   1   55.93    3.36
  -1  -6  -1   57.71    3.66
   1  -6   1   71.28    4.24
  -1   6  -1   62.13    3.69
   1  -6   1   61.79    3.39
   1   6   1   63.08    2.84
  -2  -6  -1  310.89   12.91
  -3   6  -1    9.37    0.91
  -3  -6  -1    8.10    1.67
  -3   6  -1    9.25    1.53
   3  -6   1    7.30    1.13
  -3   6  -1    7.36    1.38
   3   6   1    7.08    1.23
  -3  -6  -1    9.58    1.26
  -4  -6  -1  194.12    8.88
  -4  -6  -1  240.56    9.66
  -4  -6  -1  192.11    9.73
   4   6   1  221.32    8.94
   4  -6   1  208.71    8.73
  -4   6  -1  199.43    9.02
  -4   6  -1  233.15    8.73
  -5   6  -1   34.10    2.22
  -5  -6  -1   29.53    2.29
   5   6   1   30.32    2.41
  -5   6  -1   31.10    2.60
  -5  -6  -1   32.79    3.51
  -5  -6  -1   33.85    1.95
  -5   6  -1   28.30    2.59
   5  -6   1   29.07    2.24
  -6   6  -1    7.37    1.59
  -6  -6  -1    8.10    1.41
  -6   6  -1   10.48    1.45
   6  -6   1    8.91    1.54
   6   6   1   10.20    1.64
  -6   6  -1    9.86    1.65
  -7  -6  -1   11.06    2.43
   7   6   1   15.10    2.04
  -7  -6  -1   11.07    1.80
  -7   6  -1   13.78    2.13
   7  -6   1   13.59    1.98
  -7   6  -1   15.78    1.90
  -7   6  -1   15.43    2.02
  -8   6  -1   24.75    2.52
  -8   6  -1   24.88    2.87
   8   6   1   22.77    2.54
  -8  -6  -1   24.36    3.50
   8  -6   1   21.94    2.65
  -8   6  -1   23.09    2.49
  -8  -6  -1   23.43    2.59
  -9  -6  -1   11.16    2.54
   9   6   1   10.11    1.95
  -9   6  -1    8.46    1.75
  -9   6  -1    8.94    1.99
  -9   6  -1    9.37    2.04
   9  -6   1    8.70    1.97
  10  -6   1   59.12    4.72
  10   6   1   60.79    4.35
 -10   6  -1   61.08    4.09
 -10  -6  -1   63.42    5.20
 -10   6  -1   63.68    4.60
  10   6   1   61.48    4.62
  11  -6   1    0.46    1.61
 -11  -6  -1    0.83    1.73
 -11   6  -1    0.77    1.48
 -11   6  -1    0.24    1.10
  11   6   1    0.37    1.43
  11   6   1   -0.04    1.21
  12   6   1   29.64    3.47
 -12   6  -1   32.26    3.90
  12   6   1   32.61    3.98
  12  -6   1   27.41    3.90
 -12  -6  -1   30.38    4.39
  13   6   1    1.66    1.75
 -13  -6  -1    0.86    2.04
 -14  -6  -1    5.09    2.72
  14   6   1    0.86    2.00
  13   7  -1    7.34    2.63
 -13  -7   1   11.09    3.26
 -12  -7   1    8.82    2.78
 -12   7   1   10.37    2.56
  12  -7  -1    8.56    2.61
  12   7  -1    8.24    2.62
 -11   7   1    3.01    1.79
 -11  -7   1   -0.19    1.26
  11   7  -1    3.05    1.79
  11  -7  -1    1.23    1.63
  10   7  -1   36.18    3.77
 -10   7   1   33.20    3.78
 -10  -7   1   36.70    4.47
  10   7  -1   34.74    3.10
 -10   7   1   35.82    3.05
  10  -7  -1   32.09    4.00
  -9   7   1    1.55    1.06
   9   7  -1    3.49    1.56
   9  -7  -1    1.46    1.26
  -9  -7   1    3.02    1.83
  -9   7   1    2.00    1.35
   9   7  -1    2.61    1.16
  -8   7   1   15.47    2.07
   8   7  -1   20.65    2.39
  -8  -7   1   15.46    2.98
  -8   7   1   14.76    2.46
   8   7  -1   20.78    2.62
   8  -7  -1   17.21    2.61
   7   7  -1   35.74    2.99
  -7   7   1   29.34    2.98
   7  -7  -1   26.55    2.97
  -7  -7   1   36.97    3.99
  -7   7   1   30.98    2.60
   7   7  -1   26.60    2.43
   6   7  -1    0.31    0.70
   6   7  -1    1.01    0.89
  -6   7   1    0.03    0.79
  -6  -7   1    0.55    1.02
  -6   7   1   -0.16    0.75
   6  -7  -1    0.51    0.81
   5   7  -1   55.06    3.40
   5  -7  -1   56.25    3.20
   5   7  -1   58.64    3.58
  -5   7   1   52.26    3.53
  -5  -7   1   52.15    4.15
   5  -7  -1   55.37    3.70
   4   7  -1   55.23    3.40
   4  -7  -1   54.57    2.92
   4   7  -1   59.62    3.51
  -4   7   1   54.38    3.79
  -4  -7   1   54.83    4.12
  -4  -7   1   66.34    4.19
  -4   7   1   53.54    3.64
   4  -7  -1   57.97    3.61
   3   7  -1   21.08    2.11
  -3  -7   1   22.12    2.58
  -3   7   1   22.52    2.15
   3  -7  -1   23.36    2.26
  -3   7   1   19.28    2.25
   3   7  -1   24.79    1.94
  -3  -7   1   24.93    2.86
  -2   7   1  219.53    9.76
  -2  -7   1  240.17   11.10
   2   7  -1  235.70    9.58
   2  -7  -1  220.18    9.62
  -2   7   1  233.25   10.57
   2   7  -1  227.41    9.57
  -2  -7   1  217.81   10.14
  -1  -7   1    1.81    1.04
   1   7  -1    1.05    0.79
   1  -7  -1    1.60    0.81
   1   7  -1    1.76    0.66
  -1   7   1    2.56    0.99
  -1   7   1    2.33    0.85
  -1  -7   1    1.51    0.91
   0  -7   1  182.52    9.11
   0  -7   1  172.80    8.02
   0  -7  -1  185.82    8.23
   0   7   1  180.91    8.43
   0   7  -1  181.02    8.06
   1   7   1   87.08    4.44
   1  -7   1   78.82    5.05
  -1   7  -1   83.15    3.56
  -1   7  -1   78.58    4.58
   1  -7   1   83.77    4.39
   1   7   1   78.68    4.38
   1   7   1   85.03    3.66
  -1  -7  -1   80.37    4.70
   2   7   1    1.51    0.60
   2  -7   1    0.69    0.75
  -2   7  -1    1.48    0.43
   2   7   1    1.07    0.70
  -2  -7  -1    1.34    0.79
  -2  -7  -1    0.73    0.78
  -2   7  -1    0.38    0.53
   2  -7   1    2.52    0.85
   3   7   1  127.47    6.05
  -3  -7  -1  121.27    6.74
   3  -7   1  126.82    5.91
  -3   7  -1  123.69    6.70
   3   7   1  130.87    5.77
  -3   7  -1  117.13    6.23
  -3  -7  -1  134.14    6.42
  -3   7  -1  142.99    5.43
   4  -7   1   38.93    2.62
  -4   7  -1   32.66    2.78
  -4   7  -1   31.40    2.81
   4   7   1   39.06    2.54
   4   7   1   34.85    2.66
  -4   7  -1   38.81    2.24
  -4  -7  -1   46.46    2.90
  -4  -7  -1   38.36    3.38
  -5  -7  -1   44.41    3.73
  -5   7  -1   38.31    3.02
   5   7   1   42.12    3.01
  -5   7  -1   46.83    2.69
   5  -7   1   38.83    2.79
   5   7   1   38.53    2.80
  -5   7  -1   38.33    3.17
  -6   7  -1  107.73    6.46
   6  -7   1  103.57    5.65
   6   7   1  123.01    6.03
  -6   7  -1  132.29    5.81
  -6   7  -1  114.80    5.97
   6   7   1  101.46    5.69
  -6  -7  -1  123.94    7.08
   7   7   1    1.82    0.98
  -7   7  -1    0.82    0.97
  -7   7  -1    1.34    1.05
   7  -7   1    0.72    0.86
   7   7   1    1.48    1.14
  -7   7  -1    2.47    1.08
  -7  -7  -1    0.77    1.10
   8   7   1   69.35    4.42
  -8   7  -1   76.85    4.50
   8  -7   1   65.11    4.38
  -8   7  -1   61.94    4.21
  -8   7  -1   58.97    4.60
   8   7   1   67.61    4.54
  -9  -7  -1   20.23    3.38
   9   7   1   15.06    2.35
   9  -7   1   15.08    2.46
  -9   7  -1   16.71    2.49
   9   7   1   14.33    2.43
  -9   7  -1   15.29    2.31
  -9   7  -1   15.87    2.67
  10   7   1    0.73    1.11
  10   7   1    0.69    1.32
 -10  -7  -1   -0.76    1.46
 -10   7  -1    0.16    1.11
  11   7   1   15.23    2.61
 -11  -7  -1   21.39    3.76
  11   7   1   17.71    3.00
 -11   7  -1   16.95    2.63
  11  -7   1   13.85    3.59
  12   7   1    4.19    1.80
  12   7   1    4.02    2.03
 -12  -7  -1    3.73    2.26
 -12   7  -1    5.73    1.88
 -13  -7  -1    4.68    2.41
  13   7   1    4.46    2.15
  13   8  -1    2.33    1.88
 -13  -8   1   -0.81    1.65
 -12  -8   1    1.20    1.78
 -12   8   1   10.31    2.78
  12   8  -1    5.48    2.33
  11   8  -1   21.04    3.34
 -11  -8   1   20.88    3.97
  11  -8  -1   20.99    3.60
 -11   8   1   22.98    3.40
  10  -8  -1    2.34    1.52
 -10   8   1    1.17    1.20
  10   8  -1    0.62    1.57
 -10  -8   1   -0.40    1.65
 -10   8   1    0.64    1.49
  10   8  -1   -0.01    1.13
  -9  -8   1   32.75    4.36
   9   8  -1   40.35    3.34
   9  -8  -1   41.29    4.11
  -9   8   1   37.17    3.69
  -9   8   1   41.41    3.32
   9   8  -1   38.73    3.58
  -8   8   1    5.29    1.72
  -8   8   1    4.42    1.45
   8  -8  -1    5.19    1.63
  -8  -8   1    8.60    2.27
   8   8  -1    7.02    1.66
   8   8  -1    5.45    1.62
   7   8  -1   20.45    2.39
   7  -8  -1   18.78    2.57
  -7   8   1   18.51    2.34
  -7  -8   1   22.04    3.43
   7   8  -1   18.09    2.41
  -7   8   1   18.91    2.68
  -6   8   1   30.41    2.79
  -6  -8   1   37.55    3.99
  -6   8   1   27.82    2.88
   6   8  -1   34.37    2.78
   6   8  -1   39.38    2.99
   6  -8  -1   36.50    3.06
   5   8  -1   12.35    1.87
   5   8  -1   14.07    1.92
  -5   8   1   15.32    2.21
   5  -8  -1   12.87    2.02
  -5   8   1   15.07    2.15
  -5  -8   1   16.78    2.84
  -4  -8   1   67.19    4.48
  -4  -8   1   56.57    4.32
  -4   8   1   51.03    3.81
   4   8  -1   62.15    3.64
   4  -8  -1   54.55    3.71
  -4   8   1   54.67    3.81
   4   8  -1   52.94    3.55
   3   8  -1   78.50    4.19
   3  -8  -1   72.40    4.35
  -3   8   1   68.98    4.43
  -3  -8   1   80.10    5.16
  -3   8   1   74.76    4.62
  -3  -8   1   78.63    5.06
   3   8  -1   69.86    4.25
   2   8  -1    1.33    0.85
   2  -8  -1    1.55    0.90
   2   8  -1    0.89    0.72
  -2  -8   1    1.10    1.13
  -2  -8   1    2.10    1.11
  -2   8   1    1.77    0.85
  -2   8   1    1.38    0.89
  -1   8   1  107.03    5.84
   1   8  -1  107.97    5.70
   1  -8  -1  103.67    5.68
  -1  -8   1  108.24    5.94
  -1  -8   1  114.64    6.50
  -1   8   1  107.24    5.74
   1   8  -1  122.24    5.33
   0   8  -1   70.62    3.40
   0  -8  -1   63.86    4.20
   0   8  -1   68.29    4.23
   0   8   1   67.90    4.07
   0  -8   1   69.22    4.26
   0  -8   1   74.85    4.84
   1  -8   1   44.12    3.63
   1   8   1   47.21    3.04
  -1  -8  -1   42.37    3.35
   1   8   1   50.19    2.47
   1   8   1   41.85    3.14
  -1   8  -1   47.80    2.26
   1  -8   1   41.84    3.06
  -1   8  -1   44.58    3.35
  -2  -8  -1   55.27    3.56
   2  -8   1   50.55    4.00
   2   8   1   47.12    3.31
  -2  -8  -1   50.50    3.77
   2  -8   1   46.90    3.22
   2   8   1   50.80    2.74
  -3   8  -1   13.04    1.12
  -3   8  -1   10.04    1.87
   3  -8   1   11.95    1.72
   3   8   1   11.22    1.35
  -3  -8  -1    9.35    1.94
   3  -8   1    7.86    1.88
  -3  -8  -1   13.24    1.78
   3   8   1   12.38    1.83
   4  -8   1   41.96    2.93
   4   8   1   43.28    2.80
   4   8   1   42.51    3.09
  -4  -8  -1   36.61    3.86
  -4   8  -1   38.15    3.15
  -4  -8  -1   48.55    3.27
   5   8   1   74.48    4.11
   5  -8   1   61.52    3.92
   5   8   1   66.17    4.14
  -5   8  -1   62.13    4.22
  -5  -8  -1   73.69    5.13
   6   8   1    5.60    1.54
  -6   8  -1    4.18    1.44
   6   8   1    5.28    1.42
  -6   8  -1    4.62    1.42
  -6  -8  -1    5.97    2.02
   6  -8   1    5.07    1.33
   7  -8   1   67.57    4.36
  -7  -8  -1   72.14    5.38
  -7   8  -1   61.17    4.29
  -7   8  -1   60.78    4.65
   7   8   1   66.17    4.29
   7   8   1   71.06    4.46
   8   8   1   13.12    2.22
   8   8   1   10.30    2.10
  -8   8  -1   10.44    2.25
  -8  -8  -1    7.01    2.29
  -8   8  -1   11.70    2.15
   8  -8   1   11.03    2.04
   9   8   1   22.89    2.89
   9   8   1   17.09    2.75
  -9   8  -1   17.50    2.56
  10   8   1   28.93    3.26
 -10  -8  -1   32.50    4.35
  10   8   1   22.09    3.16
  10  -8   1   23.90    4.24
 -10   8  -1   29.03    3.20
  11   8   1    1.47    1.54
 -11   8  -1    1.50    1.43
 -11  -8  -1    0.44    1.83
  11   8   1    2.32    1.53
  11  -8   1    1.91    2.06
 -12   8  -1    7.13    2.07
  12   8   1    7.33    2.39
  12   8   1    8.27    2.25
  12  -8   1    9.34    3.23
 -12  -8  -1    6.74    2.65
 -13  -8  -1    9.72    3.12
  13   8   1    9.36    2.76
 -12  -9   1    1.68    2.07
  12   9  -1   -0.02    1.77
 -12   9   1    0.47    1.91
 -11   9   1    3.25    1.90
 -11  -9   1    4.07    2.35
  11   9  -1    5.30    2.28
 -10   9   1    2.68    1.72
 -10  -9   1   -0.15    1.74
 -10   9   1    2.03    1.43
  10   9  -1    5.11    2.05
  10  -9  -1    1.47    1.66
  10   9  -1    3.93    1.54
  -9   9   1   14.82    2.79
   9   9  -1   14.64    2.60
  -9   9   1   13.69    2.33
  -9  -9   1   15.64    3.10
   9   9  -1   18.35    2.59
   9  -9  -1   15.44    2.78
  -8   9   1    1.57    1.31
  -8   9   1    1.25    1.29
   8   9  -1    1.94    1.35
   8  -9  -1    1.58    1.38
  -8  -9   1    0.82    1.41
   8   9  -1    5.77    1.80
  -7   9   1   50.49    4.28
   7   9  -1   59.37    4.02
   7  -9  -1   53.64    4.18
  -7   9   1   47.52    3.75
  -7  -9   1   59.62    4.90
   7   9  -1   50.30    3.88
   6   9  -1   -0.94    0.78
  -6  -9   1    1.08    1.25
  -6   9   1   -1.13    0.80
   6  -9  -1    0.52    1.04
  -6   9   1   -0.56    0.68
   6   9  -1    0.29    0.89
   5  -9  -1   67.94    4.70
   5   9  -1   86.15    4.82
  -5  -9   1   95.01    5.98
   5   9  -1   77.74    4.75
  -5   9   1   87.32    5.12
  -5   9   1   70.81    5.08
  -4   9   1    0.86    0.83
  -4  -9   1    0.99    1.05
  -4  -9   1    1.13    1.23
  -4   9   1   -0.77    0.77
   4   9  -1   -0.02    0.77
   4  -9  -1    1.06    0.99
   4   9  -1   -0.37    0.86
  -3   9   1   38.85    3.15
  -3  -9   1   38.89    3.89
  -3   9   1   34.31    3.12
  -3  -9   1   43.36    3.73
   3   9  -1   35.10    2.99
   3  -9  -1   38.90    3.15
   3   9  -1   40.85    2.90
  -2   9   1   21.36    2.21
  -2  -9   1   23.78    2.91
   2  -9  -1   21.17    2.55
   2   9  -1   22.76    2.58
  -2   9   1   21.93    2.71
  -2  -9   1   19.39    2.75
   2   9  -1   22.44    2.14
   1  -9  -1   28.88    3.01
  -1  -9   1   32.67    3.13
  -1  -9   1   29.56    3.11
   1   9  -1   27.17    2.86
  -1   9   1   27.10    2.89
   1   9  -1   32.85    2.26
  -1   9   1   26.87    2.46
   0  -9  -1    8.13    1.73
   0  -9   1   12.22    2.12
   0   9  -1    9.82    1.79
   0  -9   1    9.98    2.08
   0   9   1   10.69    1.69
   1  -9   1  117.18    7.14
  -1   9  -1  116.46    6.39
  -1  -9  -1  112.92    6.54
  -1  -9  -1  133.61    6.96
   1   9   1  121.71    6.36
   1  -9   1  120.41    6.31
   2  -9   1    0.17    0.75
   2   9   1    0.54    0.68
   2   9   1    1.05    0.83
  -2   9  -1    0.49    0.70
  -2  -9  -1    0.74    0.98
   2  -9   1    0.80    1.06
  -2  -9  -1   -0.02    0.95
  -3  -9  -1  145.51    7.92
  -3   9  -1  140.00    7.33
   3  -9   1  143.64    7.05
   3   9   1  149.40    6.59
   3   9   1  146.92    7.19
  -4  -9  -1   11.83    1.98
  -4   9  -1   10.40    2.01
   4   9   1   11.03    1.55
   4   9   1   11.05    1.94
   4  -9   1    5.75    1.83
   4  -9   1   10.08    1.75
  -4  -9  -1   11.10    2.39
   5   9   1   61.48    3.83
  -5   9  -1   51.09    4.00
  -5  -9  -1   71.44    5.13
   5  -9   1   58.50    3.93
   5   9   1   66.70    4.24
  -6  -9  -1   26.64    3.75
   6   9   1   18.79    2.32
   6   9   1   19.06    2.57
  -6   9  -1   19.67    2.67
   6  -9   1   18.65    2.37
  -7  -9  -1    2.47    1.86
   7   9   1    2.85    1.25
   7  -9   1    2.01    1.18
  -7   9  -1    3.57    1.46
   7   9   1    1.88    1.25
   8   9   1    3.87    1.60
  -8   9  -1    2.74    1.39
  -8  -9  -1    2.42    2.00
   8  -9   1    2.08    1.71
   8   9   1    2.89    1.47
   8  -9   1    3.36    1.39
   9   9   1   51.52    4.26
   9  -9   1   38.40    5.19
   9   9   1   57.13    4.41
  -9   9  -1   51.11    4.09
  -9  -9  -1   58.80    5.26
 -10  -9  -1   -0.75    1.19
  10  -9   1    0.69    1.89
  10   9   1   -0.02    1.39
  10   9   1    0.20    1.60
 -10   9  -1   -0.10    1.24
  11  -9   1   18.20    3.98
 -11  -9  -1   28.03    4.42
 -11   9  -1   24.72    3.18
  11   9   1   24.71    3.65
  11   9   1   24.41    3.34
 -12   9  -1    1.41    1.66
  12   9   1    2.38    2.05
 -12  -9  -1    3.23    2.48
  12  -9   1    3.38    2.80
  12   9   1   -0.15    1.52
 -12  10   1    1.90    1.82
 -12 -10   1    0.75    2.07
  12  10  -1   -0.07    1.79
 -11  10   1   19.98    3.62
  11  10  -1   28.97    3.84
 -11 -10   1   32.53    4.66
 -10  10   1   -1.34    1.25
  10  10  -1    0.72    1.65
 -10 -10   1    1.14    1.64
  10  10  -1   -0.12    1.23
 -10  10   1    0.27    1.56
   9  10  -1   41.59    3.96
  -9  10   1   42.65    3.66
   9  10  -1   39.99    3.86
  -9 -10   1   48.86    5.17
  -9  10   1   38.57    4.11
   9 -10  -1   36.68    4.22
  -8 -10   1    0.85    1.56
   8 -10  -1   -0.38    1.16
  -8  10   1    0.54    1.35
   8  10  -1    0.06    1.36
  -8  10   1    0.14    1.16
   8  10  -1    0.78    1.26
   7 -10  -1   15.04    2.64
  -7  10   1   16.37    2.56
   7  10  -1   17.73    2.54
   7  10  -1   15.31    2.45
  -7 -10   1   21.70    3.59
  -6  10   1    0.06    0.98
  -6 -10   1    1.16    1.43
   6  10  -1    1.05    1.19
  -6  10   1    1.01    1.22
   6 -10  -1    0.33    1.07
   6  10  -1    0.90    1.08
  -5  10   1    1.29    1.11
   5  10  -1    0.72    0.98
  -5 -10   1   -0.65    1.03
  -5  10   1    0.53    1.03
   5  10  -1    0.23    1.11
   5 -10  -1    0.98    1.14
   4  10  -1    0.75    1.01
   4 -10  -1    0.20    0.97
  -4  10   1    0.57    1.09
   4  10  -1    0.07    0.87
  -4 -10   1   -0.11    1.10
  -4  10   1    0.43    0.95
  -4 -10   1    1.06    1.56
  -3  10   1  111.90    6.83
  -3 -10   1  127.86    7.39
   3  10  -1  124.88    6.71
   3  10  -1  138.02    6.51
  -3 -10   1  138.08    7.81
  -3  10   1  117.32    6.71
   3 -10  -1  110.81    6.55
  -2  10   1    2.21    1.34
  -2 -10   1    2.83    1.56
  -2  10   1    2.00    1.04
  -2 -10   1    0.83    1.07
   2 -10  -1    1.77    1.09
   2  10  -1    1.30    1.06
   1  10  -1  168.09    8.24
  -1 -10   1  170.02    8.61
  -1  10   1  149.40    8.37
  -1 -10   1  189.93    9.60
  -1  10   1  179.95    8.49
   1 -10  -1  147.79    8.20
   0  10  -1    0.87    1.10
   0 -10   1    1.09    1.37
   0  10   1    0.19    0.83
   0 -10   1    2.66    1.27
   0 -10  -1    2.45    1.20
  -1 -10  -1   26.58    3.28
  -1 -10  -1   28.70    2.96
   1 -10   1   31.40    3.55
  -1  10  -1   25.66    3.04
   1  10   1   25.71    2.98
   1 -10   1   29.47    3.13
  -2  10  -1    1.28    0.98
  -2 -10  -1    3.44    1.40
  -2 -10  -1    2.16    1.37
   2  10   1    2.65    1.19
   2 -10   1    2.46    1.38
   2 -10   1    1.79    1.12
   3 -10   1    6.56    1.64
  -3 -10  -1    7.80    2.06
  -3 -10  -1    8.80    1.93
  -3  10  -1    5.81    1.66
   3  10   1    6.03    1.64
   3 -10   1    6.46    1.93
   4  10   1    2.74    1.29
   4 -10   1    2.69    1.54
   4 -10   1    4.42    1.34
  -4  10  -1    2.13    1.22
   4  10   1    4.10    1.29
  -4 -10  -1    2.93    1.60
  -5  10  -1   62.50    4.57
  -5 -10  -1   80.06    5.69
   5 -10   1   71.65    4.57
   5  10   1   66.30    4.57
   5  10   1   68.37    4.19
   5 -10   1   62.12    5.46
   6 -10   1   -0.14    1.25
   6  10   1    0.23    1.03
  -6 -10  -1    0.53    1.35
   6  10   1   -0.42    1.08
   6 -10   1   -0.18    0.98
  -6  10  -1   -0.11    1.10
  -7 -10  -1   79.14    5.89
   7 -10   1   63.73    4.60
  -7  10  -1   64.81    4.81
   7  10   1   78.79    4.82
   7  10   1   72.46    4.88
   7 -10   1   66.69    6.05
  -8 -10  -1    0.07    1.74
   8  10   1   -0.56    1.18
   8  10   1    0.11    1.26
  -8  10  -1    0.97    1.33
   8 -10   1    0.11    1.56
  -9 -10  -1   15.60    3.44
   9  10   1   16.54    2.70
  -9  10  -1   17.27    2.80
   9 -10   1   10.24    2.96
   9  10   1   14.13    2.63
 -10  10  -1    0.46    1.57
  10  10   1    2.02    1.62
  10 -10   1    0.70    1.97
  10  10   1   -0.31    1.32
 -10 -10  -1    1.86    2.06
  11 -10   1    1.87    2.41
  11  10   1    2.90    1.82
 -11 -10  -1    0.80    1.60
 -11  10  -1    3.12    1.68
  11  10   1    2.99    1.84
  12  10   1    0.95    1.83
  12 -10   1    2.13    2.29
 -12 -10  -1   -0.43    1.97
  12  10   1    1.07    2.13
 -11  11   1    2.64    1.99
  11  11  -1    6.53    2.42
 -11 -11   1    2.73    1.91
 -10 -11   1    6.42    2.50
 -10  11   1    5.38    2.18
 -10  11   1    6.35    1.95
  10  11  -1    6.51    2.31
  10  11  -1    6.67    2.12
   9 -11  -1    2.05    1.58
   9  11  -1    6.62    2.24
  -9 -11   1    7.89    2.56
  -9  11   1    5.03    2.06
   9  11  -1    4.33    1.69
  -9  11   1    2.79    1.70
   8  11  -1    1.15    1.30
  -8 -11   1    0.92    1.53
  -8  11   1    1.00    1.42
   8 -11  -1    1.27    1.32
   8  11  -1    2.33    1.61
  -8  11   1    0.40    1.32
   7  11  -1   61.90    4.57
  -7  11   1   56.29    4.79
   7  11  -1   65.66    4.67
  -7  11   1   54.21    4.37
  -7 -11   1   67.93    5.49
   7 -11  -1   56.75    4.70
  -6 -11   1    2.41    1.65
   6  11  -1    1.40    1.34
   6 -11  -1    1.25    1.20
  -6  11   1    3.03    1.48
   6  11  -1    0.36    1.13
  -6  11   1    0.42    1.10
   5 -11  -1   84.84    5.60
  -5  11   1   79.63    5.62
   5  11  -1   86.44    5.50
  -5 -11   1   90.87    6.28
  -5  11   1   78.15    5.36
   4 -11  -1    1.60    1.16
  -4 -11   1    1.12    1.46
   4  11  -1    0.42    1.07
  -4  11   1    2.34    1.19
  -4  11   1    2.84    1.43
  -3  11   1    7.40    1.79
  -3 -11   1   11.04    2.61
   3  11  -1   11.92    2.32
  -3  11   1    9.73    2.23
  -3 -11   1    8.05    2.24
   3 -11  -1    8.17    1.91
  -2 -11   1   37.48    3.81
  -2  11   1   31.43    3.01
   2 -11  -1   30.53    3.49
   2  11  -1   28.57    3.28
  -2  11   1   27.23    3.36
  -2 -11   1   38.25    4.09
  -1  11   1    1.50    1.26
   1 -11  -1    1.10    1.33
  -1  11   1    2.75    1.22
  -1 -11   1    3.10    1.62
  -1 -11   1    4.55    1.59
   1  11  -1    2.02    1.23
   0  11   1    9.27    2.09
   0 -11   1   17.90    2.92
   0 -11   1   14.53    2.59
   0  11  -1   15.83    2.60
   0 -11  -1   17.70    2.74
   0 -11  -1   13.61    2.61
  -1  11  -1   62.60    4.56
  -1 -11  -1   66.12    4.85
  -1 -11  -1   64.87    4.91
   1 -11   1   58.92    4.97
   1  11   1   60.23    4.51
   1 -11   1   57.58    4.41
   2 -11   1    6.02    1.62
   2 -11   1    4.78    1.83
   2  11   1    4.80    1.58
  -2 -11  -1    7.99    2.07
  -2 -11  -1    9.74    2.30
  -2  11  -1    6.71    1.79
   3 -11   1   92.94    5.72
  -3  11  -1   99.28    6.08
   3 -11   1   82.02    6.53
  -3 -11  -1  101.42    6.57
   3  11   1   96.64    5.89
  -3 -11  -1  105.74    6.27
   4 -11   1    0.03    1.09
   4 -11   1   -0.49    0.94
  -4  11  -1    0.48    1.14
   4  11   1    2.11    1.28
  -4 -11  -1    0.15    1.48
   5 -11   1   13.19    2.30
   5 -11   1   11.64    2.77
  -5 -11  -1   23.55    3.75
  -5  11  -1   11.04    2.33
   5  11   1   16.05    2.65
   6  11   1   15.22    2.62
   6 -11   1   11.51    2.96
   6 -11   1   16.92    2.63
  -6  11  -1   12.23    2.43
  -6 -11  -1   15.94    3.22
  -7 -11  -1    4.79    2.15
  -7  11  -1    5.46    1.85
   7  11   1    5.25    1.80
   7 -11   1    3.71    2.03
   8 -11   1   11.66    3.17
   8  11   1   11.39    2.52
   8  11   1    7.89    2.15
  -8  11  -1    8.85    2.14
  -8 -11  -1    9.94    2.75
   9  11   1   17.33    2.95
   9  11   1   19.49    3.08
  -9 -11  -1   22.54    4.06
   9 -11   1   15.06    3.60
  -9  11  -1   16.47    2.91
  10 -11   1    0.40    2.08
  10  11   1    1.35    1.53
  10  11   1    1.06    1.81
 -10  11  -1    1.85    1.71
 -10 -11  -1    1.17    2.05
  11 -11   1   14.60    3.97
  11  11   1   21.50    3.38
  11  11   1   23.32    3.63
 -11 -11  -1   26.02    4.53
 -11  11  -1   22.98    3.42
 -10 -12   1    0.29    1.46
  10  12  -1    0.57    1.58
 -10  12   1    0.23    1.60
  -9 -12   1   22.69    4.05
  -9  12   1   14.02    3.18
  -9  12   1   14.89    2.86
   9  12  -1   21.04    3.27
   8  12  -1    6.69    2.19
  -8 -12   1    6.43    2.49
  -8  12   1    6.56    2.22
   8 -12  -1    4.82    2.08
  -7  12   1    6.62    2.17
  -7 -12   1   11.39    2.80
   7  12  -1   10.88    2.47
   7 -12  -1   10.38    2.37
  -7  12   1    9.41    2.34
  -6  12   1   19.94    3.20
  -6  12   1   25.90    3.36
  -6 -12   1   29.40    4.15
   6  12  -1   27.98    3.52
   6 -12  -1   31.12    3.86
   5  12  -1   16.64    2.81
   5 -12  -1   13.93    2.78
  -5  12   1    9.74    2.41
  -5  12   1    8.91    2.20
  -5 -12   1   13.14    2.96
   4  12  -1   11.63    2.36
  -4  12   1   10.77    2.40
  -4  12   1   13.44    2.53
  -4 -12   1   12.61    2.86
   4 -12  -1   11.94    2.59
   3 -12  -1   49.45    4.20
  -3  12   1   46.40    4.02
   3  12  -1   44.59    3.93
  -3  12   1   39.45    4.14
  -3 -12   1   53.45    4.77
  -3 -12   1   46.49    4.83
  -2 -12   1    1.01    1.51
   2  12  -1    0.46    1.21
  -2 -12   1    1.13    1.51
   2 -12  -1    0.39    1.16
  -2  12   1    1.59    1.45
   1 -12  -1   44.28    4.10
  -1  12   1   43.30    3.98
  -1 -12   1   49.97    4.53
  -1 -12   1   47.03    4.22
   1 -12  -1   46.63    4.44
   1  12  -1   48.54    4.05
   0 -12  -1   15.20    2.83
   0  12   1   12.34    2.56
   0 -12  -1   13.71    2.78
   0 -12   1   14.25    2.69
   0 -12   1   19.25    3.22
   0  12  -1   14.94    2.65
  -1 -12  -1   17.52    3.13
   1 -12   1   20.12    3.08
   1  12   1   16.16    2.84
  -1  12  -1   18.75    2.95
  -1 -12  -1   19.95    3.03
   1 -12   1   17.85    3.23
   2 -12   1   27.63    3.45
   2  12   1   31.00    3.62
  -2 -12  -1   31.76    4.12
   2 -12   1   23.31    3.69
  -2  12  -1   21.55    3.14
  -2 -12  -1   30.50    3.49
  -3  12  -1   16.43    2.80
   3  12   1   20.13    3.04
   3 -12   1   16.90    2.75
   3 -12   1   11.69    2.86
  -3 -12  -1   16.71    3.16
   4 -12   1   10.46    2.31
   4 -12   1    1.64    1.53
  -4 -12  -1   10.06    2.64
  -4  12  -1    9.07    2.23
  -5 -12  -1   44.51    5.01
   5  12   1   36.64    3.95
   5 -12   1   35.80    3.84
   5 -12   1   27.67    4.30
  -5  12  -1   35.03    3.91
   6 -12   1   -0.14    1.36
  -6  12  -1    1.52    1.56
  -6 -12  -1    1.71    1.78
   6  12   1    1.86    1.44
   7 -12   1   27.49    4.57
  -7 -12  -1   26.78    4.20
   7  12   1   27.30    3.59
  -7  12  -1   23.11    3.36
   8 -12   1    5.85    2.58
   8  12   1    4.21    1.94
  -8  12  -1    2.80    1.77
  -8 -12  -1    5.71    2.34
   9 -12   1    4.48    2.44
  -9  12  -1    4.80    2.07
   9  12   1    9.22    2.53
  -9 -12  -1   11.39    3.21
 -10  12  -1    8.53    2.51
  10 -12   1    5.59    2.84
  10  12   1    8.79    2.60
 -10 -12  -1    8.78    3.06
  10  13  -1    8.53    2.40
  10 -13  -1    6.20    3.01
 -10 -13   1   12.25    3.08
  -9 -13   1    1.11    1.97
  -9  13   1    1.75    1.73
   9  13  -1    0.38    1.49
  -8 -13   1   15.45    3.35
   8  13  -1   12.27    2.78
  -8  13   1   11.29    2.57
  -7 -13   1   18.77    3.59
   7 -13  -1   11.58    2.91
   7  13  -1   16.08    2.98
  -7  13   1   12.88    2.78
  -7  13   1    8.20    2.35
   6 -13  -1    1.56    1.66
  -6  13   1    3.01    1.70
   6  13  -1    1.08    1.48
  -6  13   1    1.58    1.42
  -6 -13   1   -0.06    1.47
   5 -13  -1   14.88    2.83
   5  13  -1   16.09    2.98
  -5  13   1   16.60    2.95
  -5 -13   1   17.00    3.37
   4 -13  -1   18.92    3.36
   4  13  -1   20.25    3.19
  -4 -13   1   20.30    3.62
  -4  13   1   15.05    2.94
   3  13  -1    4.67    1.79
   3 -13  -1    4.37    2.03
  -3  13   1    4.83    1.97
  -3 -13   1    2.86    2.03
   3 -13  -1    5.77    2.14
  -2 -13   1   46.95    4.57
   2 -13  -1   37.83    4.61
  -2  13   1   44.17    4.43
   2 -13  -1   38.80    4.45
  -2 -13   1   43.99    4.80
   2  13  -1   39.70    4.10
  -1  13   1    0.54    1.39
  -1 -13   1    1.40    1.59
  -1 -13   1    0.82    1.54
   1  13  -1    0.83    1.25
   1 -13  -1    1.18    1.53
   1 -13  -1   -0.31    1.42
   0 -13  -1   41.14    4.28
   0 -13  -1   34.42    4.31
   0  13   1   39.03    4.18
   0 -13   1   39.93    4.45
   0  13  -1   38.93    4.15
   0 -13   1   44.04    4.97
  -1 -13  -1   15.55    3.02
   1  13   1   11.24    2.53
   1 -13   1   14.14    2.80
   1 -13   1   11.43    2.80
  -1  13  -1   10.48    2.45
  -1 -13  -1   13.04    2.82
   2 -13   1   -0.23    1.46
  -2 -13  -1    2.32    1.59
  -2 -13  -1   -0.46    1.38
   2  13   1    0.22    1.36
  -2  13  -1   -0.12    1.42
   2 -13   1   -0.47    1.46
  -3 -13  -1   24.47    3.85
   3 -13   1   23.46    3.36
   3 -13   1   22.20    4.00
  -3  13  -1   12.00    2.62
   3  13   1   17.34    3.02
  -4 -13  -1   23.82    3.97
   4  13   1   26.97    3.65
   4 -13   1   23.83    3.44
   4 -13   1   20.81    3.83
  -4  13  -1   22.12    3.31
  -5  13  -1    0.69    1.39
  -5 -13  -1    1.23    1.75
   5  13   1    1.23    1.42
   5 -13   1    1.76    1.90
  -6 -13  -1   41.70    5.13
   6  13   1   31.14    3.94
   6 -13   1   21.59    4.32
  -6  13  -1   30.11    3.79
  -7 -13  -1    1.50    1.67
   7 -13   1    1.34    1.84
  -7  13  -1   -0.32    1.42
   7  13   1    0.38    1.46
  -8  13  -1   12.27    2.71
   8 -13   1    8.80    3.16
   8  13   1   11.53    2.87
  -8 -13  -1    9.78    2.89
  -9 -13  -1    6.13    2.45
   9  13   1    6.02    2.36
  -9  13  -1    6.44    2.35
   9 -13   1    3.74    2.50
 -10 -13  -1    2.03    1.87
  10 -13   1    1.89    2.35
 -10  13  -1    1.08    1.86
  10  13   1    2.90    1.85
  -9  14   1    2.08    2.01
  -9 -14   1    3.12    2.06
   9  14  -1    0.89    1.85
   9 -14  -1   -0.60    2.00
  -8  14   1   11.28    2.61
   8  14  -1   10.26    2.87
   8 -14  -1    8.10    2.88
  -8 -14   1   11.55    2.99
  -7  14   1    0.40    1.61
  -7 -14   1    0.58    1.73
   7  14  -1    1.82    1.73
   7 -14  -1    1.55    2.22
   6 -14  -1   27.45    4.91
   6 -14  -1   33.22    4.49
   6  14  -1   38.42    4.42
  -6  14   1   38.81    4.24
  -5 -14   1    1.03    1.76
   5 -14  -1    0.44    1.85
   5  14  -1    1.11    1.49
  -5  14   1    1.93    1.59
   5 -14  -1    0.33    1.73
   4  14  -1   16.17    3.03
  -4 -14   1   18.00    3.67
   4 -14  -1   17.59    3.78
  -4  14   1   19.78    3.38
   4 -14  -1   16.31    3.30
   3  14  -1    2.23    1.58
   3 -14  -1    4.42    2.17
  -3 -14   1    3.03    2.12
   3 -14  -1    2.50    2.02
  -3  14   1    4.03    2.01
  -2 -14   1    0.45    1.99
  -2  14   1   -0.09    1.41
   2  14  -1    2.32    1.62
   2 -14  -1   -0.19    1.68
  -2 -14   1    5.56    2.14
   2 -14  -1    2.16    1.85
  -1  14   1   -0.18    1.27
   1 -14  -1    5.10    2.23
  -1 -14   1    6.11    2.30
   1  14  -1    5.36    1.86
   1 -14  -1    5.92    2.17
  -1 -14   1    8.39    2.85
   0 -14  -1    6.03    2.32
   0  14   1    7.40    2.33
   0 -14   1   11.23    2.69
   0  14  -1   10.90    2.68
   0 -14   1   11.13    3.08
   0 -14  -1   12.34    2.93
  -1 -14  -1   -0.44    1.57
  -1 -14  -1    1.98    1.79
   1 -14   1    1.44    2.01
   1  14   1    0.74    1.52
   1 -14   1    1.88    1.83
  -1  14  -1    1.57    1.66
  -2  14  -1   53.94    4.72
   2 -14   1   53.71    4.87
  -2 -14  -1   54.39    5.66
   2 -14   1   53.33    5.50
   2  14   1   58.67    4.90
   3 -14   1    0.32    1.53
   3 -14   1    0.36    1.92
  -3  14  -1   -0.54    1.36
   3  14   1    0.05    1.55
  -3 -14  -1    0.19    1.67
   4  14   1   36.28    4.33
   4 -14   1   27.35    4.64
  -4  14  -1   30.25    3.97
  -4 -14  -1   34.21    4.83
   5  14   1    3.59    1.85
  -5  14  -1    2.62    1.86
  -5 -14  -1    3.59    2.21
   5 -14   1    0.61    1.56
  -6  14  -1    0.78    1.53
   6  14   1    0.54    1.65
  -6 -14  -1    0.27    1.95
   6 -14   1    3.58    2.45
   7  14   1    4.03    1.88
   7 -14   1    0.94    2.16
  -7 -14  -1    4.60    2.29
  -7  14  -1    6.58    2.22
   8  14   1    3.54    1.89
  -8  14  -1    3.79    2.07
  -8 -14  -1    6.06    2.44
   8 -14   1    3.79    2.47
   9  14   1    3.30    2.22
  -9 -14  -1    0.00    1.56
   9 -14   1    2.09    2.28
  -9  14  -1    1.50    1.73
  -7 -15   1    1.18    1.66
  -7  15   1    3.96    2.12
   7 -15  -1   -0.13    2.01
   7  15  -1    1.54    1.65
   6  15  -1   -1.48    1.39
   6 -15  -1    1.56    1.95
  -6  15   1    0.93    1.85
  -6 -15   1   -0.44    1.78
  -5  15   1    1.15    1.59
   5 -15  -1    1.49    2.09
  -5 -15   1    1.12    1.98
   5  15  -1    1.80    1.61
   5 -15  -1    2.05    1.95
  -4 -15   1   10.14    2.98
   4 -15  -1   12.24    3.07
   4  15  -1    7.62    2.53
   4 -15  -1   10.19    3.11
  -4  15   1    7.79    2.52
   3 -15  -1    0.70    2.13
   3 -15  -1    0.71    1.82
  -3 -15   1    0.09    1.75
   3  15  -1    0.25    1.52
  -3  15   1    0.02    1.67
   2 -15  -1   33.45    4.68
  -2  15   1   37.12    4.54
   2  15  -1   44.68    4.75
   2 -15  -1   37.42    5.17
  -2 -15   1   46.72    5.39
  -1  15   1    1.75    1.41
   1 -15  -1    2.57    2.16
  -1 -15   1   -0.58    2.01
  -1 -15   1    3.72    2.18
   1 -15  -1    0.69    1.84
   1  15  -1   -0.63    1.46
   0 -15   1   23.83    4.25
   0 -15   1   21.70    3.90
   0 -15  -1   20.78    3.86
   0  15   1   17.93    3.42
   0 -15  -1   22.68    4.05
   0  15  -1   19.43    3.38
   1 -15   1    2.03    1.97
   1 -15   1    0.08    1.92
  -1 -15  -1    1.26    1.92
   1  15   1   -1.19    1.68
  -1  15  -1   -0.73    1.46
  -1 -15  -1    1.66    1.69
   2  15   1    1.83    1.78
  -2  15  -1    1.33    1.72
   2 -15   1    1.45    1.76
   2 -15   1    1.85    2.16
  -2 -15  -1    3.06    2.28
   3 -15   1    1.89    2.17
  -3 -15  -1    3.04    2.26
  -3  15  -1   -0.68    1.19
   3  15   1    3.04    1.82
  -4 -15  -1   22.23    4.02
  -4  15  -1   13.43    3.00
   4 -15   1   10.09    3.27
   4  15   1   11.97    3.00
   5 -15   1    0.28    2.16
  -5 -15  -1    2.96    2.09
  -5  15  -1    0.50    1.62
   5  15   1    0.63    1.67
   6 -15   1   18.88    4.46
  -6  15  -1   26.33    3.83
  -6 -15  -1   38.32    5.35
   6  15   1   31.13    4.39
  -7  15  -1    1.65    1.94
   7  15   1    1.17    1.71
  -7 -15  -1    1.32    1.79
   7 -15   1   -0.13    2.34
  -6 -16   1   15.71    3.46
   6 -16  -1    4.23    2.93
   6  16  -1   10.94    2.86
  -6  16   1   12.72    2.98
   5  16  -1    4.88    2.12
  -5  16   1   -0.19    1.60
  -5 -16   1   -0.33    1.72
   5 -16  -1    1.51    2.49
  -4  16   1   17.46    3.44
  -4 -16   1   19.84    4.04
   4 -16  -1   11.94    3.19
   4 -16  -1   15.40    4.06
   4  16  -1   13.52    3.09
   3 -16  -1    1.77    1.93
   3  16  -1    1.95    1.73
  -3 -16   1    3.74    2.36
   3 -16  -1    1.36    2.61
  -3  16   1    0.45    1.92
  -2  16   1    0.47    1.90
   2 -16  -1    1.27    2.20
   2  16  -1    1.28    1.75
   2 -16  -1   -0.15    1.88
  -2 -16   1    3.01    2.21
  -1  16   1   -0.43    1.37
  -1 -16   1    1.24    2.01
   1 -16  -1   -0.57    1.96
   1  16  -1    1.48    1.89
   1 -16  -1    2.06    2.23
   0  16  -1   11.15    2.68
   0 -16   1   10.65    3.04
   0 -16  -1   13.88    3.51
   0 -16   1   17.55    4.21
   0 -16  -1   12.12    3.40
   0  16   1   10.63    2.88
   1 -16   1    2.97    2.54
   1  16   1    2.20    1.91
   1 -16   1    6.03    2.43
  -1 -16  -1    1.93    2.16
  -1  16  -1    3.58    2.03
   2  16   1   16.11    3.30
   2 -16   1   16.16    4.14
  -2  16  -1   13.28    3.13
  -2 -16  -1   23.94    4.34
   3 -16   1    3.50    2.43
   3  16   1   -0.42    1.56
  -3  16  -1   -0.72    1.25
  -3 -16  -1   -0.09    2.07
   4  16   1   17.27    3.43
  -4 -16  -1   17.03    3.90
   4 -16   1   15.44    4.02
  -4  16  -1   16.05    3.19
   5  16   1    1.01    1.91
  -5  16  -1    3.87    2.18
   5 -16   1    2.96    2.51
  -5 -16  -1    5.32    2.66
   6  16   1    0.87    1.61
   6 -16   1   -0.35    1.95
  -6 -16  -1    2.40    2.13
  -6  16  -1   -0.53    1.84
   3 -17  -1    6.54    2.70
   3 -17  -1    3.23    2.54
  -3 -17   1    2.17    2.48
  -3  17   1    3.97    2.31
   3  17  -1    4.96    2.50
   2  17  -1   15.19    3.22
  -2 -17   1   18.07    3.98
   2 -17  -1   17.91    3.78
   2 -17  -1   16.94    4.15
  -2  17   1   14.20    3.46
  -1  17   1    0.46    1.68
   1 -17  -1    0.49    2.16
   1 -17  -1    2.95    2.55
  -1 -17   1    3.78    2.47
   1  17  -1    3.97    2.09
   0  17   1    6.46    2.48
   0  17  -1    6.48    2.26
   0 -17   1    7.80    2.90
   0 -17  -1    6.53    2.77
   0 -17   1    6.75    3.23
   1  17   1    1.96    2.19
  -1  17  -1    2.78    2.14
  -1 -17  -1    5.18    2.65
   1 -17   1    5.55    3.17
  -2  17  -1    2.54    2.01
   2  17   1    1.15    1.78
   2 -17   1    0.81    2.45
  -2 -17  -1    1.97    2.26
  -3 -17  -1    5.49    2.61
   3  17   1    6.94    2.53
   3 -17   1    4.54    3.04
  -3  17  -1   -0.20    1.26
 -15   0   2    2.99    2.88
  15   0  -2    2.73    1.98
 -14   0   2   11.49    3.59
  14   0  -2   10.74    2.79
 -13   0   2    0.85    2.09
  13   0  -2   -1.11    1.40
 -12   0   2   76.86    5.95
  12   0  -2   65.17    5.39
  11   0  -2   -0.99    1.07
 -11   0   2    1.42    1.65
  10   0  -2   39.92    3.67
 -10   0   2   44.64    4.34
   9   0  -2   -0.19    0.71
  -9   0   2    0.36    0.71
  -9   0   2   -0.25    1.14
   9   0  -2    0.72    0.90
   8   0  -2   25.08    2.68
  -8   0   2   23.57    2.18
  -8   0   2   27.41    3.00
   8   0  -2   27.16    2.01
   7   0  -2    0.22    0.72
  -7   0   2    0.05    0.60
  -7   0   2   -0.10    0.80
   7   0  -2    1.07    0.57
  -6   0   2   60.84    3.48
   6   0  -2   58.74    3.00
  -6   0   2   63.19    3.83
   6   0  -2   62.90    3.73
   5   0  -2    0.42    0.48
  -5   0   2    1.09    0.55
   5   0  -2    0.25    0.36
  -5   0   2    0.10    0.44
   4   0  -2  545.29   20.51
  -4   0   2  491.94   21.76
   4   0  -2  558.72   18.67
   3   0  -2    1.20    0.27
  -3   0   2    1.47    0.49
   3   0  -2    1.04    0.42
  -3   0   2    1.02    0.43
   2   0  -2   63.65    3.07
   2   0  -2   66.25    2.34
  -2   0   2   62.08    2.88
  -2   0   2   60.33    3.13
   1   0  -2    0.40    0.25
  -1   0   2    0.30    0.19
  -1   0   2    0.10    0.17
   0   0  -2   18.81    0.91
   0   0   2   17.34    1.24
   0   0   2   21.07    1.00
   0   0  -2   18.76    1.15
  -1   0  -2   10.40    0.63
   1   0   2    6.09    0.69
   1   0   2   10.86    0.95
   2   0   2   40.42    2.62
   2   0   2   46.75    2.32
  -2   0  -2   47.58    2.20
   3   0   2   -0.02    0.42
   3   0   2    0.04    0.31
  -3   0  -2    0.09    0.19
  -3   0  -2    0.40    0.36
  -5   0  -2    0.53    0.54
   5   0   2    1.46    0.75
   5   0   2    0.07    0.53
  -5   0  -2    0.06    0.28
  -6   0  -2  364.09   13.91
   6   0   2  335.25   13.73
   6   0   2  361.34   15.45
   7   0   2    0.47    0.69
   7   0   2   -0.06    0.75
  -7   0  -2    0.54    0.69
  -7   0  -2    1.87    0.74
  -8   0  -2    7.52    1.63
   8   0   2    4.62    1.30
   8   0   2    7.97    1.69
  -8   0  -2    4.59    1.35
   9   0   2    0.81    0.95
  -9   0  -2    0.00    0.82
  -9   0  -2   -0.41    0.89
  10   0   2   11.49    2.11
 -10   0  -2    9.16    2.07
 -10   0  -2   10.11    2.08
  11   0   2   -0.07    1.00
 -11   0  -2    0.02    1.30
 -11   0  -2   -0.59    1.11
  12   0   2   45.44    3.98
 -12   0  -2   48.64    4.33
 -12   0  -2   49.80    4.35
 -13   0  -2   -0.97    1.39
 -13   0  -2   -0.28    1.76
  13   0   2    0.30    1.48
 -14   0  -2   39.98    4.79
 -14   0  -2   38.36    4.46
  15   1  -2   -0.19    1.45
 -15   1   2    0.29    2.41
 -15  -1   2   -0.13    2.28
  15  -1  -2    1.59    2.23
  14  -1  -2   16.63    3.54
 -14   1   2   23.60    4.26
 -14  -1   2   21.61    4.18
  14   1  -2   13.99    3.12
 -13   1   2    3.69    2.41
  13   1  -2    5.55    2.08
  13  -1  -2    3.16    1.82
 -13  -1   2    7.62    2.72
 -12  -1   2    0.35    1.73
  12   1  -2    1.72    1.38
 -12   1   2    0.65    1.78
  12  -1  -2    0.60    1.37
 -11   1   2   15.70    3.04
  11   1  -2   11.24    2.54
 -11  -1   2   10.40    2.70
  11  -1  -2   12.00    2.60
  10  -1  -2   49.37    4.15
 -10  -1   2   57.03    4.66
  10   1  -2   54.23    4.28
 -10   1   2   59.19    4.55
   9  -1  -2    0.43    0.81
   9  -1  -2    0.61    0.98
  -9   1   2   -0.26    1.11
   9   1  -2    0.12    0.85
  -9  -1   2    0.01    1.21
  -9   1   2    0.47    0.88
   9   1  -2    1.18    0.78
  -8  -1   2  119.36    7.10
  -8   1   2  149.76    7.31
   8   1  -2  145.23    6.15
   8  -1  -2  138.65    6.14
   8   1  -2  124.81    6.98
  -8   1   2  144.54    7.05
  -8  -1   2  144.48    6.80
   8  -1  -2  140.35    7.21
  -7  -1   2    4.78    1.01
   7   1  -2    2.89    1.04
  -7   1   2    3.12    0.98
   7   1  -2    8.05    1.10
   7  -1  -2    2.85    1.12
  -7   1   2    5.35    1.36
  -6   1   2  160.28    7.34
  -6  -1   2  156.20    7.29
   6  -1  -2  161.36    7.40
  -6   1   2  153.73    7.47
   6   1  -2  163.11    7.49
   6  -1  -2  158.82    6.45
   5  -1  -2   44.54    2.24
  -5   1   2   40.75    2.69
  -5  -1   2   30.08    2.55
  -5   1   2   40.75    2.62
   5  -1  -2   43.78    2.72
   5   1  -2   45.89    2.22
   5   1  -2   45.90    2.81
  -5  -1   2   41.73    2.50
   4   1  -2    3.60    0.54
  -4   1   2    4.20    0.52
  -4   1   2    2.75    0.68
  -4   1   2    1.54    0.53
  -4  -1   2    3.52    0.91
   4   1  -2    3.57    0.80
   4  -1  -2    3.82    0.82
  -4  -1   2    3.80    0.72
   3  -1  -2   13.53    1.15
  -3   1   2   13.94    0.80
  -3   1   2   13.64    1.18
   3   1  -2   15.49    1.28
  -3  -1   2   12.25    1.13
  -3  -1   2   13.00    1.37
   3   1  -2   14.71    0.84
  -2  -1   2  503.28   18.48
   2  -1  -2  484.42   19.19
   2   1  -2  479.96   19.30
  -2   1   2  516.20   18.36
   2   1  -2  544.84   17.63
  -2  -1   2  485.52   20.83
  -2   1   2  552.32   17.69
  -2   1   2  506.74   20.76
   1   1  -2    5.67    0.48
   1  -1  -2    6.10    0.72
  -1   1   2    5.57    0.41
  -1   1   2    5.49    0.68
  -1  -1   2    5.13    0.78
  -1  -1   2    6.20    0.64
   0  -1   2  448.33   15.79
   0  -1  -2  428.14   16.63
   0   1  -2  459.02   15.61
   0   1   2  462.99   18.12
   0   1   2  455.18   15.57
   0  -1  -2  423.26   15.85
  -1   1  -2   12.75    0.85
  -1  -1  -2   11.68    0.81
  -1   1  -2   13.53    0.91
   1   1   2   12.19    0.87
   1   1   2    9.54    0.81
   1  -1   2   10.45    1.33
  -1  -1  -2   11.99    0.86
   2   1   2  490.86   19.54
  -2   1  -2  503.13   17.06
  -2   1  -2  433.83   17.05
   2   1   2  510.33   17.28
  -2  -1  -2  484.80   18.15
   2  -1   2  473.64   20.25
   3  -1   2    3.20    0.81
   3   1   2    3.81    0.64
  -3   1  -2    1.41    0.42
   3   1   2    2.77    0.66
  -3   1  -2    3.24    0.52
  -3   1  -2    3.58    0.65
  -3  -1  -2    3.41    0.65
  -3  -1  -2    4.12    0.83
   4  -1   2   28.43    2.20
  -4  -1  -2   31.27    2.17
   4   1   2   24.28    1.86
  -4  -1  -2   27.98    1.86
  -4   1  -2   26.20    1.84
   4   1   2   31.76    2.06
  -4   1  -2   28.14    1.84
  -4   1  -2   27.35    1.69
   5  -1   2   39.86    2.68
  -5   1  -2   37.34    2.47
   5   1   2   40.93    2.64
   5  -1   2   41.01    2.88
  -5  -1  -2   40.17    2.71
  -5  -1  -2   40.27    2.54
  -5   1  -2   40.20    2.37
   5   1   2   44.88    2.66
  -6  -1  -2   49.40    3.23
   6   1   2   54.40    3.14
  -6   1  -2   47.76    3.04
  -6   1  -2   49.36    2.92
   6  -1   2   50.27    3.41
  -6  -1  -2   41.19    2.89
   6   1   2   46.20    3.03
   6  -1   2   45.30    3.05
  -7  -1  -2    3.43    1.03
  -7   1  -2    4.35    1.08
  -7  -1  -2    4.40    1.28
   7   1   2    2.36    0.95
  -7   1  -2    3.87    1.09
   7  -1   2    3.99    1.14
   7  -1   2    6.18    1.46
   7   1   2    6.40    1.32
  -8  -1  -2  110.35    6.05
   8  -1   2  127.51    6.85
  -8   1  -2  120.38    5.99
   8  -1   2  116.21    6.08
   8   1   2  112.94    5.91
  -8   1  -2  107.32    6.04
  -8  -1  -2  125.43    6.35
   9  -1   2    7.62    1.69
  -9  -1  -2    9.11    1.91
   9   1   2   12.96    2.04
  -9   1  -2   12.83    2.08
  -9  -1  -2    8.01    1.79
  -9   1  -2   12.26    2.02
 -10   1  -2   80.99    5.25
 -10  -1  -2   92.66    5.57
  10  -1   2   79.65    5.13
 -10   1  -2   82.22    5.16
  10   1   2   82.18    5.09
 -11  -1  -2    0.64    0.86
  11  -1   2   -1.37    0.87
 -11   1  -2   -2.44    1.10
 -11   1  -2    0.65    1.21
 -11  -1  -2    2.15    1.67
  11   1   2   -0.47    0.91
 -12  -1  -2    0.29    0.96
 -12   1  -2    8.41    2.22
  12  -1   2    5.76    1.84
  12   1   2    3.48    1.68
 -12   1  -2    4.35    1.91
 -12  -1  -2    4.75    2.13
 -13   1  -2    6.39    2.15
 -13  -1  -2    2.05    1.27
 -13  -1  -2    5.69    2.46
  13  -1   2    6.86    2.08
  13   1   2    7.78    2.13
 -13   1  -2    9.59    2.65
 -14  -1  -2    1.39    1.76
 -14   1  -2    5.08    2.16
 -14  -1  -2    5.99    2.52
 -14   2   2   10.53    3.28
 -14  -2   2    9.07    3.23
  14   2  -2    6.54    2.33
  14  -2  -2    6.14    2.49
  13  -2  -2    4.51    2.17
 -13   2   2    4.22    2.29
  13   2  -2    2.26    1.70
 -13  -2   2    4.89    2.54
  12  -2  -2   26.54    3.80
  12   2  -2   27.61    3.73
 -12  -2   2   35.44    4.56
 -12   2   2   35.04    4.39
 -11   2   2    1.74    1.73
  11  -2  -2    0.28    1.33
  11   2  -2    1.53    1.25
 -11  -2   2    2.88    1.82
  10   2  -2   56.55    4.40
  10  -2  -2   60.96    4.63
 -10   2   2   59.92    4.24
 -10  -2   2   64.89    5.12
 -10   2   2   60.33    4.63
   9  -2  -2   30.85    2.45
   9   2  -2   28.76    3.11
   9  -2  -2   27.55    3.07
   9   2  -2   32.75    2.40
  -9  -2   2   35.13    3.75
  -9   2   2   30.76    2.83
  -9   2   2   33.84    3.45
  -8  -2   2    9.42    1.28
  -8   2   2   11.17    1.71
   8   2  -2    9.05    1.79
   8  -2  -2    7.52    1.67
  -8   2   2    9.11    1.83
   8  -2  -2    8.96    1.37
   8   2  -2    9.94    1.42
  -8  -2   2    7.35    1.84
  -7   2   2   99.16    5.28
  -7  -2   2   94.68    4.78
   7   2  -2   95.74    5.28
   7   2  -2   92.85    4.40
  -7   2   2   91.39    5.17
   7  -2  -2   96.40    5.25
  -6  -2   2   53.74    3.64
   6   2  -2   52.50    2.71
  -6   2   2   50.84    3.28
  -6   2   2   51.14    3.27
   6   2  -2   48.09    3.27
  -6   2   2   55.11    2.62
   6  -2  -2   48.05    3.20
  -6  -2   2   51.44    2.96
  -5  -2   2   93.81    5.04
  -5   2   2   89.00    4.58
  -5   2   2   99.47    3.96
  -5  -2   2   91.61    4.54
   5   2  -2   91.00    3.98
   5   2  -2   91.20    4.75
  -5   2   2   90.25    4.82
   5  -2  -2   97.16    4.72
  -4   2   2  138.25    5.11
   4  -2  -2  127.82    5.79
  -4  -2   2  130.76    6.04
  -4   2   2  125.62    6.15
  -4   2   2  123.77    5.68
  -4  -2   2  133.77    6.17
   4   2  -2  129.78    5.10
  -3   2   2  160.59    6.01
  -3   2   2  161.25    7.22
   3   2  -2  162.48    5.96
  -3  -2   2  160.99    6.93
   3  -2  -2  162.90    6.64
  -3  -2   2  144.55    7.12
  -2  -2   2  329.26   14.60
   2  -2  -2  366.54   13.39
   1  -2  -2  354.20   13.91
  -1   2   2  355.66   13.00
  -1  -2   2  374.32   13.62
   1   2  -2  371.35   14.28
  -1   2   2  381.00   15.16
   0   2  -2   76.53    3.10
   0  -2   2   60.00    2.88
  -1  -2  -2   91.62    3.68
   1  -2   2   90.83    3.34
   1   2   2   92.47    3.91
  -1  -2  -2   90.08    3.89
   1  -2   2   80.83    4.69
  -1   2  -2   88.85    3.80
  -1   2  -2   82.22    3.71
   2   2   2   98.33    4.17
  -2   2  -2   82.50    4.01
   2   2   2   98.89    4.10
   2  -2   2   98.98    5.11
  -2  -2  -2   88.22    4.35
  -2  -2  -2   97.77    4.13
  -2   2  -2  106.21    4.20
  -3   2  -2  187.84    7.32
   3   2   2  181.91    7.19
  -3  -2  -2  155.66    7.44
   3   2   2  187.03    7.30
   3  -2   2  185.19    8.47
  -3  -2  -2  172.96    7.28
  -3   2  -2  173.38    6.64
  -4  -2  -2  306.30   12.40
  -4   2  -2  306.64   11.76
  -4   2  -2  313.31   11.56
   4   2   2  314.94   11.98
  -4   2  -2  328.04   12.43
  -4  -2  -2  286.21   12.42
   4  -2   2  330.86   13.98
  -5  -2  -2   19.62    2.19
  -5   2  -2   17.57    1.41
  -5   2  -2   16.84    1.54
   5   2   2   19.03    1.71
  -5   2  -2   16.94    1.57
  -5  -2  -2   17.24    1.59
   5  -2   2   17.69    2.06
   6   2   2  139.71    6.46
  -6   2  -2  143.01    6.22
  -6   2  -2  135.72    6.49
   6  -2   2  147.02    7.48
  -6  -2  -2  146.13    6.95
  -6  -2  -2  132.59    6.52
  -6   2  -2  135.60    6.07
  -7   2  -2   52.12    3.45
  -7  -2  -2   54.38    3.51
   7  -2   2   59.43    4.12
   7   2   2   52.42    3.44
  -7   2  -2   56.84    3.31
  -7  -2  -2   55.20    3.79
   8  -2   2   13.42    2.07
  -8  -2  -2   16.03    2.37
   8   2   2   10.32    1.79
  -8  -2  -2   11.56    1.82
   8  -2   2   14.21    2.31
  -8   2  -2   11.74    1.85
  -8   2  -2   12.58    1.83
   9  -2   2   36.10    3.11
  -9   2  -2   34.31    3.08
  -9  -2  -2   32.62    2.93
   9   2   2   34.99    2.96
  -9   2  -2   35.53    2.93
   9  -2   2   36.15    3.49
  -9  -2  -2   41.33    3.51
 -10   2  -2    9.91    2.01
  10   2   2   12.35    2.14
 -10  -2  -2   11.76    2.20
 -10  -2  -2   14.02    2.60
  10  -2   2   12.81    2.25
 -10   2  -2   14.99    2.35
  11  -2   2    9.13    2.16
  11   2   2    7.62    1.95
 -11   2  -2    9.13    2.11
 -11  -2  -2    4.55    1.67
 -11   2  -2    8.97    2.10
 -11  -2  -2    4.44    1.90
  12   2   2   33.28    3.62
  12  -2   2   33.65    3.70
 -12  -2  -2   37.85    4.23
 -12   2  -2   39.66    4.04
 -12  -2  -2   30.77    3.63
 -12   2  -2   35.39    3.85
 -13  -2  -2    0.40    1.40
 -13   2  -2    0.70    1.70
 -13  -2  -2    0.59    1.83
  13  -2   2    0.69    1.63
  13   2   2    1.25    1.36
 -14  -2  -2   14.24    3.42
 -14   2  -2   12.64    2.88
 -14  -3   2    4.88    2.78
  14   3  -2    6.53    2.32
 -14   3   2    5.57    2.68
  14  -3  -2    1.78    2.20
 -13  -3   2   22.16    4.09
  13   3  -2   17.25    3.21
  13  -3  -2   19.10    3.65
 -13   3   2   24.65    4.05
  12   3  -2    0.43    1.25
 -12  -3   2    2.67    2.07
  12  -3  -2    0.80    1.49
 -12   3   2   -0.98    1.65
  11  -3  -2   28.61    3.68
 -11  -3   2   35.44    4.42
 -11   3   2   30.66    3.19
  11   3  -2   31.22    3.66
 -11   3   2   34.60    4.04
 -10  -3   2   14.39    2.84
  10   3  -2   12.59    2.39
  10  -3  -2   14.27    2.59
 -10   3   2   15.56    2.36
 -10   3   2   16.31    2.77
  -9   3   2   17.47    2.63
   9  -3  -2   17.30    2.03
  -9  -3   2    9.97    2.32
  -9   3   2   19.44    2.40
   9  -3  -2   17.97    2.55
   9   3  -2   20.21    1.98
   9   3  -2   15.68    2.44
  -8   3   2   77.07    4.78
   8   3  -2   81.25    4.12
   8  -3  -2   77.08    4.88
   8   3  -2   75.95    4.84
  -8   3   2   83.76    3.97
  -8   3   2   78.87    4.86
  -7   3   2    6.59    1.44
  -7  -3   2    8.53    1.18
   7  -3  -2    6.49    1.45
  -7  -3   2    6.38    1.70
   7   3  -2    6.68    1.55
  -7   3   2    7.41    1.47
   7   3  -2    6.47    1.10
  -7   3   2    4.99    0.99
   6  -3  -2   25.06    2.19
  -6  -3   2   26.77    2.87
  -6   3   2   25.30    2.19
  -6   3   2   27.00    1.75
  -6  -3   2   25.94    1.88
  -6   3   2   23.81    2.17
   6   3  -2   25.64    1.78
  -5  -3   2  135.95    6.83
  -5   3   2  135.65    6.76
  -5   3   2  138.95    6.28
   5  -3  -2  132.08    6.30
  -5   3   2  148.06    5.68
   5   3  -2  137.58    5.64
  -5  -3   2  137.32    6.43
  -4  -3   2    4.72    0.91
  -4   3   2    3.33    0.83
  -4   3   2    3.74    0.88
   4   3  -2    4.28    0.94
   4  -3  -2    4.39    0.86
  -4   3   2    5.82    0.82
   4   3  -2    4.73    0.74
  -4  -3   2    3.84    1.07
  -3  -3   2  497.16   19.75
   3  -3  -2  531.04   19.35
  -3  -3   2  527.59   21.66
   3  -3  -2  534.46   19.79
  -2  -3   2   29.32    2.22
  -2   3   2   31.52    1.87
  -2  -3   2   26.47    2.06
  -2   3   2   30.35    2.01
   2  -3  -2   32.82    1.96
   2   3  -2   31.91    2.03
   2   3  -2   33.31    1.80
   2  -3  -2   33.10    1.77
   1   3  -2  212.44    8.13
   1  -3  -2  229.48    8.34
  -1   3   2  212.93    9.15
  -1   3   2  215.20    8.07
   1   3  -2  220.97    8.77
  -1  -3   2  182.78    9.75
   0   3   2  254.60   10.34
   0   3   2  235.09    9.06
   0  -3  -2  265.71    9.27
   0   3  -2  248.65    9.39
   0  -3   2  238.52   11.24
   0   3  -2  247.48    9.77
   0  -3   2  228.43    9.28
   1   3   2  118.64    5.24
  -1  -3  -2  122.74    4.84
   1  -3   2  117.58    4.68
   1  -3   2  127.04    6.30
  -1   3  -2  120.73    5.03
  -1   3  -2  114.58    5.08
  -2  -3  -2   73.46    3.29
   2   3   2   76.69    3.24
   2  -3   2   76.92    2.99
  -2   3  -2   66.25    3.42
   2   3   2   74.15    3.43
   2  -3   2   76.45    4.31
  -2   3  -2   71.59    3.28
  -2  -3  -2   63.26    3.62
   3  -3   2  220.99    8.30
   3   3   2  232.79    9.01
   3   3   2  218.54    8.73
  -3  -3  -2  225.78    8.95
  -3   3  -2  224.97    8.90
   3  -3   2  222.06   10.38
  -3  -3  -2  205.87    9.26
  -4  -3  -2   22.79    1.69
  -4   3  -2   24.31    1.70
   4  -3   2   22.52    2.17
  -4   3  -2   22.50    1.76
  -4  -3  -2   23.22    2.14
   4   3   2   23.48    1.84
  -4   3  -2   22.72    1.42
   5  -3   2  265.06   12.34
  -5   3  -2  264.39   10.34
   5   3   2  262.82   10.55
  -5   3  -2  264.51   10.04
  -5   3  -2  274.09   10.81
  -5  -3  -2  256.20   10.83
  -5  -3  -2  243.79   11.11
   6   3   2   10.47    1.59
  -6   3  -2    9.06    1.23
  -6  -3  -2    8.35    1.39
  -6  -3  -2    7.79    1.73
   6  -3   2   11.52    1.94
  -6   3  -2    7.97    1.34
  -6   3  -2    7.53    1.33
  -7   3  -2   24.02    2.03
  -7  -3  -2   19.74    2.14
  -7   3  -2   23.75    1.98
  -7  -3  -2   20.58    2.69
   7   3   2   21.44    2.31
   7  -3   2   26.61    2.75
  -7   3  -2   21.25    2.03
  -8  -3  -2   51.50    3.65
  -8   3  -2   54.64    3.71
  -8   3  -2   56.15    3.49
   8  -3   2   60.06    4.51
  -8  -3  -2   53.32    4.05
  -8   3  -2   54.76    3.43
   8   3   2   52.47    3.64
   9   3   2    4.76    1.44
   9  -3   2    4.02    1.55
  -9  -3  -2    6.68    1.82
  -9   3  -2    3.83    1.40
  -9   3  -2    7.95    1.65
  -9  -3  -2    4.13    1.37
 -10  -3  -2   44.07    3.99
  10   3   2   37.67    3.57
 -10   3  -2   42.36    3.41
 -10   3  -2   46.38    3.73
 -10  -3  -2   38.17    3.40
  10  -3   2   41.59    3.59
  11   3   2   15.89    2.57
 -11   3  -2   19.19    2.90
 -11  -3  -2   14.47    2.50
 -11  -3  -2   15.37    3.03
 -11   3  -2   19.16    2.75
  11  -3   2   15.46    2.72
 -12   3  -2    0.98    1.52
  12  -3   2    2.16    1.54
 -12  -3  -2    2.13    1.88
 -12   3  -2    0.29    1.57
 -12  -3  -2    0.88    1.27
  12   3   2    3.09    1.60
 -13  -3  -2   15.68    2.89
  13  -3   2   18.41    3.12
  13   3   2   18.83    3.07
 -13  -3  -2   19.51    3.60
 -13   3  -2   16.97    3.17
 -14   3  -2    1.89    1.75
 -14  -3  -2    2.69    2.20
  14   3   2    2.14    1.99
  14  -4  -2    2.33    2.13
  14   4  -2    1.15    1.48
 -14  -4   2   -0.71    2.08
 -14   4   2   -2.03    2.21
 -13   4   2   16.07    3.46
 -13  -4   2   13.91    3.44
  13  -4  -2   11.02    2.93
  13   4  -2   11.11    2.70
  12   4  -2    1.67    1.65
 -12   4   2    3.43    1.88
  12  -4  -2    1.13    1.74
 -12  -4   2    0.39    1.65
 -11   4   2    0.91    1.35
  11   4  -2    1.37    1.42
  11  -4  -2    0.68    1.45
 -11   4   2    1.56    1.52
 -11  -4   2    1.45    1.87
 -10   4   2   14.89    2.46
 -10   4   2   13.30    2.53
  10  -4  -2   14.95    2.71
  10   4  -2   12.51    2.47
   9  -4  -2   81.18    5.44
  -9   4   2   98.84    5.75
  -9   4   2   90.93    4.49
  -9   4   2   90.05    5.55
   9   4  -2   90.95    4.70
   8   4  -2    0.09    0.69
  -8   4   2    4.39    1.02
  -8   4   2    3.54    1.46
   8   4  -2    4.20    1.09
  -8   4   2    3.25    1.26
  -8  -4   2    3.43    1.50
   8  -4  -2    4.27    1.41
  -7   4   2  201.94    9.22
   7   4  -2  220.19    8.56
   7   4  -2  210.59    9.64
  -7  -4   2  194.75    9.91
  -7   4   2  217.61    8.42
  -7  -4   2  214.46    9.23
  -7   4   2  200.96   10.00
   7  -4  -2  203.66    9.51
   6  -4  -2    0.70    0.72
  -6  -4   2    0.23    0.74
  -6   4   2    0.11    0.52
  -6  -4   2    0.43    0.57
  -6   4   2    1.27    0.73
  -6   4   2   -0.15    0.57
   6   4  -2    0.73    0.55
   6   4  -2    0.09    0.69
   5   4  -2   70.30    3.95
  -5   4   2   69.61    4.16
  -5   4   2   71.01    3.46
   5   4  -2   67.66    3.35
   5  -4  -2   66.48    3.70
  -5  -4   2   72.82    3.83
  -5   4   2   65.08    3.74
  -5  -4   2   64.73    4.32
   4   4  -2   10.44    1.42
  -4   4   2   11.72    1.29
   4  -4  -2   10.27    1.48
  -4   4   2   10.04    1.42
   4   4  -2   11.20    1.18
  -4  -4   2   13.56    1.48
  -4  -4   2   11.96    1.92
   4  -4  -2   11.61    1.25
  -3   4   2    1.06    0.58
   3   4  -2    1.03    0.59
   3  -4  -2    1.49    0.48
  -3   4   2    0.89    0.45
  -3  -4   2    3.42    0.90
   3   4  -2    0.76    0.48
  -3  -4   2    0.98    0.67
   3  -4  -2    2.28    0.72
  -2   4   2   46.31    2.57
   2  -4  -2   42.64    2.13
   2   4  -2   42.79    2.38
   2   4  -2   46.92    2.65
  -2   4   2   43.20    2.62
   2  -4  -2   43.98    2.54
  -2  -4   2   38.82    3.00
  -2  -4   2   32.79    2.58
   1   4  -2   53.33    2.89
  -1   4   2   51.17    2.73
   1   4  -2   54.02    2.81
  -1   4   2   51.98    2.88
  -1  -4   2   42.87    2.83
   1  -4  -2   53.70    2.81
   1  -4  -2   54.15    2.11
  -1  -4   2   47.10    3.48
   0   4  -2    5.37    0.83
   0   4  -2    6.19    1.04
   0   4   2    4.84    0.78
   0  -4  -2    6.44    1.01
   0  -4  -2    6.12    0.47
   0  -4   2    6.89    1.41
   0  -4   2    6.08    0.95
   0   4   2    5.93    0.90
  -1  -4  -2  540.47   21.74
   1   4   2  610.06   23.96
  -1   4  -2  568.73   21.43
  -1   4  -2  624.61   22.23
  -1  -4  -2  584.07   21.92
   1  -4   2  625.19   21.32
  -2  -4  -2   31.60    1.77
   2  -4   2   33.93    2.64
  -2   4  -2   26.95    2.03
   2  -4   2   30.30    1.67
  -2   4  -2   33.90    1.82
   2   4   2   31.80    1.73
   2   4   2   30.29    1.98
   3   4   2   82.28    3.97
  -3  -4  -2   77.81    4.43
   3  -4   2   73.87    4.74
   3  -4   2   77.67    3.49
   3   4   2   86.09    3.59
  -3  -4  -2   79.83    3.80
  -3   4  -2   86.08    3.79
  -4   4  -2    2.33    0.75
  -4   4  -2    4.42    0.85
   4   4   2    2.27    0.79
  -4  -4  -2    2.15    0.93
   4  -4   2    2.42    0.98
   4  -4   2    3.20    0.66
  -4  -4  -2    2.47    0.67
  -5   4  -2    6.47    0.97
  -5  -4  -2    8.54    1.83
  -5   4  -2    7.96    1.32
   5   4   2    8.71    1.44
  -5   4  -2    7.78    1.17
  -5  -4  -2    7.55    1.22
   5  -4   2    7.94    1.67
   6   4   2   15.57    1.95
  -6   4  -2   19.40    1.61
   6  -4   2   19.48    2.54
  -6   4  -2   19.46    1.96
  -6   4  -2   17.23    1.81
  -6  -4  -2   17.45    1.89
  -6  -4  -2   19.56    2.63
  -7   4  -2   79.57    4.13
   7  -4   2   84.20    5.54
   7   4   2   78.81    4.54
  -7  -4  -2   74.74    5.06
  -7   4  -2   82.37    4.51
  -7  -4  -2   74.08    4.47
  -7   4  -2   80.19    4.35
  -8   4  -2    6.31    1.44
   8  -4   2    6.90    1.89
  -8   4  -2    7.62    1.42
  -8  -4  -2    5.58    1.79
  -8   4  -2    5.44    1.45
  -8  -4  -2    6.00    1.44
   8   4   2    6.97    1.55
  -9   4  -2  140.81    6.81
   9  -4   2  139.91    8.52
  -9  -4  -2  136.44    7.79
   9   4   2  141.91    7.16
  -9  -4  -2  140.95    7.35
  -9   4  -2  143.17    7.36
  -9   4  -2  133.45    6.68
 -10  -4  -2    6.88    1.75
  10  -4   2    7.30    2.38
 -10   4  -2    7.82    1.86
  10  -4   2    6.69    1.91
  10   4   2    7.12    1.77
 -10   4  -2    6.56    1.89
 -10  -4  -2    5.68    2.00
  11   4   2   31.02    3.37
  11  -4   2   31.95    3.68
 -11  -4  -2   28.05    3.28
 -11  -4  -2   30.02    3.95
 -11   4  -2   34.19    3.38
 -11   4  -2   33.20    3.65
  12  -4   2    8.29    2.54
 -12   4  -2    7.48    2.25
 -12  -4  -2   10.42    2.72
  12   4   2    6.67    1.98
 -12  -4  -2    6.68    1.86
  13   4   2    1.53    1.40
 -13  -4  -2    1.72    1.92
  13  -4   2    1.04    1.63
 -13   4  -2    5.90    2.35
 -14  -4  -2    1.97    2.33
 -14   4  -2    0.22    1.86
  14   4   2    1.31    1.75
  14   5  -2    1.08    1.98
 -14  -5   2   -0.84    2.22
 -14   5   2   -1.06    2.06
 -13   5   2   28.30    4.22
  13   5  -2   22.44    3.75
 -13  -5   2   22.36    4.14
  12   5  -2    0.03    1.44
  12  -5  -2    0.62    1.75
 -12  -5   2    0.57    1.74
 -12   5   2   -0.50    1.78
 -11   5   2   38.73    3.78
  11  -5  -2   40.92    4.39
 -11   5   2   46.42    4.49
 -10   5   2    1.46    1.27
 -10   5   2    0.38    1.37
 -10  -5   2    1.80    1.74
  10  -5  -2    2.85    1.55
  10   5  -2    1.88    1.28
  -9  -5   2   39.18    4.28
  -9   5   2   38.12    3.45
  -9   5   2   42.45    2.82
   9  -5  -2   39.80    3.65
  -9   5   2   44.90    3.67
   9   5  -2   41.01    3.56
   9   5  -2   43.81    3.01
  -8  -5   2   -0.89    0.99
   8   5  -2   -0.14    0.71
  -8   5   2    0.72    0.79
  -8   5   2    0.64    0.97
   8  -5  -2    0.79    1.04
   8   5  -2    0.69    1.03
  -8   5   2   -0.64    0.72
  -7   5   2   19.48    2.37
  -7   5   2   16.08    1.75
   7   5  -2   17.56    2.28
  -7  -5   2   16.41    2.70
   7  -5  -2   19.61    2.29
   7   5  -2   18.71    1.85
   6   5  -2    0.71    0.64
   6   5  -2    0.36    0.72
  -6   5   2    0.23    0.67
  -6  -5   2    1.33    0.96
  -6   5   2    0.23    0.70
   6  -5  -2    0.91    0.82
   6  -5  -2    0.37    0.81
  -6  -5   2    0.09    0.67
  -5   5   2  221.52    8.63
  -5  -5   2  181.32    9.51
   5  -5  -2  213.09    9.21
   5   5  -2  209.96    9.25
   5   5  -2  210.00    8.40
  -5   5   2  205.87    9.90
   5  -5  -2  199.39    8.88
  -5  -5   2  229.82    9.63
   4   5  -2    0.81    0.68
   4   5  -2    0.72    0.57
  -4  -5   2    0.62    0.63
  -4  -5   2    1.07    0.84
   4  -5  -2    1.05    0.65
  -4   5   2    1.20    0.73
   4  -5  -2    0.24    0.52
  -4   5   2    0.20    0.36
   3   5  -2  268.15   10.68
  -3   5   2  254.39   11.42
   3   5  -2  264.96    9.99
  -3  -5   2  257.82   11.82
   3  -5  -2  246.44    9.99
  -3   5   2  252.32   10.19
   3  -5  -2  239.46   10.26
  -2  -5   2    3.28    1.16
   2   5  -2    3.10    0.79
  -2   5   2    2.88    0.89
  -2  -5   2    1.92    0.90
   2  -5  -2    3.27    0.44
  -2   5   2    2.75    0.79
   2   5  -2    2.42    0.82
   2  -5  -2    3.70    0.88
  -1   5   2  296.31   12.42
   1   5  -2  299.64   11.67
   1  -5  -2  291.65   11.35
  -1  -5   2  265.61   11.46
   1   5  -2  276.58   11.12
  -1  -5   2  293.95   13.36
  -1   5   2  280.58   11.14
   0   5  -2    6.15    1.17
   0   5   2    4.87    0.94
   0   5   2    6.38    0.97
   0  -5   2    7.16    1.52
   0  -5  -2    4.90    1.00
   0  -5  -2    5.39    0.44
   0  -5   2    4.76    0.96
   0   5  -2    6.51    0.92
  -1   5  -2   33.16    2.32
  -1  -5  -2   29.99    2.28
   1  -5   2   29.51    1.94
  -1   5  -2   32.85    1.86
   1   5   2   30.28    1.95
   2   5   2    0.47    0.34
  -2   5  -2    2.41    0.56
  -2  -5  -2    0.72    0.69
   2  -5   2    0.70    0.44
  -2   5  -2    0.76    0.64
  -2  -5  -2    0.91    0.41
   2   5   2    0.49    0.48
   2  -5   2    0.26    0.62
   3  -5   2  234.09   11.53
   3   5   2  246.30    9.66
   4  -5   2    0.32    0.44
  -4   5  -2   -0.05    0.53
  -4   5  -2    0.38    0.47
  -4  -5  -2    0.57    0.43
   4   5   2    0.16    0.55
  -4  -5  -2    0.19    0.68
   4  -5   2    0.15    0.71
  -4  -5  -2   -0.39    0.42
   5  -5   2  195.85    8.40
  -5  -5  -2  207.89    8.99
   5  -5   2  194.54   10.48
   5   5   2  210.37    8.88
  -5   5  -2  229.19    8.94
  -5  -5  -2  199.98    9.70
  -5   5  -2  216.66    8.92
  -6   5  -2    4.98    1.10
  -6  -5  -2    3.08    1.31
   6   5   2    5.53    1.29
  -6  -5  -2    3.57    1.04
  -6   5  -2    3.30    1.02
   6  -5   2    3.75    1.36
   6  -5   2    4.03    1.00
   7  -5   2   94.46    6.57
   7   5   2  110.22    5.67
  -7  -5  -2  117.72    6.64
  -7   5  -2  101.22    5.37
  -7   5  -2  108.94    5.55
  -7  -5  -2   99.40    5.54
  -8   5  -2    0.08    0.83
  -8  -5  -2    0.32    0.74
   8  -5   2    0.01    1.11
  -8   5  -2   -0.08    0.82
  -8  -5  -2    0.19    1.10
   8   5   2    0.04    0.86
  -8   5  -2    0.27    0.89
  -9   5  -2    0.85    0.96
   9   5   2    0.17    0.97
  -9  -5  -2    1.95    1.38
  -9   5  -2    1.49    1.10
  -9   5  -2    1.21    1.21
  -9  -5  -2    0.74    0.93
   9  -5   2    1.17    1.38
  10   5   2    1.58    1.22
 -10   5  -2    2.36    1.50
 -10   5  -2    3.72    1.47
 -10  -5  -2    5.24    2.04
 -10   5  -2    1.48    1.18
 -10  -5  -2    1.12    1.12
  10  -5   2    4.44    1.93
  11   5   2   50.94    4.03
 -11   5  -2   46.82    4.17
 -11  -5  -2   50.62    4.63
 -11  -5  -2   42.67    3.81
 -12  -5  -2    1.07    1.76
  12   5   2   -0.45    1.24
  12  -5   2    0.77    1.63
 -12  -5  -2   -0.32    1.00
 -12   5  -2    0.74    1.66
  13   5   2   17.85    3.10
 -13  -5  -2   27.87    4.18
 -13   5  -2   21.06    3.53
 -14   5  -2    0.99    2.10
 -14  -5  -2   -0.24    2.02
  14   5   2   -0.03    1.80
  14   6  -2    0.16    1.64
 -14  -6   2    3.15    2.58
  13   6  -2    3.00    1.57
 -13  -6   2    6.36    2.69
 -12  -6   2    0.78    1.47
  12   6  -2    3.20    1.97
 -12   6   2    2.41    1.82
 -11   6   2    1.94    1.73
 -11  -6   2    2.08    1.83
  11   6  -2    1.71    1.66
  10  -6  -2   10.58    2.54
 -10   6   2   11.95    2.44
 -10  -6   2   10.49    2.74
  10   6  -2   14.38    2.68
  -9   6   2   43.89    3.82
   9  -6  -2   43.79    4.01
  -9  -6   2   35.86    4.30
  -9   6   2   48.21    3.14
   9   6  -2   46.78    3.85
   9  -6  -2   43.99    3.85
   9   6  -2   53.34    3.38
   8   6  -2    1.02    1.06
   8   6  -2    1.13    0.88
   8  -6  -2    1.33    1.19
  -8   6   2   -0.09    0.72
   8  -6  -2    1.84    1.14
  -8   6   2    0.43    0.98
  -8  -6   2    1.36    1.33
   7   6  -2  117.64    6.25
   7   6  -2  123.76    5.64
  -7  -6   2  113.45    6.82
  -7   6   2  112.62    6.56
   7  -6  -2  115.12    6.14
   7  -6  -2   98.24    6.12
  -7   6   2  121.75    5.63
  -6  -6   2   30.48    2.31
  -6   6   2   28.06    2.59
   6   6  -2   23.93    2.03
  -6   6   2   25.04    2.14
   6  -6  -2   23.23    2.25
   6  -6  -2   25.40    2.71
   6   6  -2   25.79    2.58
  -6  -6   2   19.32    2.92
   5   6  -2   98.23    4.88
  -5  -6   2  103.40    6.09
   5   6  -2  106.56    5.44
   5  -6  -2   98.02    4.94
  -5  -6   2  118.82    5.61
  -5   6   2   97.48    5.03
   5  -6  -2  107.28    5.52
  -5   6   2   85.08    5.52
   4  -6  -2    5.40    0.93
  -4  -6   2    5.77    1.34
   4   6  -2    6.06    1.13
   4  -6  -2    4.59    1.14
  -4  -6   2    7.55    1.77
  -4   6   2    3.19    1.05
  -4   6   2    5.79    1.27
   4   6  -2    5.67    1.28
   3  -6  -2    0.66    0.49
  -3   6   2    0.22    0.54
   3  -6  -2    0.15    0.47
  -3   6   2    0.43    0.64
   3   6  -2    0.49    0.55
  -3  -6   2    0.58    0.88
   3   6  -2    0.66    0.61
  -3  -6   2    0.91    0.81
   2   6  -2    0.78    0.56
  -2  -6   2    0.71    0.81
   2   6  -2    1.50    0.76
   2  -6  -2    0.60    0.62
  -2   6   2    1.14    0.64
  -2  -6   2    1.59    1.00
  -2   6   2    6.64    1.31
   1   6  -2  119.90    5.68
  -1  -6   2  120.76    6.83
  -1  -6   2  110.78    5.82
  -1   6   2  121.18    6.00
   1   6  -2  133.23    5.78
   1  -6  -2  120.96    5.76
  -1   6   2  118.14    5.69
   0  -6   2   24.31    2.04
   0   6   2   24.94    1.94
   0  -6  -2   24.81    2.11
   0  -6   2   25.52    2.54
   0   6  -2   25.15    1.82
   0   6   2   26.20    2.08
   0   6  -2   29.13    2.26
  -1   6  -2  416.82   15.95
   1  -6   2  418.65   18.49
  -1  -6  -2  404.55   16.24
  -2   6  -2   26.17    2.22
   2  -6   2   27.00    1.87
   2  -6   2   18.63    2.46
  -2  -6  -2   23.09    2.48
  -2  -6  -2   25.37    1.60
   2   6   2   22.29    1.91
  -2   6  -2   26.79    1.63
   2   6   2   27.80    1.80
   3  -6   2  116.75    5.07
  -3  -6  -2  116.21    5.14
  -3  -6  -2  112.01    6.07
   3   6   2  113.37    5.38
   3  -6   2  105.03    6.48
  -4  -6  -2    4.72    0.83
  -4  -6  -2    0.72    0.84
  -4   6  -2    3.52    0.80
   4  -6   2    1.97    0.69
  -4  -6  -2    3.39    0.84
   4   6   2    5.44    1.18
  -4   6  -2    3.50    1.10
   4  -6   2    3.92    1.32
  -5   6  -2   16.66    1.60
   5  -6   2   16.67    1.65
  -5   6  -2   14.16    1.92
   5   6   2   13.65    1.85
   5  -6   2   13.57    2.30
  -5  -6  -2   15.86    1.75
   6  -6   2   16.02    1.76
   6   6   2   16.78    2.08
  -6   6  -2   15.49    1.76
  -6   6  -2   13.14    1.94
  -6  -6  -2   13.93    1.80
   6  -6   2   14.70    2.58
  -6  -6  -2   13.77    2.63
   7  -6   2   85.46    6.29
  -7   6  -2   98.78    5.23
  -7   6  -2   99.51    5.16
   7  -6   2   85.32    4.86
   7   6   2   89.16    5.15
  -7  -6  -2   92.13    5.21
  -7  -6  -2  103.69    6.27
   8  -6   2    8.55    1.69
  -8  -6  -2    9.86    1.84
  -8  -6  -2    9.78    2.53
   8  -6   2    5.21    1.82
  -8   6  -2    8.07    1.59
   8   6   2    6.72    1.63
  -8   6  -2    8.49    1.75
  -9   6  -2   96.14    5.42
   9  -6   2   84.82    5.39
   9   6   2  101.64    5.69
  -9  -6  -2  101.19    6.49
   9  -6   2   87.51    6.73
  -9  -6  -2   82.16    5.39
  -9   6  -2  100.68    5.75
 -10  -6  -2    4.06    1.95
  10   6   2    4.37    1.62
 -10   6  -2    1.91    1.45
  10  -6   2    1.48    1.79
 -10   6  -2    1.09    1.23
 -10  -6  -2    1.86    1.27
 -11   6  -2   39.07    3.50
 -11  -6  -2   38.78    3.65
  11   6   2   42.85    3.76
 -11   6  -2   41.98    3.98
 -11  -6  -2   45.63    4.88
  11  -6   2   45.92    5.39
 -12  -6  -2   10.38    2.93
  12  -6   2    8.14    2.58
 -12   6  -2    8.55    2.41
  12   6   2    6.83    2.16
  12   6   2    5.97    2.51
  13   6   2   -0.05    1.47
  13   6   2    0.42    1.66
 -13  -6  -2    2.67    2.06
 -14  -6  -2    0.68    2.35
  14   6   2    0.89    2.17
  13   7  -2   11.62    2.91
  13  -7  -2   12.92    3.45
 -13  -7   2    0.09    1.53
 -12  -7   2   -0.87    1.81
 -12   7   2    1.52    1.71
  12  -7  -2    2.76    2.19
  12   7  -2    0.67    1.61
  11   7  -2   26.16    3.56
  11  -7  -2   28.16    4.22
 -11   7   2   24.59    3.49
 -11  -7   2   28.58    4.24
 -10   7   2   12.27    2.53
  10   7  -2   17.09    2.90
 -10  -7   2   11.46    2.89
  10  -7  -2   17.86    3.25
   9   7  -2   12.14    2.39
  -9  -7   2    9.31    2.59
  -9   7   2   10.08    1.79
   9  -7  -2    9.62    2.27
  -9   7   2   10.96    2.34
   9   7  -2   10.64    1.85
   8  -7  -2   27.44    3.31
   8   7  -2   27.18    3.04
  -8   7   2   26.84    3.13
  -8  -7   2   28.46    3.72
   8   7  -2   26.85    2.39
  -8   7   2   25.30    2.50
  -7  -7   2    1.85    1.30
   7   7  -2    0.47    0.97
   7   7  -2    0.69    0.79
  -7   7   2    0.01    0.81
  -7   7   2    0.34    0.99
   7  -7  -2   -0.56    0.70
   6   7  -2   20.46    2.13
  -6   7   2   19.78    2.51
  -6  -7   2   19.08    2.93
  -6   7   2   16.25    2.05
   6  -7  -2   21.25    2.57
   6   7  -2   17.18    2.22
  -5   7   2   83.02    4.64
   5  -7  -2   77.07    4.77
   5   7  -2   88.99    4.87
  -5  -7   2   98.93    5.14
  -5  -7   2   79.00    5.36
   5   7  -2   76.85    4.38
   4   7  -2   10.08    1.62
  -4  -7   2   12.19    2.04
   4   7  -2    9.96    1.53
  -4  -7   2    6.40    1.67
  -4   7   2    9.82    1.70
   4  -7  -2   10.94    1.16
   4  -7  -2    9.80    1.68
  -4   7   2    7.53    1.54
   3  -7  -2  136.09    6.79
   3   7  -2  156.29    6.97
  -3  -7   2  127.59    7.22
  -3   7   2  139.50    6.86
  -3  -7   2  156.11    8.20
  -3   7   2  146.15    7.42
   3   7  -2  153.47    6.78
  -2  -7   2   13.90    2.34
  -2  -7   2   16.61    2.30
   2  -7  -2   12.46    1.78
  -2   7   2   11.27    1.83
   2   7  -2   14.14    1.88
  -2   7   2   15.64    1.84
   2   7  -2   14.41    1.69
   1  -7  -2   78.15    4.31
  -1  -7   2   68.35    4.24
   1   7  -2   73.71    3.95
  -1   7   2   74.27    4.22
   1   7  -2   73.74    4.17
  -1  -7   2   76.40    5.06
  -1   7   2   63.37    4.03
   0   7  -2  116.52    5.19
   0   7  -2  110.23    5.68
   0  -7   2  116.12    6.67
   0  -7  -2  109.36    5.74
   0  -7   2  106.28    5.55
   0   7   2  109.36    5.55
   0   7   2  118.03    5.77
  -1   7  -2    1.04    0.74
   1   7   2    0.17    0.50
  -1  -7  -2    0.29    0.61
  -1   7  -2    0.98    0.49
   1  -7   2    0.61    0.64
   1   7   2    1.07    0.47
   1  -7   2    2.22    1.14
   1   7   2   -0.06    0.43
  -2  -7  -2  149.36    7.58
  -2  -7  -2  156.85    6.46
  -2   7  -2  158.08    7.35
   2   7   2  147.38    6.93
   2  -7   2  160.91    6.88
  -3  -7  -2   78.25    4.89
  -3  -7  -2   79.19    3.82
   3  -7   2   68.12    3.83
   3  -7   2   73.47    5.15
   3   7   2   80.18    4.28
  -4   7  -2   15.74    1.37
   4  -7   2   12.72    1.55
  -4  -7  -2   12.40    2.22
  -4  -7  -2   14.55    1.47
   4  -7   2   12.29    2.31
   4   7   2   11.64    1.79
  -4  -7  -2   12.38    1.47
  -4   7  -2   12.36    1.97
   5   7   2  130.37    6.35
  -5   7  -2  120.49    6.36
   5  -7   2  120.30    7.63
  -5   7  -2  145.67    6.07
   5  -7   2  123.28    5.88
  -5  -7  -2  123.77    6.10
  -6  -7  -2    9.22    1.51
   6  -7   2    6.26    1.35
  -6  -7  -2    1.59    1.33
   6  -7   2    6.63    1.91
  -6   7  -2    7.18    1.59
  -6   7  -2    8.81    1.46
   6   7   2    5.70    1.46
  -7  -7  -2   45.04    4.43
   7  -7   2   31.79    3.94
   7  -7   2   39.44    2.93
  -7  -7  -2   31.60    2.78
   7   7   2   41.97    3.30
  -7   7  -2   38.13    3.14
  -7   7  -2   42.69    3.03
  -8  -7  -2   25.82    2.75
   8  -7   2   22.81    3.58
  -8  -7  -2   31.59    4.03
  -8   7  -2   23.35    2.71
   8   7   2   24.26    2.84
   8  -7   2   25.82    2.69
  -8   7  -2   27.19    2.57
  -9   7  -2    1.00    1.16
  -9  -7  -2    2.63    1.78
  -9  -7  -2    1.20    1.20
   9   7   2    0.48    1.06
   9  -7   2    0.70    1.50
  -9   7  -2    2.57    1.39
 -10   7  -2   23.54    2.93
 -10  -7  -2   26.14    3.92
  10   7   2   28.22    3.27
  10  -7   2   26.96    4.29
 -11  -7  -2   13.93    3.19
  11   7   2   10.16    2.29
  11   7   2   14.09    2.86
 -11   7  -2   13.40    2.51
  11  -7   2   11.93    3.34
 -12  -7  -2    4.57    2.40
  12   7   2    3.43    1.73
 -12   7  -2    3.77    1.80
  12   7   2    2.62    1.94
  13   7   2   15.30    2.90
 -13  -7  -2   17.52    3.86
  13   7   2   11.71    2.94
  13   8  -2    3.55    2.33
 -13   8   2    3.61    2.22
 -13  -8   2    5.30    2.65
  12  -8  -2   16.08    3.50
 -12  -8   2   21.65    3.98
 -12   8   2   20.63    3.52
  12   8  -2   21.26    3.60
  11  -8  -2    1.45    2.03
  11   8  -2    3.90    2.04
 -11   8   2    2.83    1.90
 -11  -8   2    3.28    2.21
  10   8  -2   22.51    3.24
 -10  -8   2   24.11    3.93
 -10   8   2   25.45    3.48
  10  -8  -2   22.72    3.59
  -9   8   2    9.54    1.86
  -9   8   2   10.37    2.33
   9   8  -2    9.04    1.81
   9   8  -2    8.59    2.08
   9  -8  -2    7.48    2.16
  -9  -8   2    9.37    2.45
  -8  -8   2   11.41    2.63
  -8   8   2   14.26    2.58
   8   8  -2   12.00    1.97
   8  -8  -2   13.31    2.52
  -8   8   2   10.47    1.86
   8   8  -2   11.79    2.18
  -7   8   2   40.54    3.11
  -7  -8   2   40.54    4.32
   7   8  -2   38.29    3.25
   7  -8  -2   39.25    3.44
  -7   8   2   37.22    3.49
   7   8  -2   36.77    2.94
  -6  -8   2   15.55    2.86
  -6   8   2   13.34    2.00
   6   8  -2    9.90    1.90
   6   8  -2   13.85    2.02
   6  -8  -2   13.36    2.29
  -5  -8   2   28.52    2.62
  -5  -8   2   22.23    3.10
   5   8  -2   24.09    2.41
   5   8  -2   22.21    2.45
   5  -8  -2   17.22    2.42
  -5   8   2   23.40    2.71
  -5   8   2   18.08    2.34
   4  -8  -2  106.73    5.80
  -4   8   2   96.54    5.58
   4   8  -2  109.64    5.70
  -4  -8   2  119.16    6.71
  -4  -8   2  107.74    6.38
  -4   8   2   93.88    5.93
   4   8  -2  111.62    5.62
   3  -8  -2    2.69    1.07
  -3   8   2    0.94    0.79
  -3  -8   2    2.01    1.08
  -3   8   2    1.97    1.02
   3   8  -2    1.93    0.88
  -3  -8   2    1.29    1.33
   3   8  -2    3.27    1.08
   2  -8  -2   96.95    5.49
  -2   8   2   96.04    5.63
  -2  -8   2   98.66    5.85
   2   8  -2  110.68    5.57
   2   8  -2  106.15    5.37
  -2  -8   2  116.19    6.79
  -2   8   2   98.77    5.53
  -1  -8   2   60.88    4.61
  -1  -8   2   59.81    4.02
  -1   8   2   61.61    3.94
   1  -8  -2   55.76    3.85
   1   8  -2   68.77    3.69
  -1   8   2   60.01    3.83
   1   8  -2   58.23    3.80
   0  -8  -2    0.64    0.78
   0   8  -2    1.36    0.66
   0  -8   2    0.95    0.81
   0   8   2    0.90    0.66
   0   8   2    1.07    0.81
   0  -8   2    0.82    1.07
   0   8  -2    1.60    0.84
  -1  -8  -2   55.64    3.87
  -1   8  -2   52.12    2.77
   1   8   2   52.45    3.33
   1  -8   2   53.88    3.50
  -1   8  -2   54.02    3.71
   1   8   2   54.59    2.59
   1  -8   2   50.18    4.13
   2   8   2   25.97    1.76
   2  -8   2   24.64    2.18
   2   8   2   25.38    2.53
   2   8   2   26.45    2.06
  -2  -8  -2   27.27    3.03
  -2   8  -2   26.60    1.69
  -2   8  -2   22.95    2.60
   3  -8   2   26.73    2.22
   3   8   2   22.02    2.42
  -3  -8  -2   27.38    2.29
   3   8   2   27.20    1.98
  -3  -8  -2   32.37    3.39
   3  -8   2   20.15    2.95
  -3   8  -2   28.00    1.81
  -4   8  -2   95.99    5.86
   4  -8   2  119.04    5.68
   4  -8   2  107.77    7.13
  -4   8  -2  132.47    5.39
   4   8   2  113.39    5.93
  -4  -8  -2  123.46    6.90
  -5  -8  -2   -0.40    0.63
   5   8   2   -0.11    0.72
   5  -8   2    1.06    0.78
  -5   8  -2    0.24    0.86
   5  -8   2   -0.06    0.87
  -5   8  -2    0.60    0.67
  -5  -8  -2   -1.45    0.89
   6   8   2   85.38    4.98
  -6   8  -2   83.62    5.06
  -6  -8  -2   87.72    5.90
   6  -8   2   81.24    4.56
  -6  -8  -2   82.53    4.71
   6  -8   2   71.56    5.85
  -7   8  -2   29.87    3.12
   7  -8   2   29.21    3.96
   7  -8   2   36.97    2.90
   7   8   2   37.39    3.16
   8  -8   2    0.99    1.42
  -8   8  -2    1.90    1.26
   8   8   2    0.22    0.94
  -8  -8  -2    1.25    1.58
  -9   8  -2   35.32    3.46
  -9  -8  -2   43.34    4.77
   9   8   2   34.86    3.63
   9   8   2   35.41    3.57
   9  -8   2   30.39    4.47
  10   8   2    7.64    2.08
 -10  -8  -2    6.24    2.43
  10  -8   2    6.67    2.49
 -10   8  -2   10.93    2.22
  10   8   2    7.56    2.18
  11  -8   2    7.30    2.84
  11   8   2    7.20    2.17
 -11   8  -2    6.79    2.08
 -11  -8  -2    6.83    2.81
  11   8   2   10.58    2.52
 -12   8  -2   22.71    3.09
  12   8   2   21.08    3.33
  12   8   2   18.66    3.39
 -12  -8  -2   25.21    4.26
  12  -8   2   14.65    3.79
  13   8   2    0.27    2.04
 -13  -8  -2   -0.68    1.88
  13   8   2    1.61    1.78
 -12   9   2    2.80    1.91
 -12  -9   2    2.20    2.17
  12   9  -2    0.98    1.76
 -11  -9   2    3.64    2.03
 -11   9   2    4.52    2.07
  11   9  -2    0.55    1.65
  11  -9  -2    1.40    1.72
 -10  -9   2   25.90    4.08
 -10   9   2   24.72    3.68
  10   9  -2   23.08    3.40
  10  -9  -2   20.47    3.47
   9   9  -2   -0.02    1.11
  -9   9   2    0.72    1.30
  -9   9   2    0.94    1.20
   9   9  -2    1.08    1.50
  -9  -9   2    0.91    1.44
   9  -9  -2   -0.88    1.22
  -8   9   2   67.90    5.20
   8   9  -2   70.35    4.52
   8   9  -2   74.54    5.10
   8  -9  -2   66.76    5.14
  -8  -9   2   72.36    5.62
  -8   9   2   65.99    4.40
  -7  -9   2    1.44    1.43
  -7   9   2    1.64    1.23
  -7   9   2    2.42    1.42
   7   9  -2    2.40    1.12
   7  -9  -2    0.88    1.20
   7   9  -2    0.35    1.11
  -6   9   2   78.24    4.86
   6   9  -2   78.95    4.95
  -6   9   2   75.07    5.29
  -6  -9   2   82.45    5.75
   6   9  -2   83.68    4.82
   6  -9  -2   75.94    5.08
  -5   9   2    2.18    1.17
   5   9  -2    4.53    1.36
  -5   9   2    1.38    1.03
  -5  -9   2    2.71    1.45
   5   9  -2    5.67    1.56
   5  -9  -2    3.44    1.39
   4   9  -2   12.10    1.96
   4  -9  -2    9.81    1.92
  -4   9   2   10.53    2.06
  -4  -9   2   11.22    2.37
  -4  -9   2   14.36    2.62
  -4   9   2   11.61    2.04
   4   9  -2    9.09    1.75
   3   9  -2   12.30    1.92
  -3  -9   2   11.11    2.23
   3   9  -2    7.28    1.59
   3  -9  -2   11.32    1.99
  -3   9   2   12.54    2.15
  -3  -9   2   15.33    2.73
  -3   9   2   10.41    1.89
   2   9  -2   93.59    4.83
  -2  -9   2   91.83    6.05
  -2  -9   2   80.59    5.24
   2   9  -2   81.33    4.87
  -2   9   2   74.20    4.93
   2  -9  -2   75.67    4.90
  -2   9   2   86.20    5.11
  -1   9   2    1.61    0.87
   1   9  -2    0.63    0.82
  -1  -9   2    0.34    0.95
   1  -9  -2   -0.10    0.78
   1   9  -2    2.03    0.91
  -1  -9   2    1.68    1.44
  -1   9   2    1.76    1.10
   0   9   2  145.67    7.38
   0  -9  -2  147.13    7.64
   0  -9   2  142.52    7.38
   0   9   2  145.62    7.48
   0   9  -2  149.16    7.46
   0   9  -2  158.69    6.67
   0  -9   2  153.40    8.67
  -1  -9  -2    0.59    0.96
   1  -9   2    0.86    0.91
   1   9   2   -0.20    0.58
   1   9   2    0.08    0.69
  -1   9  -2    0.06    0.74
   1  -9   2   -0.31    0.94
   2  -9   2   64.34    5.30
   2  -9   2   83.96    4.70
  -2   9  -2   86.94    5.07
   2   9   2   88.54    3.92
   2   9   2   80.93    4.80
  -2  -9  -2   70.11    5.03
   2   9   2   81.02    4.52
   3   9   2    4.87    1.08
   3  -9   2    4.85    1.25
   3   9   2    3.70    1.26
  -3   9  -2    0.63    0.72
  -3  -9  -2    4.52    1.28
  -3  -9  -2    3.67    1.52
   3  -9   2    1.80    1.10
   4  -9   2   29.40    3.73
   4  -9   2   34.09    2.71
  -4   9  -2   29.47    3.12
   4   9   2   30.69    3.01
  -4  -9  -2   36.26    3.94
   4   9   2   36.66    2.58
   5  -9   2   12.65    2.66
   5   9   2   13.34    2.17
  -5   9  -2   11.70    2.19
   5  -9   2   12.55    1.90
   5   9   2   15.98    1.94
  -5  -9  -2   12.54    2.61
   6   9   2   12.80    2.02
  -6   9  -2   11.46    2.21
   6  -9   2   11.50    2.67
   6   9   2   14.16    2.30
   6  -9   2   14.60    2.04
  -6  -9  -2   20.03    3.43
   7  -9   2    1.69    1.57
  -7  -9  -2    2.96    1.85
   7   9   2    0.75    1.09
   7   9   2    2.68    1.45
  -7   9  -2    2.25    1.36
   8   9   2   69.77    4.80
   8   9   2   83.67    5.26
   8  -9   2   57.29    5.75
  -8   9  -2   75.35    5.02
   9   9   2   -0.37    1.22
  -9  -9  -2   -1.14    1.47
   9   9   2   -0.91    1.29
   9  -9   2   -0.15    1.66
  -9   9  -2    0.57    1.29
  10  -9   2   27.91    4.73
 -10  -9  -2   31.42    4.52
  10   9   2   30.69    3.65
 -10   9  -2   31.92    3.58
  10   9   2   31.39    3.62
 -11  -9  -2    2.83    2.22
  11   9   2    1.79    1.73
  11   9   2    1.90    1.73
  11  -9   2    1.93    2.20
 -11   9  -2    1.53    1.63
  12   9   2    3.38    2.16
 -12   9  -2    2.45    1.84
  12  -9   2    3.12    2.46
 -12  -9  -2    3.65    2.61
  12   9   2    3.05    1.92
  12  10  -2   18.17    3.60
 -12  10   2   13.55    3.14
 -12 -10   2   23.12    3.98
 -11 -10   2   -0.10    1.69
  11  10  -2   -1.10    1.72
  11 -10  -2    2.15    1.94
 -11  10   2    2.03    2.00
 -10 -10   2   22.82    3.90
 -10  10   2   22.69    3.56
  10  10  -2   20.82    3.35
  10 -10  -2   24.51    4.08
  -9 -10   2    0.11    1.41
   9  10  -2   -1.28    1.00
  -9  10   2   -0.15    1.25
  -9  10   2    0.68    1.48
   9 -10  -2    0.48    1.55
   9  10  -2   -0.27    1.52
   8  10  -2    0.28    1.38
   8  10  -2    1.03    1.26
  -8 -10   2    2.43    1.68
   8 -10  -2    2.18    1.56
  -8  10   2    1.15    1.27
  -8  10   2    0.18    1.23
   7  10  -2    0.55    1.07
   7  10  -2    0.03    1.19
  -7  10   2   -0.56    1.09
   7 -10  -2   -0.48    1.23
  -7  10   2    0.24    0.75
  -7 -10   2    1.35    1.56
   6  10  -2   18.09    2.52
   6 -10  -2   17.01    2.79
  -6  10   2   16.11    2.50
  -6  10   2   11.18    2.39
   6  10  -2   14.32    2.38
  -6 -10   2   17.27    3.14
   5 -10  -2    0.68    1.09
  -5 -10   2    1.80    1.38
  -5  10   2    1.79    1.26
  -5  10   2   -0.37    0.81
   5  10  -2    0.62    0.97
   5  10  -2    0.06    1.17
  -4 -10   2   90.03    6.12
   4 -10  -2   92.84    5.74
  -4 -10   2  111.63    6.89
  -4  10   2   89.02    5.83
   4  10  -2   99.74    5.62
  -4  10   2   84.37    5.52
   4  10  -2   93.65    5.57
  -3  10   2    0.05    1.01
   3  10  -2    0.00    1.04
  -3  10   2    0.36    0.81
  -3 -10   2   -0.03    1.50
   3  10  -2    0.88    0.97
  -3 -10   2    0.02    1.17
   3 -10  -2    1.07    1.14
   2 -10  -2  124.18    6.85
  -2 -10   2  139.72    8.05
  -2 -10   2  110.09    6.78
   2  10  -2  118.78    6.48
  -2  10   2  114.91    6.62
  -2  10   2  118.62    6.75
  -1  10   2   -0.07    0.72
  -1  10   2    0.23    1.00
  -1 -10   2    1.11    1.10
   1  10  -2   -0.05    0.80
   1 -10  -2   -0.82    0.78
  -1 -10   2    0.37    1.19
   0 -10   2    2.03    1.39
   0  10   2    1.96    0.97
   0  10  -2    2.56    1.21
   0 -10   2    2.11    1.20
   0 -10  -2    2.99    1.36
   0  10   2    1.99    1.23
   1  10   2    4.46    1.43
  -1 -10  -2    7.02    1.85
   1 -10   2    8.31    2.21
   1  10   2    7.69    1.55
   1 -10   2    8.88    1.80
  -1  10  -2    7.59    1.78
  -2 -10  -2   15.83    2.74
  -2  10  -2   17.76    2.61
   2 -10   2   17.40    2.96
  -2 -10  -2   23.00    2.61
   2  10   2   14.48    2.38
   2 -10   2   21.20    2.57
   3 -10   2    3.51    1.30
  -3 -10  -2    2.46    1.32
  -3 -10  -2    2.08    1.48
  -3  10  -2    0.24    0.85
   3  10   2    1.60    1.21
   3 -10   2    0.39    0.96
   4 -10   2   98.10    7.51
   4 -10   2  129.14    6.49
  -4 -10  -2  126.81    7.55
   4  10   2  135.31    6.89
  -4  10  -2  117.27    6.67
  -5  10  -2    0.50    1.07
   5  10   2    1.73    1.20
   5 -10   2    1.43    1.11
   5 -10   2    0.72    1.38
   5  10   2    1.58    1.08
  -5 -10  -2    4.71    2.02
  -6 -10  -2   71.86    5.55
  -6  10  -2   65.92    4.77
   6  10   2   69.59    4.34
   6 -10   2   57.42    5.50
   6  10   2   69.61    4.79
   7 -10   2    3.13    1.77
   7  10   2    3.08    1.52
  -7 -10  -2    3.10    1.95
  -7  10  -2    3.52    1.55
   7  10   2    1.92    1.36
   8 -10   2    1.37    1.62
  -8 -10  -2    3.32    2.02
   8  10   2    2.46    1.59
   8  10   2    2.05    1.54
  -8  10  -2    2.13    1.52
   9  10   2   -0.19    1.58
   9  10   2    0.22    1.39
   9 -10   2    0.09    1.69
  -9  10  -2    1.16    1.26
  -9 -10  -2    0.58    1.40
  10 -10   2    3.56    2.53
  10  10   2    5.00    1.91
 -10  10  -2    6.72    2.10
  10  10   2    6.69    2.25
 -10 -10  -2    3.67    2.32
 -11  10  -2   -0.57    1.45
  11  10   2    0.59    1.76
  11 -10   2    0.81    2.26
  11  10   2    0.21    1.53
 -12 -10  -2   22.99    4.34
  12 -10   2   13.24    3.99
 -12  10  -2   16.97    3.19
  12  10   2   23.37    3.81
  12  10   2   19.31    3.61
  11  11  -2   -1.05    1.75
 -11  11   2    0.55    1.93
 -11 -11   2    2.40    1.88
  10  11  -2   10.00    2.82
 -10 -11   2   10.53    2.93
 -10  11   2    6.70    2.37
  10 -11  -2   10.67    2.81
  -9  11   2    0.79    1.53
   9  11  -2   -0.67    1.60
  -9  11   2    0.98    1.52
   9  11  -2   -0.23    1.27
  -9 -11   2   -1.61    1.45
   9 -11  -2   -1.04    1.27
  -8 -11   2   55.54    5.50
   8  11  -2   52.91    4.23
  -8  11   2   49.50    4.09
   8 -11  -2   48.65    4.95
   8  11  -2   50.79    4.37
  -7 -11   2   -0.73    1.22
   7 -11  -2    1.00    1.49
   7  11  -2   -1.04    1.13
  -7  11   2    0.53    1.28
  -7  11   2    1.37    1.35
   7  11  -2   -0.18    1.09
   6  11  -2   47.21    3.84
  -6 -11   2   56.01    4.79
   6  11  -2   37.40    3.76
  -6  11   2   41.17    3.74
  -6  11   2   34.67    3.75
   6 -11  -2   42.75    4.26
  -5  11   2    2.64    1.39
  -5  11   2    4.01    1.66
   5  11  -2    3.75    1.54
  -5 -11   2    2.50    1.47
   5 -11  -2    3.83    1.66
  -4  11   2    1.52    1.14
   4  11  -2    2.63    1.41
  -4  11   2    2.32    1.37
   4 -11  -2    1.22    1.24
  -4 -11   2    2.70    1.59
  -3 -11   2   39.44    4.28
  -3  11   2   28.24    3.17
   3  11  -2   29.85    3.28
  -3 -11   2   33.86    4.27
   3 -11  -2   29.20    3.55
  -3  11   2   31.10    3.53
  -2 -11   2   49.63    4.19
  -2 -11   2   43.95    4.42
   2 -11  -2   47.44    4.04
  -2  11   2   41.15    3.75
  -2  11   2   38.68    3.47
   2  11  -2   45.35    3.70
  -1 -11   2    6.78    1.86
   1  11  -2    5.96    1.75
  -1  11   2    5.82    1.59
  -1  11   2    4.78    1.69
   1 -11  -2    3.54    1.50
  -1 -11   2    7.24    2.13
   0  11  -2  144.20    7.55
   0 -11   2  128.12    7.43
   0  11   2  138.11    7.50
   0 -11   2  139.31    8.64
   0 -11  -2  134.12    7.79
   0  11   2  139.30    7.43
   1  11   2    0.33    1.08
  -1  11  -2    0.10    0.96
   1 -11   2   -1.18    1.10
   1 -11   2    1.00    1.10
  -1 -11  -2    0.93    1.24
  -2 -11  -2   81.68    5.70
   2 -11   2   67.41    5.76
  -2  11  -2   75.35    5.11
  -2 -11  -2   80.87    5.30
   2 -11   2   73.65    4.92
   2  11   2   73.90    5.09
   3  11   2    0.00    0.99
   3 -11   2    0.14    1.30
  -3 -11  -2   -0.26    1.23
  -3  11  -2    0.17    0.91
   3 -11   2    1.00    1.20
   4 -11   2    2.28    1.63
  -4  11  -2    3.37    1.45
  -4 -11  -2    4.49    2.02
   4  11   2    2.67    1.46
   4 -11   2    2.88    1.28
  -5  11  -2   17.68    2.86
  -5 -11  -2   24.76    3.82
   5  11   2   22.19    3.05
   5 -11   2   17.47    3.50
  -6 -11  -2   10.91    2.85
   6 -11   2    8.03    2.55
   6  11   2   10.23    2.25
  -6  11  -2    9.69    2.21
   7  11   2    6.85    2.02
   7 -11   2    5.91    2.51
  -7  11  -2    7.99    2.19
  -7 -11  -2    9.38    2.80
   8 -11   2   34.29    5.12
  -8  11  -2   32.69    3.84
  -8 -11  -2   43.20    5.22
   8  11   2   43.08    4.20
  -9 -11  -2   -0.22    1.81
   9  11   2    1.54    1.61
   9  11   2    1.28    1.59
  -9  11  -2    0.45    1.62
   9 -11   2    0.96    1.80
  10 -11   2   19.17    4.20
 -10 -11  -2    9.49    2.93
 -10  11  -2   19.76    3.20
  10  11   2   20.89    3.32
  10  11   2   21.55    3.41
  11 -11   2    0.80    2.09
  11  11   2    1.09    1.65
 -11  11  -2    1.59    1.68
  11  11   2    3.62    2.17
 -11 -11  -2   -0.18    1.65
 -10 -12   2   11.90    2.95
 -10  12   2    9.25    2.74
  -9  12   2    2.70    1.92
   9  12  -2    6.67    2.20
   9 -12  -2    8.49    2.56
  -9 -12   2    6.32    2.46
  -9  12   2    5.63    1.90
  -8 -12   2    1.47    1.81
  -8  12   2    2.63    1.68
   8  12  -2    2.68    1.66
   8 -12  -2    2.90    2.09
  -8  12   2    1.38    1.58
   7  12  -2   18.52    2.97
   7 -12  -2   13.94    3.05
  -7  12   2   15.86    2.88
  -7 -12   2   19.22    3.63
  -7  12   2   18.83    3.19
   6  12  -2   14.49    2.64
  -6 -12   2   12.22    2.83
  -6  12   2   11.94    2.49
   6 -12  -2   10.33    2.51
  -6  12   2   10.62    2.37
  -5  12   2    9.10    2.20
  -5 -12   2   12.33    2.73
   5 -12  -2   14.74    2.97
  -5  12   2   11.13    2.52
   5  12  -2   11.18    2.45
   4  12  -2   49.66    4.17
  -4  12   2   50.95    4.29
  -4 -12   2   62.30    5.07
   4 -12  -2   46.77    4.28
  -4  12   2   43.54    4.03
  -3 -12   2    0.55    1.45
   3 -12  -2   -0.55    1.23
  -3  12   2    0.09    1.34
  -3 -12   2   -0.77    1.65
  -3  12   2    0.41    1.04
   3  12  -2    0.75    1.18
  -2  12   2   33.95    3.84
  -2  12   2   32.74    3.25
  -2 -12   2   38.75    4.32
  -2 -12   2   43.67    4.83
   2  12  -2   38.84    3.83
   2 -12  -2   29.78    3.87
   1  12  -2   17.14    2.84
  -1 -12   2   20.80    3.57
   1 -12  -2   20.11    3.19
  -1  12   2   16.42    2.82
  -1  12   2   19.54    2.65
  -1 -12   2   19.50    3.21
   0  12  -2    8.17    2.12
   0 -12   2   14.14    2.70
   0  12   2    6.59    1.98
   0 -12   2   12.59    2.86
   0 -12  -2   10.03    2.43
   1  12   2   46.88    4.11
   1 -12   2   44.88    4.62
   1 -12   2   34.57    3.90
  -1 -12  -2   46.03    4.07
  -1  12  -2   44.40    3.91
  -1 -12  -2   48.63    4.83
  -2 -12  -2   27.09    3.22
  -2  12  -2   16.12    2.85
   2  12   2   22.57    3.23
  -2 -12  -2   22.17    3.57
   2 -12   2   19.30    2.89
   2 -12   2   22.02    3.73
   3  12   2    1.45    1.41
   3 -12   2    0.43    1.47
  -3 -12  -2    2.92    1.82
   3 -12   2    1.51    1.46
  -3  12  -2    1.60    1.37
  -4  12  -2   28.05    3.51
   4  12   2   34.90    3.85
  -4 -12  -2   37.77    4.56
   5  12   2    4.90    1.79
  -5 -12  -2    3.62    1.91
  -5  12  -2    1.34    1.53
   5 -12   2    1.82    1.88
   6  12   2   14.36    2.74
  -6 -12  -2   20.42    3.64
   6 -12   2   10.52    2.96
  -6  12  -2   12.01    2.62
  -7 -12  -2   15.77    3.38
   7  12   2   16.29    2.95
   7 -12   2    8.11    2.77
  -7  12  -2   11.34    2.57
  -8  12  -2    2.88    1.78
  -8 -12  -2    2.87    2.14
   8 -12   2    2.75    2.19
   8  12   2    1.80    1.62
   9 -12   2   16.75    4.05
  -9 -12  -2   17.93    4.00
   9  12   2    9.78    2.52
  -9  12  -2   12.42    2.72
 -10 -12  -2    5.11    2.69
  10  12   2    6.65    2.33
 -10  12  -2    4.03    2.13
  10 -12   2    2.56    2.39
 -10 -13   2    1.32    1.73
 -10  13   2    1.69    2.04
  -9  13   2    5.77    2.17
   9  13  -2    4.45    2.08
  -9 -13   2    3.94    2.16
  -9  13   2    1.01    1.23
  -8  13   2   10.37    2.70
  -8  13   2   10.78    2.69
   8 -13  -2   14.93    3.28
  -8 -13   2   16.66    3.57
   8  13  -2   11.15    2.61
  -7 -13   2    3.69    2.02
   7 -13  -2    0.72    1.73
   7  13  -2    0.39    1.47
  -7  13   2    0.89    1.48
  -7  13   2    0.40    1.57
  -6  13   2    5.86    2.17
  -6 -13   2    9.03    2.49
   6 -13  -2    9.64    2.56
   6  13  -2    6.51    2.21
  -6  13   2    3.06    1.70
  -5 -13   2   28.16    4.02
   5  13  -2   28.95    3.65
  -5  13   2   22.94    3.36
  -5  13   2   19.60    3.23
   5 -13  -2   28.80    4.05
   4  13  -2   -0.96    1.18
   4 -13  -2   -0.46    1.52
  -4  13   2   -1.10    1.02
  -4  13   2   -1.56    1.23
  -4 -13   2    2.29    2.01
  -3 -13   2   40.04    4.67
  -3  13   2   29.11    3.57
  -3  13   2   29.36    3.86
   3  13  -2   32.33    3.75
   3 -13  -2   42.55    4.63
  -2  13   2    5.29    2.13
  -2 -13   2    8.49    2.76
  -2 -13   2    4.81    2.11
   2 -13  -2    4.64    2.09
   2  13  -2    5.59    1.85
  -2  13   2    5.01    1.80
  -1 -13   2   20.84    3.87
   1  13  -2   18.66    3.03
   1 -13  -2   21.64    3.52
  -1  13   2   25.44    3.62
  -1 -13   2   23.72    3.68
   0 -13   2   25.10    4.16
   0 -13  -2   21.62    3.38
   0 -13  -2   21.33    3.65
   0  13   2    8.00    2.28
   0  13  -2   21.63    3.27
   0 -13   2   22.71    3.46
  -1 -13  -2    0.68    1.47
  -1  13  -2   -0.71    1.06
  -1 -13  -2    1.41    1.49
   1  13   2    0.26    1.48
   1 -13   2    0.40    1.49
   1 -13   2    1.43    1.78
  -2 -13  -2   20.93    3.53
   2  13   2   23.20    3.47
   2 -13   2   16.23    3.43
  -2  13  -2   18.62    3.09
   2 -13   2   21.93    3.38
  -3 -13  -2   31.64    4.37
   3  13   2   32.64    3.97
   3 -13   2   36.34    4.94
  -3  13  -2   24.83    3.45
   4 -13   2    0.12    1.41
   4  13   2    0.21    1.32
  -4 -13  -2    1.23    1.65
  -4  13  -2   -1.12    1.04
   5  13   2   35.88    4.18
  -5  13  -2   30.06    3.79
  -5 -13  -2   39.84    5.04
   5 -13   2   29.31    4.80
   6  13   2    4.74    1.98
  -6 -13  -2    2.52    1.88
   6 -13   2    3.99    2.38
  -6  13  -2    3.73    1.87
   7 -13   2   13.26    3.50
  -7 -13  -2   18.99    3.67
  -7  13  -2   14.16    2.84
   7  13   2   17.43    3.32
   8  13   2    4.54    1.90
  -8  13  -2    5.20    2.06
   8 -13   2    5.36    2.96
  -8 -13  -2    7.60    2.43
   9 -13   2    1.75    2.21
   9  13   2    1.97    1.92
  -9 -13  -2    1.10    2.23
  -9  13  -2    0.49    1.75
  -8  14   2    0.85    1.79
  -8 -14   2    0.88    1.67
   8  14  -2    0.97    1.65
  -8  14   2   -0.53    1.63
   7 -14  -2   22.73    4.08
  -7  14   2   19.86    3.58
  -7 -14   2   31.05    4.45
  -7  14   2   20.91    3.39
   7  14  -2   21.97    3.50
   6 -14  -2    1.52    1.98
  -6 -14   2   -0.29    1.36
  -6  14   2    2.10    1.57
   6  14  -2    1.76    1.73
  -6  14   2    0.47    1.59
  -5  14   2    6.65    2.16
   5 -14  -2    3.68    2.04
   5  14  -2    5.15    2.05
  -5  14   2    8.20    2.34
  -5 -14   2    7.49    2.45
  -4  14   2    5.96    2.34
   4 -14  -2    3.02    1.93
   4  14  -2    4.30    1.98
  -4 -14   2    5.24    2.28
  -4  14   2    2.81    1.61
  -3 -14   2    1.10    1.65
   3  14  -2    1.70    1.31
  -3  14   2   -0.22    1.43
   3 -14  -2    1.79    1.91
  -2 -14   2    6.10    2.79
  -2 -14   2    6.52    2.32
   2  14  -2    3.80    1.78
  -2  14   2    2.61    1.80
   2 -14  -2    5.22    2.21
   2 -14  -2    5.13    2.42
   1 -14  -2   27.55    4.15
   1 -14  -2   20.25    3.65
  -1  14   2   21.30    3.56
  -1 -14   2   27.18    4.58
  -1 -14   2   19.19    3.42
   1  14  -2   23.09    3.50
   0  14  -2    0.15    1.31
   0 -14   2    0.39    1.72
   0 -14  -2   -0.26    1.45
   0 -14   2    2.39    2.06
   0 -14  -2    2.34    1.76
   0  14   2    0.26    1.22
   1  14   2   50.49    5.03
  -1 -14  -2   50.29    4.81
  -1 -14  -2   48.59    5.43
   1 -14   2   46.66    5.67
  -1  14  -2   51.51    4.56
   1 -14   2   51.59    4.71
  -2  14  -2    0.22    1.39
  -2 -14  -2    0.96    1.70
   2 -14   2   -1.16    1.75
   2  14   2   -0.59    1.48
  -3  14  -2   11.35    2.67
   3  14   2    8.55    2.45
  -3 -14  -2   11.34    2.98
   3 -14   2   12.09    3.29
  -4  14  -2    1.75    1.38
  -4 -14  -2    6.91    2.50
   4  14   2    4.52    2.01
   4 -14   2    7.11    2.80
   5  14   2   -1.35    1.32
  -5  14  -2   -0.61    1.50
  -5 -14  -2    1.51    1.81
   5 -14   2   -0.17    1.88
   6 -14   2   -0.48    1.86
  -6  14  -2    3.28    1.80
  -6 -14  -2    2.89    2.13
   6  14   2    2.21    1.77
   7 -14   2    7.12    2.97
  -7 -14  -2   10.14    2.91
  -7  14  -2    7.77    2.39
   7  14   2    5.88    2.32
  -8  14  -2    2.16    1.80
   8 -14   2    1.09    2.20
   8  14   2    2.08    1.75
  -8 -14  -2    1.11    1.83
  -7 -15   2    0.95    1.86
   7 -15  -2    1.62    2.60
   7  15  -2    2.82    1.94
  -7  15   2    0.47    1.73
   6 -15  -2    1.71    2.12
  -6 -15   2    1.68    2.02
   6  15  -2   -0.57    1.64
  -6  15   2    1.11    1.79
  -5  15   2   14.06    3.10
   5 -15  -2   12.37    3.68
   5 -15  -2   16.06    3.40
  -5 -15   2   19.49    3.57
   5  15  -2   16.55    3.31
  -4  15   2    2.84    2.03
  -4 -15   2    1.40    1.87
   4 -15  -2    1.90    2.07
   4 -15  -2   -0.01    2.13
   4  15  -2   -0.12    1.40
  -3  15   2   32.88    4.35
  -3 -15   2   42.48    5.18
   3 -15  -2   38.07    5.14
   3 -15  -2   30.45    4.92
   3  15  -2   34.09    4.26
   2 -15  -2    0.83    1.90
  -2 -15   2    0.21    1.89
   2 -15  -2   -0.35    1.85
  -2  15   2   -1.85    1.53
   2  15  -2   -0.34    1.28
   1  15  -2   16.75    3.23
   1 -15  -2   16.22    3.45
  -1  15   2   16.69    3.42
  -1 -15   2   17.30    3.67
  -1 -15   2   20.81    4.38
   1 -15  -2   17.96    3.66
   0 -15  -2    2.23    2.00
   0  15   2   -0.34    1.20
   0  15  -2    0.10    1.31
   0 -15   2    1.34    2.12
   0 -15   2    3.46    2.15
   0 -15  -2    0.68    1.93
  -1  15  -2    1.73    1.61
   1  15   2    1.70    1.91
   1 -15   2    1.64    2.15
  -1 -15  -2    2.90    2.30
   2  15   2   -0.05    1.76
  -2 -15  -2   -0.17    1.88
   2 -15   2   -1.20    1.85
  -2  15  -2    0.35    1.45
   3 -15   2   23.35    4.59
   3  15   2   30.43    4.28
  -3  15  -2   22.31    3.62
  -3 -15  -2   31.12    4.74
  -4 -15  -2   -0.83    1.82
   4  15   2    1.37    1.61
  -4  15  -2    0.98    1.19
   4 -15   2   -0.04    1.94
  -5 -15  -2   33.10    5.03
   5  15   2   30.70    4.38
  -5  15  -2   22.94    3.68
  -6  15  -2    1.10    1.68
  -6 -15  -2    5.06    2.56
   6  15   2   -0.37    1.65
   6 -15   2   -0.84    2.14
   7  15   2    6.18    2.42
   7 -15   2    4.12    2.65
  -7 -15  -2   10.75    2.95
  -7  15  -2    6.50    2.46
  -5  16   2    5.56    2.36
   5 -16  -2    4.18    2.88
   5  16  -2    5.28    2.20
   5 -16  -2    6.59    2.72
  -5 -16   2    7.73    2.67
   4 -16  -2    2.72    2.62
  -4 -16   2    5.30    2.58
   4  16  -2    1.86    1.78
  -4  16   2    1.97    2.07
   4 -16  -2    5.00    2.67
  -3  16   2   -0.80    1.67
  -3 -16   2   -0.58    2.11
   3 -16  -2    3.66    2.57
   3 -16  -2    0.66    2.06
   3  16  -2    1.11    1.77
   2 -16  -2    4.51    2.74
   2  16  -2    1.81    1.79
  -2 -16   2    4.96    2.35
   2 -16  -2    5.01    2.50
  -2  16   2    4.96    2.40
  -1 -16   2   21.64    4.02
   1 -16  -2   22.61    4.26
  -1 -16   2   31.34    5.37
   1  16  -2   19.08    3.46
  -1  16   2   21.22    3.91
   1 -16  -2   19.50    3.93
   0  16  -2    1.10    1.55
   0 -16  -2   -0.48    1.92
   0  16   2   -1.16    1.49
   0 -16  -2   -0.15    1.95
   0 -16   2    7.42    3.48
   1 -16   2   25.08    4.96
  -1  16  -2   20.38    3.43
  -1 -16  -2   23.51    4.26
   1  16   2   19.16    3.71
   2 -16   2    1.46    2.62
  -2 -16  -2    3.67    2.40
   2  16   2    2.66    2.29
  -2  16  -2    2.88    2.15
   3  16   2    9.94    2.90
  -3 -16  -2   13.07    3.26
   3 -16   2   10.10    3.46
  -3  16  -2    9.98    2.75
  -4 -16  -2    2.72    2.26
  -4  16  -2    0.06    1.25
   4  16   2    4.48    2.08
   4 -16   2    0.54    2.39
  -5 -16  -2    1.01    2.36
   5 -16   2    0.89    2.42
  -5  16  -2   -0.21    1.71
   5  16   2    1.09    1.88
  -3 -17   2   20.07    4.05
   3 -17  -2   16.48    4.28
   3  17  -2   12.75    2.97
   3 -17  -2   19.27    4.18
  -3  17   2   13.68    3.36
   2 -17  -2    3.75    2.95
   2 -17  -2    2.76    2.43
   2  17  -2    0.17    1.73
  -2  17   2    0.55    1.95
  -2 -17   2    3.41    2.68
   1  17  -2    3.25    2.02
  -1  17   2    5.53    2.62
   1 -17  -2    8.09    2.85
   1 -17  -2    8.73    3.03
   0 -17  -2    8.65    3.14
   0  17  -2    8.46    2.58
   0 -17   2   11.36    3.85
   0  17   2    2.92    1.96
   1  17   2    0.12    1.91
  -1 -17  -2   -0.94    2.20
  -1  17  -2    1.08    1.51
   1 -17   2    1.92    2.67
   2  17   2    6.31    2.71
  -2 -17  -2    7.55    3.10
   2 -17   2    9.17    3.62
  -2  17  -2    2.69    2.15
  -3 -17  -2    4.97    2.36
  -3  17  -2    3.95    2.24
   3 -17   2    5.97    3.30
   3  17   2    6.68    2.45
 -14   0   3    1.39    2.19
  14   0  -3   -0.21    1.54
 -13   0   3   42.82    5.25
  13   0  -3   35.74    4.44
 -12   0   3   -0.61    1.66
  12   0  -3   -0.09    1.29
  11   0  -3   18.66    3.07
 -11   0   3   23.06    3.67
  10   0  -3    0.85    1.11
 -10   0   3    0.97    1.48
  -9   0   3    2.96    1.59
   9   0  -3    2.59    1.25
  -9   0   3    3.26    1.18
   8   0  -3   -0.03    0.68
  -8   0   3   -0.17    0.99
  -8   0   3    0.59    0.68
   8   0  -3    0.26    0.58
   6   0  -3   -0.52    0.56
   6   0  -3    0.32    0.37
  -6   0   3    0.54    0.61
  -6   0   3    0.24    0.54
  -5   0   3  494.95   19.38
   5   0  -3  519.38   20.07
  -5   0   3  499.23   21.28
   5   0  -3  522.77   17.89
   4   0  -3   -0.03    0.44
   4   0  -3    0.48    0.23
  -4   0   3    1.62    0.67
  -4   0   3    0.43    0.43
   3   0  -3   81.42    2.86
  -3   0   3   76.62    3.74
  -3   0   3   75.03    4.04
   3   0  -3   78.03    3.97
   2   0  -3    0.45    0.45
  -2   0   3    1.14    0.51
  -2   0   3    1.14    0.41
  -1   0   3    3.71    0.55
  -1   0   3    4.58    0.39
   1   0  -3    4.53    0.84
   0   0   3    2.96    0.68
   0   0   3    1.25    0.34
   0   0  -3    4.52    0.72
   0   0  -3    0.97    0.28
  -1   0  -3    7.94    0.84
   1   0   3    6.91    0.98
   1   0   3    6.67    0.80
  -1   0  -3    7.20    0.57
   2   0   3    0.06    0.26
  -2   0  -3    0.25    0.31
   2   0   3    0.10    0.39
  -2   0  -3    0.48    0.31
  -3   0  -3  697.05   26.17
   3   0   3  694.22   28.97
   4   0   3    0.56    0.52
  -4   0  -3    0.36    0.46
  -4   0  -3    0.56    0.41
   4   0   3    1.33    0.85
   5   0   3   89.07    4.68
   5   0   3   85.66    5.27
  -5   0  -3  100.89    4.53
   6   0   3   -0.25    0.95
  -6   0  -3    0.53    0.43
  -6   0  -3    1.03    0.65
   6   0   3   -0.05    0.61
   7   0   3    1.12    1.18
  -7   0  -3    0.73    0.71
   7   0   3   -0.17    0.65
  -7   0  -3    0.17    0.47
   8   0   3   -0.39    0.64
  -8   0  -3   -0.14    0.60
  -8   0  -3    0.06    0.77
   9   0   3   24.41    2.95
  -9   0  -3   19.68    2.49
  -9   0  -3   20.82    2.55
  10   0   3    0.53    1.03
 -10   0  -3    0.59    1.22
 -10   0  -3    0.11    1.01
  11   0   3   41.84    3.71
 -11   0  -3   47.40    3.99
 -11   0  -3   43.95    3.83
  12   0   3    0.53    1.32
 -12   0  -3   -0.63    1.19
 -12   0  -3   -0.25    1.58
  13   0   3   28.51    3.74
 -13   0  -3   26.14    3.60
 -14   0  -3   -0.04    1.67
  14   0   3   -0.23    1.57
 -14   1   3    3.93    2.74
  14   1  -3    4.72    1.97
  14  -1  -3    4.59    2.28
 -14  -1   3    1.40    2.53
 -13  -1   3    0.10    2.02
  13   1  -3    0.32    1.49
  13  -1  -3    1.52    1.73
 -13   1   3    1.14    2.07
 -12  -1   3    6.60    2.55
 -12   1   3    5.31    2.49
  12   1  -3    5.47    1.93
  12  -1  -3    6.14    2.07
 -11   1   3   48.96    4.91
  11   1  -3   41.78    3.96
 -11  -1   3   55.02    5.31
  11  -1  -3   37.15    4.15
  10   1  -3    0.48    0.91
  10  -1  -3    0.81    1.04
 -10  -1   3    0.68    1.52
 -10   1   3   -0.41    0.96
 -10   1   3    0.00    1.52
  -9  -1   3  116.77    6.27
  -9   1   3  116.63    6.86
  -9   1   3  121.14    6.56
  -9  -1   3  112.84    6.97
   9   1  -3  125.41    6.85
   9  -1  -3  122.80    6.83
   8   1  -3    0.92    0.85
  -8  -1   3    3.65    1.05
  -8   1   3    2.54    1.03
   8  -1  -3    3.17    0.91
   8   1  -3    3.24    0.83
  -8   1   3    1.30    1.25
   8  -1  -3    0.81    0.91
  -8  -1   3    0.49    0.96
   7   1  -3  121.47    5.00
  -7  -1   3  118.31    5.97
   7  -1  -3  112.97    6.10
  -7   1   3  114.53    6.08
   7   1  -3  115.97    6.16
   7  -1  -3  113.50    4.99
  -7   1   3  117.67    6.20
  -7  -1   3  116.79    6.35
  -6   1   3   49.72    3.22
   6  -1  -3   46.98    3.25
   6  -1  -3   47.23    2.43
   6   1  -3   46.39    3.21
  -6  -1   3   50.04    3.48
  -6  -1   3   49.92    3.13
   6   1  -3   50.50    2.45
  -5  -1   3   14.12    1.55
   5   1  -3   12.00    1.60
   5  -1  -3   12.19    1.56
   5   1  -3   13.36    0.98
  -5  -1   3   16.41    1.96
   5  -1  -3   14.22    1.02
  -5   1   3   13.33    1.55
  -4   1   3   13.85    0.82
   4  -1  -3   13.03    1.48
   4   1  -3   11.74    1.47
  -4  -1   3   11.87    1.56
  -4   1   3   15.46    1.44
  -4   1   3   11.73    1.47
  -4  -1   3   13.58    1.47
   4   1  -3   12.85    0.82
   3   1  -3  173.06    7.55
   3   1  -3  173.81    6.19
  -3   1   3  186.52    6.16
   3  -1  -3  166.17    7.42
  -3   1   3  173.70    7.11
  -3  -1   3  171.21    7.21
  -3  -1   3  161.85    7.89
  -3   1   3  176.24    7.90
  -2  -1   3   80.15    3.73
  -2   1   3   84.78    3.13
   2   1  -3   86.13    3.20
  -2  -1   3   84.04    4.36
  -2   1   3   79.41    3.68
   2   1  -3   81.95    4.17
   2  -1  -3   81.60    4.06
  -1   1   3  290.31   10.02
   1  -1  -3  275.10   11.31
  -1  -1   3  289.95   10.50
   0  -1   3   74.68    4.13
   0  -1   3   75.15    3.00
   0   1   3   78.97    3.88
   0  -1  -3   81.25    3.56
  -1  -1  -3   12.72    0.97
   1  -1   3    9.21    1.43
  -1  -1  -3   10.78    0.87
  -1   1  -3   11.69    0.91
   1   1   3   11.91    1.00
   1   1   3   12.00    1.06
   2   1   3   56.51    3.00
  -2   1  -3   60.68    2.80
  -2  -1  -3   64.45    2.89
  -2  -1  -3   57.68    2.84
   2  -1   3   51.87    3.67
  -2   1  -3   51.63    2.79
  -3  -1  -3  150.17    6.25
  -3   1  -3  145.13    6.21
  -3  -1  -3  140.00    6.21
   3  -1   3  129.69    7.38
  -3   1  -3  140.35    5.96
  -3   1  -3  157.39    5.62
   3   1   3  147.86    6.59
   3   1   3  151.57    6.22
  -4  -1  -3   64.24    3.54
   4   1   3   76.70    3.75
   4  -1   3   62.63    4.23
   4   1   3   68.82    3.60
  -4   1  -3   65.04    3.03
  -4   1  -3   62.59    3.40
  -4  -1  -3   58.18    3.33
   5   1   3  205.52    8.76
  -5   1  -3  198.54    8.87
   5  -1   3  200.76    8.84
  -5   1  -3  210.51    8.28
   5   1   3  222.79    9.74
   5  -1   3  217.00   10.32
  -5  -1  -3  188.57    8.78
  -5  -1  -3  223.22    8.96
   6   1   3    2.24    1.04
  -6   1  -3    0.38    0.62
  -6  -1  -3    1.07    0.67
  -6   1  -3   -0.32    0.50
   6  -1   3    0.65    0.75
   6   1   3    0.35    0.72
   6  -1   3    0.26    0.80
  -6  -1  -3   -0.03    0.48
  -7   1  -3  219.59    9.76
   7  -1   3  200.95    9.53
  -7  -1  -3  230.65    9.73
   7   1   3  212.66    9.53
  -7  -1  -3  199.42    9.60
   7   1   3  242.32   10.75
  -7   1  -3  224.47    9.24
   7  -1   3  226.16   11.09
   8   1   3    5.37    1.42
  -8   1  -3    5.53    1.36
  -8  -1  -3    6.09    1.54
   8  -1   3    4.61    1.38
   8  -1   3    5.13    1.75
  -8  -1  -3    3.49    1.18
  -8   1  -3    3.99    1.22
   9  -1   3   61.70    4.43
  -9  -1  -3   60.23    4.24
  -9   1  -3   71.43    4.27
  -9  -1  -3   70.40    4.51
   9   1   3   63.04    4.30
  -9   1  -3   63.98    4.32
 -10   1  -3    2.14    1.32
 -10   1  -3    2.07    1.41
 -10  -1  -3    1.66    1.29
  10  -1   3    3.13    1.42
  10   1   3    2.00    1.29
 -10  -1  -3    1.69    1.16
 -11  -1  -3    0.95    1.32
 -11  -1  -3    0.58    1.13
 -11   1  -3    1.02    1.44
 -11   1  -3    1.64    1.40
  11   1   3    0.75    1.42
  11  -1   3    2.26    1.52
 -12   1  -3    5.39    2.07
 -12   1  -3    5.25    1.91
  12  -1   3    4.97    1.81
  12   1   3    3.49    1.65
 -12  -1  -3    6.14    2.11
 -12  -1  -3    1.65    1.22
  13   1   3   21.33    3.33
 -13   1  -3   22.80    3.41
  13  -1   3   22.15    3.37
 -13  -1  -3   24.88    3.77
 -14  -1  -3    0.64    1.26
 -14   1  -3    0.96    1.58
  14   1   3    0.99    1.46
  14  -2  -3    1.07    1.63
  14   2  -3   -0.99    1.41
 -14   2   3    2.68    2.36
 -14  -2   3    1.42    2.38
  13   2  -3   15.92    3.07
  13  -2  -3   15.00    3.14
 -13   2   3   20.21    3.94
 -13  -2   3   17.02    3.68
  12  -2  -3    5.26    2.06
  12   2  -3    3.18    1.62
 -12   2   3    5.33    2.48
 -12  -2   3    4.91    2.37
  11  -2  -3   17.31    3.02
 -11  -2   3   24.94    3.93
 -11   2   3   18.15    3.28
  11   2  -3   23.97    3.29
 -10  -2   3   11.96    2.72
 -10   2   3   19.66    3.17
 -10   2   3   20.11    2.62
  10   2  -3   20.25    2.88
  10  -2  -3   20.55    2.96
  -9  -2   3    0.74    0.99
   9   2  -3    0.57    0.87
   9  -2  -3    1.13    1.05
  -9   2   3    2.21    1.38
  -9   2   3    0.42    0.93
  -8  -2   3   63.15    4.55
   8   2  -3   58.46    3.15
  -8   2   3   56.01    3.93
  -8   2   3   64.62    4.32
   8  -2  -3   56.72    3.21
   8  -2  -3   55.90    4.02
  -8  -2   3   61.14    3.67
   8   2  -3   57.88    4.05
  -7   2   3   63.38    4.12
  -7  -2   3   67.64    3.90
   7   2  -3   66.17    3.25
   7  -2  -3   63.73    4.15
  -7   2   3   65.69    4.22
   7   2  -3   65.83    4.22
  -7  -2   3   72.38    4.64
   7  -2  -3   66.87    3.37
   6   2  -3   24.32    2.21
  -6   2   3   25.50    1.54
   6   2  -3   24.43    1.59
  -6  -2   3   25.34    2.08
   6  -2  -3   21.75    2.11
  -6  -2   3   27.24    2.80
  -6   2   3   25.41    2.27
  -6   2   3   25.02    2.17
  -5  -2   3  173.94    8.16
  -5   2   3  179.23    8.37
   5   2  -3  174.42    8.01
   5  -2  -3  166.68    7.81
   5   2  -3  175.32    6.70
  -5  -2   3  176.19    8.10
  -5   2   3  188.38    6.68
  -4  -2   3   23.39    2.00
  -4   2   3   23.02    1.90
   4   2  -3   22.94    1.31
  -4   2   3   23.18    1.28
  -4  -2   3   23.00    1.93
   4  -2  -3   23.86    1.85
   4   2  -3   21.80    1.90
   3   2  -3  147.12    5.47
  -3  -2   3  144.51    6.40
  -3   2   3  156.79    5.51
   3  -2  -3  145.92    6.42
  -3   2   3  140.38    6.79
  -3  -2   3  130.63    6.83
  -3   2   3  145.75    6.16
  -2  -2   3  320.21   11.86
  -2   2   3  306.40   11.07
   2   2  -3  327.33   11.16
  -2  -2   3  293.42   13.37
   2  -2  -3  294.39   12.24
   1   2  -3    0.85    0.37
  -1  -2   3    1.04    0.38
  -1   2   3    1.68    0.50
   1  -2  -3    0.71    0.37
  -1  -2   3    0.70    0.54
   1   2  -3    0.77    0.50
  -1   2   3    1.40    0.36
   1  -2  -3    1.55    0.44
   0   2   3  201.71    8.55
   0   2   3  197.96    7.34
   0  -2  -3  201.96    7.64
   0   2  -3  195.92    7.47
   0  -2  -3  202.95    7.81
   0  -2   3  194.12    7.33
   0   2  -3  184.60    8.12
   1   2   3  285.57   10.44
  -1   2  -3  285.16   11.08
  -1  -2  -3  273.24   10.61
  -1  -2  -3  274.33   10.82
  -1   2  -3  284.62   10.44
   1   2   3  283.35   11.75
   2  -2   3   49.12    3.65
  -2   2  -3   53.36    2.71
  -2  -2  -3   49.93    2.81
  -2   2  -3   52.72    2.68
  -2  -2  -3   53.36    2.63
   2   2   3   55.45    2.67
   3  -2   3  286.35   13.79
  -3   2  -3  294.10   11.34
  -3  -2  -3  273.35   11.78
   3   2   3  321.03   12.44
  -3   2  -3  305.04   10.79
  -3   2  -3  307.85   11.90
  -3  -2  -3  301.24   11.87
   3   2   3  315.06   11.59
   4  -2   3    4.19    1.25
  -4  -2  -3    3.81    0.79
  -4   2  -3    3.99    0.61
  -4  -2  -3    2.91    0.93
   4   2   3    3.01    0.87
   4   2   3    2.98    0.52
  -4   2  -3    3.25    0.78
  -5   2  -3  162.75    6.89
   5  -2   3  168.39    8.52
   5   2   3  158.21    7.11
  -5   2  -3  163.81    6.47
  -5   2  -3  162.27    7.16
   5   2   3  153.63    6.84
  -5  -2  -3  156.72    7.11
  -5  -2  -3  155.80    7.38
   6   2   3   49.59    3.32
  -6  -2  -3   49.65    3.20
   6  -2   3   51.66    3.96
  -6   2  -3   50.50    2.85
  -6   2  -3   50.49    3.20
  -6   2  -3   52.40    3.15
   6   2   3   56.28    2.75
  -6  -2  -3   56.10    3.66
   7  -2   3    2.50    1.31
  -7  -2  -3    1.29    0.76
   7   2   3    1.30    0.89
  -7   2  -3    2.43    0.85
  -7   2  -3    1.22    0.83
  -7  -2  -3    2.16    0.97
   7  -2   3    0.64    0.96
   8  -2   3   46.83    3.65
  -8  -2  -3   44.77    3.35
   8   2   3   38.83    3.25
   8  -2   3   50.03    4.17
  -8   2  -3   47.01    3.40
  -8  -2  -3   53.93    3.79
  -8   2  -3   51.36    3.20
   9   2   3   29.86    3.11
  -9   2  -3   34.52    3.10
  -9   2  -3   39.88    2.95
  -9  -2  -3   35.99    3.29
  -9  -2  -3   32.57    2.91
   9  -2   3   29.52    3.22
  10  -2   3    8.28    2.11
  10   2   3    9.76    2.03
 -10   2  -3   12.04    2.07
 -10  -2  -3   10.86    2.09
 -10  -2  -3   10.86    2.32
 -10   2  -3   12.64    2.26
  11   2   3   51.22    4.16
 -11  -2  -3   53.52    4.39
 -11  -2  -3   53.98    4.30
  11  -2   3   48.41    4.32
 -11   2  -3   55.15    4.39
 -11   2  -3   57.23    4.18
 -12   2  -3    2.21    1.65
 -12  -2  -3    1.87    1.58
  12  -2   3   -0.18    1.42
  12   2   3    0.67    1.34
 -12  -2  -3    0.30    1.44
  13   2   3   14.81    2.84
  13  -2   3   12.64    2.89
 -13   2  -3   13.30    2.84
 -13  -2  -3   13.85    2.86
 -13  -2  -3   19.42    3.48
 -14  -2  -3   15.06    3.52
 -14   2  -3   11.54    2.78
 -14  -2  -3   10.56    2.76
  14   2   3   15.69    2.98
  14  -3  -3   13.27    3.23
 -14   3   3   19.64    4.16
 -14  -3   3   14.93    3.83
  14   3  -3   16.58    3.17
 -13  -3   3   -1.08    2.25
  13   3  -3    0.90    1.53
  13  -3  -3    1.12    1.51
 -13   3   3   -0.84    1.92
 -12  -3   3   23.85    4.12
 -12   3   3   26.13    3.98
  12  -3  -3   27.11    3.83
  12   3  -3   19.72    3.23
 -11  -3   3    7.66    2.47
  11  -3  -3   19.09    3.11
 -11   3   3   18.91    2.80
  11   3  -3   12.44    2.53
 -11   3   3   16.48    3.13
 -10   3   3    8.38    1.91
 -10   3   3    7.05    2.24
 -10  -3   3    0.90    1.24
  10   3  -3    7.00    1.82
  10  -3  -3    5.61    1.75
  -9  -3   3   72.81    5.28
  -9   3   3   62.75    4.53
   9   3  -3   66.52    4.68
   9  -3  -3   63.31    4.61
  -9   3   3   77.56    5.04
   8   3  -3   26.60    1.98
   8   3  -3   20.27    2.65
   8  -3  -3   23.21    2.75
  -8  -3   3   27.71    2.30
  -8   3   3   27.77    3.02
  -8  -3   3   25.80    3.26
  -8   3   3   32.61    2.83
  -8   3   3   26.19    1.86
  -7   3   3   11.79    1.20
  -7   3   3   12.09    1.98
  -7   3   3    9.96    1.71
   7   3  -3   12.46    1.97
  -7  -3   3   11.80    1.53
  -7  -3   3   12.34    2.20
   7   3  -3    9.52    1.21
   7  -3  -3    9.36    1.72
  -6  -3   3   87.61    4.59
   6  -3  -3   76.86    4.53
  -6   3   3   83.40    4.66
  -6  -3   3   86.76    5.15
  -6   3   3   85.25    4.88
   6   3  -3   84.22    3.82
  -6   3   3   82.78    3.72
   5   3  -3   -0.11    0.40
  -5  -3   3    0.16    0.65
  -5  -3   3    0.70    0.64
  -5   3   3    0.27    0.59
  -5   3   3    0.80    0.70
   5   3  -3    0.62    0.41
   5  -3  -3    0.66    0.63
  -5   3   3    0.60    0.42
   4   3  -3  124.56    5.98
   4  -3  -3  121.09    5.72
  -4   3   3  120.65    6.17
  -4  -3   3  124.45    6.14
  -4  -3   3  126.01    6.24
  -4   3   3  128.93    5.06
   4   3  -3  119.10    4.95
   3   3  -3   32.83    1.82
   3  -3  -3   33.33    2.17
  -3  -3   3   30.84    2.37
   3  -3  -3   31.56    2.20
   3   3  -3   33.04    2.35
  -3   3   3   32.97    1.90
  -3  -3   3   33.16    2.44
  -2   3   3  140.99    6.55
  -2   3   3  140.58    5.61
   2   3  -3  139.54    6.41
  -2  -3   3  137.99    6.17
  -2  -3   3  131.21    6.83
   2   3  -3  142.63    5.63
   2  -3  -3  142.96    5.99
   2  -3  -3  131.40    6.00
  -1   3   3  480.35   19.37
  -1   3   3  462.13   16.63
  -1  -3   3  437.72   17.25
   1  -3  -3  500.33   17.70
   1   3  -3  487.12   18.36
   1   3  -3  485.91   16.93
  -1  -3   3  415.70   20.06
   0   3   3    7.58    0.91
   0  -3  -3    6.56    0.63
   0  -3   3    6.67    0.87
   0   3  -3    6.61    0.99
   0  -3  -3    5.95    0.91
   0   3  -3    7.84    0.99
   0  -3   3    2.64    0.96
   0   3   3    6.58    0.80
  -1  -3  -3   47.46    2.66
   1   3   3   47.74    2.49
   1  -3   3   44.88    3.54
  -1  -3  -3   50.32    2.34
  -1   3  -3   46.30    2.57
  -1   3  -3   47.83    2.56
   1   3   3   53.04    2.59
   1  -3   3   42.05    2.11
   2  -3   3  366.39   16.37
  -2  -3  -3  352.20   13.84
  -3  -3  -3    0.97    0.47
   3  -3   3    1.50    0.36
   3   3   3    0.72    0.54
   3   3   3    1.26    0.35
  -3   3  -3    1.56    0.53
  -3   3  -3    1.11    0.58
   3  -3   3    1.02    0.84
  -3  -3  -3    1.08    0.71
  -4   3  -3  294.89   10.95
  -4  -3  -3  291.83   11.99
  -4   3  -3  300.71   12.03
   4  -3   3  297.14   14.00
   4   3   3  313.76   12.10
   4   3   3  319.46   11.90
  -4  -3  -3  276.23   12.21
  -5  -3  -3   14.90    2.13
   5   3   3   13.72    1.80
  -5   3  -3   14.64    1.57
   5  -3   3   14.72    2.28
  -5   3  -3   14.82    1.68
  -5  -3  -3   12.43    1.51
  -5   3  -3   14.54    1.16
  -6   3  -3   11.59    1.60
  -6   3  -3   10.02    1.51
  -6  -3  -3   10.00    1.49
   6   3   3    9.67    1.64
  -6  -3  -3   14.46    2.23
   6  -3   3   13.08    2.27
  -6   3  -3   10.87    1.24
  -7  -3  -3   61.98    3.88
  -7   3  -3   60.95    3.39
   7   3   3   61.80    3.97
  -7   3  -3   58.65    3.65
  -7   3  -3   63.50    3.83
   7  -3   3   64.85    4.81
  -7  -3  -3   68.13    4.39
  -8   3  -3   11.48    1.81
  -8  -3  -3   12.21    1.95
  -8  -3  -3   14.74    2.39
  -8   3  -3   10.82    1.86
   8   3   3   11.04    1.93
   8  -3   3   14.58    2.66
  -8   3  -3   14.97    1.84
  -9  -3  -3   23.03    2.99
  -9   3  -3   24.17    2.75
   9  -3   3   23.09    2.99
   9   3   3   23.65    2.84
   9  -3   3   28.13    3.61
  -9  -3  -3   22.41    2.62
  -9   3  -3   25.38    2.48
  10   3   3   68.26    4.71
 -10  -3  -3   62.99    4.54
  10  -3   3   64.26    4.75
 -10   3  -3   63.94    4.61
 -10  -3  -3   66.00    4.85
 -10   3  -3   62.38    4.15
  11   3   3    3.92    1.55
 -11   3  -3    1.84    1.50
 -11  -3  -3    2.89    1.45
  11  -3   3    1.94    1.46
 -11  -3  -3    2.54    1.86
 -12   3  -3   30.65    3.70
  12   3   3   29.43    3.55
 -12  -3  -3   22.83    3.21
 -12  -3  -3   24.58    3.67
  12  -3   3   28.61    3.80
 -13  -3  -3    3.23    2.03
  13   3   3    3.37    1.82
 -13   3  -3    4.76    2.08
  13  -3   3    4.44    2.10
 -13  -3  -3    3.11    1.65
 -14   3  -3    3.76    2.28
 -14  -3  -3    5.21    1.88
 -14  -3  -3    2.92    2.22
  14   3   3    3.63    1.95
 -14   4   3    1.54    2.45
 -14  -4   3    3.33    2.44
  14   4  -3    2.69    1.73
  14  -4  -3    2.48    2.30
 -13  -4   3    3.00    2.28
  13   4  -3    4.19    1.87
 -13   4   3    3.26    2.52
  13  -4  -3    2.77    2.03
 -12   4   3    8.91    2.68
  12  -4  -3    6.25    2.45
  12   4  -3    7.18    2.17
 -12  -4   3    1.12    1.64
  11   4  -3    6.52    2.10
  11  -4  -3    8.12    2.29
 -11   4   3    8.16    2.40
 -11  -4   3    4.21    1.87
 -11   4   3    7.89    2.01
 -10   4   3   56.70    4.48
 -10   4   3   65.19    4.79
  10   4  -3   56.96    4.57
  10  -4  -3   52.73    4.41
 -10  -4   3   56.99    4.98
   9  -4  -3   -0.38    0.97
  -9   4   3    1.01    1.03
  -9  -4   3   -0.12    1.39
   9   4  -3    1.44    1.23
  -9   4   3    0.54    1.19
  -8   4   3   97.46    5.65
   8  -4  -3   83.70    5.47
  -8  -4   3  104.30    6.30
  -8   4   3   99.15    4.52
   8   4  -3   95.82    4.63
  -8   4   3   95.07    5.78
   7   4  -3    1.04    0.84
  -7  -4   3    4.36    1.12
  -7  -4   3    3.30    1.37
  -7   4   3    3.41    1.28
  -7   4   3    3.11    1.14
   7  -4  -3    3.68    1.25
  -7   4   3    4.59    0.94
   7   4  -3    3.75    0.93
   6  -4  -3    9.66    1.58
  -6  -4   3   12.21    2.17
  -6   4   3   12.38    1.84
   6   4  -3    9.57    1.70
  -6   4   3   10.87    1.23
   6   4  -3   10.51    1.25
  -6  -4   3   12.57    1.63
  -6   4   3    9.16    1.65
  -5  -4   3   14.26    1.75
  -5   4   3   13.36    1.34
   5  -4  -3   13.37    1.63
  -5   4   3   11.35    1.70
   5   4  -3   12.97    1.28
  -5  -4   3   12.11    2.08
   5   4  -3   14.17    1.82
   4   4  -3  114.07    5.57
  -4  -4   3  100.52    5.68
   4   4  -3  112.97    4.76
  -4   4   3  113.75    4.88
   4  -4  -3  107.84    5.20
   4  -4  -3  107.47    5.40
  -4  -4   3  109.17    5.77
   3   4  -3   61.75    3.04
   3  -4  -3   60.50    3.23
  -3   4   3   60.45    3.13
   3   4  -3   58.52    3.52
   3  -4  -3   56.03    3.31
  -3  -4   3   54.91    3.62
  -3  -4   3   64.33    3.83
  -3   4   3   56.57    3.50
   2  -4  -3  250.02    9.93
   2   4  -3  253.03    9.64
   2   4  -3  263.22   10.61
  -2  -4   3  221.73   10.14
  -2   4   3  244.15    9.62
  -2  -4   3  240.64   11.64
   2  -4  -3  260.34   10.03
  -2   4   3  255.69   11.03
  -1  -4   3   15.06    2.23
  -1   4   3   14.98    1.40
   1  -4  -3   17.36    1.05
   1   4  -3   15.68    1.41
  -1  -4   3   18.39    1.78
   1  -4  -3   14.88    1.52
  -1   4   3   15.74    1.43
   1   4  -3   17.36    1.65
   0   4   3  469.62   17.48
   0  -4  -3  510.39   18.12
   0   4   3  510.65   20.08
   0  -4   3  447.12   21.36
   0   4  -3  492.55   17.88
   0   4  -3  484.73   18.82
   1  -4   3  112.51    4.69
  -1  -4  -3   94.03    5.05
   1   4   3  117.28    4.95
   1  -4   3  108.96    6.49
   1   4   3  117.44    5.22
  -1  -4  -3  122.06    4.73
  -1   4  -3  114.25    5.16
  -1   4  -3  111.33    5.03
  -2  -4  -3   44.07    2.32
  -2   4  -3   38.84    2.57
   2  -4   3   43.93    3.51
   2  -4   3   46.01    2.09
   2   4   3   46.12    2.33
  -2  -4  -3   41.15    2.81
  -2   4  -3   42.01    2.40
   3  -4   3   43.10    3.48
  -3  -4  -3   38.78    2.90
  -3   4  -3   45.08    2.49
   3   4   3   45.22    2.17
   3   4   3   42.12    2.65
  -3   4  -3   40.40    2.65
  -3  -4  -3   42.47    2.41
   3  -4   3   43.25    2.05
  -4   4  -3    3.92    0.87
  -4  -4  -3    4.19    1.23
   4   4   3    2.34    0.83
   4   4   3    3.49    0.41
   4  -4   3    3.75    1.27
   4  -4   3    3.25    0.64
  -4  -4  -3    3.86    0.87
  -5  -4  -3   50.60    3.21
  -5   4  -3   55.31    3.38
   5   4   3   58.87    3.59
   5  -4   3   58.13    4.34
  -5   4  -3   58.64    3.31
  -5  -4  -3   61.77    4.12
   6   4   3  140.47    6.82
  -6   4  -3  140.83    5.99
  -6  -4  -3  135.23    6.73
  -6   4  -3  148.73    6.77
   6  -4   3  142.13    8.17
  -6  -4  -3  143.31    7.43
  -6   4  -3  144.78    6.63
  -7  -4  -3    3.45    1.42
   7   4   3    2.45    1.14
  -7   4  -3    3.95    1.14
  -7   4  -3    3.06    0.90
   7  -4   3    2.12    1.47
  -7   4  -3    3.03    1.03
  -7  -4  -3    3.67    1.08
  -8   4  -3  137.68    6.69
  -8  -4  -3  139.42    7.55
  -8   4  -3  148.56    6.42
   8  -4   3  143.58    8.51
  -8  -4  -3  135.06    7.00
  -8   4  -3  121.39    6.79
   8   4   3  137.31    7.04
   9   4   3   17.27    2.52
  -9  -4  -3   15.41    2.73
  -9   4  -3   15.33    2.27
  -9  -4  -3   14.81    2.25
   9  -4   3   15.81    3.09
  -9   4  -3   17.21    2.27
  -9   4  -3   17.33    2.05
  10  -4   3   15.79    2.86
 -10  -4  -3   16.66    2.98
 -10  -4  -3   15.68    2.45
  10   4   3   12.89    2.50
 -10   4  -3   17.01    2.58
  10  -4   3   15.53    3.22
 -11   4  -3    3.22    1.66
 -11  -4  -3    3.02    1.93
  11  -4   3    3.06    1.72
  11   4   3    2.84    1.55
 -11  -4  -3    2.76    1.41
  12   4   3    3.51    1.73
  12  -4   3    4.32    2.09
 -12  -4  -3    3.39    1.64
 -12  -4  -3    3.16    2.07
 -12   4  -3    2.90    1.92
  13   4   3   -0.24    1.37
 -13  -4  -3    1.77    1.44
 -13  -4  -3    1.75    2.03
 -13   4  -3    0.35    1.65
  13  -4   3    4.38    2.15
 -14  -4  -3   13.92    3.46
 -14   4  -3   14.10    3.12
 -14  -4  -3   14.23    2.82
  14   4   3   18.59    3.28
 -14   5   3   25.22    4.43
 -14  -5   3   16.45    3.94
  14   5  -3   14.99    3.50
  13   5  -3    1.52    1.74
 -13   5   3    0.89    2.09
 -13  -5   3   -0.46    1.57
 -12   5   3   48.97    4.53
  12  -5  -3   46.77    4.98
 -12  -5   3   32.81    4.70
  12   5  -3   40.54    4.50
 -12   5   3   51.04    5.20
 -11  -5   3    2.20    1.89
 -11   5   3    1.66    1.86
  11   5  -3    0.65    1.60
 -11   5   3    0.72    1.50
  11  -5  -3    0.76    1.60
 -10  -5   3   13.90    3.13
 -10   5   3   10.06    2.30
 -10   5   3   11.53    2.45
  10  -5  -3    7.93    2.17
  -9   5   3    0.78    1.18
   9  -5  -3    1.01    1.17
  -9  -5   3   -0.18    1.14
  -9   5   3    1.09    1.21
   9   5  -3    1.78    1.41
   8   5  -3   50.32    3.12
  -8   5   3   54.66    4.14
   8   5  -3   52.31    4.02
  -8   5   3   53.53    3.12
  -8   5   3   54.80    4.05
  -8  -5   3   55.40    4.45
   8  -5  -3   51.67    3.98
   7  -5  -3    1.22    0.97
   7   5  -3    0.30    0.88
   7  -5  -3    0.35    0.87
   7   5  -3    1.52    0.72
  -7   5   3    1.08    0.75
  -7  -5   3    1.15    1.10
  -7   5   3    1.48    0.96
  -6   5   3  141.47    7.77
   6  -5  -3  142.75    7.18
  -6   5   3  161.18    6.57
   6  -5  -3  150.63    7.56
  -6  -5   3  173.34    7.72
   6   5  -3  151.98    6.47
  -6  -5   3  138.71    7.78
   6   5  -3  152.08    7.49
  -5  -5   3    0.15    0.72
   5  -5  -3   -0.14    0.62
  -5   5   3    0.00    0.59
  -5  -5   3    0.46    0.75
   5   5  -3    0.52    0.56
  -5   5   3    0.45    0.57
   5  -5  -3    1.27    0.77
   5   5  -3    0.08    0.68
  -4  -5   3  375.89   15.75
  -4  -5   3  323.16   14.56
   4   5  -3  368.99   13.40
   4   5  -3  374.35   14.73
   4  -5  -3  335.65   14.10
  -4   5   3  359.49   13.57
   4  -5  -3  344.37   14.14
   3  -5  -3   57.74    3.49
  -3  -5   3   58.86    4.02
   3   5  -3   66.71    3.77
  -3  -5   3   53.47    3.73
  -3   5   3   63.52    3.76
  -3   5   3   58.25    3.38
   3  -5  -3   58.41    3.18
   3   5  -3   66.60    3.35
  -2  -5   3  144.93    7.42
  -2   5   3  161.46    7.83
   2   5  -3  169.30    7.05
  -2   5   3  163.45    7.05
   2  -5  -3  173.86    6.68
  -2  -5   3  165.06    8.76
   2  -5  -3  171.25    7.31
   2   5  -3  174.24    7.63
   1  -5  -3    4.67    0.46
  -1   5   3    4.69    0.95
   1  -5  -3    3.66    0.88
   1   5  -3    5.24    1.11
  -1  -5   3    3.48    1.30
  -1   5   3    3.01    0.80
   1   5  -3    4.11    0.99
  -1  -5   3    3.64    1.00
   0   5  -3   44.36    2.72
   0  -5  -3   47.74    2.92
   0   5   3   45.88    2.74
   0  -5   3   43.20    3.66
   0  -5   3   41.10    2.65
   0  -5  -3   49.27    2.11
   0   5   3   46.82    2.67
   0   5  -3   45.15    2.84
  -1   5  -3    1.55    0.71
   1  -5   3    2.71    0.67
   1   5   3    2.39    0.61
   1   5   3    2.27    0.73
  -1  -5  -3    0.50    0.45
  -1   5  -3    2.10    0.63
  -1  -5  -3    2.45    0.49
   1  -5   3    0.32    0.71
  -3   5  -3   10.86    1.61
   3  -5   3   15.01    1.14
  -3  -5  -3   13.67    1.26
  -3   5  -3   14.89    1.30
   3  -5   3   14.66    2.30
   3   5   3   13.48    1.62
   3   5   3   14.78    1.10
  -3  -5  -3   12.00    1.90
   4  -5   3  214.91   11.31
  -4  -5  -3  233.16    9.45
   4   5   3  228.56    9.44
  -4  -5  -3  222.64   10.17
   5   5   3    3.32    1.06
  -5  -5  -3    4.37    1.46
  -5   5  -3    4.18    1.13
   5  -5   3    4.12    0.82
  -5   5  -3    5.68    1.08
  -5  -5  -3    4.09    1.00
   5  -5   3    3.43    1.43
  -6  -5  -3   63.80    3.81
   6  -5   3   55.92    3.31
  -6  -5  -3   63.52    4.50
  -6   5  -3   62.43    3.86
   6  -5   3   61.70    4.85
   6   5   3   70.90    4.15
  -6   5  -3   60.63    3.69
   7   5   3    0.42    0.87
  -7   5  -3    0.40    0.83
  -7  -5  -3    0.06    1.04
   7  -5   3    0.73    0.66
  -7   5  -3    0.12    0.74
   7  -5   3   -0.33    1.11
  -7  -5  -3    0.33    0.69
  -8   5  -3   16.72    2.24
   8  -5   3   14.87    2.97
  -8   5  -3   19.79    2.36
  -8   5  -3   20.67    1.88
   8   5   3   18.61    2.55
  -8  -5  -3   26.07    3.44
  -8  -5  -3   16.26    2.22
   9  -5   3    0.82    1.52
  -9   5  -3    0.76    1.14
   9   5   3    0.75    1.12
  -9  -5  -3    0.36    1.00
  -9  -5  -3    0.16    1.39
  -9   5  -3    0.88    1.06
 -10   5  -3   90.03    5.35
 -10  -5  -3   80.78    5.50
  10   5   3   90.52    5.68
 -10  -5  -3   97.84    6.35
 -10   5  -3   89.84    5.69
  10  -5   3   85.84    6.88
 -11   5  -3   -0.71    1.45
 -11  -5  -3    0.31    1.19
 -11  -5  -3   -1.45    1.32
  11  -5   3    0.41    1.50
  11   5   3   -0.10    1.27
 -12  -5  -3   35.44    4.39
 -12   5  -3   31.38    3.82
 -12  -5  -3   27.18    3.45
  12   5   3   28.54    3.60
  12  -5   3   32.52    4.24
 -13  -5  -3    0.92    1.34
 -13  -5  -3   -2.12    1.76
 -13   5  -3    1.82    1.82
  13   5   3    0.38    1.41
  13  -5   3    0.47    1.97
 -14   5  -3    1.53    2.08
  14   5   3    7.51    2.40
 -14  -5  -3    4.47    2.41
 -14  -6   3    0.88    2.09
  14   6  -3    1.15    1.91
  14  -6  -3    0.45    2.53
  13   6  -3   -1.49    1.10
 -13  -6   3    1.73    2.10
 -12  -6   3    8.20    2.70
 -12   6   3    3.17    1.85
  12   6  -3    4.22    2.08
 -11  -6   3    5.98    2.41
  11  -6  -3    4.98    2.29
 -11   6   3    7.88    2.35
  11   6  -3    7.50    2.24
  10  -6  -3   39.66    4.68
  10   6  -3   44.71    4.01
 -10   6   3   42.76    3.99
 -10  -6   3   41.22    4.68
  -9   6   3    1.22    1.25
  -9  -6   3    1.22    1.36
   9  -6  -3    0.85    1.40
   9   6  -3    0.35    0.86
   9   6  -3    2.19    1.41
   8   6  -3   43.93    2.90
   8  -6  -3   37.14    3.89
   8   6  -3   44.08    3.60
  -8  -6   3   35.65    4.07
   8  -6  -3   35.76    3.35
  -8   6   3   41.24    3.60
  -8   6   3   45.56    2.87
   7  -6  -3   15.41    2.49
   7  -6  -3   14.02    2.10
  -7   6   3   17.37    1.84
  -7   6   3   17.49    2.46
  -7  -6   3   14.77    2.66
   7   6  -3   16.54    2.34
   7   6  -3   15.77    1.80
  -6   6   3   15.68    2.28
   6   6  -3   18.78    2.31
   6   6  -3   17.71    1.83
  -6  -6   3   23.84    2.24
  -6  -6   3   17.41    2.75
  -6   6   3   19.54    1.97
   6  -6  -3   17.80    2.45
   6  -6  -3   18.67    2.11
  -5   6   3   26.56    2.18
  -5  -6   3   28.27    2.49
   5  -6  -3   25.49    2.16
   5   6  -3   27.61    2.12
  -5  -6   3   22.51    2.97
   5  -6  -3   21.32    2.49
   5   6  -3   25.24    2.45
  -4   6   3   21.99    2.17
   4   6  -3   24.52    2.43
  -4   6   3   23.14    2.29
   4  -6  -3   23.53    1.99
  -4  -6   3   24.56    2.93
   4  -6  -3   25.30    2.49
   4   6  -3   25.93    2.07
  -4  -6   3   27.73    2.61
   3   6  -3    7.20    1.30
   3  -6  -3    7.20    0.94
  -3   6   3    5.12    1.22
  -3   6   3    5.39    1.20
   3   6  -3    6.99    1.41
   3  -6  -3    7.71    1.44
  -3  -6   3    7.41    1.74
  -3  -6   3    6.55    1.52
   2   6  -3  310.57   12.25
  -2  -6   3  312.09   14.92
   2   6  -3  333.42   13.13
   2  -6  -3  314.05   12.61
   2  -6  -3  331.20   11.68
  -2   6   3  305.66   12.31
  -2  -6   3  274.61   12.74
  -2   6   3  307.17   13.74
  -1  -6   3    3.39    1.04
   1   6  -3    3.39    0.95
  -1   6   3    3.10    0.86
   1   6  -3    3.29    0.94
   1  -6  -3    3.73    1.00
   0  -6   3  121.24    5.96
   0   6   3  130.50    5.92
   0   6  -3  126.88    5.96
   0   6   3  137.57    6.34
   0  -6  -3  139.39    6.35
   0   6  -3  129.14    6.13
   0  -6  -3  134.07    5.10
   0  -6   3  114.67    7.34
  -1  -6  -3   58.84    3.82
   1  -6   3   53.58    4.45
  -1   6  -3   64.69    3.82
  -1  -6  -3   68.53    2.98
   1   6   3   58.98    3.46
   1  -6   3   68.78    3.51
   1   6   3   72.28    3.64
  -1   6  -3   69.51    3.43
   2   6   3   97.62    4.63
  -2   6  -3   97.30    4.43
   2  -6   3   87.33    5.90
  -2  -6  -3   89.61    4.18
   2  -6   3   95.88    4.38
  -2   6  -3   93.57    4.95
   3   6   3   19.36    1.42
   3   6   3   16.90    1.90
  -3  -6  -3   18.54    1.51
   3  -6   3   18.43    2.70
   3  -6   3   19.60    1.51
  -3   6  -3   19.50    1.54
  -3   6  -3   18.83    2.10
  -4  -6  -3   40.84    3.39
   4   6   3   46.66    3.04
  -4   6  -3   44.27    2.61
   4  -6   3   39.49    2.35
   4   6   3   40.71    2.22
   4  -6   3   35.88    3.55
  -4  -6  -3   40.23    2.59
   5  -6   3    5.38    1.67
  -5  -6  -3    7.88    1.94
   5   6   3    8.66    1.59
   5  -6   3    4.89    0.96
  -5   6  -3    5.50    1.32
  -5  -6  -3    6.90    1.29
   6   6   3  173.15    7.93
  -6  -6  -3  163.65    7.76
  -6   6  -3  153.17    7.66
   6  -6   3  157.48    7.13
  -6  -6  -3  190.35    9.14
   6  -6   3  149.08    9.30
  -6   6  -3  177.96    7.77
   7  -6   3    1.25    1.28
  -7   6  -3    0.56    0.94
  -7  -6  -3    0.56    1.32
  -7  -6  -3    1.39    0.90
   7  -6   3    1.04    0.74
  -7   6  -3    2.48    1.07
   7   6   3    0.68    1.05
   8   6   3   85.62    5.33
  -8  -6  -3  108.43    6.53
  -8   6  -3   89.44    5.21
  -8  -6  -3   91.33    5.36
   8  -6   3   73.82    6.21
  -8   6  -3   92.03    5.26
  -9   6  -3    8.50    1.96
  -9   6  -3    7.03    1.75
  -9  -6  -3    8.40    2.42
   9   6   3    6.97    1.84
  -9  -6  -3    6.84    1.69
   9  -6   3    7.93    2.44
 -10   6  -3   19.44    2.84
  10  -6   3   19.68    3.65
 -10   6  -3   22.47    2.78
  10   6   3   20.55    2.98
 -10  -6  -3   25.00    3.71
 -10  -6  -3   19.71    2.81
 -11   6  -3    3.88    1.68
  11   6   3    4.49    1.85
 -11   6  -3    4.84    1.85
 -11  -6  -3    5.24    2.34
 -11  -6  -3    3.28    1.49
  12  -6   3    3.75    2.30
 -12   6  -3    2.32    1.70
  12   6   3    2.12    1.68
 -12  -6  -3    4.21    1.63
 -12  -6  -3    3.97    2.48
 -13  -6  -3    1.80    1.95
 -13   6  -3    1.63    2.03
  13  -6   3   -0.13    1.83
  13   6   3    3.89    1.85
 -13  -7   3   -0.57    2.05
  13  -7  -3    0.06    2.23
  13   7  -3   -0.34    1.71
 -12   7   3   17.30    3.26
  12   7  -3   15.79    3.29
 -12  -7   3   13.22    3.42
  12  -7  -3   15.76    3.58
 -11  -7   3   10.95    2.85
  11   7  -3    4.93    2.25
  11  -7  -3    8.27    2.54
 -11   7   3    9.40    2.54
 -10  -7   3    0.74    1.49
  10  -7  -3    0.74    1.40
  10   7  -3    0.08    1.40
 -10   7   3    0.62    1.37
  -9   7   3   35.35    3.62
   9  -7  -3   36.37    4.19
   9   7  -3   29.66    2.65
   9   7  -3   32.31    3.51
  -9  -7   3   36.23    4.30
  -8   7   3    5.08    1.30
   8  -7  -3    2.46    1.34
  -8   7   3    2.35    1.29
  -8  -7   3    3.64    1.73
   8   7  -3    3.89    1.48
   8   7  -3    2.71    1.08
  -7   7   3    9.52    1.61
  -7  -7   3    9.83    2.28
   7   7  -3   10.18    1.62
  -7   7   3   12.13    2.23
   7   7  -3   13.50    2.25
   7  -7  -3    9.49    2.05
  -6   7   3  118.21    5.78
  -6  -7   3  142.81    6.73
   6   7  -3  112.88    5.63
  -6  -7   3  109.26    6.76
  -6   7   3  107.68    6.61
   6  -7  -3  118.06    6.47
   6   7  -3  104.79    6.20
  -5   7   3    1.46    0.96
   5   7  -3    1.45    1.13
   5   7  -3    1.23    0.78
   5  -7  -3    2.70    1.08
  -5   7   3    1.83    1.04
  -5  -7   3    3.14    1.22
  -5  -7   3    2.18    1.22
  -4   7   3  151.94    7.92
  -4   7   3  148.53    7.12
   4   7  -3  164.26    7.63
  -4  -7   3  164.18    8.36
   4   7  -3  150.81    6.95
  -4  -7   3  142.86    7.81
   4  -7  -3  148.40    7.39
  -3   7   3   32.67    2.70
   3   7  -3   31.30    2.49
   3   7  -3   34.91    2.77
  -3   7   3   28.90    2.77
   3  -7  -3   33.75    2.75
  -3  -7   3   30.52    3.20
  -3  -7   3   35.48    3.41
  -2  -7   3    2.73    1.55
  -2   7   3    2.37    0.92
   2   7  -3    2.07    0.83
  -2   7   3    2.69    1.00
  -2  -7   3    2.82    1.13
   2   7  -3    2.08    0.91
   2  -7  -3    2.21    0.94
  -1  -7   3  101.83    5.75
  -1   7   3  117.35    5.97
  -1   7   3  108.06    5.63
  -1  -7   3  122.99    7.32
   1   7  -3  121.65    5.78
   1   7  -3  109.93    5.67
   1  -7  -3  113.42    5.86
   0   7   3    5.56    1.26
   0  -7   3    5.47    1.77
   0  -7  -3    5.97    0.55
   0   7  -3    5.07    1.22
   0   7  -3    5.01    1.07
   0  -7   3    4.78    1.19
   0  -7  -3    5.18    1.27
   0   7   3    6.16    1.20
   1  -7   3   14.50    2.55
  -1   7  -3   15.45    1.46
  -1  -7  -3   15.21    2.14
   1   7   3   16.96    1.96
   1   7   3   14.18    1.48
  -1  -7  -3   15.41    1.12
   1  -7   3   15.57    1.80
  -1   7  -3   14.34    1.96
  -2   7  -3  145.92    6.31
  -2   7  -3  141.32    6.92
   2  -7   3  146.36    6.46
   2   7   3  145.68    6.78
  -2  -7  -3  139.68    7.27
  -2  -7  -3  146.28    6.12
  -3  -7  -3    5.70    1.00
  -3  -7  -3    1.25    1.04
  -3   7  -3    1.75    0.67
   3   7   3    0.70    0.52
   3  -7   3    0.47    0.56
   3  -7   3    0.77    1.02
  -3   7  -3   -0.12    0.71
   3   7   3    0.30    0.66
   4  -7   3  142.05    8.42
   5  -7   3   19.56    1.76
  -5   7  -3   16.05    2.26
  -5  -7  -3   21.29    1.93
  -5  -7  -3   21.13    3.07
   5   7   3   18.09    2.27
   5  -7   3   16.27    2.89
  -5   7  -3   23.54    1.95
   6  -7   3    6.99    1.31
  -6   7  -3    8.19    1.46
   6  -7   3    9.14    2.30
   6   7   3    8.01    1.72
  -6  -7  -3    7.85    1.51
  -6  -7  -3    7.71    2.14
  -6   7  -3    7.69    1.71
  -7   7  -3   44.22    3.15
  -7   7  -3   41.49    3.42
  -7  -7  -3   51.31    4.44
  -7  -7  -3   39.96    3.19
   7   7   3   46.22    3.58
   7  -7   3   36.75    4.39
   8  -7   3   14.70    3.16
  -8   7  -3   11.25    1.97
  -8   7  -3   12.75    2.18
  -8  -7  -3   10.39    1.91
  -8  -7  -3   14.53    3.01
   8   7   3   15.02    2.48
   9   7   3   16.56    2.69
  -9  -7  -3   18.29    2.59
   9  -7   3   15.15    3.29
  -9   7  -3   17.66    2.59
  -9  -7  -3   30.52    4.04
  -9   7  -3   21.96    2.73
 -10  -7  -3   26.70    3.94
 -10  -7  -3   20.77    2.82
  10  -7   3   19.52    3.85
  10   7   3   25.19    3.28
 -10   7  -3   21.28    2.88
 -10   7  -3   22.66    2.99
 -11  -7  -3   -0.38    1.70
 -11  -7  -3   -0.25    1.01
  11  -7   3   -0.25    1.92
 -11   7  -3    0.89    1.37
  11   7   3   -0.82    1.21
 -12  -7  -3   28.05    4.33
 -12   7  -3   22.42    3.19
  12   7   3   27.35    3.66
  13  -7   3    4.25    2.54
  13   7   3    3.79    2.26
 -13  -7  -3    3.44    2.49
  13   7   3    3.41    1.84
  13   8  -3   12.73    3.23
  13  -8  -3   17.06    3.88
 -13  -8   3   12.81    3.64
 -13   8   3   14.99    3.37
 -12   8   3    3.30    2.04
  12   8  -3    0.57    1.79
  12  -8  -3    2.08    1.87
 -12  -8   3    2.89    2.24
 -11  -8   3    6.97    2.48
  11  -8  -3    7.26    2.52
 -11   8   3    6.48    2.31
  11   8  -3    7.59    2.38
 -10   8   3   15.67    2.91
  10   8  -3   11.66    2.58
 -10  -8   3   10.79    2.79
  10  -8  -3   11.73    2.72
   9  -8  -3    1.87    1.40
   9   8  -3    0.28    1.06
  -9   8   3   -0.35    1.18
  -9  -8   3    0.20    1.32
   9   8  -3    1.49    1.52
  -8  -8   3   27.58    3.78
   8  -8  -3   24.68    3.37
  -8   8   3   21.18    3.12
  -8   8   3   28.84    2.58
   8   8  -3   26.48    2.65
   8   8  -3   25.10    3.08
   7   8  -3   24.15    2.46
  -7   8   3   23.25    3.03
  -7   8   3   27.70    2.68
  -7  -8   3   19.68    3.25
   7  -8  -3   23.72    3.16
   7   8  -3   26.21    2.94
   6  -8  -3    5.98    1.73
  -6  -8   3    6.48    1.94
   6   8  -3   10.21    1.73
  -6   8   3    8.32    1.62
   6   8  -3    5.95    1.69
  -5  -8   3  115.21    6.94
   5   8  -3  116.51    6.00
   5   8  -3  133.08    6.68
   5  -8  -3  119.12    6.56
  -5  -8   3  132.40    6.99
  -5   8   3  106.70    6.66
  -5   8   3  110.15    6.06
   4  -8  -3   15.24    2.27
  -4   8   3   11.90    2.00
   4   8  -3   22.31    2.51
  -4  -8   3   20.70    2.79
  -4  -8   3   18.22    2.83
   4   8  -3   17.03    2.17
  -4   8   3   15.84    2.25
   3  -8  -3   88.83    5.26
  -3  -8   3  107.81    6.64
   3   8  -3  100.45    5.38
   3   8  -3   90.77    5.03
  -3   8   3   92.13    5.47
  -3  -8   3   85.15    5.56
  -3   8   3   85.37    5.14
   2   8  -3   56.56    3.67
  -2   8   3   52.25    3.61
  -2  -8   3   48.18    3.77
   2   8  -3   54.51    3.57
  -2  -8   3   52.47    4.52
   2  -8  -3   53.11    3.69
  -2   8   3   44.84    3.43
  -1   8   3   -0.23    0.58
   1   8  -3    0.05    0.74
   1   8  -3    0.49    0.73
  -1  -8   3   -0.25    1.12
  -1   8   3   -0.10    0.75
  -1  -8   3    1.69    0.97
   1  -8  -3    0.41    0.73
   0  -8   3   21.56    3.20
   0   8  -3   21.58    1.87
   0   8   3   19.46    1.92
   0   8   3   19.78    2.32
   0  -8  -3   20.91    2.57
   0   8  -3   22.15    2.49
   0  -8   3   15.13    2.16
  -1   8  -3   80.80    4.67
   1   8   3   81.27    4.40
   1   8   3   75.07    4.44
  -1  -8  -3   76.47    3.41
   1  -8   3   71.59    5.48
  -1  -8  -3   75.77    4.80
   1  -8   3   71.38    4.28
  -1   8  -3   77.30    3.90
   2  -8   3   22.32    2.21
   2   8   3   23.27    1.93
   2   8   3   13.85    2.01
  -2   8  -3   24.67    2.63
  -2  -8  -3   22.79    1.60
  -2   8  -3   22.92    1.70
  -2  -8  -3   20.86    2.78
   3  -8   3  189.18    8.09
  -3  -8  -3  186.66    9.31
  -3   8  -3  180.61    8.61
   3   8   3  182.06    8.38
   3  -8   3  177.47   10.23
  -3   8  -3  195.57    7.94
  -3  -8  -3  188.24    7.94
   3   8   3  182.91    8.42
  -4  -8  -3    8.93    1.36
   4  -8   3    9.01    2.18
   4   8   3    7.51    1.59
  -4  -8  -3    7.77    2.07
   4  -8   3    7.76    1.43
  -4   8  -3   10.14    1.37
  -5  -8  -3   80.69    4.33
  -5   8  -3   66.09    4.55
   5  -8   3   76.61    4.13
   5   8   3   82.70    4.77
   5  -8   3   67.31    5.59
  -6  -8  -3   39.60    2.97
  -6   8  -3   35.15    3.42
  -6   8  -3   48.10    3.08
   6  -8   3   30.04    4.10
   6   8   3   40.72    3.38
  -6  -8  -3   43.54    4.52
  -7   8  -3    1.48    1.12
   7   8   3   -0.38    0.92
  -7  -8  -3    0.81    1.46
  -7  -8  -3    0.09    0.84
   7  -8   3   -0.06    1.07
  -8  -8  -3   19.82    2.53
  -8  -8  -3   22.73    3.65
   8  -8   3   17.33    3.45
   8   8   3   22.41    2.94
  -8   8  -3   19.65    2.78
  -9   8  -3   27.05    3.18
   9   8   3   23.75    3.15
   9  -8   3   21.82    4.06
  -9  -8  -3   23.40    3.91
  -9  -8  -3   22.99    2.85
  10   8   3    5.03    1.87
 -10  -8  -3    4.38    2.49
  10  -8   3    5.99    2.59
 -10  -8  -3    4.62    1.70
 -10   8  -3    6.29    1.90
 -11   8  -3   22.59    3.16
  11   8   3   20.86    3.25
  11  -8   3   25.17    4.87
 -11  -8  -3   28.41    4.33
  12   8   3   -0.31    1.50
 -12   8  -3    2.83    1.81
 -12  -8  -3    5.33    2.45
  12   8   3    3.80    2.26
  13   8   3    8.99    2.61
 -13  -8  -3   10.89    3.21
  13   8   3   11.21    2.64
  12  -9  -3    3.62    2.34
 -12   9   3    0.14    1.71
  12   9  -3    2.32    2.00
 -12  -9   3    1.64    1.99
 -11  -9   3   16.30    3.34
  11   9  -3   14.15    3.08
 -11   9   3   16.54    3.25
  11  -9  -3   15.41    3.32
  10  -9  -3    0.93    1.54
  10   9  -3    0.14    1.57
 -10  -9   3    0.83    1.38
 -10   9   3    1.66    1.64
   9   9  -3   59.96    4.01
   9  -9  -3   40.36    4.58
  -9  -9   3   60.79    5.22
   9   9  -3   45.40    4.17
  -9   9   3   40.10    4.21
   8   9  -3    3.19    1.72
  -8  -9   3    5.29    1.99
  -8   9   3    4.47    1.76
   8   9  -3    5.33    1.59
   8  -9  -3    4.21    1.75
  -8   9   3    7.04    1.67
  -7  -9   3   64.94    5.23
   7   9  -3   59.15    4.49
   7   9  -3   60.37    4.02
  -7   9   3   57.40    4.01
   7  -9  -3   55.89    4.57
   6   9  -3    8.94    2.01
  -6   9   3    9.84    2.16
  -6   9   3    9.21    1.87
   6  -9  -3   12.62    2.45
   6   9  -3   11.11    1.98
  -6  -9   3   13.44    2.75
   5   9  -3    2.82    1.39
   5  -9  -3    1.83    1.14
   5   9  -3    2.33    1.14
  -5  -9   3    3.81    1.65
  -5  -9   3    4.21    1.69
  -5   9   3    0.53    1.05
  -5   9   3    1.96    1.16
  -4   9   3    2.68    1.19
  -4   9   3    2.69    1.27
  -4  -9   3    2.65    1.40
   4  -9  -3    2.77    1.25
   4   9  -3    4.89    1.54
   4   9  -3    3.57    1.27
  -4  -9   3    3.19    1.65
   3   9  -3  100.73    5.65
  -3  -9   3  113.20    7.14
  -3  -9   3   98.67    6.11
   3  -9  -3  101.88    5.86
  -3   9   3  100.81    5.75
   3   9  -3   84.46    5.25
  -3   9   3   97.59    5.89
  -2  -9   3    0.04    1.49
  -2  -9   3    0.58    1.08
  -2   9   3    0.62    1.00
   2   9  -3   -0.19    0.95
  -2   9   3    0.83    0.73
   2  -9  -3    0.36    0.80
   2   9  -3    2.88    1.12
  -1  -9   3  203.61   11.03
  -1  -9   3  180.08    9.12
   1   9  -3  219.79    8.96
   1  -9  -3  171.45    9.05
  -1   9   3  185.33    8.96
   1   9  -3  192.71    8.98
  -1   9   3  199.47    9.54
   0   9   3    6.76    1.62
   0   9  -3    8.77    1.39
   0  -9   3    5.79    2.00
   0  -9   3    8.74    1.74
   0   9   3    7.28    1.46
   0  -9  -3    4.75    1.50
   0   9  -3    8.85    1.81
  -1   9  -3   74.83    4.72
   1  -9   3   80.02    4.69
  -1  -9  -3   78.17    5.14
   1  -9   3   77.55    5.84
   1   9   3   71.43    4.65
  -1   9  -3   79.57    4.00
   1   9   3   79.00    4.55
  -2  -9  -3    8.12    1.92
   2   9   3    6.91    1.63
   2  -9   3    8.54    1.64
   2   9   3   13.00    1.62
   2  -9   3    7.75    2.10
  -2   9  -3    7.53    1.67
   3   9   3    0.59    0.95
   3  -9   3    0.44    1.21
   3   9   3    1.41    0.76
  -3  -9  -3    1.95    1.29
   3  -9   3    1.26    0.89
  -3   9  -3    0.27    0.91
   4  -9   3    7.12    1.47
  -4  -9  -3    4.71    1.83
  -4  -9  -3    7.09    1.25
   4  -9   3    6.31    2.01
   4   9   3    5.44    1.50
  -4   9  -3    1.41    1.04
  -5  -9  -3   71.60    4.02
  -5   9  -3   66.22    4.59
  -5  -9  -3   66.84    5.21
   5  -9   3   56.56    5.28
   5   9   3   64.01    4.40
  -6   9  -3    0.00    1.06
  -6  -9  -3    0.54    0.83
   6  -9   3   -0.43    1.25
  -6  -9  -3    0.66    1.20
   6   9   3   -0.76    0.89
  -7  -9  -3   46.55    5.16
  -7  -9  -3   67.50    4.26
   7   9   3   68.96    4.67
   7  -9   3   50.78    5.25
  -7   9  -3   67.25    4.62
  -8  -9  -3    1.49    1.16
   8  -9   3    1.24    1.87
   8   9   3    1.77    1.37
  -8   9  -3    0.45    1.20
  -8  -9  -3    3.19    2.04
   9  -9   3   19.14    3.92
  -9   9  -3   26.05    3.24
   9   9   3   23.16    3.29
  -9  -9  -3   29.56    4.28
  10  -9   3    1.63    2.28
 -10   9  -3    1.69    1.56
  10   9   3    2.48    1.61
  10   9   3    2.32    1.75
 -10  -9  -3    3.44    2.40
  11   9   3    1.79    1.62
 -11   9  -3    0.63    1.60
 -11  -9  -3    1.22    2.03
  11   9   3    2.45    1.99
  11  -9   3    2.21    2.15
 -12  -9  -3    0.90    2.19
  12   9   3    2.68    2.02
  12   9   3    1.95    1.80
  12  -9   3    2.19    2.63
 -12   9  -3    2.12    1.64
 -12  10   3    0.74    1.81
  12  10  -3    1.86    2.05
  12 -10  -3   -0.07    1.90
 -12 -10   3    0.40    1.61
  11 -10  -3    6.92    2.49
  11  10  -3    5.06    2.38
 -11  10   3    6.69    2.48
 -11 -10   3    6.48    2.52
  10 -10  -3    1.54    1.72
 -10 -10   3    2.09    1.90
 -10  10   3    0.94    1.63
  10  10  -3   -0.35    1.44
   9  10  -3    1.18    1.59
   9 -10  -3    1.22    1.57
  -9  10   3    0.10    1.41
   9  10  -3    0.78    1.18
  -9 -10   3   -0.13    1.43
   8 -10  -3    2.13    1.63
   8  10  -3    0.94    1.38
  -8  10   3    0.68    1.28
   8  10  -3    0.11    1.04
  -8 -10   3    2.39    1.53
  -8  10   3    2.87    1.54
   7  10  -3   45.83    3.69
   7  10  -3   50.59    4.11
  -7  10   3   47.27    4.28
  -7  10   3   46.16    3.66
   7 -10  -3   38.52    4.30
  -7 -10   3   55.92    4.82
  -6 -10   3   -0.60    1.31
  -6  10   3    0.27    1.10
   6 -10  -3   -0.96    1.10
   6  10  -3   -0.89    1.14
   6  10  -3    0.08    1.04
  -6  10   3    0.92    1.18
   5  10  -3   99.32    5.63
  -5 -10   3  106.22    6.58
   5 -10  -3   89.77    5.90
  -5  10   3   82.67    5.41
   5  10  -3   90.61    5.72
  -5  10   3   89.71    6.01
   4  10  -3    0.46    1.23
  -4 -10   3    2.59    1.78
   4  10  -3    0.67    1.02
  -4  10   3    1.47    1.13
  -4 -10   3    1.97    1.39
  -4  10   3    2.20    1.31
   4 -10  -3    1.90    1.21
   3 -10  -3   37.96    3.50
   3  10  -3   30.18    3.17
   3  10  -3   47.85    3.50
  -3 -10   3   40.50    4.08
  -3 -10   3   48.26    4.60
  -3  10   3   31.39    3.42
  -3  10   3   31.83    3.16
   2  10  -3    3.38    1.32
  -2  10   3    1.31    1.19
  -2 -10   3    0.32    1.25
   2 -10  -3    0.09    1.06
  -2 -10   3    3.67    1.85
   2  10  -3    1.04    1.04
  -2  10   3    1.83    1.07
   1  10  -3   -0.22    0.88
   1 -10  -3    0.70    1.03
  -1  10   3    0.14    1.02
  -1 -10   3    2.24    1.25
  -1  10   3   -0.01    0.73
  -1 -10   3    0.51    1.48
   0 -10   3    0.71    1.04
   0  10  -3    0.32    0.86
   0  10   3    0.40    0.79
   0 -10   3    1.22    1.40
   0  10   3    0.36    1.09
   0 -10  -3   -0.09    0.95
   1  10   3   49.49    3.97
   1 -10   3   58.10    5.06
   1 -10   3   60.72    4.15
  -1 -10  -3   56.44    4.43
  -1  10  -3   55.28    4.07
   1  10   3   58.17    3.83
   2  10   3   16.26    2.47
  -2 -10  -3   12.16    2.47
  -2  10  -3   12.51    2.25
   2 -10   3   13.83    2.90
   2 -10   3   15.61    2.26
   2  10   3   15.62    1.93
  -3  10  -3  141.57    7.60
  -3 -10  -3  159.06    8.55
   3 -10   3  135.41    7.11
   3  10   3  151.60    7.73
  -4  10  -3    0.51    0.86
  -4 -10  -3    0.75    1.34
   4 -10   3    0.08    0.79
   4  10   3   -0.28    0.91
   4 -10   3    0.41    1.37
  -5  10  -3   65.26    4.65
   5  10   3   68.45    4.66
  -5 -10  -3   73.93    5.63
   5 -10   3   57.58    5.47
   6 -10   3    2.49    1.74
   6  10   3    3.43    1.49
  -6  10  -3    2.19    1.41
  -6 -10  -3    1.25    1.80
   6  10   3    3.87    1.44
  -7 -10  -3    0.76    1.52
   7 -10   3    0.64    1.57
  -7  10  -3    1.81    1.56
   7  10   3    0.35    1.19
   7  10   3    3.86    1.46
  -8 -10  -3    0.26    1.48
   8  10   3    1.24    1.30
   8 -10   3   -0.37    1.43
   8  10   3    0.95    1.37
  -8  10  -3   -0.55    1.17
   9  10   3   15.65    2.65
  -9  10  -3   14.44    2.79
  -9 -10  -3   17.71    3.61
   9  10   3   18.98    3.15
   9 -10   3   13.33    3.50
 -10 -10  -3    0.36    2.03
 -10  10  -3    0.62    1.60
  10 -10   3    1.11    2.12
  10  10   3   -0.14    1.71
  10  10   3    1.86    1.61
  11 -10   3   15.81    4.21
 -11  10  -3   24.36    3.47
  11  10   3   24.49    3.68
 -11 -10  -3   31.79    4.81
  11  10   3   20.30    3.47
  12 -10   3   -0.95    2.55
 -12  10  -3   -0.28    1.62
  12  10   3    1.55    1.84
 -12 -10  -3   -0.04    2.26
  12  10   3    1.06    2.02
  11  11  -3    9.31    2.84
 -11  11   3    8.19    2.71
 -11 -11   3   10.67    2.90
  11 -11  -3    7.03    2.84
  10  11  -3    2.89    1.94
 -10 -11   3    1.77    1.82
 -10  11   3   -0.40    1.67
  10 -11  -3    1.96    1.79
   9  11  -3   39.15    4.28
  -9 -11   3   36.37    4.71
  -9  11   3   35.37    4.42
   9 -11  -3   43.76    5.02
   9  11  -3   39.94    3.95
   8 -11  -3    0.67    1.53
  -8  11   3    2.61    1.45
  -8  11   3    1.43    1.14
  -8 -11   3   -0.27    1.32
   8  11  -3   -0.36    1.49
   8  11  -3    0.37    1.27
   7 -11  -3   21.16    3.45
   7  11  -3   25.64    3.35
   7  11  -3   25.76    3.17
  -7  11   3   17.59    3.05
  -7  11   3   18.74    2.77
  -7 -11   3   25.98    3.98
  -6 -11   3    9.52    2.53
   6 -11  -3    7.68    2.19
  -6  11   3    6.36    1.99
   6  11  -3    5.91    1.81
   6  11  -3   10.17    2.32
  -6  11   3    6.57    1.88
   5  11  -3    0.51    1.25
  -5  11   3    0.86    1.20
  -5  11   3    0.13    1.22
   5  11  -3    0.38    1.19
  -5 -11   3    1.42    1.47
   5 -11  -3    0.98    1.30
  -4 -11   3    7.82    2.18
  -4  11   3    6.30    1.82
  -4 -11   3   13.58    3.00
   4  11  -3    7.61    1.86
  -4  11   3    8.60    2.02
   4 -11  -3    5.05    1.94
  -3 -11   3   58.45    5.36
   3 -11  -3   49.39    4.24
  -3 -11   3   55.33    4.53
   3  11  -3   51.78    3.96
  -3  11   3   46.66    3.97
  -3  11   3   47.08    4.10
  -2  11   3    1.65    1.48
  -2  11   3   -0.10    0.87
   2  11  -3    0.38    0.98
  -2 -11   3   -0.91    1.32
   2 -11  -3   -0.11    1.10
  -2 -11   3    0.84    1.34
   1 -11  -3  138.68    7.86
  -1  11   3  129.61    7.39
   1  11  -3  136.14    7.37
  -1 -11   3  144.70    9.14
  -1 -11   3  131.39    7.52
  -1  11   3  139.22    7.56
   0 -11   3    2.16    1.74
   0 -11   3    1.03    1.21
   0  11   3    1.61    1.11
   0  11   3    0.67    1.21
   0 -11  -3    0.28    1.11
   0  11  -3   -0.24    0.99
   1  11   3   16.35    2.78
  -1 -11  -3   28.22    3.68
   1 -11   3   24.17    3.88
   1 -11   3   30.29    3.28
   1  11   3   26.72    2.54
  -1  11  -3   23.80    3.03
  -2  11  -3    8.01    1.97
  -2 -11  -3    7.42    2.06
   2  11   3    7.00    1.94
   2 -11   3    7.62    1.76
   2  11   3    7.91    1.58
   2 -11   3    5.01    2.02
   3 -11   3    1.73    1.54
  -3 -11  -3    2.95    1.81
   3  11   3    3.09    1.51
   3 -11   3    2.86    1.37
  -3  11  -3    3.01    1.42
  -4  11  -3    9.72    2.09
   4  11   3   11.19    2.27
  -4 -11  -3   12.57    2.82
   4 -11   3   10.03    2.70
  -5 -11  -3   18.88    3.53
   5  11   3   18.65    2.94
   5 -11   3   14.25    3.32
  -5  11  -3   17.52    2.87
  -6 -11  -3    0.10    1.80
   6  11   3   -0.01    1.22
   6 -11   3    0.24    1.64
  -6  11  -3    0.31    1.26
  -7 -11  -3   71.84    5.96
   7  11   3   59.53    4.65
   7 -11   3   39.60    5.53
  -7  11  -3   51.44    4.50
   8 -11   3    0.10    1.69
  -8  11  -3    0.61    1.36
   8  11   3    0.54    1.39
  -8 -11  -3   -0.19    1.71
   9  11   3   25.03    3.61
   9 -11   3   15.87    3.90
  -9  11  -3   18.59    3.20
  10  11   3    3.42    1.95
 -10 -11  -3    0.01    2.10
 -10  11  -3    0.96    1.67
  10 -11   3    0.74    2.32
 -11  11  -3   -0.73    1.67
  11 -11   3    0.97    2.38
 -11 -11  -3    0.23    2.21
  11  11   3   -1.35    1.55
  11  11   3   -0.01    1.67
 -10 -12   3    6.73    2.43
  10  12  -3    6.45    2.57
  10 -12  -3    4.87    2.42
 -10  12   3    5.14    2.32
   9 -12  -3    2.97    2.04
  -9  12   3    1.22    1.47
  -9 -12   3    3.15    2.04
  -8  12   3    9.64    2.56
   8 -12  -3   10.94    2.78
   8  12  -3   10.74    2.59
  -8  12   3    7.91    2.05
  -8 -12   3   10.42    2.76
   7 -12  -3   16.14    3.20
  -7 -12   3   20.27    3.65
  -7  12   3   12.40    2.76
  -7  12   3   15.75    2.84
   7  12  -3   10.01    2.39
   6  12  -3    2.54    1.55
  -6  12   3    1.51    1.50
  -6 -12   3    0.89    1.70
   6 -12  -3    1.61    1.52
  -6  12   3    1.88    1.46
   5 -12  -3   31.29    4.03
   5  12  -3   30.68    3.52
  -5  12   3   26.43    3.49
  -5  12   3   31.50    3.70
  -5 -12   3   36.82    4.35
  -4  12   3    5.55    1.96
   4 -12  -3    6.12    2.23
  -4  12   3    6.57    1.93
   4  12  -3    5.20    1.85
  -4 -12   3    7.11    2.18
   3  12  -3   28.42    3.38
  -3  12   3   26.89    3.51
  -3  12   3   30.78    3.25
  -3 -12   3   30.75    4.00
  -3 -12   3   38.50    4.81
   3 -12  -3   28.42    3.86
  -2 -12   3   33.91    4.72
  -2 -12   3   28.35    3.77
   2 -12  -3   27.94    3.87
  -2  12   3   30.74    3.72
  -2  12   3   29.54    3.31
   2  12  -3   26.25    3.35
  -1  12   3    2.09    1.21
  -1 -12   3    6.68    2.06
   1 -12  -3    2.80    1.65
  -1 -12   3    4.78    2.37
   1  12  -3    4.82    1.77
  -1  12   3    1.71    1.50
   0  12   3   22.51    3.33
   0 -12   3   27.43    3.50
   0  12   3   26.18    2.94
   0  12  -3   23.39    3.16
   0 -12  -3   24.45    3.65
   0 -12   3   32.23    4.57
   1  12   3   17.37    3.04
  -1 -12  -3   34.91    4.27
  -1  12  -3   38.67    3.81
   1  12   3   32.84    3.01
   1 -12   3   33.96    4.70
   1 -12   3   31.54    3.58
  -2  12  -3    4.33    1.69
   2  12   3    4.35    1.80
  -2 -12  -3    6.05    1.92
  -2 -12  -3    5.25    1.97
   2 -12   3    3.08    1.63
   2 -12   3    5.17    2.28
   3 -12   3   48.84    5.18
  -3  12  -3   58.13    4.53
   3  12   3   51.20    4.44
  -3 -12  -3   59.87    5.16
  -4 -12  -3    3.91    2.00
   4 -12   3    1.78    1.74
  -4  12  -3    1.70    1.39
   4  12   3    1.33    1.39
  -5  12  -3   19.78    3.14
   5 -12   3   21.39    4.15
  -5 -12  -3   31.54    4.47
   5  12   3   28.16    3.65
  -6 -12  -3   26.55    4.22
  -6  12  -3   19.36    3.14
   6  12   3   20.73    3.33
   6 -12   3   19.52    4.08
   7  12   3   -0.47    1.26
  -7  12  -3    0.56    1.54
   7 -12   3    0.28    1.76
  -7 -12  -3    1.92    2.30
   8  12   3   14.62    2.99
   8 -12   3   11.59    3.51
  -8 -12  -3   16.21    3.68
  -8  12  -3   12.72    2.68
  -9 -12  -3   16.50    3.67
  -9  12  -3   12.31    2.74
   9  12   3   11.31    2.71
   9 -12   3    7.20    3.26
  10  12   3    2.82    1.95
 -10  12  -3    2.77    1.78
 -10 -12  -3    0.63    1.87
  10 -12   3    4.03    2.78
  -9  13   3    2.78    1.85
   9 -13  -3    7.50    2.58
  -9 -13   3    7.24    2.62
  -8  13   3    5.43    2.26
  -8 -13   3    7.00    2.54
   8  13  -3    5.48    2.12
  -8  13   3    6.94    2.25
   8 -13  -3    5.60    2.25
  -7  13   3    5.32    1.99
  -7 -13   3    4.80    2.30
  -7  13   3    2.38    1.72
   7  13  -3    2.03    1.63
   7 -13  -3    3.19    1.87
  -6  13   3   15.53    3.03
  -6 -13   3   17.44    3.26
   6 -13  -3   23.82    3.87
  -6  13   3   17.47    3.08
   6  13  -3   18.76    3.09
  -5  13   3    0.01    1.47
   5  13  -3    0.93    1.37
  -5  13   3   -0.09    1.20
   5 -13  -3   -0.12    1.53
  -5 -13   3    0.49    1.52
   4 -13  -3   26.04    4.00
   4  13  -3   26.28    3.45
  -4 -13   3   34.39    4.40
  -4  13   3   29.91    3.78
  -4  13   3   26.78    3.51
   3 -13  -3   10.25    2.69
  -3  13   3    7.90    2.32
   3  13  -3    9.79    2.34
  -3 -13   3   14.87    3.71
  -3  13   3    9.29    2.22
  -3 -13   3   17.34    3.21
  -2 -13   3    9.36    2.54
  -2 -13   3   11.57    3.42
   2  13  -3    6.62    1.96
   2 -13  -3    8.70    2.48
  -2  13   3    8.33    2.35
  -2  13   3    7.19    1.93
  -1  13   3   17.25    2.69
  -1 -13   3   20.46    3.40
   1 -13  -3   17.66    3.24
  -1  13   3   14.40    2.93
   1  13  -3   17.48    2.93
  -1 -13   3   15.59    3.62
   0 -13   3    1.68    1.99
   0 -13  -3    5.71    2.14
   0  13   3    3.74    1.50
   0 -13   3    4.18    1.90
   0  13  -3    2.77    1.49
   0  13   3    3.48    1.81
  -1 -13  -3    2.72    1.72
   1  13   3    1.12    1.30
   1 -13   3    4.78    2.35
   1 -13   3    4.26    1.89
  -1  13  -3    3.47    1.66
  -1 -13  -3    5.82    2.36
   2  13   3   28.01    3.82
  -2  13  -3   26.60    3.46
  -2 -13  -3   25.48    4.15
   2 -13   3   24.39    4.28
   3  13   3    0.57    1.50
  -3 -13  -3   -0.11    1.58
   3 -13   3   -0.41    1.70
  -3  13  -3    0.00    1.29
  -4 -13  -3   26.54    4.29
   4  13   3   24.16    3.54
  -4  13  -3   20.55    3.28
  -5 -13  -3    9.94    2.90
   5 -13   3    7.60    2.88
  -5  13  -3    4.98    1.82
   5  13   3    8.41    2.36
  -6 -13  -3   11.11    3.10
  -6  13  -3    9.84    2.48
   6  13   3   10.54    2.59
   6 -13   3    8.32    2.93
  -7  13  -3   10.20    2.58
  -7 -13  -3   16.15    3.66
   7  13   3   11.45    2.71
   7 -13   3    6.81    2.75
  -8 -13  -3    3.33    2.61
   8  13   3    2.49    1.94
   8 -13   3    3.91    2.67
  -8  13  -3    4.19    1.88
   9 -13   3    5.66    2.87
  -9  13  -3    5.62    2.17
  -9 -13  -3    7.36    3.09
   9  13   3    3.99    2.09
   8 -14  -3    8.44    2.84
  -8  14   3    8.78    2.41
   8  14  -3   11.07    2.83
  -8 -14   3   12.64    2.99
  -8  14   3    9.65    2.75
  -7  14   3    2.24    1.86
   7 -14  -3    0.52    1.99
  -7  14   3    2.18    1.68
  -7 -14   3    1.72    1.83
   7  14  -3    2.09    1.92
  -6  14   3   -0.62    1.30
   6 -14  -3    0.73    1.76
  -6 -14   3    1.80    1.75
   6  14  -3    1.02    1.68
  -6  14   3    2.74    1.66
  -5 -14   3    2.72    1.92
   5 -14  -3    5.06    2.42
  -5  14   3    0.94    1.73
   5  14  -3    4.07    1.83
  -5  14   3    3.92    1.84
  -4  14   3    6.08    2.33
   4  14  -3    7.77    2.08
  -4  14   3    6.44    2.09
  -4 -14   3    9.70    2.64
   4 -14  -3    8.31    2.58
  -3  14   3    3.68    2.14
  -3 -14   3    4.14    2.12
  -3  14   3    4.01    1.83
   3  14  -3    6.50    2.20
   3 -14  -3    5.67    2.12
   2 -14  -3   43.51    5.16
  -2  14   3   38.20    4.56
  -2 -14   3   51.65    6.10
  -2 -14   3   48.42    5.19
   2  14  -3   51.64    4.80
  -2  14   3   37.42    3.89
  -1  14   3   -0.03    1.12
   1  14  -3    1.23    1.35
  -1 -14   3   -0.10    1.64
  -1 -14   3   -0.23    2.00
  -1  14   3   -0.70    1.56
   1 -14  -3   -0.04    1.50
   0  14   3   24.21    3.75
   0 -14  -3   25.95    3.99
   0 -14   3   30.96    5.01
   0  14  -3   31.25    3.86
   0 -14   3   26.62    3.89
   0 -14  -3   26.16    4.19
  -1 -14  -3    4.40    2.00
  -1 -14  -3    3.21    1.94
   1  14   3    0.40    1.32
   1 -14   3    2.31    2.25
  -1  14  -3    3.29    1.72
  -2 -14  -3    0.46    1.64
   2  14   3    1.39    1.85
   2 -14   3    0.88    2.20
  -2  14  -3    1.18    1.46
   3 -14   3    1.54    2.07
  -3  14  -3    0.80    1.60
   3  14   3    1.96    1.89
  -3 -14  -3    2.19    1.97
   4  14   3    4.34    2.05
  -4 -14  -3    5.43    2.31
   4 -14   3    2.11    2.22
  -4  14  -3    2.40    1.69
  -5  14  -3    0.73    1.41
  -5 -14  -3    2.17    1.94
   5 -14   3    6.00    2.83
   5  14   3    1.09    1.71
   6 -14   3   14.45    3.88
  -6 -14  -3   23.69    4.38
   6  14   3   19.59    3.47
  -6  14  -3   16.96    3.15
   7  14   3   -0.81    1.53
   7 -14   3    1.30    2.35
  -7  14  -3   -0.87    1.51
  -7 -14  -3    1.40    2.07
   8 -14   3   17.09    4.43
  -8  14  -3   20.32    3.50
  -8 -14  -3   28.76    4.84
   8  14   3   22.22    3.88
   7  15  -3    0.27    1.64
  -7  15   3    0.95    1.56
  -7  15   3    0.84    1.93
  -7 -15   3    2.35    1.99
   7 -15  -3    0.67    2.30
  -6  15   3   15.76    3.14
   6 -15  -3   18.84    3.93
  -6 -15   3   22.96    3.88
   6  15  -3   16.02    3.20
  -6  15   3   15.33    3.18
  -5  15   3    0.78    1.55
  -5  15   3    1.21    1.82
   5 -15  -3    2.26    2.04
  -5 -15   3    0.82    1.90
   5  15  -3   -0.10    1.60
  -4  15   3   20.80    3.66
  -4 -15   3   23.65    4.02
   4 -15  -3   19.43    4.04
  -4  15   3   18.33    3.26
   4  15  -3   19.75    3.48
   3 -15  -3    0.26    1.84
  -3  15   3    1.13    1.87
  -3 -15   3    1.09    1.91
  -3  15   3   -0.50    1.26
   3  15  -3   -0.25    1.37
   2  15  -3    5.64    2.14
  -2 -15   3    7.21    2.62
  -2  15   3    5.33    2.41
  -2 -15   3    9.47    3.35
   2 -15  -3    4.68    2.40
   1 -15  -3    1.48    1.97
  -1 -15   3    4.10    2.70
  -1 -15   3    1.10    1.99
   1 -15  -3   -0.14    1.85
  -1  15   3    0.75    1.93
   1  15  -3    0.46    1.49
   0  15  -3    7.32    2.25
   0 -15  -3    5.43    2.41
   0 -15   3    8.60    3.40
   0  15   3    8.48    2.82
   0 -15  -3    5.71    2.60
  -1 -15  -3    0.80    1.71
   1  15   3    0.43    1.33
  -1  15  -3    0.57    1.33
   1 -15   3    1.92    2.77
   2 -15   3   29.16    5.22
  -2 -15  -3   32.17    4.81
  -2  15  -3   32.45    4.08
   2  15   3   33.18    4.61
   3 -15   3   -0.17    2.22
  -3  15  -3   -0.11    1.32
  -3 -15  -3    0.50    1.81
   3  15   3    0.76    2.08
  -4 -15  -3   26.01    4.46
   4  15   3   23.25    3.89
  -4  15  -3   20.91    3.45
   4 -15   3   26.59    5.19
   5  15   3    4.16    2.15
  -5  15  -3    0.71    1.53
   5 -15   3    0.61    1.90
  -5 -15  -3    0.98    1.86
  -6 -15  -3    3.76    2.20
   6  15   3    4.48    2.21
   6 -15   3    5.13    2.86
  -6  15  -3    5.56    2.27
  -7 -15  -3    1.63    1.89
   7  15   3    2.33    1.85
   7 -15   3    0.91    2.08
  -7  15  -3    1.80    1.90
   5 -16  -3    5.90    2.70
   5  16  -3    1.99    1.93
  -5  16   3    3.59    2.08
  -5 -16   3    3.63    2.11
   4 -16  -3    8.01    3.06
   4  16  -3    9.13    2.49
   4 -16  -3    8.58    2.81
  -4 -16   3    6.64    2.20
  -4  16   3    5.21    2.26
   3 -16  -3    2.68    2.79
  -3 -16   3    2.87    2.22
   3 -16  -3    3.25    2.26
  -3  16   3    2.68    2.08
   3  16  -3    1.53    1.69
  -2  16   3   21.36    3.98
   2  16  -3   21.30    3.64
   2 -16  -3   28.36    4.92
   2 -16  -3   20.13    4.03
  -2 -16   3   23.67    4.17
   1  16  -3    1.04    1.55
  -1 -16   3    1.93    2.60
   1 -16  -3    1.52    2.14
  -1  16   3    0.29    1.94
   1 -16  -3   -0.83    2.04
   0  16   3   17.61    3.65
   0 -16   3   26.11    5.33
   0 -16  -3   20.78    4.18
   0  16  -3   18.36    3.37
   1 -16   3    4.51    2.99
   1  16   3    0.24    1.64
  -1  16  -3    4.87    2.14
  -1 -16  -3    4.36    2.63
  -2  16  -3    5.77    2.03
   2 -16   3    7.09    3.51
  -2 -16  -3    5.15    2.60
   2  16   3    4.75    2.45
  -3 -16  -3    1.91    2.02
   3  16   3    1.91    2.16
  -3  16  -3    0.45    1.73
   3 -16   3    5.99    2.91
   4 -16   3    2.36    2.68
  -4  16  -3    3.40    1.98
  -4 -16  -3    2.79    2.32
   4  16   3    4.38    2.25
  -5 -16  -3    1.58    2.08
   5  16   3    3.88    2.13
   5 -16   3    0.46    2.36
  -5  16  -3    1.74    1.45
   2 -17  -3    4.04    2.78
   2  17  -3    1.19    1.66
   2 -17  -3    3.36    2.48
  -2  17   3    1.13    2.22
   1 -17  -3    6.88    2.82
  -1  17   3    4.16    2.57
   1 -17  -3    5.33    2.75
   1  17  -3    4.45    2.04
   0  17   3   -1.22    1.91
   0  17  -3    0.57    1.39
   0 -17  -3    0.53    2.02
   0 -17   3    1.80    3.02
  -1  17  -3    7.31    2.42
  -1 -17  -3    7.00    2.95
   1  17   3    2.17    2.00
   1 -17   3    5.73    3.25
   2  17   3    9.38    3.07
  -2 -17  -3   11.40    3.37
  -2  17  -3   11.51    2.73
   2 -17   3   15.61    4.41
 -14   0   4   25.83    4.72
  14   0  -4   17.54    3.53
 -13   0   4    0.75    2.10
  13   0  -4    0.48    1.46
  12   0  -4    4.54    1.93
 -12   0   4    6.32    2.66
 -11   0   4    0.60    1.56
  11   0  -4    0.92    1.19
 -10   0   4   13.48    2.96
  10   0  -4    9.40    2.20
  -9   0   4    0.64    0.93
  -9   0   4   -0.27    0.94
   9   0  -4    0.67    0.94
   8   0  -4  147.47    7.68
  -8   0   4  139.04    7.71
  -8   0   4  152.76    7.66
  -7   0   4   -0.32    0.72
  -7   0   4   -0.43    0.70
   7   0  -4    0.34    0.43
   7   0  -4   -0.36    0.63
  -6   0   4  207.79    9.25
   6   0  -4  196.26    9.24
  -6   0   4  199.07    9.56
   6   0  -4  204.21    7.49
  -5   0   4    0.36    0.64
   5   0  -4    0.28    0.24
  -5   0   4    0.42    0.58
   5   0  -4    0.59    0.61
  -4   0   4   57.16    3.53
   4   0  -4   59.66    3.58
  -4   0   4   58.77    3.39
   4   0  -4   55.53    2.15
  -3   0   4    1.04    0.55
   3   0  -4    0.59    0.60
  -3   0   4    0.84    0.59
  -2   0   4   15.03    1.25
   2   0  -4   15.52    1.71
  -2   0   4   17.88    1.65
  -1   0   4    0.12    0.22
  -1   0   4    0.46    0.29
  -1   0   4   -0.06    0.32
   1   0  -4    0.14    0.39
   0   0  -4  332.76   11.93
   0   0  -4  328.60   13.07
   0   0   4  351.15   11.96
   0   0   4  301.96   14.17
  -1   0  -4    1.44    0.35
  -1   0  -4    1.65    0.52
   1   0   4    1.35    0.46
   1   0   4    1.41    0.59
  -2   0  -4  936.65   35.78
   2   0   4 1000.00   33.89
   2   0   4  933.33   39.17
  -2   0  -4  971.68   33.90
   3   0   4   -0.14    0.29
  -3   0  -4    0.50    0.42
   3   0   4    0.22    0.55
  -3   0  -4    1.44    0.46
  -4   0  -4   51.97    2.70
   4   0   4   49.41    3.55
  -4   0  -4   39.73    2.65
   4   0   4   41.86    2.87
   5   0   4   -0.26    0.47
  -5   0  -4   -0.17    0.44
  -5   0  -4    0.69    0.61
   5   0   4    0.63    0.94
   6   0   4    7.30    1.54
  -6   0  -4    8.72    1.37
   6   0   4    7.65    1.85
  -6   0  -4    5.62    1.17
  -7   0  -4    0.17    0.48
  -7   0  -4    0.71    0.74
   7   0   4   -0.04    0.76
   7   0   4    1.03    1.33
   8   0   4   72.15    4.67
  -9   0  -4    0.27    0.69
   9   0   4    1.05    1.20
  -9   0  -4   -0.12    0.90
  10   0   4   72.93    5.10
 -10   0  -4   66.71    4.55
 -11   0  -4   -0.25    1.19
 -11   0  -4    0.53    1.23
  11   0   4    0.56    1.20
 -12   0  -4   11.67    2.55
  12   0   4   10.25    2.45
  13   0   4    0.54    1.52
 -13   0  -4   -0.15    1.32
 -14   0  -4    1.06    1.65
  14   0   4    1.92    1.90
 -14  -1   4    1.87    2.55
  14  -1  -4    3.33    2.12
 -14   1   4   -0.09    2.13
  14   1  -4    3.59    2.08
  13   1  -4    2.27    1.66
  13  -1  -4    2.92    1.77
 -13  -1   4    1.70    2.62
 -13   1   4    3.05    2.56
 -12   1   4   40.35    5.06
  12  -1  -4   37.42    4.38
  12   1  -4   36.68    4.31
 -12  -1   4   37.31    4.91
 -11  -1   4    0.96    1.69
 -11   1   4    0.15    1.61
  11  -1  -4    0.34    1.17
  11   1  -4    0.03    1.18
  10   1  -4   76.31    5.45
 -10   1   4   92.77    6.15
  10  -1  -4   80.02    5.59
 -10   1   4   83.72    5.39
  -9  -1   4    5.46    1.92
   9  -1  -4    6.40    1.68
  -9   1   4    6.74    1.66
  -9   1   4    6.60    1.98
   9   1  -4    6.34    1.83
  -9  -1   4    6.87    1.57
   8   1  -4   41.81    3.37
  -8  -1   4   42.11    3.20
  -8  -1   4   46.42    3.86
   8  -1  -4   31.45    3.07
  -8   1   4   42.55    3.31
   7   1  -4   23.51    1.48
  -7   1   4   21.11    2.19
   7   1  -4   19.34    2.38
  -7   1   4   16.88    2.41
  -7  -1   4   21.00    2.13
  -7  -1   4   23.50    2.83
   7  -1  -4   25.30    1.57
   7  -1  -4   18.65    2.37
   6  -1  -4   13.71    1.06
  -6  -1   4   13.35    2.08
  -6   1   4   15.31    2.12
   6   1  -4   14.33    1.97
   6   1  -4   14.42    1.04
  -6   1   4   16.33    1.97
  -6  -1   4   15.16    1.85
   6  -1  -4   17.45    2.06
   5   1  -4    0.97    0.32
   5   1  -4    0.34    0.61
  -5  -1   4    1.03    0.79
  -5   1   4    1.03    0.74
  -5  -1   4    1.07    0.73
   5  -1  -4    1.64    0.79
   5  -1  -4    1.07    0.37
  -5   1   4    0.48    0.69
   4   1  -4  274.74   11.83
  -4   1   4  281.98   11.23
   4  -1  -4  286.02   11.84
  -4   1   4  272.19   12.38
   4  -1  -4  278.54    9.77
   4   1  -4  288.61    9.82
  -4  -1   4  263.03   12.40
  -4  -1   4  281.28   11.34
  -3  -1   4    3.07    0.87
  -3   1   4    3.53    0.93
  -3   1   4    2.26    0.71
   3  -1  -4    4.40    1.07
   3   1  -4    3.54    1.02
  -3  -1   4    4.02    0.93
   3   1  -4    4.36    0.42
  -2  -1   4  355.70   16.06
  -2   1   4  363.87   12.91
  -2  -1   4  382.26   13.89
   2   1  -4  391.83   13.01
   2  -1  -4  348.72   14.89
  -2   1   4  374.14   13.89
   2   1  -4  378.02   15.11
  -1   1   4   13.79    1.39
  -1   1   4   16.23    0.94
   1  -1  -4   16.06    1.20
  -1  -1   4   15.18    1.08
   1   1  -4   16.20    0.95
   1  -1  -4   10.39    1.30
   1   1  -4   14.49    1.60
   0  -1  -4  118.90    4.74
   0   1  -4  118.95    4.63
   0  -1   4  100.94    5.82
   0  -1  -4  119.47    5.23
   0   1   4  115.77    5.71
   0   1   4  121.68    4.69
   0  -1   4  113.95    4.45
   1  -1   4  253.13   12.17
  -1   1  -4  283.87   10.05
   1   1   4  258.99   11.71
  -1   1  -4  273.35    9.59
  -1  -1  -4  277.97   10.05
  -1  -1  -4  265.79   10.67
   1   1   4  265.99   10.09
  -2  -1  -4   10.91    1.11
  -2   1  -4   13.04    0.77
  -2  -1  -4    9.71    1.08
  -2   1  -4   10.31    1.13
   2  -1   4    8.97    1.71
   2   1   4   11.06    1.29
   2   1   4   12.07    1.34
  -3   1  -4   22.43    1.67
  -3  -1  -4   21.98    1.70
   3   1   4   21.58    1.78
  -3  -1  -4   22.96    1.68
   3  -1   4   22.53    2.75
  -4   1  -4  171.69    6.35
   4  -1   4  142.31    8.50
   4   1   4  164.36    7.13
   4   1   4  167.26    7.58
  -4  -1  -4  159.11    7.06
  -4   1  -4  164.99    6.87
  -4   1  -4  144.62    6.96
  -4  -1  -4  165.61    7.03
   5   1   4    1.32    0.81
   5  -1   4   -0.22    0.93
  -5   1  -4    0.31    0.56
  -5  -1  -4    1.02    0.67
   5  -1   4    0.04    0.63
   5   1   4    0.17    0.68
  -5   1  -4    0.61    0.47
  -5  -1  -4    0.19    0.51
   6  -1   4  167.55    7.85
  -6   1  -4  162.40    7.67
  -6  -1  -4  174.45    7.63
  -6  -1  -4  157.37    7.59
   6   1   4  167.07    7.74
   6  -1   4  168.25    9.31
  -6   1  -4  169.23    7.04
   7  -1   4    3.59    1.62
   7   1   4    0.63    0.82
  -7  -1  -4    1.06    0.93
  -7  -1  -4    1.22    0.81
   7  -1   4    1.14    0.90
  -7   1  -4    2.35    0.87
  -7   1  -4    1.31    0.79
  -8   1  -4   43.92    3.34
  -8   1  -4   47.89    3.19
   8  -1   4   52.83    4.66
   8  -1   4   44.90    3.62
  -8  -1  -4   50.21    3.53
   8   1   4   45.65    3.56
  -8  -1  -4   45.45    3.44
  -9   1  -4   13.79    2.22
   9  -1   4   13.45    2.38
  -9   1  -4   14.31    2.05
  -9  -1  -4   12.68    2.15
   9   1   4   14.54    2.38
  -9  -1  -4   14.05    2.19
 -10  -1  -4    3.27    1.51
 -10   1  -4    3.67    1.46
  10   1   4    2.52    1.47
  10  -1   4    4.26    1.63
 -10   1  -4    4.08    1.57
 -10  -1  -4    3.65    1.54
  11  -1   4    3.55    1.75
 -11  -1  -4    4.16    1.62
 -11   1  -4    4.72    1.87
  11   1   4    3.15    1.61
 -11  -1  -4    7.99    2.17
 -12  -1  -4   42.40    4.09
  12   1   4   47.61    4.58
 -12   1  -4   40.87    3.97
 -12  -1  -4   49.89    4.35
  12  -1   4   45.12    4.62
  13   1   4    0.46    1.42
 -13  -1  -4    0.21    1.23
  13  -1   4    0.72    1.47
 -13   1  -4   -0.90    1.32
  14  -1   4   24.48    3.76
 -14   1  -4   23.96    3.76
  14   1   4   20.02    3.52
 -14  -2   4   19.62    4.26
 -14   2   4   17.02    4.16
  14  -2  -4   13.51    3.20
  14   2  -4   13.46    3.02
  13   2  -4    6.76    2.24
 -13   2   4    5.66    2.55
  13  -2  -4    4.79    2.21
 -13  -2   4    6.08    2.64
  12   2  -4    2.60    1.62
 -12   2   4    2.56    2.24
  12  -2  -4    3.02    1.69
 -12  -2   4    2.74    2.15
  11  -2  -4    9.32    2.37
 -11   2   4    9.94    2.25
  11   2  -4   10.77    2.32
 -11   2   4   10.60    2.80
 -11  -2   4    1.08    1.61
 -10   2   4   11.99    2.21
  10   2  -4    7.10    1.97
  10  -2  -4   13.62    2.45
 -10  -2   4   13.43    2.90
 -10   2   4    9.77    2.47
   9   2  -4   28.02    3.14
  -9  -2   4   23.80    3.47
   9  -2  -4   25.95    3.07
  -9   2   4   24.67    2.80
  -9   2   4   25.42    3.35
  -8  -2   4   58.81    3.85
   8  -2  -4   51.69    3.94
  -8  -2   4   53.40    4.35
  -8   2   4   56.02    3.96
   8   2  -4   60.62    4.15
  -8   2   4   51.59    4.12
  -7  -2   4    1.81    0.96
  -7   2   4   -0.02    0.64
   7  -2  -4    1.16    0.55
   7   2  -4    0.64    0.50
  -7   2   4    0.78    0.81
  -7  -2   4    1.51    0.88
   7  -2  -4    1.01    0.91
   7   2  -4    0.39    0.81
   6   2  -4  142.36    5.55
   6   2  -4  133.88    7.02
  -6  -2   4  138.88    7.10
   6  -2  -4  136.97    6.99
  -6  -2   4  152.32    7.37
  -6   2   4  151.17    5.49
  -6   2   4  135.25    7.22
  -5  -2   4   10.52    1.79
   5   2  -4   10.43    0.87
   5  -2  -4   10.69    1.63
  -5   2   4    8.74    1.55
  -5   2   4   11.88    0.85
  -5   2   4   11.81    1.65
   5   2  -4   11.64    1.74
  -5  -2   4   11.85    1.67
   4   2  -4   99.53    3.88
  -4   2   4  103.85    3.76
   4   2  -4   96.77    5.17
  -4  -2   4   98.93    5.05
  -4   2   4   95.76    5.22
   4  -2  -4   93.33    5.03
  -4  -2   4   93.86    5.29
  -4   2   4   90.87    4.73
  -3   2   4  150.57    6.36
   3  -2  -4  140.78    6.73
  -3   2   4  158.61    5.50
   3   2  -4  126.96    6.74
   3   2  -4  152.85    5.58
  -3  -2   4  141.60    6.42
  -3  -2   4  139.83    7.22
  -2  -2   4    0.82    0.64
   2   2  -4    1.32    0.42
   2  -2  -4    0.69    0.57
  -2   2   4    1.17    0.36
  -2   2   4    0.77    0.49
   2  -2  -4    1.95    0.60
  -2  -2   4    1.99    0.61
   2   2  -4    0.36    0.46
  -1   2   4  106.53    5.15
  -1  -2   4   86.17    5.34
   1   2  -4   97.31    4.17
   1  -2  -4  105.06    4.80
  -1  -2   4  106.11    4.35
   1  -2  -4  108.78    4.57
  -1   2   4  101.25    4.04
   0  -2  -4  319.35   11.62
   0   2  -4  304.24   12.47
   0  -2   4  293.73   11.11
   0   2  -4  315.26   11.34
   0   2   4  304.40   13.17
   0  -2  -4  309.49   12.08
   0   2   4  308.10   11.26
  -1   2  -4    3.77    0.80
  -1  -2  -4    3.74    0.72
   1   2   4    5.10    0.88
   1  -2   4    4.47    1.29
   1   2   4    6.02    0.92
  -1   2  -4    4.29    0.77
  -1  -2  -4    5.11    0.81
   2   2   4  199.74    8.52
   2   2   4  191.43    7.76
  -2   2  -4  193.46    8.05
  -2  -2  -4  182.80    7.77
  -2   2  -4  189.37    7.62
  -2  -2  -4  190.37    7.89
   3   2   4   26.02    1.77
  -3   2  -4   24.15    1.81
  -3  -2  -4   26.67    1.83
  -3  -2  -4   24.19    1.97
  -3   2  -4   26.32    1.16
  -3   2  -4   22.72    1.76
   3  -2   4   25.11    3.05
  -4  -2  -4  159.24    7.18
   4   2   4  158.92    7.08
  -4   2  -4  154.65    6.76
  -4   2  -4  162.43    6.01
  -4   2  -4  160.36    7.02
   4  -2   4  148.93    8.70
   4   2   4  160.58    7.04
  -4  -2  -4  155.25    6.94
  -5  -2  -4   41.73    2.77
   5   2   4   38.79    2.38
  -5   2  -4   39.07    2.69
   5   2   4   43.39    2.96
  -5  -2  -4   39.51    2.92
   5  -2   4   46.98    3.95
  -5   2  -4   40.36    2.16
  -6   2  -4    6.35    1.29
   6   2   4    8.01    1.59
  -6  -2  -4    6.61    1.26
   6   2   4    8.80    1.06
   6  -2   4    9.30    2.17
  -6   2  -4    8.21    1.07
  -6   2  -4    6.35    1.29
  -6  -2  -4    8.19    1.65
  -7  -2  -4   60.74    3.95
  -7   2  -4   60.30    3.25
   7  -2   4   61.96    4.98
  -7  -2  -4   53.20    3.59
  -7   2  -4   54.59    3.62
   7   2   4   54.10    3.79
   7  -2   4   54.70    4.00
   8  -2   4   78.30    5.93
  -8  -2  -4   76.33    4.76
   8   2   4   66.85    4.58
   8  -2   4   71.86    4.85
  -8  -2  -4   71.12    4.48
  -8   2  -4   78.26    4.10
  -8   2  -4   72.66    4.50
   9   2   4   12.34    2.18
   9  -2   4   10.80    2.34
  -9  -2  -4   10.98    1.96
  -9  -2  -4   14.83    2.40
  -9   2  -4   13.37    2.20
  -9   2  -4   12.24    1.86
 -10  -2  -4   42.22    3.62
  10  -2   4   49.86    4.16
 -10  -2  -4   54.08    4.14
  10   2   4   45.06    3.84
 -10   2  -4   46.50    3.42
 -10   2  -4   43.23    3.68
 -11   2  -4    8.04    2.15
 -11  -2  -4   10.48    2.41
  11   2   4    7.77    2.04
 -11  -2  -4    6.80    1.81
  11  -2   4    4.53    1.85
 -12  -2  -4    9.90    2.64
 -12  -2  -4   10.36    2.38
  12   2   4    9.55    2.35
  12  -2   4   12.30    2.69
 -12   2  -4   12.48    2.68
 -13  -2  -4   11.62    2.95
  13  -2   4   17.28    3.38
 -13  -2  -4   12.96    2.77
 -13   2  -4   15.78    3.06
  13   2   4   13.63    2.77
 -14   2  -4   -0.08    1.62
  14   2   4    0.64    1.76
  14  -2   4    0.25    1.71
 -14  -2  -4    0.42    1.58
  14  -3  -4    2.25    1.98
  14   3  -4    1.06    1.51
 -14  -3   4    1.20    2.50
 -14   3   4   -1.23    2.25
 -13   3   4   14.40    3.43
 -13  -3   4    8.71    3.03
  13   3  -4   12.51    2.78
  13  -3  -4   11.52    3.07
  12  -3  -4   20.04    3.47
  12   3  -4   15.60    2.97
 -12  -3   4    2.87    1.98
 -12   3   4   14.71    3.33
 -11  -3   4    0.97    1.74
 -11   3   4    0.62    1.80
 -11   3   4    0.65    1.41
  11   3  -4    0.71    1.31
  11  -3  -4    1.58    1.47
  10  -3  -4   32.34    3.68
  10   3  -4   32.40    3.61
 -10   3   4   30.27    3.36
 -10  -3   4   34.23    4.28
 -10   3   4   31.68    3.92
  -9   3   4   31.42    3.10
   9  -3  -4   31.39    3.39
   9   3  -4   30.38    3.34
  -9   3   4   37.30    3.85
  -9  -3   4   30.78    3.84
  -8  -3   4   12.84    1.84
  -8   3   4    9.85    2.09
  -8   3   4   11.01    2.02
   8  -3  -4   10.49    2.01
  -8  -3   4   11.38    2.41
   8   3  -4   10.71    1.98
  -7   3   4  130.46    6.94
   7   3  -4  111.32    6.53
  -7  -3   4  109.39    6.74
   7  -3  -4  128.04    6.71
   7   3  -4  119.82    5.23
  -7   3   4  138.10    5.22
  -7   3   4  127.79    6.65
  -7  -3   4  141.54    6.75
  -6  -3   4    4.20    1.21
   6   3  -4    3.15    1.14
  -6  -3   4    5.27    1.40
   6   3  -4    5.37    0.83
   6  -3  -4    6.65    1.44
  -6   3   4    1.46    0.70
  -6   3   4    4.12    0.71
  -6   3   4    3.53    1.11
  -5   3   4    3.37    0.95
  -5  -3   4    8.25    1.52
   5  -3  -4    7.78    1.43
  -5  -3   4    9.54    1.73
   5   3  -4    8.96    0.96
  -5   3   4    8.44    1.53
  -5   3   4    9.59    0.91
  -4  -3   4  167.50    8.16
  -4   3   4  157.30    7.19
  -4   3   4  171.09    6.35
  -4   3   4  157.37    7.93
  -4  -3   4  160.60    7.55
   4   3  -4  166.12    6.41
   4  -3  -4  161.59    7.56
  -3   3   4    0.49    0.43
   3  -3  -4    0.60    0.61
  -3  -3   4    0.48    0.73
   3   3  -4    1.11    0.45
   3   3  -4    0.17    0.69
   3  -3  -4    0.25    0.53
  -3   3   4   -0.10    0.39
  -3  -3   4    0.85    0.61
  -2  -3   4   57.71    3.21
  -2   3   4   58.95    3.44
   2  -3  -4   55.22    3.20
   2   3  -4   56.33    2.85
  -2  -3   4   52.10    3.66
  -2   3   4   57.64    2.74
   2   3  -4   60.01    3.62
  -1  -3   4   64.81    3.29
   1  -3  -4   70.41    3.38
   1   3  -4   65.09    3.82
   1  -3  -4   75.18    3.52
  -1  -3   4   58.18    4.18
   1   3  -4   70.41    3.28
  -1   3   4   58.82    2.94
  -1   3   4   69.97    3.78
   0   3   4   40.23    2.19
   0   3   4   42.51    2.58
   0  -3   4   42.55    2.13
   0  -3  -4   40.78    2.22
   0   3  -4   39.85    2.32
   0  -3  -4   44.29    2.49
   0   3  -4   38.49    2.59
   1  -3   4  281.05   10.96
  -1   3  -4  301.45   11.54
   1   3   4  308.12   12.92
  -1   3  -4  313.60   12.28
   1   3   4  309.72   11.48
  -1  -3  -4  307.65   11.81
  -1  -3  -4  307.08   11.86
   2  -3   4   43.12    3.85
  -2  -3  -4   45.99    2.53
  -2   3  -4   47.80    2.71
  -2   3  -4   45.99    2.69
   2   3   4   51.12    2.66
   2   3   4   46.59    2.75
  -2  -3  -4   46.31    2.83
  -3  -3  -4  117.58    5.85
  -3  -3  -4  124.70    5.58
  -3   3  -4  127.44    5.68
   3   3   4  130.33    5.60
   3  -3   4  121.58    4.60
  -3   3  -4  129.22    5.62
   3  -3   4  115.12    7.30
   4   3   4  144.30    6.16
  -4   3  -4  142.62    6.42
   4   3   4  143.19    6.56
  -4   3  -4  135.03    6.26
  -4  -3  -4  133.04    6.71
   4  -3   4  147.87    8.38
  -4   3  -4  140.86    5.38
  -4  -3  -4  144.50    6.44
  -5   3  -4   24.33    1.49
   5   3   4   23.03    2.36
  -5  -3  -4   24.62    2.73
  -5   3  -4   23.07    1.97
  -5  -3  -4   22.55    1.93
   5   3   4   24.95    1.40
   5  -3   4   27.84    3.41
  -6  -3  -4   85.29    4.94
  -6   3  -4   80.98    3.70
   6  -3   4   78.26    5.72
  -6  -3  -4   75.42    4.34
   6   3   4   80.86    4.65
  -6   3  -4   74.77    4.31
  -6   3  -4   80.22    4.44
  -7   3  -4   49.40    3.39
  -7  -3  -4   55.26    3.96
   7  -3   4   56.60    4.76
  -7  -3  -4   44.06    3.23
   7   3   4   43.69    3.44
  -7   3  -4   51.26    2.87
  -7   3  -4   44.36    3.22
   8  -3   4   14.17    2.93
   8   3   4   11.48    2.05
  -8   3  -4   12.31    1.97
  -8  -3  -4   10.99    2.08
  -8  -3  -4   10.99    1.85
  -8   3  -4   12.85    1.62
  -8   3  -4   10.50    1.83
  -9  -3  -4   92.17    5.80
  -9  -3  -4   91.48    5.56
   9  -3   4   94.13    6.05
  -9   3  -4   90.82    5.57
   9   3   4   84.87    5.55
  -9   3  -4   94.92    4.98
   9  -3   4  115.25    7.55
  10  -3   4    7.35    2.08
 -10  -3  -4    8.36    2.27
 -10  -3  -4    8.40    1.97
  10   3   4   10.72    2.20
 -10   3  -4    8.35    2.03
 -11   3  -4   43.66    3.97
 -11  -3  -4   45.55    3.94
  11   3   4   48.34    4.45
 -11  -3  -4   43.76    4.01
  11  -3   4   41.81    4.43
  12   3   4    7.78    2.24
  12  -3   4    8.27    2.46
 -12   3  -4    8.48    2.36
 -12  -3  -4    4.74    2.17
 -12  -3  -4    6.27    1.94
  13  -3   4   -0.24    1.49
 -13   3  -4    1.80    1.66
 -13  -3  -4    0.78    1.22
  13   3   4    2.11    1.90
 -13  -3  -4   -1.43    1.45
 -14   3  -4    8.01    2.55
 -14  -3  -4    6.24    1.97
  14   3   4    6.82    2.30
  14  -3   4   10.68    3.00
 -14  -4   4    0.99    2.24
  14   4  -4    1.51    2.01
  14  -4  -4    2.79    2.01
 -14   4   4    2.31    2.66
  13   4  -4   13.21    2.87
 -13  -4   4    3.79    2.31
  13  -4  -4   15.24    3.44
 -13   4   4   21.25    4.10
 -12  -4   4    2.18    2.22
 -12   4   4    1.95    2.02
  12  -4  -4    2.23    1.74
  12   4  -4    3.78    1.69
  11  -4  -4   50.57    4.66
 -11  -4   4   55.46    5.55
 -11   4   4   52.46    5.17
  11   4  -4   47.12    4.42
 -11   4   4   54.76    4.62
 -10   4   4    0.58    1.40
 -10   4   4    0.77    1.38
  10   4  -4    2.50    1.56
 -10  -4   4    2.64    1.74
  10  -4  -4    2.25    1.38
   9   4  -4   22.05    2.95
   9  -4  -4   20.62    2.88
  -9   4   4   17.70    2.87
  -9   4   4   21.62    2.78
  -9  -4   4   20.45    3.30
  -8   4   4    4.35    1.38
   8   4  -4    1.65    1.14
  -8  -4   4    3.70    1.57
  -8   4   4    1.84    1.36
   8  -4  -4    3.50    1.42
   7  -4  -4    2.91    1.23
   7   4  -4   -0.25    0.66
  -7   4   4    3.88    1.37
  -7  -4   4    3.53    1.29
  -7   4   4    2.46    0.80
  -7  -4   4    5.61    1.60
   7   4  -4    4.50    0.94
  -7   4   4    2.58    1.28
   6  -4  -4    8.87    1.67
   6   4  -4    9.62    1.17
  -6  -4   4   13.17    2.28
  -6   4   4   10.35    1.16
  -6   4   4    8.68    1.70
  -6  -4   4   12.86    1.83
  -6   4   4   11.86    1.90
   6   4  -4    9.48    1.80
   5   4  -4  111.71    5.97
  -5  -4   4  110.44    6.11
  -5   4   4  108.72    6.11
   5  -4  -4  108.22    5.87
   5   4  -4  112.79    4.86
  -5   4   4  111.26    4.81
   5  -4  -4  107.73    5.76
  -5  -4   4  125.79    6.34
   4  -4  -4   20.57    2.11
   4  -4  -4   20.50    2.19
   4   4  -4   21.16    1.62
   4   4  -4   20.25    2.26
  -4   4   4   23.30    1.67
  -4  -4   4   21.27    2.19
  -4  -4   4   20.92    2.44
   3   4  -4  417.68   14.84
   3   4  -4  418.68   16.55
  -3   4   4  403.77   14.85
   3  -4  -4  390.71   15.56
  -3  -4   4  385.26   15.80
   3  -4  -4  379.52   15.99
  -3   4   4  406.65   17.38
  -3  -4   4  404.50   17.72
   2  -4  -4   15.63    1.67
  -2   4   4   13.10    1.35
  -2  -4   4   15.94    1.80
   2  -4  -4   15.05    1.37
   2   4  -4   13.53    1.41
   2   4  -4   12.40    1.75
  -2  -4   4   12.23    2.03
  -2   4   4   12.42    1.58
  -1   4   4  200.36    7.69
  -1  -4   4  178.71    9.87
  -1  -4   4  194.67    8.12
   1   4  -4  203.10    8.77
   0   4   4   52.97    2.75
   0   4   4   55.09    3.09
   0  -4   4   44.50    2.67
   0  -4  -4   52.07    3.03
   0   4  -4   47.44    3.05
   0   4  -4   54.98    3.01
   0  -4  -4   53.71    2.58
   1   4   4    4.49    0.88
   1  -4   4    4.37    1.44
  -1  -4  -4    3.75    0.94
   1   4   4    5.27    0.87
  -1  -4  -4    4.30    0.68
  -1   4  -4    4.06    0.89
   1  -4   4    4.29    0.72
  -1   4  -4    3.67    0.86
   2   4   4   55.26    3.12
   2  -4   4   50.12    4.29
   2  -4   4   54.11    2.42
  -2  -4  -4   54.27    2.83
  -2  -4  -4   52.82    3.31
   2   4   4   56.98    2.95
  -2   4  -4   55.69    3.18
  -2   4  -4   54.22    3.04
  -3   4  -4   44.25    2.67
   3  -4   4   45.92    2.00
   3   4   4   47.42    2.42
  -3  -4  -4   47.50    3.17
   3  -4   4   38.47    3.75
  -3  -4  -4   44.99    2.59
  -3   4  -4   39.91    2.73
  -4  -4  -4   20.05    2.38
   4  -4   4   17.18    1.14
   4   4   4   19.07    1.20
  -4   4  -4   17.22    1.60
  -4   4  -4   15.51    1.81
   4   4   4   18.37    2.03
   4  -4   4   20.37    2.93
  -4  -4  -4   16.50    1.57
   5  -4   4  221.42    8.62
  -5  -4  -4  233.60   10.28
   5  -4   4  224.18   11.89
  -5   4  -4  224.98    9.64
  -5  -4  -4  215.54    9.56
   6   4   4    4.48    1.28
   6  -4   4    5.06    1.78
  -6   4  -4    3.15    1.02
  -6  -4  -4    4.88    1.49
  -6  -4  -4    2.60    0.92
  -6   4  -4    3.74    1.01
  -6   4  -4    4.67    0.82
  -7   4  -4  137.26    6.64
  -7   4  -4  129.93    5.65
   7  -4   4  123.66    8.13
  -7  -4  -4  119.63    6.43
  -7   4  -4  127.63    6.39
   7   4   4  128.14    6.72
  -7  -4  -4  138.91    7.24
   8   4   4   17.68    2.55
  -8  -4  -4   18.12    2.31
  -8   4  -4   17.53    2.24
  -8   4  -4   17.19    2.26
   8  -4   4   22.44    3.63
  -8  -4  -4   19.29    2.87
  -8   4  -4   20.24    1.84
  -9   4  -4    3.40    1.34
  -9   4  -4    2.44    1.28
   9   4   4    2.21    1.26
  -9  -4  -4    2.22    1.58
  -9  -4  -4    2.03    1.22
   9  -4   4    3.06    1.94
  10   4   4    9.12    2.13
 -10   4  -4    9.64    2.08
 -10  -4  -4    6.87    2.23
  10  -4   4    7.29    2.25
  11  -4   4   13.45    2.88
 -11  -4  -4    8.71    2.09
 -11   4  -4    9.79    2.20
  11   4   4    8.82    2.39
 -11  -4  -4    7.68    2.43
  12   4   4    1.73    1.61
 -12  -4  -4    3.46    2.08
 -12  -4  -4    3.10    1.47
 -12   4  -4    1.56    1.71
  12  -4   4    0.08    1.80
 -13  -4  -4   24.35    3.83
  13   4   4   16.90    3.20
  13  -4   4   19.94    3.69
 -13  -4  -4   16.06    2.97
 -13   4  -4   21.09    3.49
  14  -4   4    0.35    1.86
 -14  -4  -4    1.80    1.47
  14   4   4   -1.72    1.38
 -14   4  -4    0.54    1.83
 -14  -4  -4    0.01    1.99
 -14  -5   4    2.69    2.43
  14   5  -4   -0.27    2.12
 -14   5   4    1.40    2.52
 -13  -5   4   17.79    3.89
 -13   5   4   16.32    3.58
  13   5  -4   10.78    3.03
 -12  -5   4   -1.59    1.66
  12   5  -4   -0.80    1.50
 -12   5   4    2.27    1.97
 -12   5   4   -0.89    1.55
 -11   5   4    0.15    1.69
 -11  -5   4    0.35    1.61
  11   5  -4    0.03    1.47
 -11   5   4    0.54    1.44
  11  -5  -4    1.24    1.55
  10   5  -4    0.42    0.98
  10  -5  -4    2.33    1.45
 -10   5   4    1.00    1.40
 -10  -5   4   -0.85    1.18
 -10   5   4    0.39    1.43
  -9   5   4   47.69    4.15
  -9   5   4   52.14    4.28
  -9  -5   4   59.33    4.86
   9  -5  -4   52.05    4.22
  -8   5   4    1.74    1.18
   8  -5  -4    0.50    1.06
  -8  -5   4    1.89    1.47
   8   5  -4    0.92    1.22
  -7  -5   4  112.08    6.76
   7   5  -4  111.66    6.35
  -7   5   4  112.17    6.60
   7  -5  -4  104.39    6.15
  -7  -5   4  129.85    6.44
   7  -5  -4  112.06    6.56
   7   5  -4  109.59    5.15
  -7   5   4  113.87    5.09
   6   5  -4    0.35    0.55
  -6   5   4   -0.12    0.76
   6  -5  -4    0.20    0.97
   6  -5  -4    0.84    0.91
  -6  -5   4    2.33    1.18
  -6  -5   4   -0.01    0.79
   6   5  -4   -0.06    0.84
  -6   5   4    0.00    0.55
  -5   5   4  136.52    7.81
   5   5  -4  158.68    7.73
   5   5  -4  159.05    6.59
   5  -5  -4  144.03    7.32
  -5  -5   4  171.77    8.17
  -5   5   4  161.36    6.62
   5  -5  -4  148.40    7.49
  -5  -5   4  156.93    7.93
   4   5  -4    0.30    0.80
   4  -5  -4   -0.04    0.55
   4  -5  -4    0.19    0.68
  -4  -5   4    0.46    0.83
   4   5  -4   -0.06    0.49
  -4   5   4    0.30    0.66
  -4   5   4    0.28    0.61
  -4  -5   4    0.44    0.81
   3   5  -4   29.55    2.53
  -3   5   4   25.19    2.08
   3  -5  -4   32.04    2.24
   3  -5  -4   29.36    2.39
  -3  -5   4   30.67    2.74
  -3   5   4   27.05    2.36
   3   5  -4   27.00    2.05
  -3  -5   4   27.72    2.48
  -2  -5   4    2.75    1.23
  -2   5   4    3.00    0.87
   2   5  -4    2.58    0.87
  -2   5   4    1.99    0.81
  -2  -5   4    2.74    1.01
   2  -5  -4    2.45    0.85
   2   5  -4    2.50    0.91
   2  -5  -4    2.77    0.65
   1   5  -4  327.93   13.09
   1  -5  -4  304.18   12.37
  -1   5   4  294.81   11.81
   1  -5  -4  321.67   11.89
  -1   5   4  304.90   13.51
  -1  -5   4  294.22   14.94
   1   5  -4  315.64   12.13
   0  -5   4    0.76    0.58
   0  -5   4    0.90    0.98
   0   5  -4    0.09    0.46
   0   5  -4    0.01    0.52
   0  -5  -4    0.36    0.32
   0   5   4    1.24    0.59
   0  -5  -4    0.17    0.35
   0   5   4    0.50    0.49
   1  -5   4  366.38   15.32
  -1   5  -4  414.52   16.38
  -1  -5  -4  431.77   15.82
   1   5   4  409.24   15.50
  -1  -5  -4  433.33   16.28
  -1   5  -4  408.75   15.76
   1   5   4  435.29   17.41
   2   5   4    0.43    0.43
   2  -5   4    1.17    0.46
  -2   5  -4    0.39    0.58
   2   5   4    0.84    0.65
   2  -5   4   -0.04    0.83
  -2   5  -4   -0.21    0.42
  -2  -5  -4    0.53    0.75
  -2  -5  -4    0.31    0.39
  -3  -5  -4  231.01    9.30
  -3  -5  -4  212.87    9.89
  -3   5  -4  225.29    9.42
  -3   5  -4  223.72    9.45
   3  -5   4  211.62   11.71
   3  -5   4  233.53    8.51
   3   5   4  231.78    9.61
   4   5   4    0.95    0.39
  -4   5  -4    1.36    0.65
   4   5   4    1.03    0.80
  -4   5  -4    1.04    0.79
   4  -5   4    1.31    0.47
  -4  -5  -4    1.97    0.99
  -4  -5  -4    0.79    0.61
   4  -5   4    1.22    1.16
  -5  -5  -4    0.34    0.57
  -5   5  -4    1.13    0.75
   5  -5   4    0.27    0.45
  -5   5  -4   -0.14    0.42
   5   5   4    0.73    0.77
  -5  -5  -4    0.93    1.08
   5  -5   4    3.05    1.47
   6  -5   4    0.45    0.54
  -6   5  -4    0.40    0.77
  -6  -5  -4    0.26    1.05
  -6  -5  -4   -0.03    0.62
  -6   5  -4   -0.05    0.62
   6   5   4    0.42    0.79
   6  -5   4    0.27    1.14
  -7   5  -4   99.03    5.57
  -7   5  -4  117.65    5.82
  -7  -5  -4   94.15    5.51
   7  -5   4  101.08    7.19
   7   5   4  100.55    5.80
  -7  -5  -4  112.96    6.49
  -8  -5  -4    0.27    0.85
   8   5   4    0.17    0.93
  -8  -5  -4    0.39    1.23
  -8   5  -4   -0.15    0.90
  -8   5  -4   -0.06    0.85
   8  -5   4    0.31    1.48
  -9   5  -4  110.75    6.30
  -9  -5  -4  125.51    7.15
   9   5   4  111.47    6.46
  -9   5  -4  105.32    6.02
  -9  -5  -4   98.45    6.12
   9  -5   4  110.22    7.99
  10   5   4    1.47    1.33
 -10  -5  -4    0.20    0.94
 -10  -5  -4   -1.88    1.22
 -10   5  -4    0.71    1.21
  10  -5   4   -0.28    1.87
 -10   5  -4    0.10    1.30
  11  -5   4   40.64    4.74
 -11  -5  -4   33.62    3.68
 -11   5  -4   42.58    3.94
  11   5   4   39.39    4.09
 -11  -5  -4   38.73    4.40
  12  -5   4    0.16    1.77
 -12  -5  -4    0.58    1.31
 -12  -5  -4    1.26    1.97
 -12   5  -4    1.12    1.75
  12   5   4    1.32    1.56
 -13  -5  -4    3.71    1.64
  13   5   4    5.62    2.15
 -13  -5  -4    4.36    2.39
 -13   5  -4    5.11    2.22
  13  -5   4    4.31    2.46
  14   5   4    1.74    1.92
 -14  -5  -4   -2.45    1.76
 -14   5  -4   -0.41    1.87
  14  -5   4    2.57    2.09
 -14  -5  -4   -0.77    1.01
  13  -6  -4    9.44    3.42
  13   6  -4    5.83    2.40
 -13  -6   4    7.64    2.94
 -12   6   4   -0.74    1.37
  12  -6  -4    0.91    1.91
 -12  -6   4   -0.26    1.80
  12   6  -4    0.30    1.22
 -11   6   4   46.28    4.45
  11  -6  -4   54.74    5.89
  11   6  -4   44.76    4.36
 -11  -6   4   42.50    5.03
  10   6  -4    2.63    1.78
 -10  -6   4    3.73    1.98
 -10   6   4    3.65    1.74
  10  -6  -4    2.46    1.74
  -9  -6   4   52.77    4.72
  -9   6   4   47.27    4.22
   9  -6  -4   49.43    4.57
   9   6  -4   49.83    4.28
   8   6  -4    4.22    1.53
   8   6  -4    5.06    1.17
  -8  -6   4    8.06    2.10
   8  -6  -4    5.94    1.70
  -8   6   4    5.65    1.80
   8  -6  -4    3.36    1.56
   7  -6  -4    1.70    1.20
   7   6  -4    1.54    0.86
   7   6  -4    0.59    1.03
  -7  -6   4    2.83    1.40
   7  -6  -4   -0.40    1.04
  -7   6   4    0.77    0.99
  -7   6   4    1.66    0.88
  -6   6   4   27.37    2.25
  -6  -6   4   29.57    3.46
  -6  -6   4   33.54    2.92
   6  -6  -4   24.75    2.91
   6   6  -4   28.19    2.19
  -6   6   4   26.09    2.67
   6  -6  -4   26.98    2.76
   6   6  -4   21.92    2.69
  -5   6   4   98.54    4.87
   5  -6  -4   86.11    5.11
   5   6  -4   96.22    5.56
   5   6  -4  103.57    4.88
  -5  -6   4  102.62    5.89
  -5  -6   4   89.99    5.71
   5  -6  -4  101.21    5.60
   4  -6  -4   60.67    3.69
  -4  -6   4   67.31    4.46
   4  -6  -4   60.27    3.98
  -4  -6   4   62.29    4.31
   4   6  -4   64.15    3.59
  -4   6   4   59.80    3.60
   4   6  -4   66.19    4.26
  -4   6   4   63.02    4.16
  -3  -6   4  216.01   10.33
   3  -6  -4  226.92   10.09
   3   6  -4  242.74   10.61
  -3   6   4  242.58   11.05
  -3   6   4  225.72    9.66
   3   6  -4  232.50    9.57
  -3  -6   4  241.07   11.73
   3  -6  -4  240.33    9.61
   2  -6  -4    3.10    0.98
   2  -6  -4    2.51    0.53
  -2  -6   4    1.71    1.27
  -2  -6   4    1.91    1.02
  -2   6   4    2.80    0.95
  -2   6   4    3.04    0.96
   2   6  -4    2.78    0.94
   2   6  -4    2.99    1.03
   1  -6  -4   22.95    2.16
  -1  -6   4   23.47    2.46
   1   6  -4   27.43    2.36
   1   6  -4   24.83    2.15
  -1  -6   4   26.90    3.51
  -1   6   4   26.00    2.19
   1  -6  -4   27.40    1.43
  -1   6   4   28.53    2.17
   0  -6  -4  102.92    5.33
   0   6  -4  101.85    5.14
   0  -6  -4  107.87    4.26
   0  -6   4   89.95    4.88
   0   6   4   94.34    4.83
   0  -6   4   92.36    6.65
   0   6   4  104.56    5.28
   0   6  -4  106.64    5.20
  -1  -6  -4    3.68    0.65
   1   6   4    2.88    0.77
   1  -6   4    3.95    0.93
  -1   6  -4    4.80    1.18
  -1  -6  -4    0.16    0.51
   1  -6   4    0.46    0.88
  -1   6  -4    4.34    1.00
   1   6   4    2.42    0.89
   2  -6   4   10.02    1.21
  -2  -6  -4    9.19    1.79
   2  -6   4    8.39    2.22
  -2   6  -4    9.24    1.59
   2   6   4    8.95    1.16
   2   6   4   10.32    1.54
  -2   6  -4   11.10    1.35
  -2  -6  -4    9.63    1.08
  -3  -6  -4   33.80    3.05
  -3  -6  -4   39.18    2.37
   3  -6   4   37.40    3.79
   3   6   4   40.10    2.31
  -3   6  -4   36.19    2.45
   3  -6   4   38.50    2.18
  -3   6  -4   35.19    2.78
   4   6   4   32.78    2.64
  -4  -6  -4   27.11    3.09
  -4   6  -4   28.83    2.55
   4   6   4   31.25    1.88
  -4  -6  -4   31.66    2.25
   4  -6   4   34.48    3.97
  -4   6  -4   30.72    2.27
   4  -6   4   31.71    1.93
   5  -6   4  152.88    6.41
   5   6   4  160.84    7.51
   5  -6   4  150.73    9.23
  -5   6  -4  150.73    7.13
  -5  -6  -4  171.07    8.35
  -5  -6  -4  143.47    7.08
  -6   6  -4    0.90    0.81
   6  -6   4    0.55    1.27
  -6  -6  -4    0.56    1.36
   6   6   4    1.00    0.94
  -6   6  -4    0.71    0.88
  -6  -6  -4    0.58    0.74
  -7   6  -4   90.56    5.32
  -7  -6  -4  107.94    6.48
  -7   6  -4   94.25    5.24
  -7  -6  -4   86.90    5.20
   7  -6   4   91.60    6.90
   7   6   4   91.62    5.52
  -8   6  -4   14.49    2.28
  -8  -6  -4   11.59    2.04
   8  -6   4   19.96    3.60
  -8   6  -4   16.93    2.27
   8   6   4   14.67    2.47
  -8  -6  -4   21.54    3.28
  -9   6  -4    0.96    1.24
   9  -6   4    1.75    2.01
  -9  -6  -4    2.23    1.69
  -9  -6  -4    2.64    1.36
   9   6   4    2.21    1.32
  -9   6  -4    2.29    1.41
 -10  -6  -4    0.83    1.16
 -10   6  -4    1.68    1.30
 -10  -6  -4    0.59    1.66
  10  -6   4    1.25    1.99
 -10   6  -4   -0.59    1.28
  10   6   4    1.60    1.44
 -11   6  -4   13.75    2.51
 -11  -6  -4   13.88    2.60
 -11  -6  -4   19.49    3.50
 -11   6  -4   15.86    2.82
  11   6   4   14.63    2.86
 -12  -6  -4    2.90    2.39
 -12  -6  -4    1.72    1.55
  12  -6   4    0.40    2.13
  12   6   4    2.83    1.70
 -12   6  -4    3.91    1.98
 -13  -6  -4   26.60    4.16
  13   6   4   19.85    3.44
  13  -6   4   19.67    3.83
 -13  -6  -4   16.29    2.98
 -13   6  -4   21.29    3.58
 -13  -7   4    8.69    3.13
 -13   7   4    6.05    2.45
  13  -7  -4   10.06    3.17
  13   7  -4    6.79    2.56
 -12   7   4   10.33    2.75
  12  -7  -4    8.49    2.94
 -12  -7   4    9.35    2.75
  12   7  -4    9.90    2.69
  11  -7  -4    1.77    2.04
 -11  -7   4    0.81    1.55
  11   7  -4    0.52    1.51
 -11   7   4   -0.32    1.38
 -10   7   4   21.58    3.32
 -10  -7   4   20.80    3.58
  10  -7  -4   23.39    3.90
  10   7  -4   25.23    3.43
  -9   7   4   26.81    3.44
  -9  -7   4   28.09    3.96
   9   7  -4   27.41    3.41
   9  -7  -4   24.06    3.65
   8   7  -4   10.89    2.30
   8   7  -4   10.94    1.72
  -8  -7   4   10.43    2.47
  -8   7   4   11.20    2.40
   8  -7  -4    9.08    2.33
   7   7  -4  103.34    6.13
  -7   7   4   99.85    6.32
   7  -7  -4   91.26    6.02
  -7   7   4  104.26    5.14
   7   7  -4   99.11    5.12
  -7  -7   4   98.34    6.43
  -6   7   4    1.94    0.98
   6   7  -4    0.42    1.06
   6  -7  -4    0.97    1.02
  -6  -7   4    1.93    1.28
  -6  -7   4    0.98    1.14
  -6   7   4    0.32    0.69
   6   7  -4    0.09    0.75
   5   7  -4   77.57    4.43
  -5   7   4   78.49    4.51
   5   7  -4   84.90    5.17
  -5   7   4   82.86    5.30
   5  -7  -4   76.84    5.00
  -5  -7   4   80.07    5.36
  -5  -7   4   97.36    5.58
  -4   7   4   46.89    3.73
  -4  -7   4   64.02    4.47
  -4   7   4   52.49    3.55
   4   7  -4   59.10    4.06
   4   7  -4   57.51    3.54
  -4  -7   4   52.78    4.13
   4  -7  -4   55.39    3.88
  -3   7   4    3.08    1.04
  -3  -7   4    5.36    1.85
   3   7  -4    3.08    1.03
   3   7  -4    2.90    1.20
   3  -7  -4    3.65    1.17
  -3   7   4    2.97    1.20
  -3  -7   4    4.83    1.49
   2   7  -4   78.55    4.59
   2   7  -4   66.95    4.10
  -2   7   4   71.23    4.26
  -2  -7   4   82.26    5.85
  -2   7   4   70.47    4.41
  -2  -7   4   67.07    4.42
   2  -7  -4   74.39    4.45
   1  -7  -4   78.33    3.06
   1  -7  -4   77.07    4.52
  -1  -7   4   68.89    4.32
  -1  -7   4   74.11    5.68
   1   7  -4   79.78    4.42
  -1   7   4   71.56    4.32
  -1   7   4   62.50    4.01
   1   7  -4   73.03    4.26
   0  -7  -4    8.26    0.76
   0   7  -4    9.84    1.67
   0  -7  -4    9.63    1.81
   0   7   4    9.57    1.43
   0  -7   4    9.51    1.62
   0   7  -4    7.52    1.36
   0   7   4    8.12    1.47
   0  -7   4    6.92    2.09
   1   7   4  174.41    7.89
  -1   7  -4  183.07    7.94
  -1  -7  -4  187.07    7.26
   1   7   4  194.88    8.47
  -1  -7  -4  175.78    8.49
   1  -7   4  170.79   10.16
  -1   7  -4  175.33    8.13
   1  -7   4  168.16    7.74
  -2  -7  -4    2.68    0.68
   2  -7   4    3.16    1.51
  -2   7  -4    2.09    0.90
  -2  -7  -4    0.67    0.65
   2   7   4    3.17    1.13
   2  -7   4    1.94    0.82
  -2   7  -4    2.33    0.79
  -3  -7  -4  103.42    4.75
  -3   7  -4  104.67    4.93
   3   7   4   76.96    4.88
   3  -7   4   98.42    6.85
   3  -7   4  101.79    4.68
   3   7   4  109.30    4.96
  -3  -7  -4   87.89    5.64
  -3   7  -4  103.21    5.44
  -4  -7  -4   47.46    2.94
   4  -7   4   42.86    4.30
  -4   7  -4   46.33    2.91
   4   7   4   40.02    3.17
  -4   7  -4   44.55    3.39
  -4  -7  -4   49.61    3.92
   4  -7   4   48.08    2.69
  -5   7  -4    3.42    1.05
   5  -7   4    2.37    1.53
  -5  -7  -4    3.23    1.01
  -5  -7  -4    3.39    1.58
   5   7   4    2.48    1.10
  -5   7  -4    1.06    0.67
  -6  -7  -4   35.27    2.77
  -6   7  -4   30.16    3.09
  -6   7  -4   40.62    2.90
   6  -7   4   32.49    4.27
  -6  -7  -4   44.27    4.30
   6   7   4   35.42    3.12
  -7  -7  -4   33.81    2.84
   7  -7   4   27.90    4.22
  -7  -7  -4   44.84    4.54
   7   7   4   30.09    3.26
  -7   7  -4   30.40    2.74
  -7   7  -4   30.55    3.13
   8   7   4    9.57    2.20
   8  -7   4    8.19    2.60
  -8  -7  -4    8.62    1.89
  -8   7  -4    8.84    1.95
  -8   7  -4   11.44    2.10
  -8  -7  -4   13.80    2.93
  -9  -7  -4   59.42    5.12
  -9   7  -4   41.12    3.66
   9   7   4   40.56    4.02
   9  -7   4   41.01    5.33
  -9  -7  -4   39.48    3.51
  -9   7  -4   45.00    3.73
 -10  -7  -4    5.79    2.39
 -10  -7  -4    3.38    1.42
 -10   7  -4    4.81    1.74
 -10   7  -4    6.14    1.91
  10  -7   4    5.16    2.56
  10   7   4    5.15    1.85
 -11  -7  -4   21.61    3.14
 -11   7  -4   23.45    3.17
  11   7   4   24.23    3.51
 -11  -7  -4   28.09    4.08
  11  -7   4   25.71    4.99
  12   7   4   10.27    2.63
 -12  -7  -4    9.94    2.91
 -12  -7  -4    6.50    1.96
 -12   7  -4    5.89    2.03
  13  -7   4    0.16    2.06
 -13  -7  -4    0.05    1.17
 -13  -7  -4    0.79    2.13
  13   7   4    1.73    1.84
  13  -8  -4    4.28    2.59
  13   8  -4    0.71    1.98
 -13  -8   4    2.57    2.14
 -13   8   4    2.06    2.09
  12   8  -4    1.44    1.83
 -12  -8   4    1.45    1.99
  12  -8  -4    3.00    2.20
 -12   8   4    2.81    2.08
  11  -8  -4    8.14    2.63
  11   8  -4    8.31    2.62
 -11  -8   4   10.11    2.83
 -11   8   4    5.35    2.20
 -10   8   4    0.67    1.54
  10   8  -4    6.12    2.17
  10  -8  -4    3.05    1.93
 -10  -8   4    3.98    1.95
   9   8  -4   13.04    2.66
  -9  -8   4   13.69    2.94
  -9   8   4   14.65    2.82
   9  -8  -4   14.41    3.00
  -8   8   4   35.79    3.68
   8   8  -4   40.17    3.96
  -8  -8   4   38.05    4.38
   8   8  -4   40.49    3.10
   8  -8  -4   34.11    4.05
   7  -8  -4    0.26    1.01
   7   8  -4    0.49    0.84
  -7  -8   4    1.04    1.35
   7   8  -4    1.41    1.26
  -7   8   4    0.42    1.00
  -7   8   4    0.90    1.20
  -6  -8   4   61.99    4.89
  -6   8   4   60.43    4.60
  -6   8   4   60.00    3.92
   6   8  -4   63.49    4.49
   6   8  -4   63.77    3.97
   6  -8  -4   61.82    4.60
   5   8  -4   24.08    2.50
  -5  -8   4   30.73    3.06
  -5   8   4   22.33    2.84
   5  -8  -4   24.36    3.01
  -5   8   4   23.72    2.57
  -5  -8   4   25.25    3.27
   5   8  -4   25.74    2.96
  -4   8   4   24.62    2.82
   4   8  -4   24.79    2.52
   4  -8  -4   24.49    2.91
   4   8  -4   23.33    2.76
  -4  -8   4   27.76    3.29
  -4   8   4   24.12    2.66
  -4  -8   4   24.98    3.19
  -3  -8   4   37.39    4.07
   3   8  -4   29.21    2.57
  -3   8   4   29.68    2.73
  -3  -8   4   33.69    3.46
   3  -8  -4   32.03    2.90
  -3   8   4   27.55    2.73
   3   8  -4   32.32    2.94
   2  -8  -4    8.24    1.76
   2   8  -4   10.40    1.75
   2   8  -4   11.57    1.90
  -2  -8   4    9.27    2.54
  -2   8   4    8.97    1.69
  -2  -8   4   10.81    2.16
  -2   8   4    8.14    1.68
   1  -8  -4   37.61    3.18
  -1  -8   4   38.10    3.14
  -1  -8   4   44.14    4.35
  -1   8   4   36.90    3.01
  -1   8   4   35.09    2.93
   1   8  -4   41.82    3.12
   1   8  -4   45.57    3.15
   0  -8  -4  100.16    5.88
   0   8  -4  106.18    5.45
   0  -8   4  113.99    7.55
   0   8  -4  106.53    5.70
   0   8   4  101.54    5.54
   0   8   4  108.53    5.77
   0  -8   4  103.11    5.59
  -1  -8  -4    2.61    0.59
  -1   8  -4    2.42    1.01
   1   8   4    3.70    1.19
   1   8   4    2.92    0.93
  -1  -8  -4    2.89    1.18
   1  -8   4    1.10    1.37
  -1   8  -4    3.57    0.95
   1  -8   4    1.84    1.03
   2  -8   4  171.49    7.79
  -2   8  -4  170.94    8.29
  -2   8  -4  178.53    7.82
   2   8   4  168.52    8.05
  -2  -8  -4  185.61    8.98
   2   8   4  178.96    8.31
  -2  -8  -4  184.23    7.46
  -3   8  -4   32.13    2.90
   3   8   4   35.56    2.43
  -3  -8  -4   37.87    2.39
  -3   8  -4   36.33    2.44
   3  -8   4   26.45    3.81
   3  -8   4   36.93    2.54
   3   8   4   30.81    2.74
  -4  -8  -4   13.76    2.68
   4  -8   4   18.09    3.26
  -4  -8  -4   24.73    2.03
  -4   8  -4   23.75    1.98
  -4   8  -4   23.38    2.72
   4   8   4   21.91    2.59
  -5  -8  -4   32.58    2.57
  -5  -8  -4   34.03    3.95
  -5   8  -4   35.22    2.63
   5  -8   4   33.42    4.30
   5   8   4   27.12    2.97
  -6   8  -4    4.60    1.45
   6  -8   4    4.17    1.87
  -6  -8  -4    4.71    1.23
  -6  -8  -4    4.29    2.06
  -6   8  -4    4.51    1.30
   6   8   4    3.61    1.48
  -7  -8  -4   16.42    3.38
   7  -8   4   10.37    2.75
   7   8   4   12.28    2.32
  -7   8  -4   13.97    2.00
  -7  -8  -4   12.87    2.00
  -7   8  -4   11.01    2.16
  -8   8  -4   40.98    3.59
  -8  -8  -4   49.46    5.02
   8   8   4   43.84    4.11
   8  -8   4   37.38    5.07
  -8  -8  -4   35.94    3.32
  -9  -8  -4    3.21    1.52
  -9   8  -4    3.28    1.66
   9  -8   4    3.80    2.21
  -9  -8  -4    4.31    2.37
   9   8   4    3.12    1.60
 -10  -8  -4   51.05    5.39
 -10   8  -4   40.68    4.05
 -10  -8  -4   36.11    3.54
  10   8   4   47.11    4.50
  10  -8   4   39.01    5.62
  11  -8   4    0.00    2.11
 -11  -8  -4    4.65    2.35
 -11  -8  -4    3.23    1.52
 -11   8  -4    3.97    1.84
  11   8   4    1.66    1.50
 -12  -8  -4    4.19    2.57
  12   8   4    9.70    2.61
 -12   8  -4    2.93    1.79
 -12  -8  -4    1.40    1.55
 -12   9   4   14.23    3.29
  12   9  -4   11.65    3.12
 -12  -9   4   22.87    4.11
  12  -9  -4   15.49    3.57
 -11  -9   4    0.53    1.51
 -11   9   4    0.98    1.57
  11   9  -4    0.69    1.96
  11  -9  -4    3.92    2.27
 -10   9   4   22.00    3.62
  10  -9  -4   24.37    4.08
 -10  -9   4   30.24    4.37
  10   9  -4   24.84    3.65
   9   9  -4    4.28    1.89
  -9   9   4    4.87    2.00
  -9  -9   4    3.60    1.94
   9  -9  -4    4.45    1.97
  -8   9   4   24.22    3.52
  -8  -9   4   25.87    3.86
   8   9  -4   25.95    2.88
   8  -9  -4   27.54    3.79
   8   9  -4   26.95    3.49
  -7   9   4   18.52    2.39
   7   9  -4   22.60    3.04
   7   9  -4   20.56    2.57
   7  -9  -4   17.99    3.08
  -7  -9   4   18.35    3.21
  -6  -9   4    6.74    2.14
   6   9  -4    9.61    1.83
  -6   9   4    8.75    2.09
   6  -9  -4   11.55    2.42
   6   9  -4   10.42    2.15
  -6   9   4    9.27    1.87
   5  -9  -4    3.73    1.52
  -5   9   4    5.55    1.62
  -5  -9   4    5.31    1.98
   5   9  -4    6.00    1.70
  -5  -9   4    6.46    1.96
   5   9  -4    4.88    1.43
  -5   9   4    4.28    1.41
   4   9  -4   91.98    5.43
  -4  -9   4  120.28    7.18
   4   9  -4  113.01    6.25
  -4   9   4   86.45    5.50
  -4  -9   4  102.58    6.34
   4  -9  -4   97.19    6.04
  -4   9   4  102.92    6.28
   3   9  -4    0.45    0.81
  -3  -9   4    1.07    0.99
  -3   9   4    0.01    0.94
   3  -9  -4   -0.76    0.70
  -3   9   4    0.29    0.82
  -3  -9   4    0.28    1.43
   3   9  -4    1.08    1.07
   2   9  -4   93.57    5.44
  -2  -9   4  109.13    7.40
  -2   9   4   86.15    5.40
  -2   9   4   94.96    5.75
  -2  -9   4   96.04    5.87
   2  -9  -4   94.32    5.79
   2   9  -4  111.58    5.88
  -1  -9   4    3.53    1.98
   1  -9  -4    3.15    1.30
   1   9  -4    3.70    1.29
  -1   9   4    3.70    1.31
  -1  -9   4    3.87    1.38
  -1   9   4    6.22    1.43
   1   9  -4    3.38    1.23
   0   9  -4  108.97    5.38
   0  -9   4  102.49    7.26
   0   9   4   89.97    5.47
   0   9  -4   97.44    5.56
   0   9   4   99.53    5.58
   0  -9   4   94.32    5.50
   0  -9  -4   96.37    5.93
   1  -9   4   18.86    3.44
   1   9   4   20.87    2.57
   1   9   4   18.86    1.95
  -1   9  -4   22.92    2.68
   1  -9   4   17.88    2.31
  -1   9  -4   19.90    1.86
  -1  -9  -4   18.79    2.78
   2   9   4   13.56    2.16
  -2   9  -4   18.39    2.52
   2  -9   4    6.64    2.15
  -2  -9  -4   15.23    2.64
   2  -9   4   17.42    2.16
   2   9   4   16.94    1.89
  -2   9  -4   15.79    1.67
  -3   9  -4   12.98    1.57
   3  -9   4   11.03    1.72
   3   9   4    8.65    1.85
   3  -9   4    8.32    2.34
  -3   9  -4   13.21    2.26
   3   9   4   11.21    1.49
  -3  -9  -4    8.09    2.16
   4   9   4  109.07    6.10
  -4  -9  -4  118.92    5.55
   4  -9   4   97.72    7.49
  -4   9  -4  109.52    6.19
   5   9   4    0.69    1.06
  -5   9  -4   -0.52    0.80
  -5  -9  -4    1.90    0.97
  -5  -9  -4    0.62    1.24
   5  -9   4    0.05    1.28
   6  -9   4   56.47    5.55
  -6  -9  -4   71.31    5.46
  -6   9  -4   56.71    4.35
  -6  -9  -4   57.59    3.95
   6   9   4   68.11    4.66
  -7  -9  -4    3.95    2.15
   7  -9   4    3.79    2.25
   7   9   4    4.12    1.64
  -7   9  -4    3.82    1.62
  -7  -9  -4    5.02    1.47
  -8   9  -4   19.25    2.96
   8   9   4   23.15    3.26
   8  -9   4   25.90    4.55
  -8  -9  -4   25.94    4.07
  -8  -9  -4   21.42    2.69
  -9  -9  -4    5.46    1.65
   9  -9   4    3.22    2.31
  -9  -9  -4    6.09    2.48
   9   9   4    5.47    1.91
  -9   9  -4    5.08    1.93
 -10  -9  -4    1.05    2.23
 -10  -9  -4    1.17    1.26
  10  -9   4    3.41    2.51
 -10   9  -4    1.88    1.57
  10   9   4    0.53    1.46
  11   9   4    3.63    2.08
  11  -9   4    1.27    2.57
 -11   9  -4    3.01    1.78
 -11  -9  -4    4.00    2.49
 -12   9  -4   18.42    3.23
 -12  -9  -4   21.58    4.16
  12   9   4   17.61    3.35
  12   9   4   21.44    3.78
 -12  10   4    1.71    2.08
  12 -10  -4    2.60    2.30
  12  10  -4    2.81    2.05
 -12 -10   4    1.88    1.92
 -11  10   4    1.70    1.86
 -11 -10   4    0.42    1.71
  11  10  -4    0.56    1.83
  11 -10  -4    0.55    1.89
  10 -10  -4    3.01    1.88
 -10 -10   4    1.74    1.83
 -10  10   4    1.16    1.74
  10  10  -4    0.85    1.78
  -9  10   4    1.00    1.67
   9  10  -4   -0.80    1.53
   9 -10  -4    1.76    1.55
  -9 -10   4    1.07    1.62
   8 -10  -4   45.80    4.95
  -8 -10   4   46.73    5.05
   8  10  -4   49.54    4.50
   8  10  -4   48.11    3.85
  -7 -10   4    2.00    1.48
  -7  10   4    0.20    1.29
   7  10  -4    0.16    1.36
   7 -10  -4    0.12    1.42
   7  10  -4    0.70    1.11
  -7  10   4    0.58    1.06
   6  10  -4   71.49    5.06
   6 -10  -4   62.32    5.05
  -6 -10   4   70.86    5.41
  -6  10   4   57.72    4.32
   6  10  -4   64.82    4.43
  -6  10   4   63.06    5.00
   5 -10  -4    3.75    1.53
  -5 -10   4    3.72    1.61
  -5  10   4    3.46    1.39
  -5  10   4    2.36    1.35
   5  10  -4    3.06    1.26
   5  10  -4    2.71    1.48
   4  10  -4    9.73    1.87
  -4 -10   4    7.50    2.10
   4 -10  -4   10.00    2.29
  -4  10   4    5.80    1.87
  -4  10   4    7.22    1.86
   4  10  -4    8.60    2.05
  -4 -10   4    8.40    2.47
  -3 -10   4   -1.39    1.49
  -3  10   4   -1.12    0.86
   3  10  -4    1.03    1.02
   3 -10  -4   -0.79    0.96
  -3 -10   4    0.05    1.10
  -3  10   4   -0.38    0.79
   3  10  -4    0.06    1.21
  -2  10   4    3.29    1.40
   2 -10  -4    5.04    1.71
  -2  10   4    7.63    1.75
  -2 -10   4    7.51    2.47
   2  10  -4    8.27    1.80
   2  10  -4    5.09    1.50
  -2 -10   4    4.99    1.62
  -1  10   4    1.65    1.25
  -1  10   4    0.28    0.81
   1  10  -4    0.63    0.99
  -1 -10   4    0.14    1.53
   1  10  -4   -0.73    0.82
   1 -10  -4   -0.48    1.00
  -1 -10   4    1.41    1.13
   0  10   4   91.85    5.67
   0 -10  -4   87.89    5.86
   0  10   4   95.86    5.52
   0 -10   4   84.03    5.35
   0 -10   4   99.48    7.22
   0  10  -4   88.88    5.43
   1  10   4    1.56    0.93
   1 -10   4    0.67    1.14
  -1 -10  -4    1.52    1.28
  -1  10  -4    0.08    0.88
   1  10   4    0.84    1.17
   1 -10   4    1.33    1.54
   2 -10   4  161.94   10.14
   2  10   4  160.25    7.96
  -2 -10  -4  162.25    8.82
  -2  10  -4  157.52    8.07
   2 -10   4  154.36    7.70
  -3 -10  -4   14.69    2.86
   3  10   4   15.69    2.58
  -3  10  -4   16.34    2.52
   3 -10   4   10.00    2.75
   4  10   4   20.14    2.90
  -4 -10  -4   26.50    3.78
   4 -10   4   23.71    4.10
  -4  10  -4   25.72    3.08
   5 -10   4    0.20    1.57
  -5  10  -4    1.07    1.17
  -5 -10  -4    2.47    1.82
   5  10   4    2.14    1.32
  -6  10  -4    6.29    1.89
   6  10   4   10.88    2.30
  -6 -10  -4    0.40    1.35
  -7 -10  -4   -0.68    1.87
  -7 -10  -4    0.38    0.99
   7  10   4    0.72    1.28
  -7  10  -4    0.95    1.53
   7 -10   4    0.72    1.77
   8  10   4   36.28    4.07
  -8 -10  -4   31.18    3.24
  -8 -10  -4   38.53    4.95
  -8  10  -4   27.78    3.51
   8 -10   4   30.57    5.00
   9  10   4    1.94    1.53
   9 -10   4    1.76    2.13
  -9  10  -4    0.25    1.45
  -9 -10  -4    0.52    1.91
  10 -10   4   27.98    5.24
 -10 -10  -4   56.95    5.97
 -10  10  -4   30.70    3.91
  10  10   4   39.39    4.26
  10  10   4   38.04    4.39
  11  10   4   -0.04    1.66
 -11  10  -4   -0.44    1.73
 -11 -10  -4    0.74    2.10
  11 -10   4   -1.52    2.45
  11  10   4    0.43    1.91
  11 -11  -4    0.73    2.15
 -11 -11   4    0.67    1.51
  11  11  -4    0.12    2.02
 -11  11   4    1.42    1.97
  10 -11  -4   14.96    3.33
  10  11  -4   17.45    3.53
 -10  11   4   15.83    3.36
 -10 -11   4   19.13    3.71
   9 -11  -4    0.19    1.63
  -9  11   4    1.32    1.66
   9  11  -4    1.24    1.68
  -9 -11   4    1.35    1.73
  -8 -11   4    5.25    2.11
   8 -11  -4    7.09    2.27
   8  11  -4    7.25    2.03
  -8  11   4    5.80    2.18
   8  11  -4    5.54    2.29
  -7  11   4   16.04    3.07
   7 -11  -4   17.30    3.25
   7  11  -4   17.97    3.17
  -7 -11   4   16.46    3.19
   7  11  -4   17.02    2.75
  -7  11   4   15.86    2.61
  -6  11   4    0.88    1.38
  -6  11   4    3.39    1.72
   6  11  -4    3.26    1.63
   6 -11  -4    1.63    1.51
  -6 -11   4    3.94    1.89
   6  11  -4    4.54    1.71
   5  11  -4    2.80    1.58
  -5  11   4    1.80    1.50
   5  11  -4    3.66    1.42
  -5 -11   4   -0.11    1.24
  -5  11   4    2.14    1.40
   5 -11  -4    0.58    1.48
   4 -11  -4   50.12    4.43
  -4  11   4   50.70    4.32
  -4 -11   4   69.21    5.55
  -4 -11   4   53.00    4.54
   4  11  -4   51.72    4.00
   4  11  -4   58.24    4.38
  -4  11   4   48.75    4.17
  -3  11   4   -0.45    1.11
   3 -11  -4    0.81    1.25
   3  11  -4    0.59    0.99
  -3 -11   4    0.47    1.40
  -3 -11   4   -0.20    1.65
  -3  11   4   -0.19    0.91
   2  11  -4   65.58    4.65
  -2 -11   4   75.58    6.33
   2 -11  -4   65.58    5.08
  -2 -11   4   69.99    5.10
  -2  11   4   64.99    4.83
  -2  11   4   65.31    4.79
   1  11  -4    1.63    1.31
  -1 -11   4    2.18    1.43
   1 -11  -4   -0.41    0.95
  -1  11   4    0.23    0.94
  -1 -11   4   -0.79    1.55
  -1  11   4    2.73    1.64
   0 -11   4   24.03    3.08
   0  11   4   17.65    2.87
   0  11   4   18.67    2.41
   0 -11  -4   18.59    3.02
   0 -11   4   17.13    3.52
   0  11  -4   14.05    2.48
   1 -11   4    7.84    2.65
  -1 -11  -4    8.45    2.24
   1  11   4    8.08    1.70
   1 -11   4   10.73    2.15
  -1  11  -4    8.85    2.00
   1  11   4    8.34    2.09
   2 -11   4    5.95    2.36
   2  11   4    7.05    1.56
  -2 -11  -4    3.89    1.75
  -2  11  -4    4.75    1.64
   2  11   4    3.69    1.52
  -3  11  -4    5.83    1.76
  -3 -11  -4    3.99    1.90
   3 -11   4    0.74    1.21
   3  11   4    5.13    1.81
   4 -11   4   35.30    4.94
   4  11   4   42.20    4.09
  -4 -11  -4   46.03    4.98
  -4  11  -4   33.49    3.70
  -5  11  -4    0.37    1.18
  -5 -11  -4   -0.11    1.68
   5 -11   4    1.99    1.87
   5  11   4    1.44    1.42
   6 -11   4   47.15    5.96
  -6  11  -4   32.32    3.96
   6  11   4   61.18    4.72
  -6 -11  -4   64.43    5.55
  -7 -11  -4    0.66    1.39
  -7  11  -4    0.41    1.38
   7 -11   4   -1.58    1.47
   7  11   4    1.78    1.60
  -8  11  -4   14.13    2.76
   8 -11   4   15.96    3.84
   8  11   4   19.41    3.25
  -8 -11  -4   21.17    4.07
  -9 -11  -4    1.55    2.45
  -9  11  -4    0.32    1.51
   9  11   4    0.19    1.55
   9 -11   4    0.78    2.16
 -10  11  -4    2.18    1.73
  10  11   4    0.76    1.77
 -10 -11  -4    0.33    2.44
  10 -11   4    2.01    2.85
  11  11   4    4.59    2.37
 -11  11  -4    3.59    1.96
 -11 -11  -4    5.88    2.78
  11 -11   4    3.21    2.74
 -10  12   4    2.34    1.96
  10  12  -4    4.90    2.56
  10 -12  -4    4.49    2.29
 -10 -12   4    5.26    2.18
  -9  12   4    1.50    1.50
   9  12  -4    4.42    2.42
   9 -12  -4    8.12    2.59
  -9 -12   4    9.45    2.64
   8  12  -4   14.33    2.72
  -8  12   4    9.19    2.64
   8 -12  -4    9.36    2.81
  -8 -12   4   14.57    3.13
   7  12  -4    1.34    1.35
  -7 -12   4    1.94    1.61
  -7  12   4   -0.60    1.19
  -7  12   4    0.73    1.33
   7 -12  -4   -0.54    1.50
  -6  12   4   14.27    2.90
   6  12  -4   21.60    3.11
   6 -12  -4   17.76    3.32
  -6 -12   4   23.99    3.82
  -6  12   4   18.88    3.00
  -5 -12   4   17.20    3.20
   5  12  -4   13.60    2.53
  -5  12   4   12.63    2.66
  -5  12   4   15.94    2.88
   5 -12  -4   17.03    3.28
   4 -12  -4   11.24    2.69
   4  12  -4   12.57    2.39
  -4 -12   4    8.67    2.43
  -4  12   4    5.39    1.90
  -4  12   4    8.91    2.41
   3 -12  -4   36.39    4.32
  -3  12   4   27.57    3.62
   3  12  -4   29.80    3.51
  -3 -12   4   36.19    4.16
  -3  12   4   33.42    3.72
  -3 -12   4   35.78    4.90
  -2 -12   4    7.55    2.80
   2  12  -4    4.46    1.67
   2 -12  -4    6.63    2.12
  -2  12   4    6.20    1.74
  -2 -12   4    7.11    2.13
  -2  12   4    5.18    1.87
  -1  12   4    9.00    1.99
  -1 -12   4   11.05    3.12
   1 -12  -4   11.71    2.61
   1  12  -4    8.91    2.13
  -1 -12   4   11.59    2.63
  -1  12   4   10.40    2.34
   0  12   4   34.36    3.26
   0 -12   4   36.61    5.18
   0  12   4   36.34    4.05
   0 -12   4   43.70    3.80
   0 -12  -4   30.80    4.13
   0  12  -4   34.99    3.70
  -1  12  -4    1.17    1.26
   1 -12   4    0.13    1.69
  -1 -12  -4    1.76    1.49
   1  12   4    0.62    1.10
   1  12   4    0.04    1.29
  -2 -12  -4   52.96    5.34
   2 -12   4   50.70    5.97
  -2  12  -4   53.60    4.38
   3  12   4    4.40    1.86
  -3 -12  -4    3.18    2.11
  -3  12  -4    1.37    1.32
   3 -12   4    3.92    2.37
  -4  12  -4   23.18    3.32
  -4 -12  -4   30.19    4.41
   4 -12   4   24.09    4.39
   4  12   4   28.83    3.75
   5 -12   4   16.85    3.80
  -5 -12  -4   23.24    4.10
  -5  12  -4   16.96    2.85
   5  12   4   19.21    3.20
   6 -12   4    1.08    2.00
   6  12   4   -1.49    1.28
  -6 -12  -4    0.67    2.10
  -6  12  -4   -0.87    1.12
  -7  12  -4   14.29    2.86
  -7 -12  -4   20.62    4.02
   7 -12   4   13.70    3.68
   7  12   4   14.10    2.98
   8  12   4   19.92    3.41
   8 -12   4   16.16    4.00
  -8  12  -4   17.98    3.21
   9 -12   4   -0.30    2.33
  -9  12  -4    0.29    1.49
  -9 -12  -4   -0.04    2.24
   9  12   4    2.40    1.85
 -10  12  -4    9.70    2.72
  10  12   4   11.98    2.97
 -10 -12  -4   12.49    3.57
  10 -12   4   10.39    3.60
  -9  13   4    7.06    2.61
   9 -13  -4   10.50    3.19
  -9 -13   4   10.35    3.14
   8 -13  -4    1.87    1.96
  -8 -13   4    2.16    1.98
  -8  13   4   -0.30    1.60
  -7  13   4   14.64    2.92
   7 -13  -4   15.32    3.43
  -7 -13   4   15.98    3.34
  -7  13   4   13.61    3.04
   7  13  -4   13.69    2.80
  -6  13   4    1.91    1.74
  -6  13   4    1.08    1.51
  -6 -13   4    1.85    1.80
   6 -13  -4    2.94    1.95
   6  13  -4    1.03    1.51
   5 -13  -4   12.66    2.99
  -5  13   4   12.19    2.77
  -5 -13   4   15.54    3.16
  -5  13   4   13.78    2.93
   5  13  -4   16.15    2.87
  -4  13   4   14.82    2.87
  -4 -13   4   17.12    3.23
  -4  13   4   14.95    2.94
   4  13  -4   16.21    2.75
   4 -13  -4   16.72    3.25
  -3  13   4    2.38    1.80
   3 -13  -4    2.11    1.74
  -3  13   4    1.40    1.44
  -3 -13   4    1.54    1.68
   3  13  -4    2.65    1.51
  -3 -13   4    2.07    2.35
  -2 -13   4   24.98    4.63
   2  13  -4   23.49    3.31
   2 -13  -4   17.84    3.44
  -2  13   4   21.09    3.04
  -2  13   4   25.00    3.64
  -2 -13   4   27.54    3.81
  -1 -13   4   18.12    4.05
   1 -13  -4   17.32    3.30
  -1  13   4   15.50    3.02
  -1  13   4   14.21    2.61
   1  13  -4   14.15    2.64
  -1 -13   4   21.01    3.27
   0  13   4    0.22    1.56
   0  13   4    0.88    1.19
   0  13  -4   -1.22    1.00
   0 -13  -4    0.41    1.47
   0 -13   4   -0.11    1.87
   1  13   4   31.32    3.18
  -1 -13  -4   31.35    4.44
   1  13   4   31.39    4.09
  -1  13  -4   34.83    3.87
   1 -13   4   34.18    5.36
  -2  13  -4    2.02    1.41
   2 -13   4    4.12    2.46
   2  13   4    0.01    1.15
  -2 -13  -4    1.87    1.84
  -3  13  -4   22.38    3.25
   3 -13   4   20.75    4.40
   3  13   4   23.54    3.61
  -3 -13  -4   22.93    3.79
   4 -13   4    2.15    1.85
  -4 -13  -4    7.57    2.58
   4  13   4    7.24    2.38
  -4  13  -4    7.64    2.09
  -5  13  -4   -0.92    1.20
   5 -13   4    1.93    2.04
  -5 -13  -4    2.32    1.77
   5  13   4    0.24    1.40
  -6  13  -4    7.28    2.14
  -6 -13  -4   18.73    3.91
   6  13   4   15.46    3.09
   6 -13   4    9.50    3.28
  -7 -13  -4    8.43    3.17
   7 -13   4    8.02    3.13
  -7  13  -4    8.67    2.46
   7  13   4    5.21    2.17
   8 -13   4    3.24    2.57
  -8 -13  -4    2.02    2.56
  -8  13  -4    1.82    1.85
   8  13   4    2.10    1.89
  -9  13  -4   12.20    2.97
   9 -13   4   11.41    3.72
  -9 -13  -4    2.29    2.19
   9  13   4   14.84    3.33
   8 -14  -4    0.37    2.04
  -8 -14   4    2.81    2.03
  -8  14   4    1.85    1.78
  -7  14   4    3.27    1.87
  -7 -14   4    0.35    1.78
   7 -14  -4    1.30    2.05
   7  14  -4    1.50    1.52
  -7  14   4    0.52    1.45
   6  14  -4    1.58    1.72
  -6  14   4    2.18    1.89
  -6 -14   4    3.61    2.30
   6 -14  -4    5.17    2.34
  -6  14   4    0.73    1.54
  -5  14   4   11.28    2.72
  -5 -14   4   15.59    3.25
   5  14  -4   13.89    2.87
  -5  14   4   10.36    2.86
   5 -14  -4   11.15    2.97
   4 -14  -4    2.21    1.82
  -4  14   4    0.35    1.36
  -4 -14   4    1.78    1.81
   4  14  -4    1.00    1.53
  -4  14   4    2.71    1.88
  -3  14   4   56.65    4.86
  -3 -14   4   59.21    5.22
  -3  14   4   55.92    4.99
   3  14  -4   52.81    4.55
   3 -14  -4   60.14    5.47
  -2  14   4   -2.14    1.41
  -2 -14   4    1.10    2.57
  -2 -14   4    1.43    1.90
  -2  14   4    0.33    1.23
   2  14  -4   -0.10    1.23
   2 -14  -4    0.37    1.72
   1 -14  -4   27.80    4.25
   1  14  -4   29.23    3.66
  -1 -14   4   26.14    5.13
  -1  14   4   24.87    3.84
  -1  14   4   23.97    3.31
   0  14   4    6.25    1.90
   0 -14  -4    6.77    2.39
   0 -14   4    3.90    2.78
   0  14  -4    4.68    1.90
   0  14   4    5.88    2.39
  -1 -14  -4    1.35    1.68
   1 -14   4    1.60    2.28
   1  14   4    1.94    1.87
  -1  14  -4   -0.24    1.19
  -2  14  -4    2.35    1.66
   2 -14   4    5.49    2.75
  -2 -14  -4    4.57    2.05
   2  14   4   -0.74    1.30
  -3  14  -4    3.82    1.67
  -3 -14  -4    2.28    2.04
   3  14   4    7.11    2.28
   3 -14   4    2.92    2.28
   4 -14   4    1.05    1.97
  -4  14  -4   -0.09    1.47
   4  14   4   -0.53    1.55
  -4 -14  -4    1.98    1.70
  -5  14  -4   25.33    3.70
   5 -14   4   23.79    4.88
  -5 -14  -4   32.78    5.02
   5  14   4   30.28    4.31
  -6  14  -4    1.39    1.47
   6 -14   4    1.22    2.48
  -6 -14  -4    3.17    2.29
   6  14   4    0.64    1.53
  -7  14  -4   20.65    3.57
   7  14   4   16.78    3.40
   7 -14   4   12.01    3.61
  -7 -14  -4   16.27    3.95
   8  14   4    1.07    1.69
   8 -14   4    0.95    2.58
  -8 -14  -4    0.82    2.48
  -8  14  -4   -0.36    1.62
  -7 -15   4   19.89    3.88
   7  15  -4   15.98    3.08
   7 -15  -4   22.94    4.26
  -7  15   4   14.78    3.21
  -6 -15   4    0.94    1.98
   6  15  -4    1.57    1.62
  -6  15   4    1.34    1.65
  -6  15   4    0.13    1.85
   6 -15  -4    1.79    2.07
  -5  15   4   10.95    2.75
   5  15  -4   13.95    2.88
  -5  15   4   10.30    2.77
   5 -15  -4   12.26    3.50
  -5 -15   4   18.54    3.61
   4 -15  -4    2.79    2.17
  -4  15   4    1.74    2.02
   4  15  -4   -0.10    1.63
  -4 -15   4    2.92    1.94
  -4  15   4    0.53    1.51
  -3  15   4    2.43    2.07
   3  15  -4    1.88    1.63
  -3  15   4    0.26    1.41
  -3 -15   4    2.28    1.87
   3 -15  -4    1.26    1.99
  -2 -15   4    2.44    3.04
   2  15  -4    0.09    1.40
  -2  15   4   -0.06    1.86
  -2  15   4    0.99    1.56
   2 -15  -4    1.21    2.05
  -1 -15   4   17.67    4.29
   1 -15  -4   17.29    3.78
  -1  15   4   10.53    3.00
   1  15  -4   15.18    2.91
  -1  15   4   13.57    2.72
   0  15  -4    0.12    1.41
   0  15   4   -0.44    1.69
   0 -15   4   -0.39    2.10
   0 -15  -4   -1.38    1.70
   1 -15   4   24.71    5.01
  -1  15  -4   25.88    3.72
   1  15   4   27.65    4.29
  -1 -15  -4   29.66    4.60
  -2  15  -4    1.47    1.50
   2  15   4    1.86    1.96
   2 -15   4   -0.97    2.27
  -2 -15  -4   -0.28    1.78
   3 -15   4   20.15    4.58
   3  15   4   21.38    3.96
  -3  15  -4   18.50    3.23
  -3 -15  -4   16.42    3.58
   4  15   4    0.06    1.74
  -4 -15  -4   -0.25    1.64
   4 -15   4   -0.73    2.25
  -4  15  -4   -1.44    1.35
   5 -15   4    1.99    2.80
  -5  15  -4    2.13    1.98
  -5 -15  -4    2.74    2.27
   5  15   4    2.67    1.96
   6 -15   4   -2.02    2.13
   6  15   4    1.37    1.91
  -6 -15  -4    2.86    2.35
  -6  15  -4    2.37    1.56
  -7  15  -4    6.38    2.43
  -7 -15  -4    9.54    2.95
   7 -15   4    7.28    3.07
   7  15   4   12.30    3.05
  -5  16   4    9.65    2.70
   5 -16  -4    8.97    3.27
   5  16  -4    5.68    2.14
  -5  16   4   10.32    2.99
  -5 -16   4   12.75    3.15
  -4 -16   4    3.92    2.19
   4  16  -4    1.57    1.76
   4 -16  -4    3.26    2.38
  -4  16   4    0.15    1.46
  -4  16   4    2.24    2.13
   3 -16  -4   17.69    3.74
  -3  16   4   17.82    3.36
   3  16  -4   21.04    3.48
  -3  16   4   16.41    3.48
   2 -16  -4    3.52    2.34
  -2  16   4    0.41    1.98
   2  16  -4    0.28    1.61
  -1 -16   4   20.72    4.82
   1 -16  -4   11.71    3.46
  -1  16   4   14.62    3.55
   1 -16  -4   17.13    4.14
   1  16  -4   17.11    3.23
   0  16   4    2.10    2.39
   0 -16  -4    3.17    2.14
   0  16  -4    1.33    1.57
   0 -16   4    8.38    3.73
  -1 -16  -4    1.52    2.24
   1  16   4   12.35    3.48
  -1  16  -4    0.25    1.42
   1 -16   4    2.42    2.70
  -2 -16  -4    3.68    2.38
   2 -16   4    4.34    3.13
  -2  16  -4    2.60    1.75
   2  16   4    1.25    1.64
   3 -16   4   11.44    3.97
   3  16   4   11.08    3.21
  -3 -16  -4    8.19    3.00
  -3  16  -4    6.91    2.24
  -4  16  -4    3.08    1.92
   4  16   4    2.62    2.65
  -4 -16  -4    7.90    2.88
   4 -16   4    9.08    3.61
   5  16   4   14.56    3.25
  -5  16  -4    8.13    2.55
  -5 -16  -4   16.74    3.94
   5 -16   4    2.88    2.55
   1 -17  -4    6.30    2.79
   1 -17  -4    4.71    2.85
  -1  17   4    2.44    2.74
   1  17  -4    5.33    2.14
   0  17  -4    4.39    1.98
   0 -17   4    1.42    2.98
   0 -17  -4    5.01    2.48
   0  17   4    5.66    2.72
   1  17   4   17.44    3.92
  -1  17  -4   20.91    3.53
   1 -17   4   22.74    5.35
  -1 -17  -4   17.31    3.99
  14   0  -5    4.56    2.16
 -14   0   5    0.53    2.23
 -13   0   5    0.40    2.45
  13   0  -5    1.84    1.57
 -12   0   5   -0.86    1.88
  12   0  -5    0.64    1.53
  11   0  -5   20.90    3.32
 -10   0   5    0.24    1.01
  10   0  -5    1.51    1.30
 -10   0   5   -0.13    1.46
  -9   0   5  136.16    7.67
  -9   0   5  154.41    8.31
   9   0  -5  129.25    7.71
  -8   0   5    0.06    0.95
  -8   0   5   -0.06    1.05
   8   0  -5    0.55    0.93
  -7   0   5   63.49    4.27
   7   0  -5   62.65    4.37
  -7   0   5   64.41    4.42
  -6   0   5   -0.07    0.73
   6   0  -5    0.79    0.29
   6   0  -5    0.05    0.80
  -6   0   5    0.42    0.74
  -5   0   5   74.00    4.66
   5   0  -5   78.03    4.72
  -5   0   5   80.03    4.55
  -4   0   5    0.29    0.64
  -4   0   5    0.25    0.47
   4   0  -5    0.13    0.73
  -3   0   5   22.02    1.84
  -3   0   5   25.66    2.26
   3   0  -5   24.17    2.24
   2   0  -5    0.57    0.65
  -2   0   5    0.06    0.34
  -2   0   5    0.43    0.24
  -2   0   5    0.34    0.43
  -1   0   5  379.45   13.64
  -1   0   5  370.12   16.20
   1   0  -5  350.64   14.88
   0   0   5    1.37    0.48
   0   0   5    1.74    0.73
   0   0  -5    1.00    0.50
   0   0  -5    1.47    0.43
   1   0   5  297.96   11.08
   1   0   5  270.38   12.99
  -1   0  -5  290.25   11.76
  -1   0  -5  297.14   10.62
  -2   0  -5   -0.03    0.33
  -2   0  -5    0.14    0.31
   2   0   5    0.09    0.42
   2   0   5   -0.39    0.50
  -3   0  -5    1.10    0.54
   3   0   5    1.37    0.88
  -3   0  -5    1.66    0.60
   3   0   5    1.03    0.69
   4   0   5    0.86    0.91
  -4   0  -5    1.55    0.66
   4   0   5   -0.05    0.48
  -4   0  -5    0.63    0.53
   5   0   5   63.70    4.17
  -5   0  -5   67.94    4.02
   5   0   5   83.94    5.21
  -5   0  -5   77.76    3.83
   6   0   5   -0.02    1.23
  -6   0  -5    0.63    0.70
  -6   0  -5   -0.23    0.50
   6   0   5   -0.69    0.67
   7   0   5  164.70    8.55
  -7   0  -5  211.16    8.20
  -7   0  -5  170.19    8.44
  -8   0  -5   -0.03    0.71
   8   0   5   -0.26    0.90
  -8   0  -5    0.56    0.89
  -9   0  -5  146.42    7.35
   9   0   5  163.85    8.41
  10   0   5    0.65    1.27
 -10   0  -5    0.17    0.78
 -10   0  -5    1.18    1.23
 -11   0  -5    0.12    0.84
  11   0   5    0.66    1.43
  12   0   5    2.06    1.67
 -12   0  -5    0.29    1.40
 -13   0  -5    7.53    2.22
  13   0   5    9.05    2.61
 -14   0  -5    1.44    1.85
  14   0   5   -0.89    1.65
  14  -1  -5    2.87    1.98
  14   1  -5    1.80    1.90
 -14  -1   5   -0.29    2.51
 -14   1   5   -1.45    2.07
  13   1  -5   22.18    3.84
 -13  -1   5   22.50    4.33
  13  -1  -5   22.39    3.78
 -13   1   5   25.35    4.53
  12  -1  -5    1.00    1.46
 -12  -1   5   -1.37    1.52
 -12   1   5    1.21    1.93
  12   1  -5    1.67    1.44
  11  -1  -5   39.14    4.32
 -11   1   5   45.49    5.05
  11   1  -5   36.14    4.23
 -11  -1   5   46.19    5.19
 -10  -1   5    2.17    1.74
 -10   1   5    2.23    1.33
  10  -1  -5    4.29    1.64
  10   1  -5    5.07    1.73
 -10   1   5   -0.06    1.17
  -9   1   5    4.37    1.71
  -9  -1   5    4.15    1.78
   9   1  -5    5.07    1.69
  -9   1   5    5.32    1.58
  -9  -1   5    5.89    1.62
   9  -1  -5    7.21    1.88
   8  -1  -5   23.86    2.89
  -8  -1   5   23.34    3.18
  -8   1   5   27.12    3.29
  -8  -1   5   25.57    2.61
  -8   1   5   25.43    2.61
   8   1  -5   24.32    2.91
  -7   1   5   54.50    4.19
   7   1  -5   67.10    4.48
   7  -1  -5   66.99    4.47
  -7   1   5   65.11    4.37
  -7  -1   5   71.79    4.45
  -7  -1   5   63.12    4.50
  -6  -1   5    1.58    0.86
   6  -1  -5    0.29    0.30
   6   1  -5    0.53    0.30
  -6   1   5    0.00    0.72
  -6   1   5    0.09    0.72
   6   1  -5    1.00    0.97
  -6  -1   5    0.50    0.74
   6  -1  -5    1.29    0.93
  -5  -1   5  244.23   10.21
  -5   1   5  226.85    9.96
  -5  -1   5  218.94   10.83
   5   1  -5  233.30    8.21
   5  -1  -5  228.21   10.50
   5   1  -5  224.98   10.50
  -5   1   5  236.23   10.96
   4   1  -5    6.50    1.52
   4  -1  -5    5.83    1.41
  -4  -1   5    5.33    1.18
  -4  -1   5    5.74    1.41
  -4   1   5    6.79    1.34
  -4   1   5    5.76    1.31
  -3  -1   5  335.18   13.05
   3   1  -5  344.84   11.69
  -3   1   5  324.45   12.97
  -3   1   5  343.12   14.85
  -3  -1   5  322.10   14.98
   3  -1  -5  327.14   14.06
   3   1  -5  338.46   14.19
  -2  -1   5    5.37    0.94
  -2   1   5    5.35    0.48
  -2   1   5    4.80    1.10
   2   1  -5    4.18    1.09
   2  -1  -5    4.43    1.10
  -2   1   5    5.06    0.93
  -2  -1   5    5.95    1.33
   2   1  -5    4.46    0.50
   1  -1  -5   13.71    1.58
   1   1  -5   13.63    0.96
   1  -1  -5   12.36    1.13
  -1   1   5   12.26    0.94
  -1   1   5    9.93    1.50
  -1  -1   5   11.80    1.03
  -1  -1   5   11.47    1.72
   1   1  -5   10.79    1.54
   0  -1  -5   83.04    4.14
   0  -1  -5   82.67    3.63
   0  -1   5   81.28    3.37
   0   1  -5   77.65    4.25
   0   1   5   72.74    4.45
   0  -1   5   66.42    4.57
   0   1  -5   88.46    3.61
   0   1   5   86.46    3.66
  -1  -1  -5  109.68    4.45
   1  -1   5   95.56    5.73
   1   1   5  105.56    4.66
  -1   1  -5   99.13    4.96
   1   1   5  100.69    5.47
  -1   1  -5  102.28    4.50
  -1   1  -5  106.96    3.97
  -1  -1  -5  105.09    4.90
  -2   1  -5    0.30    0.31
   2  -1   5    0.25    0.68
  -2   1  -5    1.29    0.37
  -2  -1  -5    0.42    0.44
  -2   1  -5    0.87    0.48
   2   1   5    0.55    0.53
   2   1   5    1.12    0.64
  -2  -1  -5    0.69    0.46
   3  -1   5  342.51   16.50
  -3  -1  -5  349.77   14.23
  -3  -1  -5  364.95   13.67
   3   1   5  357.32   15.58
   3   1   5  358.06   13.84
  -3   1  -5  367.73   13.60
  -4   1  -5   18.64    1.22
   4  -1   5   13.32    1.86
   4  -1   5   14.78    2.59
  -4  -1  -5   14.05    1.57
   4   1   5   15.26    1.82
  -4  -1  -5   14.45    1.69
   4   1   5    9.79    1.66
  -5  -1  -5  285.88   12.84
   5  -1   5  306.33   12.91
   5   1   5  304.83   12.76
   5  -1   5  308.94   15.44
  -5   1  -5  327.50   11.84
  -5  -1  -5  338.66   12.67
   5   1   5  320.67   14.01
  -6   1  -5    4.41    0.91
   6   1   5    2.58    1.12
   6  -1   5    2.28    1.09
   6   1   5    3.45    1.24
  -6  -1  -5    2.37    0.85
   6  -1   5    3.08    1.76
   7  -1   5   24.04    2.87
  -7  -1  -5   27.62    2.52
  -7   1  -5   29.51    2.18
   7   1   5   29.58    3.14
  -7   1  -5   23.25    2.50
  -7  -1  -5   21.82    2.38
   7  -1   5   32.40    4.07
  -8   1  -5   40.51    2.82
  -8   1  -5   33.18    2.94
  -8  -1  -5   36.66    2.99
  -8  -1  -5   33.67    2.97
   8   1   5   42.48    3.52
   8  -1   5   42.41    3.56
   9  -1   5   14.22    2.63
  -9   1  -5   10.94    2.06
  -9   1  -5   17.63    2.11
   9   1   5   15.13    2.52
  -9  -1  -5   11.58    2.07
  -9  -1  -5   14.11    2.31
 -10   1  -5    7.68    1.87
  10  -1   5   10.07    2.37
  10   1   5    7.21    1.88
 -10  -1  -5    9.43    2.09
 -10  -1  -5    8.22    2.05
  11   1   5   49.47    4.38
  11  -1   5   54.90    4.71
 -11  -1  -5   59.28    4.38
 -11  -1  -5   49.60    4.29
 -11   1  -5   51.52    4.28
 -12  -1  -5    1.74    1.43
 -12   1  -5    1.80    1.50
  12  -1   5    2.30    2.02
  12   1   5    1.59    1.71
  13  -1   5   26.35    3.85
  13   1   5   39.38    4.51
 -13   1  -5   25.79    3.72
 -13  -1  -5   25.51    3.66
  14   1   5    2.18    1.95
 -14   1  -5   -0.66    1.44
  14  -1   5    0.65    1.89
 -14  -1  -5    0.20    1.48
 -14  -2   5    1.54    2.49
  14  -2  -5   11.77    3.04
  14   2  -5    7.03    2.44
 -14   2   5   10.74    3.37
 -13   2   5   -0.84    2.10
  13  -2  -5    1.70    2.10
  13   2  -5    2.95    1.91
 -13  -2   5    0.38    1.85
 -12   2   5   16.00    3.51
 -12  -2   5   15.63    3.65
  12   2  -5   15.57    3.02
  12  -2  -5   14.40    3.02
 -11   2   5   28.88    4.20
  11  -2  -5   23.21    3.56
 -11   2   5   27.84    3.42
  11   2  -5   27.18    3.69
 -11  -2   5   36.94    4.79
 -10   2   5   10.79    2.26
 -10  -2   5   10.90    2.82
  10   2  -5   11.75    2.39
 -10   2   5   11.42    2.70
  10  -2  -5    9.97    2.31
  -9  -2   5   56.93    4.15
   9   2  -5   54.88    4.39
  -9  -2   5   68.77    5.13
  -9   2   5   52.96    4.20
   9  -2  -5   54.61    4.40
   8   2  -5    3.65    1.38
  -8  -2   5    5.40    1.92
  -8   2   5    4.52    1.48
  -8  -2   5    4.69    1.44
  -8   2   5    3.45    1.45
   8  -2  -5    2.37    1.18
   7   2  -5   50.91    3.90
  -7   2   5   50.63    3.85
  -7  -2   5   53.95    4.11
  -7  -2   5   54.39    3.86
   7  -2  -5   48.76    3.84
  -7   2   5   53.78    3.94
   6  -2  -5   26.77    1.49
   6   2  -5   25.20    2.76
  -6   2   5   26.09    2.75
   6  -2  -5   28.25    2.88
  -6   2   5   25.35    2.53
  -6  -2   5   28.67    2.61
  -6  -2   5   31.48    3.12
   6   2  -5   27.53    1.54
   5  -2  -5    1.70    1.10
   5   2  -5    4.30    1.29
  -5  -2   5    3.93    1.24
   5   2  -5    3.85    0.59
  -5   2   5    3.35    1.11
  -5   2   5    2.83    0.98
  -5   2   5    3.73    0.46
  -5  -2   5    2.68    1.05
  -4   2   5   69.97    2.67
  -4   2   5   66.90    4.22
   4   2  -5   67.06    4.29
  -4  -2   5   68.81    4.00
  -4  -2   5   70.75    4.45
   4  -2  -5   62.98    4.14
  -4   2   5   63.85    3.80
   4   2  -5   68.87    2.93
  -3   2   5   41.06    1.84
  -3  -2   5   39.52    3.08
  -3  -2   5   38.88    2.59
   3  -2  -5   36.72    2.83
   3   2  -5   38.78    1.92
  -3   2   5   35.10    2.46
   3   2  -5   32.28    2.80
  -2   2   5  100.15    5.26
  -2  -2   5   93.97    4.45
   2   2  -5   96.20    3.96
   2  -2  -5   89.57    4.95
  -2  -2   5   88.86    5.44
   2  -2  -5  109.21    4.76
  -2   2   5   90.75    3.78
   0  -2   5   11.53    1.90
   0   2   5   11.74    1.16
   0  -2   5   10.38    0.81
   0   2   5    8.99    1.34
   0   2  -5    5.22    1.13
   0  -2  -5   12.11    1.26
   0  -2  -5   11.52    1.29
   0   2  -5   11.93    1.06
  -1  -2  -5   83.10    3.90
  -1   2  -5   79.27    3.82
  -1   2  -5   80.70    4.25
   1   2   5   82.31    4.49
  -1   2  -5   86.23    3.10
   1   2   5   80.90    3.92
  -1  -2  -5   83.36    4.06
   2  -2   5   42.67    3.80
  -2   2  -5   48.04    2.69
  -2  -2  -5   44.45    2.62
  -2   2  -5   45.62    2.79
  -2  -2  -5   41.72    2.59
   2   2   5   45.26    2.77
   2   2   5   49.87    3.00
   3  -2   5   37.56    3.78
   3   2   5   42.97    2.82
  -3  -2  -5   42.83    2.67
  -3   2  -5   48.00    2.80
   3   2   5   46.58    2.96
  -3  -2  -5   45.62    2.81
  -3   2  -5   48.56    2.86
   4  -2   5   40.79    4.13
  -4   2  -5   48.40    2.03
  -4   2  -5   44.99    2.87
  -4  -2  -5   43.00    2.79
   4   2   5   44.59    2.84
  -4   2  -5   49.17    2.95
  -4  -2  -5   44.77    3.02
   5   2   5   44.23    3.26
  -5  -2  -5   56.06    3.51
   5   2   5   46.94    2.97
  -5   2  -5   51.95    2.42
   5  -2   5   51.12    4.65
  -5  -2  -5   46.82    3.07
  -5   2  -5   49.49    3.16
  -5   2  -5   48.25    3.15
  -6   2  -5   42.88    3.06
   6   2   5   45.25    3.36
   6  -2   5   50.60    4.71
  -6   2  -5   46.52    2.49
   6   2   5   42.60    2.82
  -6  -2  -5   51.71    3.41
  -6  -2  -5   41.19    3.05
  -7   2  -5  131.77    5.80
  -7  -2  -5  150.24    6.97
   7  -2   5  136.78    7.24
   7   2   5  117.24    6.66
   7  -2   5  146.03    8.98
  -7  -2  -5  111.67    6.40
  -8   2  -5    1.14    0.90
  -8  -2  -5    1.76    1.02
  -8   2  -5    1.05    0.97
   8   2   5    1.89    1.20
  -8  -2  -5    2.01    1.13
   8  -2   5    0.56    1.11
   8  -2   5    0.70    1.76
  -9   2  -5   36.75    3.26
  -9  -2  -5   35.40    3.12
   9   2   5   35.34    3.64
   9  -2   5   36.76    3.87
  -9  -2  -5   40.72    3.42
  10  -2   5   14.14    2.85
 -10  -2  -5   16.96    2.56
 -10   2  -5   15.76    2.57
  10   2   5   15.65    2.65
 -10  -2  -5   18.75    2.72
  11  -2   5    4.66    2.14
 -11   2  -5    5.12    1.79
 -11  -2  -5    4.25    1.56
 -11  -2  -5    5.89    2.10
  11   2   5    6.05    1.99
 -12   2  -5   12.11    2.67
 -12  -2  -5   14.33    2.77
  12   2   5   14.84    2.85
  12  -2   5   18.13    3.47
  13  -2   5   10.04    2.94
 -13   2  -5    4.32    2.09
  13   2   5    4.66    2.07
 -13  -2  -5    5.00    1.89
 -14   2  -5    3.60    2.15
 -14  -2  -5    4.40    2.03
  14   2   5    4.93    2.23
  14  -2   5    4.19    2.37
 -14   3   5    4.52    2.82
  14  -3  -5    4.89    2.40
 -14  -3   5    0.64    2.11
  14   3  -5    4.62    2.16
  13   3  -5   11.73    2.87
 -13   3   5   11.58    3.42
 -13  -3   5   11.72    3.43
  13  -3  -5   12.15    3.14
  12   3  -5    2.19    1.59
 -12   3   5   -0.46    1.86
 -12  -3   5    0.92    2.20
  12  -3  -5    2.88    1.99
  11  -3  -5   14.69    3.01
 -11   3   5   14.80    2.78
  11   3  -5   12.99    2.68
 -11  -3   5   15.31    3.42
 -11   3   5   12.16    3.01
  10  -3  -5   30.69    3.80
 -10   3   5   32.25    3.57
 -10  -3   5   36.12    4.45
  10   3  -5   28.18    3.58
 -10   3   5   36.19    4.26
  -9  -3   5    2.70    1.56
  -9   3   5    0.65    1.35
   9   3  -5    1.57    1.27
   9  -3  -5    0.30    1.13
  -9   3   5    2.41    1.29
   8  -3  -5   77.96    5.36
  -8   3   5   83.89    5.46
   8   3  -5   77.98    5.30
  -8  -3   5   91.01    5.91
  -8  -3   5   87.99    5.27
  -7   3   5    3.74    1.36
   7  -3  -5    8.49    1.87
   7   3  -5    6.07    1.63
  -7  -3   5   11.12    1.90
  -7  -3   5    8.28    2.01
  -7   3   5    8.11    1.77
  -6   3   5   40.74    3.23
   6   3  -5   43.52    2.31
   6  -3  -5   47.43    3.54
   6   3  -5   40.83    3.43
  -6  -3   5   44.68    3.56
  -6   3   5   45.61    2.14
  -6   3   5   41.22    3.36
  -6  -3   5   45.23    3.46
   5   3  -5  234.15   11.04
  -5   3   5  259.41    8.92
  -5   3   5  240.91   10.44
   5  -3  -5  222.92   10.86
   5   3  -5  251.22    9.18
  -5   3   5  234.26   11.45
  -5  -3   5  261.37   11.78
  -5  -3   5  237.96   10.76
  -4  -3   5   34.62    2.79
   4  -3  -5   33.28    2.81
   4   3  -5   35.81    2.04
  -4   3   5   36.88    1.93
   4  -3  -5   39.22    2.87
  -4  -3   5   33.80    2.97
   3  -3  -5   84.01    4.87
  -3   3   5   90.02    3.90
  -3  -3   5   92.58    4.71
  -3  -3   5   89.77    5.40
  -3   3   5   91.17    5.13
   2   3  -5  135.67    6.99
   2   3  -5  142.16    5.81
  -2  -3   5  141.45    6.22
  -2  -3   5  132.74    7.46
  -2   3   5  147.60    7.12
  -2   3   5  135.95    5.57
   2  -3  -5  137.57    6.57
   2  -3  -5  148.97    6.41
  -1   3   5    0.32    0.34
   1  -3  -5    0.31    0.48
  -1   3   5    0.53    0.51
   1   3  -5    0.63    0.65
   1  -3  -5    0.31    0.48
   1   3  -5    0.42    0.43
  -1  -3   5   -0.26    0.61
  -1  -3   5    0.44    0.42
   0  -3   5  260.99   10.09
   0   3   5  292.66   12.15
   0   3  -5  273.18   11.56
   0  -3  -5  284.37   10.82
   0  -3   5  232.50   12.94
   0   3   5  271.94   10.32
   0  -3  -5  293.10   11.06
   0   3  -5  271.70   10.47
  -1  -3  -5   11.34    1.20
  -1   3  -5   12.94    1.53
   1  -3   5   10.15    0.63
  -1  -3  -5    9.95    1.34
   1   3   5    9.74    1.29
   1   3   5   10.28    1.28
   1  -3   5    7.46    1.85
  -1   3  -5   11.32    1.32
   2  -3   5   81.15    6.10
  -2   3  -5  100.09    4.54
   2   3   5   96.07    4.60
  -2   3  -5   90.05    4.61
  -2  -3  -5   90.65    4.40
  -2  -3  -5   89.21    4.57
   2   3   5   93.34    4.69
   3   3   5  210.49    9.00
  -3  -3  -5  188.27    8.64
  -3   3  -5  209.47    8.79
  -3  -3  -5  210.10    8.63
   3  -3   5  176.04   10.86
   3   3   5  206.54    8.67
  -3   3  -5  212.39    8.49
  -4   3  -5    0.18    0.52
  -4   3  -5    1.11    0.66
  -4  -3  -5    0.27    0.47
   4   3   5    0.39    0.46
  -4  -3  -5    0.73    0.78
   4   3   5    1.09    0.69
   4  -3   5   -0.13    1.11
  -5   3  -5  105.24    5.33
  -5   3  -5  109.59    4.22
   5   3   5  102.25    5.50
  -5  -3  -5  104.97    5.31
   5  -3   5   93.91    7.04
  -5  -3  -5  106.21    5.67
  -5   3  -5  101.55    5.23
   5   3   5  106.61    4.92
  -6  -3  -5   88.80    5.11
  -6   3  -5   80.58    3.66
   6   3   5   80.02    4.84
   6  -3   5   90.45    6.60
  -6  -3  -5   75.12    4.50
  -6   3  -5   77.98    4.59
  -7   3  -5    1.23    0.66
   7  -3   5    1.69    1.70
  -7   3  -5    0.59    0.86
  -7  -3  -5   -0.03    0.73
   7   3   5    0.85    0.90
  -7   3  -5    0.36    0.71
  -7  -3  -5    1.21    1.13
   8  -3   5  105.45    7.57
  -8   3  -5   86.50    5.33
  -8  -3  -5  100.97    5.81
   8   3   5   91.87    5.66
  -8  -3  -5   87.68    5.33
   9   3   5   10.18    2.20
  -9  -3  -5   11.65    2.38
  -9  -3  -5    6.63    1.68
   9  -3   5   12.76    3.25
   9  -3   5    9.02    2.19
  -9   3  -5    8.86    1.93
 -10   3  -5   27.46    3.22
  10   3   5   36.11    3.80
  10  -3   5   34.88    4.04
 -10  -3  -5   32.72    3.38
 -10  -3  -5   34.24    3.65
 -11  -3  -5   13.81    2.75
  11   3   5   10.66    2.47
 -11  -3  -5   14.60    2.43
  11  -3   5   12.00    2.75
 -11   3  -5   15.11    2.74
 -12  -3  -5    0.20    1.64
 -12  -3  -5    0.36    1.05
  12   3   5   -0.01    1.41
  12  -3   5   -0.58    1.48
 -12   3  -5    0.43    1.38
 -13   3  -5   10.97    2.65
 -13  -3  -5    9.62    2.38
  13   3   5   10.54    2.75
  13  -3   5   17.43    3.55
  14   3   5    6.37    2.41
 -14   3  -5    9.07    2.75
 -14  -3  -5    7.27    2.08
  14  -3   5    9.09    2.86
 -14   4   5   21.15    4.60
  14   4  -5   14.78    3.37
 -14  -4   5   14.88    3.96
 -13  -4   5    1.23    2.36
  13   4  -5   -2.03    1.21
  13  -4  -5    0.50    1.85
 -13   4   5    4.28    2.59
 -12  -4   5   45.23    5.63
  12   4  -5   41.39    4.68
 -12   4   5   50.91    5.51
  12  -4  -5   38.30    4.86
 -12   4   5   42.12    4.46
 -11   4   5    0.30    1.81
 -11  -4   5    0.56    1.54
  11   4  -5    1.57    1.31
 -11   4   5    0.28    1.56
  11  -4  -5    2.32    1.75
 -10   4   5   19.62    3.32
  10   4  -5   17.77    2.99
 -10  -4   5   19.23    3.53
  10  -4  -5   16.12    3.00
 -10   4   5   16.70    2.79
   9   4  -5    0.12    1.21
  -9  -4   5    0.76    1.22
  -9   4   5    0.77    1.16
  -9   4   5    0.05    1.27
   9  -4  -5    1.20    1.30
  -8   4   5    0.89    1.03
  -8   4   5    0.86    1.17
   8  -4  -5    1.47    1.12
  -8  -4   5    0.06    0.99
  -8  -4   5   -0.80    1.02
   8   4  -5   -0.02    1.07
  -7   4   5    0.28    0.83
   7   4  -5    0.45    0.85
   7  -4  -5    4.38    1.47
  -7  -4   5    4.06    1.52
  -7  -4   5    4.17    1.56
  -7   4   5    4.79    1.47
   6   4  -5  104.24    4.66
  -6  -4   5  102.34    6.11
   6  -4  -5   97.36    5.91
  -6  -4   5  120.91    6.42
  -6   4   5  106.45    4.47
  -6   4   5   99.84    6.07
   5   4  -5    1.09    0.90
  -5  -4   5    1.87    1.17
   5  -4  -5    0.50    0.98
  -5  -4   5    1.50    1.00
   5   4  -5    1.84    0.66
   5  -4  -5    1.42    0.92
  -5   4   5    0.70    0.81
  -5   4   5    1.94    0.62
  -4   4   5  221.33    8.57
   4  -4  -5  217.66    9.68
  -4  -4   5  227.00   10.87
   4   4  -5  214.99   10.18
  -4  -4   5  229.84    9.90
   4  -4  -5  207.36    9.88
   4   4  -5  217.95    8.63
   3  -4  -5   13.23    1.80
   3  -4  -5   11.89    1.67
  -3   4   5   12.19    1.75
   3   4  -5   11.78    1.93
   3   4  -5   12.22    1.34
  -3  -4   5   12.88    2.07
  -3   4   5   13.31    1.37
  -3  -4   5   11.61    1.75
  -2   4   5   53.86    2.89
   2  -4  -5   59.85    3.32
  -2   4   5   55.27    3.60
  -2  -4   5   57.53    3.37
  -2  -4   5   57.67    4.17
   2   4  -5   53.45    3.02
   2   4  -5   55.67    3.81
   1   4  -5   23.66    1.85
   1  -4  -5   25.88    1.81
  -1  -4   5   26.48    1.94
   1  -4  -5   27.50    2.11
   1   4  -5   22.34    2.17
  -1   4   5   22.57    2.05
  -1  -4   5   27.63    3.13
  -1   4   5   23.02    1.67
   0   4   5   19.65    1.81
   0  -4  -5   18.88    1.47
   0   4  -5   19.04    2.01
   0   4  -5   15.43    1.64
   0  -4   5   20.46    1.49
   0   4   5   23.84    1.67
   0  -4  -5   17.26    1.84
  -1  -4  -5   14.95    1.32
   1   4   5   18.09    1.69
   1  -4   5   14.64    2.74
  -1  -4  -5   18.58    1.94
   1  -4   5   15.48    1.12
  -1   4  -5   16.72    1.79
   1   4   5   15.75    1.55
  -1   4  -5   16.80    1.73
   2   4   5  101.74    5.05
  -2   4  -5   99.87    5.12
  -2  -4  -5  107.70    4.89
   2  -4   5   96.33    6.97
   2   4   5  112.54    5.25
  -2   4  -5  105.86    5.08
  -2  -4  -5  110.95    5.40
  -3  -4  -5    6.53    1.09
  -3  -4  -5    6.44    1.40
  -3   4  -5    5.77    1.21
   3  -4   5    2.53    1.49
  -3   4  -5    6.96    1.22
   3   4   5    5.70    0.91
   3   4   5    6.16    1.30
   4  -4   5  218.96   12.48
  -4   4  -5  225.54    9.61
   4  -4   5  229.18    8.36
  -4   4  -5  235.86    9.92
   4   4   5  241.30    9.85
  -4  -4  -5  222.60    9.71
  -4  -4  -5  230.50   10.21
   5   4   5   11.95    1.05
  -5  -4  -5   11.41    2.04
  -5   4  -5   12.86    1.68
   5  -4   5   10.96    0.96
   5   4   5   12.58    1.97
  -5  -4  -5    9.18    1.48
   5  -4   5   12.44    2.74
  -5   4  -5   12.41    1.79
  -6   4  -5   57.78    2.68
  -6   4  -5   52.33    3.50
  -6  -4  -5   60.85    4.22
   6  -4   5   55.73    5.15
  -6  -4  -5   49.72    3.38
   6   4   5   49.10    3.72
  -7  -4  -5    3.90    1.16
  -7   4  -5    4.52    1.29
   7  -4   5    5.59    2.26
  -7   4  -5    5.06    1.45
   7   4   5    3.96    1.32
  -7  -4  -5    6.35    1.73
   8   4   5    8.54    2.06
  -8   4  -5    6.90    1.69
  -8   4  -5    6.58    1.71
  -8  -4  -5    7.23    1.59
  -8  -4  -5   10.77    2.37
   8  -4   5    9.09    2.78
  -9   4  -5    2.85    1.33
  -9   4  -5    6.80    1.71
   9  -4   5    6.71    2.71
  -9  -4  -5    5.15    1.85
   9   4   5    5.30    1.74
  -9  -4  -5    3.67    1.42
  10  -4   5   37.81    4.43
  10   4   5   28.43    3.59
 -10  -4  -5   38.53    4.03
 -10   4  -5   31.93    3.38
 -10  -4  -5   27.16    3.21
 -11   4  -5    3.10    1.73
 -11  -4  -5    2.43    1.36
  11  -4   5    1.74    1.83
 -11  -4  -5    2.90    1.83
  11   4   5    3.37    1.64
 -12  -4  -5   34.35    3.88
  12   4   5   33.06    4.17
  12  -4   5   39.13    4.78
 -12  -4  -5   43.59    4.56
 -12   4  -5   38.50    4.14
  13  -4   5    0.44    2.15
 -13   4  -5    0.65    1.63
  13   4   5    1.71    1.81
 -13  -4  -5    1.34    1.47
 -13  -4  -5   -0.59    1.68
  14  -4   5   14.02    3.34
  14   4   5   11.91    2.89
 -14   4  -5   12.47    3.04
 -14  -4  -5   10.97    2.48
  14   5  -5    4.88    2.62
 -14  -5   5    4.33    3.00
 -14   5   5    3.02    2.69
 -13   5   5    6.40    2.59
  13   5  -5   -1.55    1.55
 -13  -5   5    3.01    2.31
 -12   5   5    5.57    2.52
 -12  -5   5    4.28    2.28
 -12   5   5    2.88    2.00
  12   5  -5    3.22    2.05
  11   5  -5   -1.32    1.45
 -11   5   5   -0.34    1.63
 -11   5   5    1.92    1.69
 -11  -5   5    0.68    1.63
 -10   5   5   40.85    4.49
  10  -5  -5   31.15    3.97
  10   5  -5   28.29    3.72
 -10  -5   5   34.93    4.55
 -10   5   5   36.35    4.07
  -9   5   5    0.77    1.19
  -9   5   5   -0.40    1.38
   9  -5  -5    2.28    1.51
   9   5  -5   -0.57    0.74
  -9  -5   5   -0.81    1.29
   8  -5  -5   62.42    4.96
  -8   5   5   52.73    4.43
   8   5  -5   59.99    4.60
   8  -5  -5   62.10    4.70
  -8  -5   5   68.52    5.16
   7   5  -5   11.69    2.26
  -7  -5   5    8.93    2.14
  -7  -5   5   14.18    2.21
  -7   5   5   12.66    2.25
   7  -5  -5   11.02    2.29
   7  -5  -5    9.10    2.08
  -6  -5   5   86.29    5.63
  -6   5   5   85.94    5.53
   6   5  -5   89.53    4.35
   6   5  -5   82.04    5.36
  -6   5   5   92.41    4.22
   6  -5  -5   86.85    5.46
  -6  -5   5   99.52    5.79
   6  -5  -5   87.68    5.48
   5  -5  -5   10.14    1.89
   5   5  -5   10.23    1.41
  -5  -5   5   17.38    2.42
   5   5  -5   13.66    2.17
  -5   5   5   13.31    1.43
  -5  -5   5    9.10    1.89
   5  -5  -5    8.18    1.80
   4   5  -5   18.43    1.66
  -4   5   5   17.86    1.75
  -4  -5   5   17.11    2.37
  -4  -5   5   19.51    2.60
   4  -5  -5   16.36    2.10
   4   5  -5   18.20    2.38
  -4   5   5   18.46    2.27
   4  -5  -5   19.22    2.31
  -3  -5   5    0.51    0.69
   3   5  -5    0.32    0.58
  -3   5   5    0.24    0.62
  -3  -5   5   -0.41    0.88
   3  -5  -5    1.19    0.73
  -3   5   5   -0.56    0.59
   3   5  -5   -0.05    0.89
   3  -5  -5    0.01    0.60
   2   5  -5  280.78   11.98
  -2   5   5  239.43   10.38
   2  -5  -5  288.37   10.99
  -2   5   5  259.61   12.19
   2   5  -5  268.49   10.63
  -2  -5   5  278.97   13.29
  -2  -5   5  252.03   11.05
   1  -5  -5   11.47    1.09
  -1  -5   5    9.48    2.18
  -1   5   5    9.44    1.30
   1   5  -5   10.68    1.74
  -1   5   5    9.61    1.48
   1   5  -5    8.42    1.38
  -1  -5   5   11.21    1.56
   1  -5  -5    4.06    1.05
   0  -5  -5  335.57   13.19
   0   5   5  317.92   12.43
   0   5  -5  319.53   12.70
   0  -5  -5  326.64   12.68
   0  -5   5  306.34   12.52
   0   5   5  344.11   14.30
   0   5  -5  323.22   13.60
   1  -5   5   -0.38    1.16
  -1   5  -5    0.29    0.62
   1  -5   5    1.00    0.52
  -1  -5  -5    0.13    0.39
   1   5   5    0.07    0.52
  -1  -5  -5    0.09    0.62
  -1   5  -5    0.40    0.53
   1   5   5    0.02    0.52
  -2   5  -5  217.42    9.23
  -2  -5  -5  223.45    9.66
   2   5   5  222.38    9.15
  -2  -5  -5  232.05    9.05
   2   5   5  229.57    9.73
   2  -5   5  194.74   11.80
  -2   5  -5  220.53    9.42
   2  -5   5  197.75    8.27
  -3  -5  -5    0.52    0.50
   3  -5   5    0.29    1.12
  -3   5  -5    0.26    0.57
   3   5   5    0.16    0.46
   3  -5   5    0.53    0.42
  -3  -5  -5    0.46    0.82
  -3   5  -5    0.57    0.57
   3   5   5   -0.24    0.61
  -4   5  -5    8.29    1.52
  -4  -5  -5    8.71    1.84
   4   5   5    8.73    1.64
   4  -5   5    8.17    2.38
   4  -5   5    9.21    0.81
   4   5   5    9.26    1.02
  -4  -5  -5    9.13    1.38
  -4   5  -5    9.83    1.46
   5   5   5    1.53    0.89
  -5   5  -5    1.30    0.86
   5  -5   5    1.65    1.52
  -5  -5  -5    1.58    1.18
  -5  -5  -5    1.21    0.72
  -5   5  -5    1.73    0.84
  -6  -5  -5  141.89    7.42
   6  -5   5  127.61    8.73
  -6  -5  -5  125.59    6.47
  -6   5  -5  128.13    6.53
   6   5   5  132.84    6.88
   7  -5   5    2.49    1.75
  -7  -5  -5    0.93    0.88
  -7   5  -5    0.62    0.86
  -7  -5  -5    1.18    1.26
  -7   5  -5    0.66    0.99
   7   5   5    1.27    1.05
  -8   5  -5   88.69    5.26
   8  -5   5   95.67    7.41
   8   5   5   81.03    5.41
  -8   5  -5   81.59    5.12
  -8  -5  -5   73.48    4.96
  -8  -5  -5   97.72    6.08
   9  -5   5    1.35    1.92
  -9  -5  -5    0.94    1.48
  -9  -5  -5   -0.28    0.88
  -9   5  -5   -0.10    1.05
   9   5   5    0.21    1.16
  -9   5  -5    0.76    1.16
 -10   5  -5   27.84    3.18
 -10   5  -5   23.01    2.98
 -10  -5  -5   20.13    2.83
  10   5   5   30.40    3.69
 -10  -5  -5   23.62    3.54
  10  -5   5   18.62    4.22
 -11   5  -5    0.74    1.40
  11  -5   5    0.09    1.69
 -11  -5  -5   -0.08    1.64
 -11  -5  -5   -1.51    0.94
  11   5   5    0.83    1.36
 -12  -5  -5   -0.36    1.84
 -12  -5  -5   -0.22    1.19
  12   5   5    0.89    1.50
 -12   5  -5    1.89    1.72
  12  -5   5    0.42    1.64
 -13   5  -5    2.70    2.04
  13   5   5    2.78    1.83
 -13  -5  -5    2.48    1.63
  13  -5   5    1.44    2.01
 -13  -5  -5    3.13    2.19
  13  -6  -5    1.33    2.49
  13   6  -5   -1.80    1.62
 -13  -6   5    1.04    1.88
  12  -6  -5   21.01    4.34
 -12   6   5   23.68    3.84
 -12  -6   5   21.55    4.05
  11  -6  -5    5.40    2.32
 -11   6   5    4.70    2.23
  11   6  -5    1.23    1.60
 -11  -6   5    4.47    2.13
  10   6  -5   27.53    3.65
  10  -6  -5   24.84    4.16
 -10  -6   5   26.07    4.03
 -10   6   5   23.50    3.49
   9   6  -5    3.50    1.92
  -9   6   5    2.75    1.62
   9  -6  -5    2.99    1.64
  -8  -6   5    3.59    1.70
  -8   6   5    4.86    1.67
   8  -6  -5    5.76    2.02
   8   6  -5    6.78    1.93
   7   6  -5    9.29    2.17
  -7  -6   5   11.28    2.16
   7  -6  -5    8.45    2.08
  -7   6   5    6.88    1.81
   7   6  -5    9.73    1.49
   7  -6  -5    8.31    2.07
  -7  -6   5    8.47    2.14
   6  -6  -5  117.78    7.02
  -6   6   5  136.76    6.05
  -6  -6   5  159.82    7.97
  -6   6   5  125.37    7.51
   6   6  -5  137.92    7.49
   6   6  -5  137.56    6.21
   6  -6  -5  129.92    7.29
  -6  -6   5  134.72    7.54
  -5  -6   5   24.82    2.95
  -5   6   5   20.20    2.58
  -5  -6   5   21.41    2.90
   5   6  -5   20.48    2.68
   5   6  -5   19.81    2.00
  -5   6   5   20.69    2.02
   5  -6  -5   19.97    2.46
   5  -6  -5   19.90    2.62
   4   6  -5  198.03    9.29
  -4  -6   5  176.75    8.90
  -4   6   5  180.32    8.03
   4  -6  -5  180.80    8.76
  -4  -6   5  210.81   10.06
   4   6  -5  181.79    7.94
  -4   6   5  185.68    9.44
   4  -6  -5  180.69    8.54
   3   6  -5    3.23    1.28
   3  -6  -5    5.14    1.00
  -3  -6   5    3.37    1.21
  -3   6   5    3.68    1.14
  -3   6   5    4.16    1.13
  -3  -6   5    4.13    1.59
   3  -6  -5    4.67    1.31
   3   6  -5    4.56    1.14
  -2   6   5   79.52    4.64
   2   6  -5   76.68    4.15
  -2  -6   5   71.14    4.39
   2  -6  -5   81.89    3.69
   2  -6  -5   72.99    4.41
  -2   6   5   74.35    4.07
  -2  -6   5   71.02    5.39
   2   6  -5   70.54    4.59
   1  -6  -5   23.72    2.52
  -1  -6   5   27.30    2.31
  -1   6   5   31.47    2.49
   1  -6  -5   30.32    1.78
  -1  -6   5   27.73    3.71
  -1   6   5   27.77    2.24
   1   6  -5   33.56    2.72
   1   6  -5   28.07    2.32
   0  -6   5   31.42    4.13
   0   6   5   31.86    2.49
   0   6  -5   34.51    2.69
   0  -6  -5   33.49    1.90
   0   6  -5   32.24    2.53
   0  -6   5   29.49    2.34
   0   6   5   29.28    2.28
  -1   6  -5    4.57    1.18
  -1  -6  -5    5.27    0.86
   1  -6   5    2.63    1.46
   1  -6   5    6.16    1.15
   1   6   5    5.85    1.15
  -1   6  -5    4.21    1.14
   1   6   5    5.09    1.18
  -1  -6  -5    4.74    1.29
   2  -6   5  114.78    5.36
   2  -6   5  119.77    8.22
  -2   6  -5  129.20    6.09
   2   6   5  129.70    6.14
  -2  -6  -5  132.03    5.66
  -2  -6  -5  132.19    6.65
  -2   6  -5  113.22    6.02
   2   6   5  131.97    6.16
  -3  -6  -5   23.86    1.83
   3   6   5   23.67    1.77
  -3   6  -5   18.69    2.23
   3  -6   5   21.43    1.55
  -3  -6  -5   19.38    2.60
   3  -6   5   21.72    3.64
  -3   6  -5   23.11    2.02
  -4  -6  -5  130.13    6.17
   4   6   5  139.03    6.07
  -4   6  -5  134.91    6.40
   4   6   5  133.49    6.63
   4  -6   5  127.21    8.64
  -4   6  -5  122.80    6.44
  -4  -6  -5  136.66    7.22
  -5  -6  -5   20.86    1.97
  -5  -6  -5   24.37    3.08
   5   6   5   17.38    2.38
   5  -6   5   19.61    3.54
  -5   6  -5   18.87    2.10
  -5   6  -5   19.61    2.41
   6   6   5   48.99    3.79
   6  -6   5   49.06    5.08
  -6  -6  -5   62.73    4.65
  -6   6  -5   48.54    3.47
  -6  -6  -5   49.62    3.42
   7   6   5   17.57    2.63
  -7   6  -5   11.31    1.94
  -7  -6  -5   18.24    3.06
   7  -6   5   17.59    3.64
  -7   6  -5   16.93    2.41
  -7  -6  -5   17.07    2.23
   8   6   5    1.09    1.14
   8  -6   5    1.83    1.98
  -8   6  -5    2.49    1.30
  -8   6  -5    1.72    1.29
  -8  -6  -5    2.84    1.79
  -8  -6  -5    1.77    1.06
  -9  -6  -5    3.84    1.40
   9   6   5    4.60    1.75
  -9   6  -5    3.67    1.50
  -9   6  -5    3.00    1.49
   9  -6   5    5.00    2.58
  -9  -6  -5    2.13    1.78
  10   6   5   34.56    3.95
 -10   6  -5   31.64    3.51
 -10  -6  -5   41.68    4.51
  10  -6   5   34.68    5.48
 -10   6  -5   33.73    3.62
 -10  -6  -5   30.24    3.43
 -11   6  -5    1.09    1.40
 -11  -6  -5    0.76    1.30
 -11  -6  -5    1.25    1.80
 -11   6  -5    1.25    1.56
  11   6   5    1.63    1.68
 -12  -6  -5   21.22    3.24
  12   6   5   21.70    3.55
 -12   6  -5   19.81    3.31
  12  -6   5   19.55    3.94
 -12  -6  -5   24.33    3.90
  13  -6   5    0.07    1.93
 -13  -6  -5   -0.13    1.84
  13   6   5    1.16    1.70
 -13  -6  -5   -1.22    1.25
 -13   6  -5    1.26    1.94
  13   7  -5    6.05    2.68
  13  -7  -5    3.06    2.25
 -13  -7   5    5.15    2.42
 -13   7   5    2.85    2.22
  12   7  -5    0.61    1.90
  12  -7  -5    0.50    2.03
 -12   7   5    0.74    1.85
 -12  -7   5    1.30    1.94
  11   7  -5    5.53    2.21
  11  -7  -5    6.18    2.76
 -11   7   5    5.57    2.18
 -11  -7   5    5.63    2.29
  10  -7  -5   26.32    4.29
 -10  -7   5   31.66    4.36
 -10   7   5   32.86    4.10
  10   7  -5   27.30    3.78
  -9  -7   5    1.04    1.50
   9  -7  -5    3.90    1.71
  -9   7   5    2.32    1.53
   9   7  -5    0.96    1.47
   8  -7  -5   51.41    4.66
  -8  -7   5   55.37    4.82
  -8   7   5   58.13    4.75
   8   7  -5   59.21    4.69
  -7  -7   5   50.09    4.33
   7  -7  -5   40.98    4.22
   7   7  -5   46.06    4.00
  -7   7   5   51.74    4.29
   7   7  -5   50.23    3.31
   6  -7  -5    7.64    1.90
  -6   7   5    8.67    1.55
  -6  -7   5    7.49    2.03
   6   7  -5    8.05    1.50
  -6   7   5    2.20    1.08
  -6  -7   5   10.01    2.14
   6   7  -5    5.77    1.78
  -5  -7   5   67.44    4.93
   5   7  -5   78.23    4.29
   5   7  -5   73.83    4.99
  -5  -7   5   96.42    5.67
  -5   7   5   65.30    4.86
  -5   7   5   74.98    4.31
   5  -7  -5   70.22    4.85
  -4   7   5    4.10    1.28
  -4  -7   5    3.90    1.48
   4   7  -5    3.25    1.38
  -4  -7   5    4.03    1.65
   4   7  -5    3.43    1.07
   4  -7  -5    2.82    1.22
  -4   7   5    4.44    1.39
   3  -7  -5   53.34    3.80
  -3   7   5   46.40    3.33
   3   7  -5   51.07    3.37
   3   7  -5   54.16    3.90
  -3   7   5   48.93    3.68
  -3  -7   5   48.52    3.76
  -3  -7   5   51.84    4.35
  -2  -7   5   75.39    5.78
   2  -7  -5   71.86    4.59
  -2   7   5   76.04    4.40
   2   7  -5   84.15    4.95
  -2   7   5   79.33    4.78
  -2  -7   5   63.26    4.39
   2   7  -5   77.34    4.35
   1  -7  -5    2.68    0.58
   1  -7  -5    3.15    1.11
  -1  -7   5    2.62    1.77
  -1   7   5    2.88    1.04
   1   7  -5    3.05    1.07
  -1   7   5    1.92    0.93
   1   7  -5    1.95    1.05
  -1  -7   5    2.37    1.06
   0  -7  -5  299.78   13.23
   0  -7  -5  329.99   12.16
   0   7   5  338.23   14.13
   0   7  -5  321.85   12.87
   0   7  -5  327.35   13.41
   0  -7   5  270.58   12.54
   0  -7   5  314.71   16.27
   0   7   5  306.21   12.59
   1  -7   5    8.38    1.45
   1   7   5   10.15    1.50
  -1   7  -5    9.76    1.54
   1   7   5    7.14    1.46
  -1   7  -5    7.06    1.47
  -1  -7  -5   10.15    1.07
   2   7   5   30.90    2.28
  -2   7  -5   25.50    2.66
  -2  -7  -5   31.83    3.23
   2  -7   5   25.66    3.94
   2  -7   5   27.63    2.14
  -2   7  -5   29.33    2.34
  -2  -7  -5   30.42    2.01
   2   7   5   35.36    2.78
   3  -7   5   67.88    3.48
   3   7   5   60.72    4.05
   3  -7   5   63.83    5.70
  -3   7  -5   67.95    4.28
   3   7   5   70.46    3.76
  -3  -7  -5   70.13    3.65
  -3   7  -5   70.66    3.95
  -3  -7  -5   65.56    4.62
  -4  -7  -5   12.62    2.39
   4   7   5    9.28    1.78
   4  -7   5    9.18    2.60
  -4   7  -5   10.35    1.90
  -4   7  -5   11.17    1.60
  -4  -7  -5   12.30    1.55
   5   7   5   70.15    4.53
   5  -7   5   61.88    5.77
  -5   7  -5   70.19    4.50
  -5  -7  -5   70.89    5.08
  -5   7  -5   70.58    4.11
  -5  -7  -5   67.82    4.00
  -6  -7  -5   39.98    4.19
   6   7   5   39.93    3.43
  -6  -7  -5   26.25    2.59
  -6   7  -5   34.57    2.86
   6  -7   5   41.77    5.10
  -7  -7  -5    1.94    1.09
  -7   7  -5    1.92    1.08
   7  -7   5    1.56    1.80
  -7  -7  -5    4.72    2.10
   7   7   5    2.22    1.33
  -7   7  -5    1.41    1.14
   8   7   5   61.28    4.83
  -8   7  -5   64.84    4.51
   8  -7   5   73.94    6.64
  -8   7  -5   66.03    4.68
  -8  -7  -5   79.51    5.76
  -8  -7  -5   62.59    4.44
  -9   7  -5    4.45    1.65
  -9  -7  -5    5.68    1.76
   9   7   5    7.04    2.01
  -9  -7  -5    7.91    2.51
   9  -7   5    6.93    2.84
  -9   7  -5    5.45    1.82
 -10   7  -5   10.24    2.35
 -10  -7  -5    9.01    2.05
  10  -7   5    6.22    2.90
  10   7   5   10.06    2.42
 -10  -7  -5   13.89    3.20
 -10   7  -5   10.01    2.41
 -11  -7  -5    7.27    2.08
 -11   7  -5    8.08    2.34
 -11   7  -5    6.34    2.17
 -11  -7  -5   10.64    2.82
  11   7   5    6.49    2.20
  12   7   5    3.10    2.10
 -12  -7  -5    2.57    1.50
 -12  -7  -5    4.02    2.43
  13   7   5    3.98    2.19
  13  -7   5    6.68    3.01
 -13  -7  -5    6.11    3.08
 -13  -7  -5    6.47    1.96
 -12   8   5    3.90    2.20
 -12  -8   5    6.78    2.51
  12  -8  -5    5.51    2.67
  12   8  -5    6.22    2.42
  11  -8  -5   10.63    3.06
  11   8  -5   10.58    2.73
 -11  -8   5   11.64    3.04
 -11   8   5    8.80    2.62
  10  -8  -5    4.81    2.09
 -10  -8   5    2.50    2.07
 -10   8   5    2.85    1.89
  10   8  -5    5.91    2.15
   9   8  -5   43.17    4.43
   9  -8  -5   31.53    4.39
  -9   8   5   35.78    4.16
  -9  -8   5   30.20    4.26
   8   8  -5    2.08    1.66
  -8  -8   5    3.41    1.73
   8  -8  -5    2.86    1.69
  -8   8   5    0.42    1.34
   7   8  -5   32.24    3.58
   7  -8  -5   26.99    3.61
  -7  -8   5   31.91    3.99
   7   8  -5   27.63    2.69
   6  -8  -5   22.47    3.16
  -6   8   5   21.04    3.01
   6   8  -5   22.21    2.43
  -6   8   5   17.11    2.24
  -6  -8   5   19.95    3.10
   6   8  -5   20.49    2.98
  -6  -8   5   29.99    3.36
   5   8  -5    4.32    1.25
  -5   8   5    6.83    1.62
  -5  -8   5    5.55    1.74
   5  -8  -5    5.97    1.77
  -5  -8   5    8.10    1.98
   5   8  -5    3.86    1.55
  -5   8   5    5.60    1.66
  -4  -8   5   43.52    3.97
   4   8  -5   48.10    3.82
   4  -8  -5   40.57    3.53
  -4  -8   5   38.80    3.57
  -4   8   5   40.80    3.45
   4   8  -5   37.91    2.98
  -4   8   5   32.72    3.03
   3   8  -5   39.86    2.99
  -3   8   5   38.29    3.26
  -3  -8   5   42.62    4.08
  -3  -8   5   36.00    3.68
   3  -8  -5   34.76    3.19
  -3   8   5   32.39    2.96
   3   8  -5   37.49    3.38
   2  -8  -5   22.93    2.84
  -2   8   5   24.21    2.64
  -2  -8   5   27.08    3.90
   2   8  -5   24.51    2.79
   2   8  -5   30.95    2.63
  -2   8   5   26.24    2.58
  -2  -8   5   27.48    2.95
  -1   8   5   98.22    5.67
  -1   8   5   92.22    5.33
  -1  -8   5  101.45    7.40
   1  -8  -5   86.77    5.59
  -1  -8   5   94.81    5.53
   1   8  -5  109.72    5.58
   1   8  -5  113.67    5.83
   0  -8   5   -0.87    1.32
   0  -8  -5    0.42    0.88
   0   8  -5    0.31    0.86
   0   8   5    0.39    0.80
   0  -8   5    1.33    0.94
   0   8  -5    1.29    0.93
   0   8   5    0.12    0.66
   1  -8   5   94.89    7.47
   1   8   5  119.81    5.88
   1  -8   5   98.40    5.36
  -1   8  -5  114.49    5.90
  -1   8  -5  112.66    5.59
   1   8   5  106.96    5.67
  -1  -8  -5   93.17    5.97
   2  -8   5   53.01    3.35
  -2   8  -5   55.82    3.90
   2  -8   5   56.38    5.29
  -2  -8  -5   57.45    3.04
   2   8   5   60.37    3.57
   2   8   5   46.52    3.56
  -2   8  -5   53.82    3.42
  -3  -8  -5    0.65    1.18
   3  -8   5    1.88    1.56
   3   8   5    0.75    0.69
  -3  -8  -5    1.25    0.63
  -3   8  -5    0.16    0.80
  -3   8  -5    0.29    0.86
   3   8   5    0.66    0.81
   4  -8   5   23.47    4.00
   4   8   5   24.66    2.82
  -4   8  -5   22.36    2.75
  -4  -8  -5   27.25    2.17
  -4  -8  -5   26.66    3.46
  -4   8  -5   25.85    2.27
   5   8   5   17.86    2.58
  -5   8  -5   18.61    2.08
  -5  -8  -5   18.27    2.06
   5  -8   5   11.31    2.99
  -5   8  -5   16.78    2.50
  -5  -8  -5   18.16    3.08
   6  -8   5   13.62    3.34
   6   8   5   10.74    2.23
  -6   8  -5   13.21    1.93
  -6  -8  -5   15.27    3.08
  -6   8  -5    7.11    1.76
  -6  -8  -5   12.96    1.90
  -7   8  -5   43.81    3.75
   7  -8   5   40.92    5.51
  -7   8  -5   45.76    3.52
   7   8   5   47.48    3.99
  -7  -8  -5   45.86    3.52
  -7  -8  -5   55.86    4.80
  -8   8  -5    0.92    1.24
   8   8   5   -0.04    1.30
  -8  -8  -5    0.40    1.06
  -8   8  -5    1.31    1.40
  -8  -8  -5    1.89    1.75
   8  -8   5    1.66    2.03
  -9  -8  -5   53.28    5.29
  -9   8  -5   37.34    3.90
   9  -8   5   37.16    5.65
   9   8   5   40.36    4.24
  -9  -8  -5   36.05    3.51
  10   8   5    9.45    2.43
 -10  -8  -5   10.06    2.31
 -10   8  -5   11.48    2.57
 -10  -8  -5    9.71    2.86
  10  -8   5   10.80    3.65
  11  -8   5    0.36    2.77
 -11  -8  -5    0.35    2.10
  11   8   5    2.89    1.73
 -11   8  -5    1.15    1.65
 -11  -8  -5    1.89    1.54
 -12  -8  -5   11.00    3.21
 -12  -8  -5    8.61    2.25
  12   8   5   15.09    3.15
 -12   8  -5    8.01    2.34
 -12  -9   5    3.11    2.03
  12  -9  -5    1.83    2.19
  12   9  -5   -0.82    1.85
 -12   9   5    2.02    2.00
 -11  -9   5   12.38    3.10
 -11   9   5   11.31    2.97
  11  -9  -5   15.03    3.39
 -10   9   5    1.91    1.74
 -10  -9   5   -0.07    1.47
  10  -9  -5    2.05    1.78
  10   9  -5    1.54    1.73
   9   9  -5    2.18    1.84
  -9  -9   5    1.94    1.61
   9  -9  -5    3.90    1.78
  -9   9   5    1.51    1.58
   8  -9  -5    7.80    2.39
   8   9  -5    6.82    2.20
  -8  -9   5    6.69    2.20
  -8   9   5    7.53    2.29
   7   9  -5   27.67    2.87
   7  -9  -5   28.00    3.88
   7   9  -5   31.96    3.74
  -7   9   5   21.71    3.31
  -7  -9   5   32.10    4.09
  -6   9   5    2.41    1.48
   6   9  -5    3.13    1.18
   6   9  -5    5.53    1.86
   6  -9  -5    3.19    1.67
  -6  -9   5    4.84    1.80
  -6   9   5    3.58    1.43
  -5  -9   5   88.21    5.73
   5   9  -5   69.95    4.97
  -5  -9   5   61.29    4.93
  -5   9   5   58.06    4.24
   5  -9  -5   65.06    4.90
  -5   9   5   63.63    4.90
   5   9  -5   63.71    4.21
  -4   9   5    0.66    1.06
  -4   9   5   -0.12    0.94
   4   9  -5    0.61    1.11
  -4  -9   5    0.22    1.39
  -4  -9   5    1.59    1.33
   4   9  -5    1.31    1.02
   4  -9  -5    0.38    1.16
  -3  -9   5   69.36    4.93
   3   9  -5   60.32    4.28
  -3   9   5   67.94    4.90
   3  -9  -5   74.32    5.07
  -3  -9   5   92.16    6.45
  -3   9   5   70.44    4.63
   3   9  -5   80.92    5.19
   2  -9  -5    6.84    1.80
  -2   9   5    8.33    1.85
   2   9  -5    9.32    1.95
  -2  -9   5    9.61    2.04
  -2  -9   5    9.54    2.85
   2   9  -5    7.87    1.70
  -2   9   5    6.84    1.65
  -1  -9   5   27.23    3.01
  -1   9   5   25.97    2.88
  -1  -9   5   23.12    3.99
  -1   9   5   26.04    2.60
   1  -9  -5   25.28    3.15
   1   9  -5   28.36    2.82
   1   9  -5   18.28    2.46
   0   9   5   29.18    3.02
   0  -9   5   36.06    4.77
   0   9  -5   27.76    2.77
   0  -9   5   28.48    3.00
   0  -9  -5   29.02    3.40
   0   9  -5   29.13    3.04
   0   9   5   29.31    2.65
   1  -9   5   51.09    5.17
   1   9   5   45.75    3.41
  -1  -9  -5   48.35    4.09
  -1   9  -5   46.95    3.29
  -1   9  -5   50.89    3.72
   1  -9   5   47.60    3.46
   1   9   5   55.94    3.88
  -2  -9  -5    3.65    1.74
   2  -9   5    0.99    1.19
   2   9   5    6.95    1.35
  -2   9  -5    4.02    1.16
  -2   9  -5    3.76    1.36
   2   9   5    4.53    1.48
  -3   9  -5  103.36    5.88
   3  -9   5   97.00    7.63
  -4   9  -5    0.34    0.78
  -4  -9  -5    0.32    0.65
   4  -9   5   -0.02    1.56
  -4  -9  -5   -0.68    1.25
  -4   9  -5   -0.36    0.79
   4   9   5    0.51    0.98
   5   9   5   56.64    4.23
  -5   9  -5   48.36    3.99
   5  -9   5   50.16    5.86
  -5  -9  -5   58.32    5.00
  -5  -9  -5   57.82    3.64
  -6  -9  -5   12.87    2.99
   6  -9   5    9.80    3.00
  -6   9  -5    8.30    1.97
  -6  -9  -5    9.83    1.83
   6   9   5   10.31    2.23
  -7  -9  -5   13.74    2.20
   7  -9   5   14.73    3.76
   7   9   5   13.38    2.58
  -7  -9  -5   15.94    3.31
  -7   9  -5    9.86    2.22
  -8  -9  -5   12.12    3.06
  -8  -9  -5    7.31    1.86
   8   9   5   12.40    2.70
  -8   9  -5    9.26    2.28
   8  -9   5    7.41    2.96
   9   9   5    7.73    2.27
   9  -9   5    3.90    2.75
  -9  -9  -5    7.17    1.98
  -9  -9  -5    7.45    2.66
  -9   9  -5    4.83    1.84
 -10   9  -5   -1.77    1.42
 -10  -9  -5   -0.37    1.99
  10  -9   5    4.57    2.86
  10   9   5    1.35    1.54
 -10  -9  -5    1.54    1.39
 -11   9  -5   36.17    4.09
 -11  -9  -5   25.31    3.55
  11  -9   5   31.91    5.76
 -11  -9  -5   42.83    5.32
  11   9   5   27.44    4.09
 -12  -9  -5    2.34    1.61
 -12  -9  -5    1.31    2.19
  12   9   5    1.70    1.76
 -12   9  -5    1.88    1.82
  11  10  -5    7.94    2.68
 -11 -10   5   11.55    3.09
 -11  10   5   10.97    3.04
  10  10  -5    0.00    1.81
 -10 -10   5    1.32    1.70
  10 -10  -5   -0.25    1.51
 -10  10   5   -0.08    1.52
  -9  10   5   35.56    4.52
  -9 -10   5   41.99    4.89
   9  10  -5   42.07    4.69
   9 -10  -5   38.64    5.06
   8  10  -5   -0.23    1.33
  -8 -10   5    0.04    1.47
   8 -10  -5    1.63    1.52
  -8  10   5    0.07    1.00
  -7  10   5   36.79    4.19
   7  10  -5   43.89    4.36
   7  10  -5   38.33    3.57
  -7 -10   5   37.52    4.47
   7 -10  -5   30.18    4.19
  -6 -10   5    0.01    1.25
  -6  10   5   -0.95    0.91
   6  10  -5    1.15    1.52
  -6  10   5    0.18    1.17
   6  10  -5    0.12    1.10
   6 -10  -5   -0.01    1.29
   5  10  -5    1.92    1.50
  -5  10   5    1.95    1.34
  -5 -10   5    2.60    1.72
   5  10  -5    1.08    1.18
  -5 -10   5    2.34    1.58
  -5  10   5    3.13    1.45
   5 -10  -5    2.49    1.51
  -4 -10   5    0.10    1.26
   4  10  -5    0.15    1.30
   4  10  -5    0.50    0.95
  -4 -10   5   -0.44    1.45
  -4  10   5   -0.07    1.27
   4 -10  -5    1.62    1.31
  -4  10   5   -0.30    1.03
  -3  10   5   15.03    2.51
  -3 -10   5   18.39    3.46
   3  10  -5   22.49    2.84
  -3  10   5   15.08    2.57
   3  10  -5   19.75    2.59
  -3 -10   5   15.96    2.70
   3 -10  -5   17.42    2.91
   2  10  -5    0.20    0.86
   2  10  -5    0.63    1.16
  -2  10   5    0.43    1.21
   2 -10  -5    0.37    1.09
  -2 -10   5    0.10    1.62
  -2 -10   5    0.29    0.96
  -2  10   5    0.33    0.95
   1  10  -5  118.77    6.03
  -1 -10   5   96.38    7.64
  -1  10   5   96.25    5.91
  -1 -10   5   95.00    5.91
   1  10  -5   91.36    5.62
  -1  10   5  102.03    6.04
   1 -10  -5  101.74    6.42
   0  10  -5    0.32    0.99
   0  10  -5   -0.30    0.94
   0 -10   5    1.40    1.23
   0  10   5    0.91    0.88
   0  10   5    0.92    1.20
   0 -10   5    2.03    1.95
   0 -10  -5    1.33    1.26
   1  10   5   87.19    5.29
   1  10   5   91.57    5.60
  -1 -10  -5   96.44    6.19
   1 -10   5   86.08    7.24
  -1  10  -5   86.73    5.41
   2  10   5    5.26    1.33
   2 -10   5    4.65    2.18
  -2  10  -5    5.18    1.59
   2  10   5    4.90    1.71
  -2 -10  -5    4.63    1.85
  -3  10  -5    2.28    1.31
   3 -10   5    0.32    1.68
  -3 -10  -5    2.00    1.61
   3  10   5    0.63    1.04
   4  10   5    0.52    1.17
  -4 -10  -5    0.19    1.21
   4 -10   5    1.37    1.78
  -4  10  -5    0.93    1.11
  -5  10  -5   12.03    2.34
  -5 -10  -5   16.85    3.28
   5  10   5   12.66    2.51
   5 -10   5   12.53    3.28
  -6 -10  -5    1.08    1.78
   6  10   5    1.19    1.50
   6 -10   5    1.14    1.83
  -6  10  -5   -0.01    1.14
   7 -10   5   45.51    6.24
  -7  10  -5   39.39    4.26
   7  10   5   57.14    4.64
  -7 -10  -5   75.06    5.90
  -8 -10  -5   -0.60    1.73
   8  10   5    0.24    1.29
   8 -10   5    0.82    2.08
  -8 -10  -5    0.83    1.20
  -8  10  -5    0.39    1.48
  -9  10  -5   36.74    4.17
  -9 -10  -5   39.88    3.75
  -9 -10  -5   58.58    5.99
   9 -10   5   39.48    6.26
   9  10   5   46.51    4.73
 -10 -10  -5   -0.09    1.30
  10  10   5    1.73    1.71
 -10 -10  -5    2.41    2.23
 -10  10  -5    1.43    1.67
  10 -10   5    2.24    2.61
  11  10   5    1.95    1.69
 -11 -10  -5   -1.31    1.95
  11 -10   5    2.33    3.08
 -11  10  -5    0.54    1.78
  11 -11  -5   11.50    3.46
 -11  11   5    9.60    3.01
 -11 -11   5   17.08    3.61
  11  11  -5   11.87    3.20
  10  11  -5    2.71    2.35
 -10 -11   5    2.72    1.98
 -10  11   5    1.17    1.96
  10 -11  -5    1.96    2.12
   9 -11  -5    1.00    1.95
  -9 -11   5   -0.82    1.51
  -9  11   5    0.35    1.51
   9  11  -5    1.45    1.81
   8 -11  -5    4.38    1.98
  -8 -11   5    5.51    2.19
   8  11  -5    2.58    1.99
  -8  11   5    5.40    2.19
   7 -11  -5   12.00    2.74
  -7  11   5    9.27    2.45
   7  11  -5   12.37    2.78
   7  11  -5   11.07    2.35
  -7 -11   5    8.50    2.46
   6  11  -5    2.58    1.49
  -6  11   5    1.84    1.39
   6 -11  -5    2.16    1.76
   6  11  -5    1.54    1.89
  -6 -11   5    0.80    1.44
  -6  11   5    0.77    1.37
   5  11  -5   56.81    4.27
   5  11  -5   72.71    5.24
  -5  11   5   54.64    4.37
   5 -11  -5   53.38    4.92
  -5  11   5   57.27    4.82
  -5 -11   5   62.86    5.09
   4 -11  -5    0.65    1.38
  -4 -11   5    0.53    1.41
  -4 -11   5    2.40    1.92
   4  11  -5   -0.30    1.05
   4  11  -5    0.85    1.44
  -4  11   5   -0.09    1.31
  -4  11   5    0.20    1.11
  -3 -11   5   63.41    5.75
   3  11  -5   58.37    4.33
  -3  11   5   49.18    4.20
  -3  11   5   43.49    4.02
  -3 -11   5   49.99    4.26
   3  11  -5   50.35    4.01
   3 -11  -5   42.41    4.59
  -2 -11   5    4.82    1.75
  -2  11   5    5.81    1.87
  -2  11   5    3.68    1.46
  -2 -11   5    5.39    2.56
   2  11  -5    5.01    1.63
   2 -11  -5    5.07    2.00
  -1  11   5    2.50    1.23
  -1 -11   5    1.45    2.03
  -1  11   5    2.31    1.57
   1  11  -5    1.21    1.12
   1 -11  -5    0.75    1.23
  -1 -11   5    1.96    1.42
   0  11   5   30.44    2.98
   0  11  -5   34.05    3.47
   0 -11   5   29.26    4.79
   0  11   5   31.46    3.59
   0 -11   5   32.40    3.52
   0 -11  -5   32.11    3.99
   1 -11   5    9.36    2.99
   1  11   5    5.53    1.89
  -1 -11  -5    3.85    1.82
   1  11   5    5.20    1.54
  -1  11  -5    4.94    1.66
   2  11   5    3.83    1.64
   2 -11   5    2.50    2.01
  -2  11  -5    2.43    1.40
  -2 -11  -5    2.50    1.68
  -3 -11  -5   84.43    6.31
  -3  11  -5   82.03    5.43
  -4  11  -5    0.70    1.21
   4 -11   5    0.20    1.75
   4  11   5   -0.21    1.35
  -4 -11  -5    2.12    1.80
   5  11   5   57.32    4.67
   5 -11   5   59.87    6.22
  -5  11  -5   58.07    4.63
  -6 -11  -5    2.38    1.87
  -6  11  -5    2.28    1.53
   6 -11   5    0.57    2.14
   6  11   5   -0.43    1.22
  -7  11  -5    1.68    1.44
   7  11   5    3.99    1.84
   7 -11   5    3.86    2.59
  -7 -11  -5    8.17    2.84
   8 -11   5    4.88    2.73
  -8 -11  -5    6.41    2.69
  -8  11  -5    4.87    2.04
   8  11   5    2.51    1.74
   9 -11   5    0.48    2.48
  -9  11  -5    2.36    1.79
  -9 -11  -5    3.14    2.48
   9  11   5    5.39    2.11
 -10  11  -5    0.82    1.65
 -10 -11  -5    0.98    2.19
  10 -11   5    3.27    2.71
  10  11   5    0.88    1.80
  10  12  -5    1.31    2.30
 -10 -12   5    5.44    2.56
  10 -12  -5    3.39    2.16
 -10  12   5    1.92    2.00
  -9  12   5    5.08    2.22
  -9 -12   5   13.22    3.05
   9 -12  -5   10.10    3.12
   9  12  -5   12.55    3.12
  -8 -12   5    1.43    1.48
  -8  12   5   -0.07    1.59
   8  12  -5    0.48    1.88
   8 -12  -5    0.81    1.59
  -7 -12   5   14.11    2.96
   7 -12  -5   12.78    3.11
  -7  12   5   10.21    2.73
   7  12  -5   12.49    2.56
  -6  12   5    7.55    2.25
  -6  12   5    9.19    2.25
   6  12  -5    9.38    2.23
   6 -12  -5    8.23    2.44
  -6 -12   5    8.86    2.52
   5  12  -5    5.25    1.74
  -5  12   5    4.51    1.85
  -5  12   5    3.35    1.70
   5 -12  -5    7.48    2.41
  -5 -12   5    2.59    1.79
   4 -12  -5   20.67    3.56
  -4  12   5   23.84    3.44
  -4  12   5   19.86    3.18
  -4 -12   5   33.94    4.54
  -4 -12   5   24.99    3.70
   4  12  -5   27.24    3.31
  -3  12   5   10.70    2.35
   3  12  -5    7.96    2.04
   3 -12  -5   13.12    2.98
  -3 -12   5   11.08    2.61
  -3  12   5    8.26    2.43
  -3 -12   5   13.13    3.51
   2  12  -5    9.87    2.16
  -2 -12   5   13.05    2.79
   2 -12  -5   11.28    2.67
  -2  12   5    9.32    2.40
  -2  12   5   10.08    2.27
  -2 -12   5   12.17    3.43
  -1 -12   5   34.27    3.82
  -1 -12   5   32.86    5.15
   1  12  -5   31.08    3.48
  -1  12   5   30.36    3.77
  -1  12   5   24.50    3.15
   0  12  -5    1.94    1.30
   0 -12  -5    1.96    1.68
   0  12   5    3.10    1.76
   0  12   5    3.56    1.48
   0 -12   5    0.94    2.13
   1  12   5   12.77    2.86
  -1 -12  -5   10.11    2.72
   1  12   5   12.68    2.20
  -1  12  -5   12.00    2.42
   1 -12   5   12.58    3.49
  -2 -12  -5   17.82    3.39
   2 -12   5   14.02    3.60
   2  12   5   13.57    2.80
  -2  12  -5   14.75    2.59
   3  12   5    0.72    1.20
  -3 -12  -5    4.06    2.14
  -3  12  -5    5.20    1.80
   3 -12   5    0.93    1.60
  -4  12  -5   18.75    3.00
  -4 -12  -5   18.87    3.84
   4 -12   5   12.74    3.62
   4  12   5   17.46    3.18
   5  12   5   13.04    2.83
   5 -12   5   10.14    3.41
  -5  12  -5   11.15    2.52
  -5 -12  -5   16.14    3.59
   6 -12   5    1.17    2.15
  -6 -12  -5    1.53    1.88
  -6  12  -5    6.38    2.09
   6  12   5    7.51    2.28
  -7 -12  -5   11.39    3.26
   7  12   5   25.44    3.72
   7 -12   5   20.30    4.64
  -7  12  -5    9.55    2.35
  -8 -12  -5   -1.01    2.09
   8  12   5    1.22    1.57
   8 -12   5    1.25    2.23
  -8  12  -5    0.89    1.56
  -9 -12  -5   15.36    3.94
   9 -12   5    9.07    3.81
  -9  12  -5    9.86    2.63
   9  12   5    9.94    2.61
  10 -12   5    3.64    2.92
  10  12   5    6.24    2.22
 -10  12  -5    6.01    2.35
 -10 -12  -5    4.02    2.76
  -9 -13   5    1.96    1.88
  -9  13   5   -0.21    1.72
   9 -13  -5    0.32    1.75
  -8  13   5   11.80    3.08
  -8 -13   5   13.14    3.25
   8 -13  -5   13.68    3.51
   7 -13  -5    2.44    2.06
   7  13  -5    0.87    1.45
  -7 -13   5    3.06    2.01
  -7  13   5    1.91    1.63
   6 -13  -5    2.20    1.88
  -6 -13   5    5.78    2.37
  -6  13   5    7.22    2.40
  -6  13   5    8.13    2.17
   6  13  -5    7.20    2.22
  -5 -13   5   17.33    3.46
  -5  13   5   15.92    3.03
   5  13  -5   17.03    2.98
   5 -13  -5   18.24    3.53
  -5  13   5   12.64    2.81
  -4 -13   5    4.67    2.21
   4 -13  -5    0.33    1.57
   4  13  -5    2.77    1.57
  -4  13   5    1.24    1.97
  -4  13   5    1.62    1.52
  -3  13   5   16.23    3.13
   3  13  -5   17.56    2.92
  -3  13   5   21.67    3.25
  -3 -13   5   21.65    3.35
   3 -13  -5   19.73    3.59
  -3 -13   5   19.72    4.18
   2 -13  -5   25.28    4.08
  -2  13   5   21.11    3.17
  -2 -13   5   32.97    5.24
  -2  13   5   28.80    3.92
   2  13  -5   24.82    3.35
  -2 -13   5   27.89    3.77
   1 -13  -5   -0.49    1.35
  -1 -13   5    0.27    2.13
  -1  13   5    0.86    1.28
   1  13  -5    0.76    1.24
  -1  13   5   -0.86    1.48
   0  13   5   36.59    3.44
   0 -13   5   35.52    5.55
   0  13  -5   36.39    3.95
   0 -13  -5   34.75    4.62
   0  13   5   36.23    4.33
  -1  13  -5    8.30    2.13
   1 -13   5    6.03    2.86
   1  13   5    7.16    2.43
  -1 -13  -5    5.50    2.34
   2 -13   5   18.55    4.21
  -2  13  -5   24.30    3.35
   2  13   5   25.11    3.78
  -2 -13  -5   19.39    3.78
  -3 -13  -5   22.60    3.99
  -3  13  -5   15.55    2.81
   3 -13   5   15.48    4.03
  -4  13  -5    0.07    1.21
   4 -13   5   -1.08    1.97
  -4 -13  -5   -0.56    1.67
   4  13   5   -2.02    1.42
  -5  13  -5   15.82    2.97
   5 -13   5   12.04    3.67
   5  13   5   13.48    3.12
  -5 -13  -5   15.53    3.67
  -6  13  -5   15.36    3.02
   6  13   5   15.56    3.23
  -6 -13  -5   16.17    3.88
   6 -13   5   14.32    3.93
  -7  13  -5   -0.08    1.28
   7 -13   5   -0.48    2.30
   7  13   5    1.12    1.69
  -7 -13  -5    0.01    2.04
  -8 -13  -5    2.77    2.45
   8  13   5   15.37    3.16
  -8  13  -5   21.69    3.64
   8 -13   5   10.25    3.50
   9 -13   5    3.82    3.27
   9  13   5    2.48    1.83
  -9 -13  -5    1.18    2.86
  -9  13  -5    2.58    1.99
  -8 -14   5    1.83    1.98
  -8  14   5   -0.20    1.39
   8 -14  -5   -0.40    1.93
  -7  14   5    1.04    1.61
  -7 -14   5    2.24    1.89
   7 -14  -5    4.52    2.41
  -6 -14   5   21.28    3.95
  -6  14   5   13.33    2.88
  -6  14   5   13.99    3.12
   6 -14  -5   23.22    4.45
   6  14  -5   18.02    3.10
   5  14  -5   -0.06    1.22
  -5  14   5    0.45    1.46
  -5 -14   5    0.93    1.94
   5 -14  -5    1.94    2.05
  -5  14   5    0.76    1.84
  -4  14   5   37.56    4.43
  -4  14   5   33.61    4.33
  -4 -14   5   45.72    4.86
   4 -14  -5   37.86    5.15
   4  14  -5   38.99    4.20
  -3  14   5    2.88    1.96
  -3  14   5    0.13    1.32
  -3 -14   5    3.79    1.99
   3 -14  -5    1.06    1.76
  -3 -14   5    1.81    2.58
   3  14  -5    2.80    1.55
   2 -14  -5   13.85    3.22
  -2 -14   5   19.85    4.40
   2  14  -5   14.68    2.75
  -2  14   5   16.92    3.02
  -2  14   5   15.13    3.32
   1  14  -5    2.58    1.70
  -1  14   5    3.54    1.79
  -1 -14   5    2.84    2.80
  -1  14   5    0.23    1.68
   1 -14  -5    2.41    1.90
   0  14  -5    1.84    1.39
   0  14   5    2.02    1.46
   0 -14  -5    0.45    1.74
   0 -14   5    3.18    2.67
   0  14   5    2.04    1.86
   1  14   5    3.05    2.07
  -1 -14  -5    3.88    2.22
   1 -14   5    2.08    2.42
  -1  14  -5    5.70    1.96
   2  14   5   19.01    3.62
  -2  14  -5   19.30    3.13
   2 -14   5   14.74    4.02
  -2 -14  -5   15.59    3.43
  -3 -14  -5    1.39    1.83
   3  14   5    0.67    1.45
  -3  14  -5    2.45    1.49
   3 -14   5   -0.93    2.21
  -4  14  -5   33.15    4.03
  -4 -14  -5   46.90    5.74
   4  14   5   39.21    4.93
  -5 -14  -5    2.92    2.33
   5 -14   5    2.80    2.62
  -5  14  -5    1.46    1.80
   5  14   5    1.99    2.02
   6  14   5    5.38    2.32
  -6 -14  -5    9.31    3.28
   6 -14   5    3.71    2.61
  -6  14  -5    3.87    2.27
  -7 -14  -5    3.90    2.63
   7 -14   5    3.56    2.85
   7  14   5    2.39    2.02
  -7  14  -5    1.55    1.34
  -8  14  -5    1.54    1.90
   8  14   5    2.17    1.75
   8 -14   5    0.30    2.26
  -8 -14  -5    2.21    2.55
  -6 -15   5    6.37    2.51
   6 -15  -5    8.89    3.10
  -6  15   5    4.63    2.24
   6  15  -5    5.96    2.15
  -5 -15   5    2.12    1.91
  -5  15   5    0.84    1.91
   5 -15  -5   -0.39    1.85
  -5  15   5   -0.37    1.46
   5  15  -5   -0.11    1.30
  -4  15   5    0.64    1.99
  -4  15   5    0.24    1.49
  -4 -15   5    2.67    1.79
   4  15  -5   -0.73    1.41
   4 -15  -5    1.63    2.06
   3  15  -5    0.43    1.47
  -3  15   5    0.79    2.02
   3 -15  -5    1.49    1.91
  -3  15   5    0.01    1.29
  -2  15   5   20.53    3.81
  -2  15   5   21.74    3.43
   2 -15  -5   20.13    3.98
   2  15  -5   18.10    3.19
  -2 -15   5   22.49    4.98
   1 -15  -5    0.14    2.03
   1  15  -5    0.96    1.41
  -1  15   5   -0.29    1.19
  -1  15   5   -2.18    1.78
  -1 -15   5   -1.17    2.40
   0  15   5   35.25    4.76
   0 -15   5   47.63    6.74
   0  15  -5   35.09    4.17
   0 -15  -5   40.61    5.44
  -1 -15  -5    0.27    1.92
   1  15   5    1.19    2.01
  -1  15  -5    1.21    1.43
   1 -15   5    1.68    3.05
   2 -15   5   13.24    4.10
  -2 -15  -5   10.81    3.20
   2  15   5    9.23    2.94
  -2  15  -5   13.04    2.70
   3 -15   5   -0.20    2.45
  -3  15  -5    0.92    1.41
   3  15   5    0.34    1.48
  -3 -15  -5    1.28    1.90
   4  15   5    0.99    2.15
  -4 -15  -5    1.25    2.03
   4 -15   5    1.71    2.63
  -4  15  -5    0.78    1.54
  -5  15  -5    0.44    1.54
  -5 -15  -5    0.84    1.85
   5 -15   5    1.21    2.64
   5  15   5   -1.03    1.89
  -6  15  -5    7.43    2.49
   6  15   5   16.56    3.52
  -6 -15  -5   12.69    3.88
   6 -15   5   10.79    3.98
   4 -16  -5   15.05    3.77
   4  16  -5   19.78    3.32
  -4  16   5   12.95    3.19
  -4  16   5   16.40    3.29
  -3  16   5    2.35    2.33
   3  16  -5    0.96    1.66
  -3  16   5    0.91    1.70
   3 -16  -5   -0.97    2.25
   2  16  -5    4.43    1.91
   2 -16  -5    5.75    2.52
  -2  16   5    7.90    2.90
  -2  16   5    3.45    2.01
  -1 -16   5    2.70    3.03
  -1  16   5    3.14    2.45
  -1  16   5    0.93    1.49
   1  16  -5   -1.47    1.46
   1 -16  -5    0.10    2.03
   0  16   5   -1.25    1.93
   0  16  -5   -0.13    1.39
   0 -16   5   -0.38    2.50
   0 -16  -5   -1.38    1.85
  -1  16  -5    2.25    1.63
  -1 -16  -5    1.99    2.13
   1  16   5   -0.84    1.99
   1 -16   5    1.27    3.46
   2 -16   5   11.51    3.78
   2  16   5   14.19    3.46
  -2  16  -5   12.11    2.66
  -2 -16  -5   13.95    3.57
   3  16   5    0.49    1.73
  -3 -16  -5    1.57    2.12
   3 -16   5    1.14    2.71
  -3  16  -5    1.88    1.58
  -4 -16  -5   16.41    3.68
   4 -16   5   14.99    4.55
   4  16   5   14.91    3.88
  -4  16  -5   13.33    2.81
 -14   0   6   -1.59    2.23
  14   0  -6   -0.15    1.73
 -13   0   6    1.85    1.83
  13   0  -6    0.90    1.78
 -12   0   6   24.99    4.43
  12   0  -6   20.31    3.60
  11   0  -6    1.24    1.55
 -11   0   6   -0.01    1.69
  10   0  -6   99.69    6.72
 -10   0   6  111.42    7.31
 -10   0   6   96.70    6.39
   9   0  -6    0.53    1.16
  -9   0   6   -0.59    0.94
  -9   0   6    0.98    1.31
   8   0  -6   35.14    3.69
  -8   0   6   38.03    3.97
  -8   0   6   35.10    3.28
  -7   0   6    0.54    0.89
   7   0  -6    1.18    1.08
  -7   0   6   -0.46    0.80
   6   0  -6    0.05    0.93
  -6   0   6    0.37    0.88
  -6   0   6    1.41    0.99
   5   0  -6    0.90    0.93
  -5   0   6    0.09    0.69
  -5   0   6   -0.11    0.63
  -4   0   6   74.53    4.74
   4   0  -6   70.50    4.66
  -4   0   6   73.71    4.20
  -3   0   6    0.40    0.56
  -3   0   6    0.27    0.69
   3   0  -6   -0.55    0.58
  -2   0   6  398.45   15.34
   2   0  -6  411.48   16.93
  -1   0   6    0.66    0.45
  -1   0   6    1.07    0.77
   1   0  -6   -0.04    0.56
   0   0  -6  210.84    7.75
   0   0  -6  198.90    8.87
   0   0   6  177.58    9.60
   0   0   6  201.55    7.89
  -1   0  -6    0.52    0.38
   1   0   6    0.57    0.58
   1   0   6    0.14    0.47
  -1   0  -6    1.06    0.61
  -2   0  -6   10.23    1.43
   2   0   6   11.58    1.91
  -2   0  -6   11.04    1.06
   2   0   6    9.75    1.47
  -3   0  -6    0.16    0.48
   3   0   6    1.72    0.92
  -3   0  -6    1.24    0.59
   3   0   6   -0.08    0.58
   4   0   6    4.40    1.22
   4   0   6   13.31    2.16
  -4   0  -6   15.39    1.47
  -4   0  -6   10.23    1.48
   5   0   6    1.61    1.17
  -5   0  -6    0.03    0.51
   5   0   6   -0.47    0.71
  -5   0  -6    0.55    0.57
  -6   0  -6  211.00   10.38
   6   0   6  215.87   10.53
  -6   0  -6  250.89    9.81
   6   0   6  276.07   12.45
  -7   0  -6    1.39    0.82
   7   0   6    1.00    1.02
  -7   0  -6    0.35    0.79
   7   0   6    1.72    1.45
   8   0   6  105.96    6.31
  -8   0  -6  108.43    5.37
  -8   0  -6   96.57    5.77
  -9   0  -6    0.27    0.86
   9   0   6    0.98    1.27
 -10   0  -6    1.60    0.96
  11   0   6    0.69    1.46
 -11   0  -6   -0.10    0.72
  12   0   6   19.55    3.40
 -13   0  -6    0.41    1.43
  13   0   6   -0.43    1.52
  14   0   6   22.19    3.73
 -14   0  -6   15.44    3.31
  14   1  -6   18.00    3.63
  14  -1  -6   16.91    3.89
 -14   1   6   21.42    4.55
 -13  -1   6   -0.50    2.17
  13  -1  -6    2.57    1.85
 -13   1   6    1.17    2.35
  13   1  -6    0.95    1.68
  12   1  -6   11.61    2.91
 -12  -1   6   14.07    3.56
  12  -1  -6   13.79    3.13
 -12   1   6    1.22    1.79
  11   1  -6    2.49    1.67
 -11   1   6    3.47    1.99
 -11  -1   6    4.11    2.20
  11  -1  -6    3.12    1.83
 -10   1   6   -0.53    1.60
 -10   1   6    1.32    1.17
  10  -1  -6    1.05    1.51
 -10  -1   6    0.80    1.60
  10   1  -6    0.83    1.36
   9  -1  -6   10.45    2.34
   9   1  -6   13.73    2.67
  -9   1   6    8.37    2.38
  -9  -1   6   14.47    2.92
  -9   1   6   11.11    2.22
  -9  -1   6   13.08    2.41
  -8  -1   6   63.35    4.52
   8  -1  -6   56.67    4.54
  -8  -1   6   68.69    5.05
  -8   1   6   60.14    4.52
   8   1  -6   57.57    4.61
  -8   1   6   63.43    4.77
   7   1  -6    2.43    1.25
  -7   1   6    1.37    1.14
   7  -1  -6    0.35    0.93
  -7   1   6    1.56    1.23
  -7  -1   6    4.44    1.62
  -7  -1   6    2.60    1.23
  -6  -1   6  169.82    9.00
   6   1  -6  179.31    8.99
  -6   1   6  178.62    8.53
  -6   1   6  169.12    9.01
  -6  -1   6  175.80    8.58
   6  -1  -6  173.62    8.94
   5   1  -6    1.15    1.02
  -5   1   6    1.33    0.87
  -5  -1   6    1.60    1.09
  -5   1   6    1.92    1.06
  -5  -1   6    2.55    1.05
   4  -1  -6  123.91    6.73
  -4  -1   6  126.99    6.98
  -4   1   6  120.21    6.01
   4   1  -6  119.58    6.67
  -4   1   6  118.01    6.72
  -4  -1   6  129.93    6.17
   3  -1  -6   61.44    4.12
  -3   1   6   56.57    3.39
   3   1  -6   58.47    4.06
  -3  -1   6   60.38    3.45
  -3  -1   6   57.23    4.16
   2  -1  -6    0.24    0.68
   2   1  -6    0.91    0.34
  -2   1   6    1.09    0.75
  -2  -1   6    0.12    0.41
  -2   1   6    0.81    0.36
  -2  -1   6    0.50    0.63
   2   1  -6    1.34    0.81
   1   1  -6   46.68    2.32
   1  -1  -6   44.62    3.11
   1  -1  -6   49.95    2.69
  -1  -1   6   42.81    2.43
  -1   1   6   49.37    2.38
  -1  -1   6   45.30    3.53
  -1   1   6   42.98    3.28
   1   1  -6   43.91    3.19
   0   1   6  278.19   13.58
   0   1  -6  298.24   11.20
   0  -1   6  278.60   13.89
   0   1  -6  300.24   12.69
   0  -1  -6  311.75   11.44
   0   1  -6  319.18   11.14
   0   1   6  298.33   11.29
   0  -1  -6  308.71   12.52
   1   1   6   12.95    1.91
  -1   1  -6   13.49    0.91
   1  -1   6   11.33    2.00
  -1   1  -6   13.29    1.37
   1   1   6   15.21    1.58
  -1  -1  -6   12.81    1.17
  -1  -1  -6   12.66    1.51
  -1   1  -6    8.93    1.42
   2  -1   6  443.23   21.13
  -2   1  -6  481.71   18.97
  -2   1  -6  509.21   17.80
  -2   1  -6  490.61   17.14
   2   1   6  458.35   20.67
  -2  -1  -6  487.56   18.88
   2   1   6  485.79   17.97
  -2  -1  -6  473.76   17.66
   3   1   6    0.55    0.77
  -3   1  -6    1.51    0.66
   3  -1   6    0.20    0.69
   3   1   6    0.84    0.76
  -3  -1  -6    0.67    0.55
  -3  -1  -6    0.70    0.52
   3  -1   6    1.36    1.02
  -3   1  -6    1.17    0.46
   4   1   6  190.84    9.67
  -4  -1  -6  211.64    8.56
   4  -1   6  209.11   10.84
  -4  -1  -6  189.56    8.76
   5  -1   6   18.85    3.09
  -5  -1  -6   16.07    1.92
   5   1   6   18.48    2.25
  -5  -1  -6   18.09    1.95
   5  -1   6   13.56    2.10
  -5   1  -6   18.81    1.38
   5   1   6   18.57    2.43
   6   1   6    1.21    0.98
  -6  -1  -6    1.08    0.75
  -6  -1  -6    0.47    0.86
  -6   1  -6   -0.03    0.56
   6  -1   6   -0.24    0.71
   6  -1   6    0.81    1.48
   6   1   6    0.75    0.98
  -6   1  -6    1.39    0.63
  -7  -1  -6   31.11    2.79
   7   1   6   34.03    3.50
   7  -1   6   47.80    4.64
  -7  -1  -6   36.97    2.92
   7  -1   6   30.52    3.40
  -7   1  -6   39.10    2.49
   8   1   6   42.57    3.75
  -8   1  -6   44.03    3.50
  -8  -1  -6   36.87    3.17
  -8  -1  -6   45.89    3.30
   8  -1   6   47.17    3.95
   9  -1   6    6.44    1.97
  -9  -1  -6    4.48    1.48
   9   1   6    5.77    1.78
  -9   1  -6    6.56    1.70
  -9  -1  -6    4.86    1.46
  10  -1   6   70.43    5.28
 -10  -1  -6   48.74    4.20
 -10   1  -6   55.46    4.38
  10   1   6   69.86    5.10
 -11  -1  -6    1.95    1.49
 -11   1  -6    4.52    1.85
  11  -1   6    5.71    2.28
  11   1   6    4.85    1.88
 -12  -1  -6   21.30    3.27
  12  -1   6   22.69    3.91
 -12   1  -6   21.03    3.21
  12   1   6   25.31    3.76
 -13   1  -6    0.25    1.49
 -13  -1  -6    1.25    1.56
  13  -1   6    3.04    1.86
  13   1   6    3.38    2.18
 -14  -1  -6    0.57    1.71
  14  -1   6    2.15    1.97
 -14   1  -6    1.53    1.91
  14   1   6   -0.89    1.56
 -14  -2   6   -0.88    2.37
  14  -2  -6    1.73    2.20
  14   2  -6    1.11    1.86
 -14   2   6    1.64    2.79
  13  -2  -6   15.09    3.31
 -13   2   6   11.10    3.40
 -13  -2   6   13.50    3.71
  13   2  -6   15.00    3.25
  12  -2  -6   12.16    3.10
  12   2  -6   13.09    2.92
 -12   2   6   15.05    3.53
 -12  -2   6   15.76    3.74
  11  -2  -6    2.13    1.75
 -11  -2   6    0.29    1.56
 -11   2   6    1.79    1.72
  11   2  -6    2.42    1.56
 -11   2   6   -0.19    1.35
 -10   2   6   32.86    4.30
  10  -2  -6   31.26    3.95
 -10   2   6   40.03    3.78
 -10  -2   6   39.62    4.67
  -9  -2   6   14.27    2.88
   9   2  -6   15.09    2.71
  -9  -2   6   11.99    2.35
   9  -2  -6   11.68    2.60
  -9   2   6   12.45    2.38
  -9   2   6   15.51    2.90
  -8  -2   6   31.67    3.15
  -8  -2   6   36.21    4.03
  -8   2   6   29.93    3.05
  -8   2   6   29.91    3.61
   8   2  -6   31.46    3.56
   8  -2  -6   30.28    3.48
  -7   2   6   29.99    3.03
   7  -2  -6   36.06    3.63
  -7  -2   6   33.20    3.16
  -7   2   6   36.49    3.57
  -7  -2   6   36.22    3.71
   7   2  -6   32.15    3.49
  -6   2   6    9.32    1.82
   6   2  -6    8.05    1.85
  -6   2   6    8.38    1.85
   6  -2  -6    8.06    1.95
  -6  -2   6    9.92    1.99
  -6  -2   6   10.57    2.03
   5   2  -6   37.76    1.87
   5   2  -6   39.48    3.32
  -5  -2   6   39.86    3.36
  -5   2   6   31.64    2.75
   5  -2  -6   35.76    3.23
  -5  -2   6   36.73    3.04
  -5   2   6   37.39    3.20
   4   2  -6  114.50    6.25
  -4   2   6   99.53    5.39
  -4  -2   6  107.55    5.58
   4   2  -6  106.17    4.24
  -4   2   6  104.24    6.09
  -4  -2   6  112.97    6.46
   4  -2  -6   99.48    5.95
  -4   2   6  112.22    3.95
  -3   2   6   16.68    1.10
   3  -2  -6   15.29    1.88
   3   2  -6   15.70    1.11
  -3  -2   6   17.80    2.45
   3   2  -6   16.89    2.35
  -3  -2   6   15.84    1.83
  -3   2   6   14.76    2.07
   3  -2  -6   13.77    2.06
   2  -2  -6  218.67    8.65
  -2  -2   6  195.76    8.29
  -2  -2   6  192.59   10.14
   2  -2  -6  209.27    9.33
  -2   2   6  194.61    9.72
   2   2  -6  210.36    7.70
   2   2  -6  199.24    9.52
  -2   2   6  195.67    7.47
   1  -2  -6    6.61    1.26
   1  -2  -6    6.46    1.08
  -1   2   6    5.20    1.21
   1   2  -6    3.10    1.04
   1   2  -6    7.05    0.90
  -1  -2   6    6.10    0.94
  -1  -2   6    3.23    1.17
  -1   2   6    7.82    0.92
   0   2   6  105.52    5.65
   0  -2  -6  108.11    5.13
   0   2  -6  100.98    4.50
   0  -2   6   94.09    6.03
   0   2   6  103.36    4.57
   0  -2   6   93.81    4.13
  -1  -2  -6  116.17    5.51
  -1   2  -6  120.08    4.35
   1   2   6  113.41    6.12
   1  -2   6  106.13    6.74
  -1  -2  -6  110.81    5.14
  -1   2  -6  122.89    5.22
   1   2   6  114.02    5.25
   2   2   6    2.42    0.96
  -2   2  -6    2.64    0.87
   2  -2   6    3.95    1.46
  -2  -2  -6    2.54    0.80
   2   2   6    2.61    0.91
  -2  -2  -6    2.87    0.84
  -2   2  -6    2.67    0.77
  -3  -2  -6   81.72    4.31
   3  -2   6   80.14    5.86
  -3   2  -6   81.92    4.24
   3   2   6   79.18    4.42
  -3   2  -6   83.22    4.45
   3   2   6   79.13    4.64
  -3  -2  -6   82.28    4.27
  -4   2  -6   86.43    3.24
   4   2   6   65.98    4.38
  -4  -2  -6   91.68    4.67
   4  -2   6   83.60    6.26
  -4   2  -6   79.84    4.50
  -4   2  -6   83.59    4.42
  -4  -2  -6   84.51    4.49
   4   2   6   85.13    4.75
   5  -2   6    2.96    1.80
  -5   2  -6    5.50    1.26
   5   2   6    7.63    1.34
   5   2   6    5.10    1.40
  -5  -2  -6    4.20    1.09
  -5   2  -6    6.23    0.73
  -5   2  -6    6.81    1.39
  -5  -2  -6    6.61    1.46
  -6   2  -6  101.84    5.66
   6  -2   6   98.64    6.08
  -6  -2  -6  129.59    6.04
   6   2   6   88.55    5.66
  -6   2  -6  111.06    4.63
  -6  -2  -6  106.69    5.71
   6  -2   6  119.88    8.12
  -7   2  -6    7.12    1.55
  -7  -2  -6    7.24    1.67
   7   2   6    6.62    1.73
  -7  -2  -6    8.21    1.63
   7  -2   6   10.53    2.98
   7  -2   6    8.58    1.99
   8   2   6   24.69    3.18
  -8  -2  -6   27.32    2.64
  -8  -2  -6   29.43    2.99
  -8   2  -6   28.65    2.98
   8  -2   6   38.94    5.16
   8  -2   6   25.06    3.32
  -9  -2  -6   28.77    3.06
   9  -2   6   33.27    3.85
  -9   2  -6   27.67    3.07
   9   2   6   25.84    3.34
  -9  -2  -6   34.16    3.30
 -10  -2  -6    0.14    1.21
 -10   2  -6    0.73    1.18
  10   2   6   -0.69    1.17
  10  -2   6    8.45    2.48
 -10  -2  -6    0.95    1.08
 -11   2  -6   17.11    2.80
  11  -2   6   21.15    3.56
  11   2   6   17.85    3.16
 -11  -2  -6   17.33    2.75
  12  -2   6    7.91    2.66
 -12  -2  -6   10.73    2.45
  12   2   6   10.45    2.70
 -12   2  -6    9.64    2.43
 -13   2  -6    1.71    1.89
 -13  -2  -6    2.00    1.68
  13  -2   6    3.52    2.20
  13   2   6    1.83    2.02
 -14   2  -6    7.84    2.52
 -14  -2  -6    8.30    2.63
  14   2   6   12.80    3.12
  14  -2   6    9.21    2.83
 -14   3   6    5.27    3.22
  14   3  -6   10.03    2.91
 -14  -3   6    8.25    3.52
  14  -3  -6    7.95    2.75
  13  -3  -6    5.44    2.50
 -13   3   6    7.40    2.99
 -13  -3   6    2.99    2.68
  13   3  -6    3.47    2.38
  12   3  -6    8.28    2.38
 -12   3   6    8.71    2.91
 -12  -3   6    8.46    3.00
  12  -3  -6    6.78    2.58
 -11   3   6   27.29    3.70
  11   3  -6   26.36    3.78
 -11   3   6   30.65    4.41
  11  -3  -6   27.96    4.15
 -11  -3   6   29.89    4.49
  10  -3  -6    1.83    1.65
 -10  -3   6    0.69    1.53
 -10   3   6    1.07    1.29
 -10   3   6    1.34    1.34
  10   3  -6    0.36    1.37
  -9  -3   6   31.55    4.11
   9  -3  -6   27.52    3.66
   9   3  -6   29.18    3.61
  -9   3   6   30.77    3.45
  -9   3   6   22.26    3.41
  -8  -3   6   18.50    2.57
   8  -3  -6   21.38    3.06
  -8   3   6   16.28    2.62
  -8   3   6   20.76    3.13
  -8  -3   6   24.24    3.45
   8   3  -6   21.82    3.08
   7  -3  -6   19.60    2.86
  -7   3   6   18.35    2.72
  -7   3   6   20.25    2.71
  -7  -3   6   25.22    3.24
  -7  -3   6   21.71    2.63
   7   3  -6   18.68    2.78
   6   3  -6   87.24    5.90
  -6   3   6  107.92    6.30
   6  -3  -6  104.56    6.27
  -6  -3   6  116.70    6.48
  -6   3   6   83.84    5.48
  -6  -3   6  117.45    6.34
   5   3  -6   23.65    1.60
  -5  -3   6   23.83    2.74
  -5  -3   6   26.11    3.00
  -5   3   6   20.01    2.58
  -5   3   6   24.78    1.34
   5  -3  -6   23.94    2.82
  -5   3   6   23.47    2.59
   5   3  -6   21.68    2.77
  -4  -3   6   59.60    4.22
  -4  -3   6   55.78    3.63
   4  -3  -6   47.44    3.69
   4   3  -6   35.97    3.38
   4   3  -6   53.16    2.63
  -3   3   6  192.29    7.29
   3  -3  -6  182.53    8.86
  -3   3   6  182.15    9.28
   3   3  -6  196.15    7.43
  -3  -3   6  185.71    8.26
   2  -3  -6    4.24    1.09
  -2  -3   6    5.70    1.60
  -2   3   6    4.25    1.17
  -2   3   6    4.18    0.73
   2   3  -6    5.37    0.88
   2   3  -6    3.55    1.16
  -2  -3   6    4.96    1.06
   2  -3  -6    3.79    1.08
   1  -3  -6  185.96    8.12
   1   3  -6  180.15    8.57
  -1   3   6  174.00    7.05
  -1   3   6  179.48    8.75
  -1  -3   6  171.37    7.24
   1   3  -6  172.65    7.22
   1  -3  -6  190.67    7.84
   0   3  -6   23.78    2.21
   0  -3   6   20.16    2.87
   0  -3  -6   25.89    1.95
   0   3  -6   25.80    1.86
   0   3   6   20.23    1.68
   0  -3  -6   25.85    1.94
   0  -3   6   20.46    1.38
   0   3   6   22.79    2.09
  -1   3  -6   80.69    4.46
   1  -3   6   78.31    3.07
   1  -3   6   67.06    5.38
   1   3   6   78.80    4.04
  -1  -3  -6   82.55    4.17
  -1  -3  -6   84.43    4.15
   1   3   6   77.80    4.47
  -1   3  -6   80.57    4.00
  -2  -3  -6   95.55    4.79
  -2   3  -6   98.48    5.10
  -2  -3  -6   96.76    4.90
  -2   3  -6  100.28    4.81
   2  -3   6   91.45    6.63
   2   3   6  100.10    5.24
   2   3   6  101.07    4.97
  -3  -3  -6   38.23    2.55
   3   3   6   34.43    2.78
  -3   3  -6   38.48    2.75
  -3  -3  -6   38.65    2.78
   3   3   6   37.79    2.65
   3  -3   6   36.65    4.40
  -3   3  -6   38.58    2.65
  -4  -3  -6   32.36    2.42
  -4   3  -6   34.42    2.57
  -4  -3  -6   35.03    2.74
   4  -3   6   35.64    4.58
   4   3   6   21.00    2.54
  -4   3  -6   36.68    2.64
   4   3   6   37.65    2.49
  -5  -3  -6  181.13    8.56
  -5   3  -6  186.49    8.69
  -5   3  -6  191.60    8.50
   5   3   6  186.83    8.81
   5  -3   6  199.45   11.66
  -5  -3  -6  198.55    8.94
   5   3   6  194.14    8.73
  -6   3  -6    1.46    0.89
  -6  -3  -6    1.49    0.82
  -6  -3  -6    1.26    1.13
   6   3   6    0.20    0.83
  -6   3  -6    0.04    0.73
   6  -3   6    2.37    1.91
   7  -3   6  114.00    8.50
   7   3   6  109.11    6.35
  -7   3  -6  109.07    6.03
  -7  -3  -6  133.01    6.56
  -7  -3  -6   95.54    5.78
  -8  -3  -6   30.81    3.22
   8   3   6   24.24    3.15
  -8   3  -6   22.34    2.74
  -8  -3  -6   23.12    2.65
   8  -3   6   29.04    4.79
   8  -3   6   24.20    3.52
  -9   3  -6    6.90    1.82
   9   3   6   10.88    2.34
  -9  -3  -6    8.67    2.20
  -9  -3  -6    9.46    1.88
   9  -3   6    8.57    2.28
 -10   3  -6   27.38    3.27
  10  -3   6   28.79    3.96
 -10  -3  -6   25.67    3.11
 -10  -3  -6   27.31    3.37
  10   3   6   30.06    3.77
 -11  -3  -6    2.20    1.32
  11   3   6    2.49    1.60
 -11  -3  -6    2.50    1.80
 -11   3  -6    2.43    1.65
  11  -3   6    2.87    1.82
 -12   3  -6   12.37    2.71
 -12  -3  -6   12.28    2.49
  12  -3   6   13.47    3.07
  12   3   6   12.94    2.98
 -13   3  -6   11.95    2.84
  13  -3   6   12.68    3.18
 -13  -3  -6   13.01    2.76
  13   3   6   11.95    2.95
 -14   4   6    0.33    2.72
  14   4  -6    2.08    1.94
 -14  -4   6    0.99    2.63
 -13   4   6   18.34    4.24
 -13  -4   6   14.37    3.69
  13   4  -6   16.13    3.51
  12   4  -6    4.05    2.17
 -12   4   6    6.71    2.44
  12  -4  -6    5.26    2.39
 -12  -4   6    4.82    2.50
 -12   4   6    7.15    2.76
 -11   4   6    3.76    1.98
  11   4  -6    4.58    1.91
 -11   4   6    1.60    1.90
 -11  -4   6    4.76    2.29
  11  -4  -6    6.33    2.29
 -10  -4   6    1.86    1.73
 -10   4   6    0.61    1.57
  10   4  -6    1.33    1.52
 -10   4   6    1.83    1.74
  10  -4  -6    4.20    1.87
  -9  -4   6   14.58    2.98
   9   4  -6   12.22    2.58
  -9   4   6   12.28    2.49
   9  -4  -6   13.10    2.78
   8  -4  -6    3.45    1.57
   8   4  -6    3.60    1.55
  -8  -4   6    3.53    1.66
  -8  -4   6    4.86    1.71
  -8   4   6    4.89    1.60
  -8   4   6    2.58    1.38
  -7   4   6  114.18    6.70
  -7   4   6  114.90    7.03
  -7  -4   6  129.29    7.26
   7  -4  -6  108.88    6.89
   7   4  -6  112.69    6.89
  -7  -4   6  132.29    7.22
   6  -4  -6    7.11    1.81
  -6   4   6    6.25    1.69
  -6  -4   6    4.27    1.51
   6  -4  -6    6.20    1.80
  -6  -4   6    6.87    1.84
   6   4  -6    0.77    0.83
  -5   4   6  194.59    7.47
   5  -4  -6  177.89    9.39
   5  -4  -6  181.61    9.09
   5   4  -6  194.15    7.76
  -5  -4   6  210.05   10.31
  -5  -4   6  201.10    9.35
   4  -4  -6    7.23    1.70
  -4   4   6    5.89    1.50
   4   4  -6    8.53    1.90
   4  -4  -6    2.80    0.99
  -4   4   6    7.60    1.06
  -4  -4   6    7.17    1.87
  -4  -4   6    6.43    1.48
   4   4  -6    8.79    1.19
   3   4  -6    2.68    1.24
   3  -4  -6    3.20    1.09
  -3  -4   6    4.14    1.13
  -3   4   6    3.32    1.12
   3   4  -6    4.57    0.96
  -3   4   6    2.26    0.75
   3  -4  -6    1.50    0.90
  -3  -4   6    4.64    1.54
   2  -4  -6    2.72    0.98
  -2  -4   6    3.23    0.98
  -2   4   6    3.59    1.14
   2   4  -6    3.99    0.88
   2  -4  -6    3.55    1.01
   2   4  -6    3.71    1.32
  -2   4   6    3.45    0.80
  -2  -4   6    2.99    1.35
  -1  -4   6   35.43    3.56
  -1   4   6   39.73    3.00
   1   4  -6   39.56    3.16
   1  -4  -6   39.38    2.58
   1   4  -6   37.70    2.48
  -1  -4   6   39.16    2.44
   1  -4  -6   43.57    2.87
  -1   4   6   40.94    2.40
   0  -4   6    0.41    1.02
   0   4  -6    0.17    0.58
   0   4   6    0.67    0.60
   0   4  -6    0.84    0.62
   0  -4   6    1.10    0.46
   0   4   6    0.66    0.59
   0  -4  -6    0.88    0.65
   0  -4  -6    0.51    0.51
  -1  -4  -6  216.82    9.00
   1  -4   6  202.77    7.62
   1   4   6  210.85    8.60
   1  -4   6  174.64   11.07
  -1  -4  -6  215.06    8.78
  -1   4  -6  208.03    8.61
  -1   4  -6  209.58    9.32
   1   4   6  211.62    9.63
   2  -4   6    0.72    1.29
  -2  -4  -6    2.04    0.98
   2   4   6    1.84    0.76
  -2   4  -6    1.37    0.72
  -2   4  -6    1.59    0.80
  -2  -4  -6    2.06    0.67
   2   4   6    3.04    0.98
  -3   4  -6  268.62   11.07
  -3  -4  -6  270.33   11.52
  -3   4  -6  274.32   11.60
   3  -4   6  248.26   14.43
   3   4   6  277.31   11.92
   3   4   6  278.12   11.34
  -3  -4  -6  279.43   11.32
   4  -4   6   29.56    4.36
  -4  -4  -6   33.24    2.88
  -4   4  -6   30.41    2.52
  -4   4  -6   32.40    2.51
   4   4   6   33.27    2.25
  -4  -4  -6   33.53    2.46
  -5   4  -6    4.10    1.16
   5   4   6    6.01    1.53
  -5  -4  -6    6.14    1.62
  -5  -4  -6    5.35    1.23
  -5   4  -6    4.54    1.16
   5  -4   6    6.89    2.54
   6  -4   6    4.19    2.12
  -6   4  -6    2.51    1.18
  -6  -4  -6    4.71    1.54
  -6   4  -6    3.29    1.04
  -6  -4  -6    3.60    1.05
   6   4   6    2.97    1.25
  -7  -4  -6   15.22    2.56
  -7  -4  -6   13.30    1.96
   7   4   6   11.69    2.25
  -7   4  -6    9.45    1.86
  -7   4  -6   11.57    1.91
   7  -4   6   12.39    3.29
  -8   4  -6    0.97    1.14
   8   4   6    2.46    1.44
  -8   4  -6    2.11    1.23
   8  -4   6    3.76    2.48
  -8  -4  -6    5.18    1.84
  -8  -4  -6    1.73    1.05
  -9  -4  -6   52.63    4.14
   9   4   6   53.88    4.57
  -9   4  -6   52.38    4.23
   9  -4   6   65.80    5.34
  -9  -4  -6   64.98    4.82
   9  -4   6   68.10    6.67
 -10  -4  -6    1.56    1.24
 -10  -4  -6    3.73    1.83
 -10   4  -6    1.51    1.39
  10  -4   6    3.92    2.06
  10   4   6    3.04    1.67
  11  -4   6   52.47    5.52
  11   4   6   59.68    5.07
 -11  -4  -6   48.38    4.32
 -11  -4  -6   73.25    5.20
 -11   4  -6   52.88    4.56
  12  -4   6    1.79    1.85
 -12   4  -6    0.64    1.69
 -12  -4  -6    1.29    1.34
  12   4   6    2.42    1.71
  13  -4   6    5.30    2.63
 -13  -4  -6    5.13    1.83
 -13   4  -6    6.48    2.21
  13   4   6    2.07    2.02
  13   5  -6   11.62    3.14
 -13   5   6   12.17    3.51
 -13  -5   6    7.10    3.12
 -12  -5   6    0.73    1.73
 -12   5   6    1.18    1.74
  12   5  -6    1.18    1.89
 -12   5   6   -0.93    1.88
  11   5  -6   36.07    4.43
 -11  -5   6   33.11    4.79
 -11   5   6   38.26    4.52
 -11   5   6   40.81    4.93
 -10   5   6    1.96    1.43
 -10   5   6   -0.24    1.43
  10   5  -6    0.69    1.39
  10  -5  -6   -0.11    1.70
 -10  -5   6    1.87    1.79
  -9   5   6   48.45    4.46
   9  -5  -6   49.35    4.62
  -9  -5   6   54.09    4.88
   8  -5  -6    4.27    1.84
  -8  -5   6    4.24    1.94
   8   5  -6    0.99    1.08
   8  -5  -6    2.97    1.80
  -8   5   6    5.07    1.81
   7   5  -6   21.89    3.12
  -7  -5   6   24.78    3.42
   7  -5  -6   25.45    3.33
   7  -5  -6   29.96    3.60
  -7  -5   6   32.31    3.42
  -7   5   6   26.81    3.22
  -6  -5   6    0.93    1.11
   6  -5  -6   -0.32    1.19
  -6  -5   6    0.46    1.15
   6  -5  -6    0.26    0.93
   6   5  -6    0.46    0.99
  -6   5   6   -0.73    0.78
   5   5  -6   28.76    2.13
  -5  -5   6   30.80    3.10
   5   5  -6   23.69    3.01
   5  -5  -6   26.26    2.97
  -5  -5   6   30.50    3.20
   5  -5  -6   23.18    2.86
  -5   5   6   24.47    1.91
  -4   5   6    0.67    0.73
   4   5  -6    0.42    0.62
   4   5  -6    1.01    1.13
   4  -5  -6    2.41    1.09
  -4  -5   6    0.72    0.98
   4  -5  -6    0.06    0.68
  -4  -5   6    1.52    1.24
  -4   5   6    0.39    0.71
  -3   5   6  161.52    8.39
  -3  -5   6  168.01    9.06
   3  -5  -6  158.72    7.65
  -3   5   6  148.66    6.85
   3   5  -6  174.34    8.52
  -3  -5   6  156.32    7.63
   3   5  -6  166.50    7.04
   2  -5  -6    0.15    0.58
  -2   5   6    0.55    0.64
   2  -5  -6    0.64    0.74
  -2  -5   6    0.09    1.00
   2   5  -6    0.77    0.65
  -2  -5   6    0.91    0.75
  -2   5   6    0.66    0.73
   2   5  -6    0.25    0.83
  -1   5   6  111.79    5.33
   1  -5  -6  128.02    5.61
   1   5  -6  122.09    6.47
  -1   5   6  120.50    6.43
  -1  -5   6  110.86    7.43
   1  -5  -6  125.48    6.10
   1   5  -6  120.32    5.64
  -1  -5   6  116.49    5.58
   0   5  -6    3.73    1.02
   0  -5  -6    5.70    0.98
   0  -5   6    7.30    1.11
   0   5  -6    4.99    1.24
   0   5   6    5.86    1.13
   0  -5   6    0.26    0.92
   0  -5  -6    5.46    1.35
   0   5   6    5.41    1.26
  -1  -5  -6   74.25    3.72
   1  -5   6   71.35    3.30
   1  -5   6   64.14    5.68
   1   5   6   71.20    4.20
  -1   5  -6   70.55    4.03
   1   5   6   73.08    3.97
  -1   5  -6   73.15    4.28
  -1  -5  -6   74.27    4.37
  -2  -5  -6    5.84    1.07
  -2  -5  -6    7.11    1.49
   2  -5   6    5.13    2.10
   2  -5   6    6.06    0.65
  -2   5  -6    5.50    1.24
   2   5   6    6.71    1.23
   2   5   6    6.40    1.33
  -2   5  -6    6.39    1.32
   3   5   6   26.12    1.97
  -3  -5  -6   18.84    2.48
   3  -5   6   23.09    3.93
  -3   5  -6   21.51    2.10
  -3  -5  -6   24.57    1.98
   3   5   6   19.96    2.32
  -3   5  -6   20.53    2.26
   4  -5   6    3.40    1.93
  -4   5  -6    1.75    0.86
  -4  -5  -6    1.47    1.16
  -4   5  -6    2.84    0.98
   4   5   6    2.38    1.05
  -4  -5  -6    2.08    0.81
   4   5   6    2.40    0.75
  -5  -5  -6  169.89    8.36
  -5   5  -6  155.40    7.62
   5   5   6  169.10    8.08
  -5  -5  -6  158.74    7.58
   5  -5   6  156.52   10.46
  -5   5  -6  157.66    7.65
  -6  -5  -6    0.54    0.70
   6   5   6   -0.47    0.78
  -6   5  -6    0.37    0.76
   6  -5   6   -0.81    1.55
  -6   5  -6    0.10    0.82
  -6  -5  -6    1.12    1.21
   7  -5   6   73.98    6.84
  -7   5  -6   73.52    4.73
  -7   5  -6   56.55    4.39
  -7  -5  -6  102.62    5.92
  -7  -5  -6   81.21    4.82
   7   5   6   79.16    5.23
  -8   5  -6    0.72    0.99
  -8  -5  -6    0.62    1.31
  -8   5  -6    0.84    1.06
   8   5   6    1.01    1.23
   8  -5   6    3.46    2.38
  -8  -5  -6   -0.56    0.91
  -9   5  -6   18.68    2.76
  -9  -5  -6   25.25    3.49
   9  -5   6   18.82    4.39
  -9   5  -6   14.89    2.54
   9   5   6   18.31    3.06
  -9  -5  -6   15.20    2.40
 -10  -5  -6    1.50    1.15
  10   5   6   -0.39    1.17
 -10  -5  -6   -0.15    1.45
 -10   5  -6    0.96    1.26
  11   5   6    4.49    1.92
  11  -5   6    4.11    2.32
 -11  -5  -6    2.50    1.42
 -11   5  -6    3.34    1.87
 -11  -5  -6    5.74    2.29
 -12   5  -6    0.04    1.57
 -12  -5  -6    0.24    1.80
 -12  -5  -6   -0.03    1.22
  12   5   6    0.28    1.50
  12  -5   6    0.10    1.84
  13   5   6   24.11    3.92
  13  -5   6   28.71    4.67
 -13  -5  -6   20.61    3.38
 -13   5  -6   26.73    3.89
  13  -6  -6   12.79    3.88
 -13   6   6   10.46    3.08
  13   6  -6   11.76    3.13
 -13  -6   6   10.29    3.05
  12  -6  -6    0.99    2.02
 -12   6   6    6.69    2.72
  12   6  -6    1.81    1.87
 -12  -6   6    1.46    2.08
  11   6  -6    0.10    1.20
  11  -6  -6    3.45    2.16
 -11  -6   6    6.18    2.48
 -11   6   6    1.46    1.84
 -10  -6   6    2.86    1.71
  10   6  -6    2.25    1.55
 -10   6   6    2.29    1.64
  10  -6  -6    2.13    1.97
   9  -6  -6   17.46    3.33
   9   6  -6   18.40    3.15
  -9  -6   6   10.81    2.74
  -9   6   6   12.79    2.70
  -8   6   6    6.22    1.98
  -8  -6   6    5.83    2.00
   8   6  -6    5.77    1.96
   8  -6  -6    6.41    2.11
  -7   6   6   78.66    5.79
  -7  -6   6  106.21    6.26
  -7  -6   6   85.49    5.89
   7   6  -6   82.77    5.78
   7  -6  -6   80.94    5.77
  -6  -6   6    6.76    2.03
   6  -6  -6    5.37    1.63
  -6   6   6    1.01    0.92
   6   6  -6    5.28    1.25
   6   6  -6    3.64    1.62
  -6  -6   6    3.58    1.49
   6  -6  -6    4.70    1.72
  -5   6   6   66.58    4.80
   5  -6  -6   66.45    4.66
   5   6  -6   71.24    4.92
   5   6  -6   63.07    3.77
  -5  -6   6   77.15    5.29
   5  -6  -6   65.79    4.59
  -5  -6   6   68.71    4.75
  -5   6   6   69.07    3.79
  -4  -6   6   19.27    2.91
   4   6  -6   16.10    1.83
  -4  -6   6   16.84    2.44
  -4   6   6   12.36    2.11
  -4   6   6   10.77    1.65
   4  -6  -6   14.11    1.98
   4   6  -6   14.38    2.44
   4  -6  -6   13.48    2.22
   3   6  -6   25.33    2.15
   3  -6  -6   21.99    2.61
  -3  -6   6   20.30    2.53
  -3   6   6   20.27    2.52
   3  -6  -6   20.80    2.01
  -3   6   6   24.49    2.27
   3   6  -6   25.00    2.90
  -3  -6   6   24.10    3.23
  -2   6   6   12.83    1.67
   2   6  -6   12.99    2.19
  -2   6   6   11.84    1.92
   2  -6  -6   15.08    1.49
  -2  -6   6   11.98    1.88
  -2  -6   6   11.88    2.66
   2   6  -6   13.16    1.76
  -1   6   6   65.31    3.75
   1   6  -6   64.93    4.36
   1  -6  -6   63.07    4.14
   1   6  -6   64.17    3.83
  -1  -6   6   63.04    5.36
   1  -6  -6   74.25    3.51
  -1   6   6   67.12    4.27
  -1  -6   6   65.82    3.88
   0   6  -6   23.12    2.50
   0  -6  -6   23.62    1.69
   0   6   6   24.68    2.28
   0  -6   6   23.87    2.02
   0  -6  -6   23.90    2.62
   0  -6   6   23.99    3.85
   0   6  -6   20.79    2.21
   0   6   6   22.01    2.16
   1   6   6  287.22   12.80
   1   6   6  287.98   11.57
   1  -6   6  274.13   11.05
  -1   6  -6  274.16   11.63
   1  -6   6  264.68   15.11
  -1  -6  -6  306.46   12.41
  -1  -6  -6  296.32   11.48
  -1   6  -6  282.63   12.26
  -2   6  -6   16.59    1.98
  -2   6  -6   15.40    2.04
   2   6   6   13.07    1.92
  -2  -6  -6   18.57    2.50
   2  -6   6   12.36    3.04
  -2  -6  -6   17.54    1.59
   2   6   6   16.19    1.67
  -3  -6  -6  127.42    6.90
  -3  -6  -6  128.41    6.01
  -3   6  -6  131.47    6.45
  -3   6  -6  121.41    6.30
   3  -6   6  114.72    8.66
   3   6   6  139.03    6.63
   3   6   6  132.46    6.29
  -4  -6  -6   17.33    1.89
   4  -6   6   13.96    3.29
   4   6   6   16.96    1.51
  -4   6  -6   15.15    2.15
  -4  -6  -6   19.62    2.70
  -4   6  -6   18.52    2.06
  -5   6  -6   16.30    2.27
  -5  -6  -6   17.23    2.79
   5   6   6   15.41    2.40
   5  -6   6   17.93    3.71
  -5  -6  -6   15.18    1.88
  -5   6  -6   17.97    2.11
  -6  -6  -6    7.13    2.07
  -6   6  -6    7.63    1.77
   6  -6   6    6.67    2.46
   6   6   6    6.70    1.73
  -6  -6  -6    4.54    1.30
  -6   6  -6    7.41    1.54
  -7   6  -6   12.42    2.24
   7  -6   6   22.03    4.30
   7   6   6   15.71    2.68
  -7   6  -6   21.14    2.51
  -7  -6  -6   19.72    2.39
  -7  -6  -6   29.68    3.78
   8  -6   6    8.39    2.80
   8   6   6    3.74    1.64
  -8   6  -6    3.27    1.50
  -8  -6  -6    4.85    2.09
  -8   6  -6    3.86    1.58
  -8  -6  -6    5.11    1.50
  -9   6  -6   43.59    3.99
   9   6   6   56.74    4.65
  -9   6  -6   49.76    4.13
  -9  -6  -6   65.10    5.40
   9  -6   6   61.10    7.08
  -9  -6  -6   51.79    4.08
  10  -6   6    0.59    2.79
 -10   6  -6    0.12    1.41
 -10  -6  -6    2.49    1.36
  10   6   6    2.44    1.61
 -10   6  -6    1.29    1.51
 -10  -6  -6    3.95    2.19
 -11  -6  -6   24.35    3.29
 -11  -6  -6   36.83    4.40
  11   6   6   24.43    3.74
 -11   6  -6   29.59    3.64
 -12  -6  -6    3.27    1.59
  12   6   6    3.70    2.00
  12  -6   6    4.10    2.74
 -12   6  -6    2.82    1.97
 -12  -6  -6    5.38    2.51
 -13  -6  -6    3.99    1.80
 -13  -6  -6    6.97    2.77
  13   6   6    5.13    2.25
  13  -6   6    7.52    2.93
 -13   6  -6    4.37    2.36
  13  -7  -6    3.10    2.40
 -13  -7   6    2.78    2.09
 -13   7   6    2.97    2.38
  13   7  -6   -0.84    1.68
 -12   7   6    1.12    2.05
  12  -7  -6    2.33    2.19
  12   7  -6    3.06    2.02
 -12  -7   6    2.61    2.18
  11   7  -6   17.48    3.45
 -11   7   6   19.92    3.61
 -11  -7   6   23.33    4.16
  11  -7  -6   16.61    3.77
 -10  -7   6    0.53    1.68
  10  -7  -6    0.44    1.56
 -10   7   6    1.61    1.67
  10   7  -6    0.66    1.69
  -9  -7   6   44.79    4.87
  -9   7   6   39.82    4.46
   9   7  -6   37.14    4.23
   9  -7  -6   34.72    4.62
   8  -7  -6   17.80    3.17
  -8  -7   6   17.22    3.18
   8   7  -6   17.38    3.14
  -8   7   6   17.99    3.07
   7  -7  -6    1.97    1.42
   7   7  -6    3.81    1.60
  -7   7   6    5.30    1.74
  -7  -7   6    2.77    1.52
  -6   7   6   54.32    4.51
  -6  -7   6   51.55    4.40
   6   7  -6   52.51    3.49
  -6  -7   6   73.13    5.10
   6   7  -6   61.66    4.75
   6  -7  -6   57.89    4.57
  -5  -7   6    6.03    1.84
  -5  -7   6    7.22    2.12
   5  -7  -6    4.04    1.48
  -5   7   6    3.45    1.39
  -5   7   6    5.57    1.35
   5   7  -6    7.55    1.45
   5   7  -6    5.44    1.69
   4  -7  -6   17.54    2.66
  -4  -7   6   18.73    3.03
   4   7  -6   17.40    2.05
   4   7  -6   18.00    2.72
  -4  -7   6   14.98    2.48
  -4   7   6   14.86    2.40
  -4   7   6   16.23    2.12
  -3  -7   6  112.89    7.06
  -3   7   6   88.47    5.82
   3   7  -6  108.20    6.19
   3   7  -6   99.66    5.21
  -3  -7   6   96.17    5.68
   3  -7  -6   96.48    5.75
  -3   7   6   92.43    5.15
   2  -7  -6    1.07    1.01
  -2   7   6    0.37    0.78
  -2  -7   6    0.17    0.81
  -2  -7   6    0.39    1.47
  -2   7   6    1.10    0.87
   2   7  -6    0.56    0.75
   2   7  -6    0.84    1.16
   1   7  -6  174.69    8.36
  -1   7   6  156.88    8.32
  -1  -7   6  154.89    7.61
  -1  -7   6  174.95   10.34
  -1   7   6  158.63    7.47
   1   7  -6  166.64    7.65
   1  -7  -6  162.44    6.88
   0  -7  -6   39.56    3.33
   0  -7   6   45.88    5.25
   0   7  -6   42.20    3.27
   0   7  -6   38.53    3.00
   0   7   6   38.08    2.93
   0  -7  -6   43.23    2.41
   0   7   6   44.67    3.24
   0  -7   6   40.84    2.93
  -1  -7  -6   18.78    1.57
   1   7   6   17.42    2.00
  -1  -7  -6   14.73    2.35
   1  -7   6   21.14    2.00
  -1   7  -6   16.57    2.11
   1   7   6   16.72    2.13
  -1   7  -6   16.80    2.19
   2   7   6   66.83    3.88
   2  -7   6   52.87    5.54
  -2  -7  -6   63.36    3.42
  -2   7  -6   62.13    4.05
   2   7   6   62.92    4.01
  -2   7  -6   68.02    4.01
  -2  -7  -6   60.98    4.38
   3   7   6    6.70    1.21
  -3   7  -6    5.60    1.35
  -3   7  -6    4.56    1.39
   3  -7   6    5.13    2.19
  -3  -7  -6    5.57    1.12
  -3  -7  -6    3.65    1.48
   3   7   6    5.36    1.41
  -4   7  -6   25.48    2.40
  -4   7  -6   24.58    2.75
  -4  -7  -6   27.98    2.22
  -4  -7  -6   26.40    3.34
   4  -7   6   24.30    4.26
  -5   7  -6   54.73    4.10
   5   7   6   69.97    4.61
  -5   7  -6   62.13    3.98
  -5  -7  -6   68.01    5.01
  -5  -7  -6   66.62    3.96
   5  -7   6   57.65    5.96
   6  -7   6    2.50    1.96
   6   7   6    0.90    1.13
  -6  -7  -6   -0.39    1.52
  -6  -7  -6    1.43    0.94
  -6   7  -6    1.39    0.98
  -6   7  -6    1.14    1.07
  -7  -7  -6   73.34    5.42
  -7   7  -6   67.45    4.48
  -7  -7  -6   67.66    4.45
   7  -7   6   67.03    6.62
   7   7   6   73.53    5.05
  -7   7  -6   56.78    4.42
  -8  -7  -6   10.51    2.77
   8   7   6   10.64    2.48
   8  -7   6    6.57    2.98
  -8  -7  -6    7.68    1.81
  -8   7  -6    9.91    2.03
  -8   7  -6    6.16    1.81
   9   7   6    4.88    1.88
  -9   7  -6    4.05    1.78
  -9  -7  -6    4.81    1.70
  -9  -7  -6    7.95    2.51
  -9   7  -6    6.01    1.89
   9  -7   6    6.05    2.97
  10   7   6   14.47    3.02
  10  -7   6   18.40    4.51
 -10   7  -6   14.16    2.70
 -10  -7  -6   15.34    3.38
 -10   7  -6   13.93    2.74
 -10  -7  -6   11.12    2.34
 -11  -7  -6    9.75    2.94
  11   7   6    8.82    2.45
 -11   7  -6    6.42    2.29
 -11  -7  -6    6.00    1.95
 -11   7  -6    5.65    2.03
 -12  -7  -6    6.77    2.26
  12   7   6    8.85    2.60
 -12  -7  -6   10.50    3.12
  12  -7   6   10.84    3.72
  12  -8  -6    8.27    2.99
 -12  -8   6    8.10    2.99
 -12   8   6    8.97    2.79
  12   8  -6    6.15    2.54
 -11  -8   6    0.87    1.84
  11   8  -6    0.73    1.73
  11  -8  -6    3.45    1.92
 -11   8   6    0.15    1.63
  10  -8  -6   30.39    4.66
 -10   8   6   30.08    4.18
  10   8  -6   30.17    4.20
 -10  -8   6   38.79    4.86
  -9   8   6    5.27    2.07
   9   8  -6    9.38    2.69
  -9  -8   6    6.90    2.46
   9  -8  -6    8.97    2.58
  -8   8   6    8.15    2.45
   8  -8  -6   12.66    3.03
  -8  -8   6   13.49    2.89
   8   8  -6   15.02    2.96
   7  -8  -6    8.62    2.35
   7   8  -6    7.57    2.28
  -7  -8   6   10.77    2.53
   6  -8  -6    1.76    1.36
  -6  -8   6    2.69    1.59
   6   8  -6    1.30    0.98
   6   8  -6   -0.07    1.10
  -6   8   6    1.00    1.18
  -6  -8   6    0.89    1.53
   5  -8  -6   28.88    3.63
  -5  -8   6   46.24    4.13
   5   8  -6   32.09    2.77
  -5  -8   6   30.38    3.62
   5   8  -6   39.69    3.92
  -5   8   6   33.12    3.34
  -5   8   6   34.37    2.88
   4  -8  -6   31.23    3.45
   4   8  -6   27.17    2.49
  -4  -8   6   29.58    3.37
  -4  -8   6   31.47    3.81
  -4   8   6   29.69    2.90
  -4   8   6   28.79    3.05
   4   8  -6   28.72    3.34
   3   8  -6    8.04    1.58
  -3  -8   6    6.04    1.64
   3  -8  -6    8.98    1.99
  -3   8   6    7.20    1.78
  -3   8   6    6.79    1.66
  -3  -8   6   10.29    2.49
   2  -8  -6  100.28    6.17
  -2   8   6  104.22    6.28
   2   8  -6  109.65    5.76
   2   8  -6  127.53    6.64
  -2   8   6  102.57    5.76
  -2  -8   6  103.85    5.95
  -2  -8   6  107.01    7.59
   1  -8  -6   16.65    2.59
  -1   8   6   17.24    2.25
   1   8  -6   19.85    2.49
  -1   8   6   17.86    2.30
   1   8  -6   18.19    2.33
  -1  -8   6   14.93    3.33
  -1  -8   6   18.85    2.44
   0   8  -6   44.00    3.38
   0   8   6   39.36    3.12
   0  -8   6   46.73    5.37
   0  -8   6   35.14    2.93
   0   8  -6   40.60    3.20
   0   8   6   36.12    3.10
  -1   8  -6   46.64    3.46
  -1   8  -6   51.15    3.46
   1  -8   6   34.13    4.98
   1   8   6   51.94    3.53
  -1  -8  -6   37.42    3.57
   1   8   6   54.61    3.50
  -2  -8  -6    7.16    1.90
  -2  -8  -6    7.38    1.14
  -2   8  -6    7.00    1.46
  -2   8  -6    7.35    1.65
   2  -8   6    5.96    2.46
   2   8   6    6.81    1.35
   2   8   6    8.31    1.76
  -3  -8  -6   12.67    1.54
  -3  -8  -6   11.24    2.48
   3  -8   6   12.59    3.31
   3   8   6   14.38    1.73
  -3   8  -6   13.41    1.85
   3   8   6   11.78    2.13
  -3   8  -6   13.13    2.22
  -4   8  -6   27.81    3.07
  -4  -8  -6   33.45    2.54
  -4  -8  -6   39.47    4.17
  -4   8  -6   33.34    2.77
   4  -8   6   33.52    4.99
  -5   8  -6    9.86    2.02
   5   8   6    9.75    2.11
  -5  -8  -6   11.15    1.69
  -5   8  -6   12.01    1.86
   5  -8   6   10.73    3.01
  -5  -8  -6   13.26    2.81
  -6   8  -6   55.20    4.25
   6   8   6   57.34    4.44
   6  -8   6   54.85    6.47
  -6  -8  -6   52.36    3.76
  -6  -8  -6   64.81    5.15
  -6   8  -6   56.53    3.97
  -7  -8  -6    1.63    1.13
  -7  -8  -6    5.08    2.25
   7   8   6    2.85    1.62
  -7   8  -6    2.20    1.43
   7  -8   6    4.22    2.71
  -7   8  -6    3.23    1.52
  -8  -8  -6   22.96    2.83
  -8  -8  -6   31.37    4.37
   8  -8   6   18.94    4.40
   8   8   6   26.80    3.53
  -8   8  -6   25.56    3.01
  -8   8  -6   14.49    2.72
  -9  -8  -6   17.56    2.66
   9  -8   6   20.59    4.61
  -9  -8  -6   27.79    4.10
   9   8   6   22.61    3.35
  -9   8  -6   14.26    2.81
 -10  -8  -6   -0.08    1.19
  10   8   6    0.18    1.42
  10  -8   6    1.85    2.79
 -10  -8  -6    1.13    2.14
 -10   8  -6   -0.91    1.38
 -11   8  -6    5.09    2.00
  11  -8   6   11.28    4.09
 -11  -8  -6    6.92    2.80
 -11  -8  -6    8.80    2.23
  11   8   6    6.00    2.25
 -12  -8  -6    2.25    1.72
  12   8   6    6.87    2.39
 -12   8  -6    7.65    2.47
 -12  -8  -6    9.19    3.18
  12   9  -6    6.74    2.88
 -12  -9   6    7.93    2.80
 -12   9   6    4.21    2.46
  12  -9  -6    7.09    2.84
  11  -9  -6    2.18    2.27
 -11  -9   6    1.45    2.03
 -11   9   6    5.21    2.18
  11   9  -6    3.48    2.06
 -10   9   6    0.31    1.70
  10   9  -6    0.32    1.71
 -10  -9   6    0.81    1.57
  10  -9  -6   -0.32    1.52
  -9   9   6    2.21    1.77
   9  -9  -6    0.60    1.55
   9   9  -6    1.81    1.68
  -9  -9   6    1.76    1.85
  -8   9   6   18.69    3.41
   8   9  -6   42.56    4.42
  -8  -9   6   36.51    4.41
   8  -9  -6   40.09    4.78
  -7   9   6    1.11    1.41
   7   9  -6    2.94    1.78
  -7  -9   6    0.61    1.47
   7  -9  -6    1.06    1.49
  -6   9   6   66.36    5.25
   6  -9  -6   68.44    5.33
   6   9  -6   72.52    5.40
   6   9  -6   69.08    4.37
  -6  -9   6   66.69    5.28
  -5   9   6   -0.20    1.03
  -5  -9   6    0.71    1.12
   5   9  -6    0.70    0.96
  -5  -9   6    0.81    1.48
   5  -9  -6   -0.44    0.99
   5   9  -6    1.45    1.47
  -5   9   6    0.27    1.00
  -4  -9   6   34.99    3.86
   4   9  -6   45.56    4.08
   4   9  -6   42.21    3.33
   4  -9  -6   45.14    4.08
  -4   9   6   38.55    3.42
  -4  -9   6   58.57    4.86
  -4   9   6   37.33    3.63
  -3  -9   6   13.73    2.57
  -3  -9   6   16.64    3.25
  -3   9   6   10.58    2.15
  -3   9   6   11.17    2.04
   3   9  -6   13.92    2.46
   3   9  -6   10.07    1.88
   3  -9  -6   10.87    2.30
  -2   9   6    0.56    1.08
   2  -9  -6    0.32    1.00
   2   9  -6    0.43    0.88
   2   9  -6    0.16    1.17
  -2   9   6    0.64    0.90
  -2  -9   6   -0.44    0.89
  -2  -9   6    0.34    1.57
  -1  -9   6   16.51    3.58
  -1  -9   6   21.55    2.65
   1   9  -6   21.43    2.63
  -1   9   6   14.92    2.40
  -1   9   6   18.74    2.46
   1  -9  -6   14.90    2.63
   1   9  -6   20.56    2.58
   0   9  -6   70.06    4.41
   0   9   6   62.68    4.36
   0   9   6   59.94    4.25
   0  -9   6   59.42    6.01
   0  -9   6   61.46    4.19
   0  -9  -6   64.03    4.86
   0   9  -6   73.56    4.50
   1  -9   6    3.30    2.23
  -1  -9  -6    1.12    1.20
   1   9   6    5.76    1.65
  -1   9  -6    4.79    1.40
  -1   9  -6    6.67    1.63
   1   9   6    5.17    1.35
  -2   9  -6   64.00    3.98
   2  -9   6   49.96    6.11
   2   9   6   65.68    4.03
  -2  -9  -6   43.92    4.30
  -2   9  -6   67.25    4.45
   2   9   6   70.62    4.54
   3   9   6    1.34    1.22
  -3   9  -6    1.30    0.98
  -3   9  -6    1.24    1.15
   3  -9   6    0.81    1.75
  -3  -9  -6    0.66    1.49
  -4   9  -6   32.14    3.40
  -4  -9  -6   39.10    4.31
   4  -9   6   35.91    5.30
  -4   9  -6   33.28    2.78
  -5   9  -6    6.87    1.81
   5  -9   6    4.35    2.39
  -5  -9  -6   10.19    2.79
   5   9   6    4.85    1.74
  -5   9  -6    7.64    1.61
  -5  -9  -6    7.22    1.56
  -6  -9  -6    0.85    1.84
   6  -9   6    4.05    2.56
   6   9   6    3.53    1.65
  -6   9  -6    0.93    1.28
  -6  -9  -6    1.29    1.13
  -7  -9  -6   26.13    4.05
   7   9   6   12.73    2.59
   7  -9   6   15.15    3.99
  -7   9  -6   12.64    2.53
  -7  -9  -6   16.10    2.35
  -8  -9  -6   27.61    3.09
   8   9   6   25.68    3.64
   8  -9   6   30.06    5.35
  -8  -9  -6   37.47    4.92
  -8   9  -6   12.88    2.62
   9  -9   6    5.39    2.92
   9   9   6    3.04    1.63
  -9   9  -6    0.81    1.48
  -9  -9  -6    1.56    2.00
  -9  -9  -6    0.56    1.32
 -10  -9  -6   26.65    3.48
 -10  -9  -6   38.40    5.00
  10   9   6   35.54    4.41
  10  -9   6   36.66    6.23
 -10   9  -6   30.85    4.00
  11  -9   6    3.54    3.23
 -11   9  -6    2.15    1.90
 -11  -9  -6    3.43    1.73
  11   9   6    2.28    1.87
 -11  -9  -6    2.08    2.35
 -11  10   6    1.28    1.72
  11 -10  -6    3.25    2.32
  11  10  -6    0.84    1.95
 -11 -10   6    2.12    1.92
  10 -10  -6   25.27    4.51
 -10 -10   6   23.24    4.07
 -10  10   6   21.84    3.95
  10  10  -6   25.09    4.01
  -9  10   6    0.70    1.63
   9 -10  -6    1.39    1.77
   9  10  -6   -0.59    1.60
  -9 -10   6    0.46    1.57
  -8  10   6    8.48    2.45
   8  10  -6   12.43    2.92
  -8 -10   6    8.57    2.52
   8 -10  -6    9.94    2.63
   7 -10  -6    1.12    1.55
   7  10  -6    2.63    1.76
  -7  10   6    0.19    1.38
  -7 -10   6    2.39    1.70
  -6 -10   6    1.02    1.41
   6 -10  -6   -1.29    1.20
   6  10  -6    0.33    1.52
   6  10  -6   -0.72    1.03
  -6  10   6   -0.01    1.14
  -5 -10   6    0.94    1.31
  -5 -10   6    0.95    1.65
   5  10  -6    0.65    1.53
   5 -10  -6    0.87    1.41
   5  10  -6    0.37    1.05
  -5  10   6    0.49    1.14
  -5  10   6    0.31    1.27
  -4 -10   6   43.06    4.84
   4  10  -6   34.40    3.34
  -4  10   6   36.55    3.65
  -4 -10   6   38.46    4.06
  -4  10   6   34.81    3.55
   4 -10  -6   35.31    4.16
   4  10  -6   45.54    4.04
  -3 -10   6    1.26    1.68
  -3  10   6   -0.27    0.99
  -3  10   6    1.36    1.25
   3  10  -6    2.24    1.16
   3  10  -6    1.06    1.46
  -3 -10   6    2.88    1.57
   3 -10  -6    1.44    1.26
  -2 -10   6  140.72    9.28
   2  10  -6  145.79    7.47
  -2  10   6  121.82    7.03
  -2  10   6  120.79    7.36
   2  10  -6  129.56    6.81
   2 -10  -6  119.27    7.46
  -2 -10   6  118.14    6.99
   1  10  -6    1.12    1.09
   1 -10  -6    0.42    1.17
  -1  10   6    0.64    0.96
  -1  10   6    0.97    1.30
  -1 -10   6   -0.87    1.68
   1  10  -6    1.30    1.18
  -1 -10   6    0.03    1.13
   0  10  -6   29.07    2.97
   0  10  -6   28.82    3.17
   0 -10   6   29.25    4.88
   0 -10  -6   25.04    3.58
   0  10   6   31.11    3.40
   0  10   6   28.21    2.84
   1  10   6    1.18    1.30
   1  10   6   -0.52    0.75
  -1  10  -6   -0.03    0.95
  -1  10  -6    0.08    0.95
   1 -10   6    0.98    1.65
  -1 -10  -6   -0.71    1.20
  -2 -10  -6    0.39    1.25
   2 -10   6    1.24    1.59
   2  10   6    2.53    1.06
   2  10   6    3.04    1.53
  -2  10  -6    1.70    1.24
  -3  10  -6    7.55    1.85
   3 -10   6    4.65    2.42
  -3 -10  -6    1.91    1.51
   3  10   6    7.28    1.95
   4 -10   6   19.58    4.20
  -4  10  -6   26.11    3.22
  -4 -10  -6   23.88    3.81
  -5  10  -6    2.33    1.42
   5  10   6    3.42    1.70
   5 -10   6    3.81    2.31
  -5 -10  -6    2.57    1.98
   6 -10   6   70.27    7.22
  -6 -10  -6   89.96    6.60
  -6  10  -6   72.20    5.31
   6  10   6   80.72    5.66
   7 -10   6    0.23    2.08
   7  10   6    1.54    1.44
  -7 -10  -6    1.61    1.90
  -7  10  -6    0.26    1.17
  -8 -10  -6   43.00    5.51
   8  10   6   36.34    4.37
   8 -10   6   34.85    6.08
   9 -10   6    2.63    2.57
   9  10   6    1.22    1.52
  -9  10  -6    1.79    1.75
  -9 -10  -6    2.88    2.44
 -10 -10  -6    3.28    1.57
 -10  10  -6    1.68    1.79
  10  10   6   -1.07    1.42
  10 -10   6    1.11    2.96
 -10 -10  -6    1.95    2.52
 -11 -10  -6    0.02    1.39
  11 -10   6    1.05    2.76
 -11 -10  -6   -1.10    1.94
  11  10   6   -1.64    1.46
 -11  10  -6    1.13    1.79
 -10  11   6    1.06    1.78
  10  11  -6   -0.01    1.84
  10 -11  -6    2.45    2.27
 -10 -11   6   -1.37    1.63
   9 -11  -6    4.97    2.37
  -9 -11   6    3.54    1.95
  -9  11   6   -0.04    1.23
   9  11  -6   -1.19    1.77
   8 -11  -6   14.10    3.18
  -8  11   6   16.61    3.44
   8  11  -6   18.36    3.45
  -8 -11   6   15.02    3.16
  -7 -11   6   -0.80    1.33
   7 -11  -6    1.01    1.49
  -7  11   6    1.36    1.60
   7  11  -6    0.77    1.78
   6 -11  -6   53.15    5.41
   6  11  -6   62.31    5.19
  -6  11   6   51.91    4.75
  -6 -11   6   48.05    5.00
   6  11  -6   52.29    4.09
   5  11  -6    2.96    1.65
   5 -11  -6    2.16    1.53
  -5  11   6    0.62    1.42
   5  11  -6    1.42    1.22
  -5 -11   6    1.22    1.48
  -5  11   6   -0.19    1.23
  -4  11   6   23.61    3.25
   4 -11  -6   19.91    3.38
  -4  11   6   23.54    3.38
  -4 -11   6   29.82    3.83
   4  11  -6   27.89    3.16
   4  11  -6   35.61    3.87
  -4 -11   6   34.52    4.45
  -3 -11   6    9.09    2.30
   3  11  -6   10.37    2.37
   3  11  -6    9.42    2.04
  -3  11   6    5.96    1.93
  -3 -11   6   11.16    3.21
  -3  11   6    9.75    2.25
   3 -11  -6    6.52    2.16
   2 -11  -6    0.63    1.29
  -2  11   6    1.46    1.22
   2  11  -6    0.55    1.13
  -2 -11   6    1.05    1.33
  -2 -11   6    2.26    2.24
  -2  11   6    1.23    1.32
  -1 -11   6   24.93    4.61
   1  11  -6   15.64    2.61
  -1  11   6   15.38    2.80
   1 -11  -6   13.74    2.85
  -1  11   6   18.29    2.68
   0 -11   6   40.54    5.77
   0  11  -6   39.95    3.55
   0 -11  -6   37.09    4.43
   0  11   6   43.81    4.23
   0  11   6   41.55    3.57
   1  11   6   -0.36    0.83
   1  11   6    0.10    1.33
  -1 -11  -6   -1.51    1.11
  -1  11  -6    0.37    1.08
   1 -11   6    2.36    2.27
  -2 -11  -6   77.10    6.04
   2 -11   6   76.80    7.29
  -2  11  -6   74.27    5.13
   2  11   6   77.93    5.46
   3 -11   6    1.94    2.13
   3  11   6    0.40    1.39
  -3 -11  -6    0.33    1.53
  -3  11  -6    0.43    1.31
  -4  11  -6   24.94    3.32
   4 -11   6   25.21    4.87
  -5 -11  -6    7.90    2.75
   5  11   6    3.27    1.82
  -5  11  -6    4.00    1.70
   5 -11   6    7.26    2.98
  -6 -11  -6    0.91    2.07
   6  11   6    0.33    1.48
   6 -11   6   -0.04    2.25
  -6  11  -6    0.38    1.31
  -7  11  -6   11.53    2.55
   7 -11   6   10.54    3.57
  -7 -11  -6   15.70    3.64
   7  11   6   17.35    3.20
   8  11   6   13.79    2.99
  -8  11  -6    2.65    1.69
  -8 -11  -6   15.73    3.74
   8 -11   6   16.10    4.23
  -9  11  -6   -0.23    1.56
  -9 -11  -6    2.29    2.20
   9 -11   6    1.01    2.65
   9  11   6   -0.06    1.56
  10 -11   6   25.23    5.64
 -10  11  -6   15.07    3.20
 -10 -11  -6   25.09    4.61
  10  11   6   21.41    3.82
 -10 -12   6    8.44    2.62
  10 -12  -6    9.24    3.04
  10  12  -6    6.04    2.79
 -10  12   6    6.32    2.65
  -9 -12   6    3.86    2.06
   9 -12  -6    0.83    2.01
  -9  12   6    2.05    1.95
   8 -12  -6    8.66    2.92
  -8  12   6    9.59    2.73
  -8 -12   6   10.42    2.74
   8  12  -6   15.48    3.37
   7 -12  -6    8.18    2.62
  -7  12   6    4.12    1.98
  -7 -12   6    4.98    2.16
   7  12  -6    7.50    2.51
  -6 -12   6   -0.23    1.49
   6 -12  -6    2.12    1.79
   6  12  -6    2.78    1.55
  -6  12   6    0.02    1.38
   5  12  -6   14.47    2.60
   5 -12  -6   13.02    3.06
  -5 -12   6   14.61    3.12
  -5  12   6   13.12    2.81
  -5  12   6   12.92    2.67
  -4  12   6   24.76    3.46
   4 -12  -6   21.52    3.68
  -4 -12   6   27.23    3.80
  -4 -12   6   32.96    4.56
  -4  12   6   23.03    3.43
   4  12  -6   20.63    2.97
  -3  12   6   10.79    2.53
   3  12  -6    6.64    1.86
   3 -12  -6    4.22    2.03
  -3 -12   6    7.74    2.18
  -3 -12   6    6.77    2.90
  -3  12   6    5.60    1.98
  -2  12   6   30.40    3.80
   2 -12  -6   28.23    4.19
  -2  12   6   31.05    3.65
   2  12  -6   29.64    3.40
  -2 -12   6   40.59    5.61
   1 -12  -6    1.56    1.87
  -1  12   6    3.04    1.86
  -1  12   6    3.48    1.55
   1  12  -6    2.26    1.42
  -1 -12   6    4.99    2.66
   0 -12  -6   17.15    3.42
   0  12   6   13.88    2.96
   0  12   6   19.86    2.79
   0  12  -6   16.24    2.72
   0 -12   6   18.09    4.32
   1  12   6   32.91    4.01
  -1  12  -6   29.53    3.45
   1 -12   6   31.35    5.38
   1  12   6   31.97    3.09
  -1 -12  -6   25.71    4.03
  -2 -12  -6    0.44    1.76
  -2  12  -6    1.45    1.42
   2  12   6   -0.10    1.51
   2 -12   6    1.56    2.43
  -3 -12  -6   23.62    4.14
  -3  12  -6   25.26    3.39
   3  12   6   22.38    3.53
  -4 -12  -6   20.93    3.94
   4 -12   6   23.51    4.93
  -4  12  -6   24.76    3.42
  -5 -12  -6   -0.46    1.69
  -5  12  -6    2.87    1.53
   5 -12   6    2.53    2.23
   5  12   6    1.44    1.73
   6 -12   6   16.34    4.20
  -6  12  -6   15.99    2.98
   6  12   6   12.66    2.92
  -6 -12  -6   24.12    4.40
   7 -12   6    2.29    2.70
  -7 -12  -6    0.49    2.51
   7  12   6    0.48    1.57
  -7  12  -6   -1.41    1.35
  -8  12  -6    2.65    1.56
   8  12   6    7.99    2.58
  -8 -12  -6   11.29    3.58
   8 -12   6    8.58    3.64
   9 -12   6    9.07    3.63
  -9  12  -6    9.09    2.73
  -9 -12  -6    8.29    3.24
   9  12   6   10.81    2.98
  -9  13   6   10.85    3.20
  -9 -13   6    7.73    2.69
   9 -13  -6    7.83    3.12
  -8  13   6    6.05    2.43
  -8 -13   6    3.60    2.22
   8 -13  -6    7.38    2.81
  -7  13   6    4.27    2.11
   7 -13  -6    5.22    2.50
  -7 -13   6    5.02    2.21
  -6 -13   6   16.99    3.38
   6 -13  -6   12.10    3.14
   6  13  -6   10.63    2.47
  -6  13   6   11.55    2.91
   5  13  -6    5.72    2.13
  -5  13   6    6.78    2.17
  -5 -13   6    6.35    2.24
   5 -13  -6   10.65    2.92
  -5  13   6    4.37    2.02
  -4 -13   6    6.34    2.34
  -4  13   6    2.30    1.93
  -4  13   6    2.96    1.68
   4 -13  -6    2.57    2.01
   4  13  -6    4.95    1.93
  -3  13   6   33.70    4.06
  -3 -13   6   45.20    5.72
   3 -13  -6   32.11    4.58
   3  13  -6   27.72    3.51
  -3  13   6   33.56    4.18
   2  13  -6    0.69    1.16
   2 -13  -6   -0.32    1.53
  -2 -13   6    1.82    2.34
  -2  13   6    0.14    1.61
  -2  13   6    0.38    1.34
   1  13  -6   21.62    3.17
   1 -13  -6   17.53    3.52
  -1  13   6   22.86    3.27
  -1  13   6   24.29    3.77
  -1 -13   6   32.06    5.42
   0  13   6   11.40    2.35
   0 -13  -6   10.70    2.91
   0 -13   6   15.66    4.30
   0  13   6   13.40    3.07
   0  13  -6   11.41    2.37
  -1  13  -6    8.55    2.24
   1 -13   6   11.62    3.69
   1  13   6    9.55    2.54
  -1 -13  -6    8.22    2.58
   2  13   6   34.73    4.47
  -2  13  -6   24.14    3.41
  -2 -13  -6   28.32    4.53
   2 -13   6   36.04    6.03
  -3  13  -6    0.16    1.27
   3  13   6    2.98    1.99
   3 -13   6    2.59    2.51
  -3 -13  -6    1.11    2.03
   4 -13   6    7.69    3.14
  -4 -13  -6   10.21    3.00
  -4  13  -6    8.26    2.21
   4  13   6    1.95    1.44
  -5 -13  -6   17.95    3.91
  -5  13  -6   19.38    3.17
   5 -13   6   13.99    3.97
   5  13   6   18.60    3.51
   6  13   6    1.31    1.78
  -6  13  -6   -0.80    1.46
  -6 -13  -6    1.30    1.71
   6 -13   6    4.50    2.76
   7  13   6   18.05    3.50
  -7 -13  -6   20.45    4.35
  -7  13  -6   12.21    2.91
   7 -13   6   13.03    4.15
  -8 -13  -6    6.50    2.95
  -8  13  -6   -0.67    1.08
   8  13   6    5.68    2.20
   8 -13   6    4.37    3.14
  -7  14   6   19.44    3.78
   7 -14  -6   19.57    4.20
  -7 -14   6   19.95    3.72
   6  14  -6    1.00    1.48
  -6  14   6   -0.15    1.62
   6 -14  -6    1.53    2.17
  -6 -14   6    0.77    1.71
   5  14  -6   23.75    3.43
  -5  14   6   15.45    3.25
  -5 -14   6   20.48    3.59
   5 -14  -6   19.89    4.18
  -5  14   6   17.50    3.35
  -4  14   6   -0.47    1.88
   4 -14  -6    1.00    2.06
  -4  14   6    1.44    1.61
   4  14  -6    1.44    1.51
  -3  14   6    2.32    1.77
  -3 -14   6    6.49    3.14
  -3  14   6    2.46    2.15
   3  14  -6    3.18    1.74
   3 -14  -6    3.17    2.16
   2 -14  -6    3.05    2.13
  -2 -14   6    4.11    3.08
  -2  14   6    1.58    2.02
  -2  14   6    2.73    1.72
   2  14  -6    1.01    1.52
   1 -14  -6    1.68    1.95
  -1  14   6    0.94    1.49
  -1 -14   6    4.98    3.04
  -1  14   6    2.71    2.10
   1  14  -6    2.25    1.52
   0 -14   6    2.88    2.68
   0 -14  -6    2.70    2.05
   0  14   6    3.96    1.66
   0  14  -6    1.29    1.49
   0  14   6    1.39    2.14
   1  14   6   35.71    4.71
  -1  14  -6   41.68    4.25
   1 -14   6   44.72    6.68
  -1 -14  -6   32.45    4.96
  -2  14  -6    0.17    1.26
   2  14   6    1.35    1.94
   2 -14   6    1.79    2.77
  -2 -14  -6    2.23    1.98
  -3 -14  -6   43.38    5.61
   3  14   6   40.15    4.99
   3 -14   6   40.13    6.46
  -3  14  -6   39.81    4.33
  -4  14  -6    0.64    1.43
   4  14   6   -0.09    1.53
   4 -14   6    1.74    2.51
  -4 -14  -6    0.04    2.45
  -5 -14  -6    4.98    2.95
   5  14   6    5.75    2.59
  -5  14  -6    2.66    1.77
   5 -14   6    2.61    3.02
  -6  14  -6    1.68    1.71
   6 -14   6    2.94    2.86
   6  14   6    3.41    2.42
  -6 -14  -6    1.17    2.56
   7 -14   6    2.34    2.81
   7  14   6    3.56    2.16
  -7  14  -6    1.71    1.76
  -7 -14  -6    0.88    1.96
  -6 -15   6    0.04    1.76
  -6  15   6    1.01    1.65
   6 -15  -6    0.29    2.20
   5 -15  -6    5.44    2.68
   5  15  -6    5.64    2.09
  -5  15   6    6.98    2.33
  -5  15   6    3.23    2.36
  -4  15   6    0.53    1.58
   4  15  -6    1.73    1.60
  -4  15   6    4.62    2.40
   4 -15  -6    2.05    2.07
  -3  15   6   18.79    3.65
  -3  15   6   18.14    3.33
   3  15  -6   18.70    3.24
   3 -15  -6   16.71    3.90
   2  15  -6   -0.52    1.34
  -2  15   6   -0.55    1.47
  -2  15   6    3.45    2.30
   2 -15  -6    1.89    1.96
  -2 -15   6    1.58    2.60
   1  15  -6   20.10    3.32
  -1  15   6   23.95    3.52
   1 -15  -6   18.93    3.88
  -1  15   6   20.64    3.73
  -1 -15   6   23.64    5.24
   0 -15  -6    2.98    2.35
   0  15  -6    1.41    1.51
   0 -15   6    2.73    2.85
   0  15   6    1.63    2.36
   1  15   6   11.60    3.20
  -1  15  -6   12.04    2.65
  -1 -15  -6   11.72    3.16
   1 -15   6   12.30    4.09
   2 -15   6    0.56    2.86
   2  15   6    1.41    2.07
  -2  15  -6    0.31    1.54
  -2 -15  -6    1.11    2.00
  -3  15  -6    3.61    1.80
  -3 -15  -6    3.68    2.21
   3 -15   6    5.91    3.33
   4  15   6    1.05    1.71
   4 -15   6    1.76    2.41
  -4 -15  -6   -0.22    1.90
  -4  15  -6    0.79    1.39
  -5  15  -6   16.30    3.11
  -5 -15  -6   21.28    4.72
   5  15   6   17.84    3.90
   5 -15   6   17.06    5.06
  -6 -15  -6   -1.18    2.65
   6  15   6    1.19    2.25
  -6  15  -6   -0.51    1.66
   6 -15   6    3.69    2.61
   3  16  -6    3.05    1.83
  -3  16   6    2.84    1.82
  -3  16   6    0.54    2.33
   3 -16  -6    1.01    2.26
  -2 -16   6    5.96    3.43
   2 -16  -6    0.91    2.04
   2  16  -6   -0.22    1.61
  -2  16   6    1.03    1.67
  -2  16   6   -0.50    2.05
  -1  16   6    4.59    2.59
  -1 -16   6    5.05    3.43
   1 -16  -6    6.83    2.80
   1  16  -6    3.04    1.75
   0  16   6    2.45    2.28
   0 -16   6    4.92    3.48
   0  16  -6    2.63    1.58
   0 -16  -6    2.68    2.54
   1  16   6   15.36    3.70
   1 -16   6   13.94    4.67
  -1 -16  -6   16.25    3.76
  -1  16  -6   12.73    2.71
   2 -16   6   -0.34    2.80
  -2 -16  -6    1.45    2.10
   2  16   6   -0.41    2.31
  -2  16  -6   -0.40    1.66
   3 -16   6   11.27    4.22
   3  16   6    9.38    3.28
  -3  16  -6    8.93    2.48
  -3 -16  -6   15.48    3.72
 -14   0   7    0.72    2.63
  14   0  -7    1.47    2.02
  13   0  -7   20.93    4.01
 -13   0   7   20.05    4.44
 -12   0   7   -0.42    2.01
  12   0  -7    0.97    1.87
 -11   0   7   37.01    5.01
  11   0  -7   39.03    4.72
 -10   0   7    0.93    1.61
  10   0  -7    0.86    1.55
 -10   0   7    0.71    1.23
   9   0  -7   13.75    2.84
  -9   0   7   12.69    2.85
  -9   0   7   16.06    2.74
  -8   0   7    0.28    1.24
  -8   0   7    0.32    1.10
   8   0  -7   -0.63    1.18
   7   0  -7   16.74    2.85
  -7   0   7   18.40    2.86
  -7   0   7   15.11    2.53
  -6   0   7   -0.23    0.74
   6   0  -7   -0.63    0.84
  -6   0   7    0.12    0.90
   5   0  -7  270.68   12.74
  -5   0   7  274.13   11.83
  -5   0   7  268.17   13.13
  -4   0   7    1.42    0.77
  -4   0   7    0.18    0.91
   4   0  -7   -0.20    0.77
  -3   0   7  256.90   10.67
   3   0  -7  255.54   11.90
   2   0  -7   -0.24    0.67
  -2   0   7    0.24    0.45
  -2   0   7    0.04    0.82
  -2   0   7    0.10    0.50
  -1   0   7   74.74    3.47
  -1   0   7   65.61    4.76
   1   0  -7   71.07    3.60
   1   0  -7   71.19    4.47
   0   0   7    0.52    0.83
   0   0  -7    0.54    0.46
   0   0  -7   -0.17    0.58
   0   0   7   -0.34    0.55
  -1   0  -7   42.77    2.32
   1   0   7   44.48    2.90
  -1   0  -7   41.57    3.03
   1   0   7   47.58    3.72
   2   0   7    0.63    0.70
   2   0   7    0.15    0.83
  -2   0  -7    0.27    0.52
  -2   0  -7    0.83    0.47
  -3   0  -7  199.15    7.64
  -3   0  -7  179.33    8.45
   3   0   7  183.74    9.74
   3   0   7  183.94    8.44
  -4   0  -7    0.02    0.56
   4   0   7    0.45    0.89
  -4   0  -7    1.18    0.66
   4   0   7    0.37    0.93
  -6   0  -7    1.31    0.74
   6   0   7    0.46    1.11
  -6   0  -7   -0.20    0.66
   6   0   7    0.35    1.25
  -7   0  -7   63.50    4.31
   7   0   7   70.58    4.89
  -8   0  -7   -0.46    0.88
   8   0   7   -0.48    1.07
   9   0   7    1.91    1.53
  -9   0  -7    1.31    1.30
  10   0   7    0.08    1.46
 -10   0  -7   -0.35    0.98
 -11   0  -7   16.44    2.84
  11   0   7   33.64    4.11
 -12   0  -7    0.79    1.07
  12   0   7    1.79    1.64
  13   0   7   23.47    3.94
 -14  -1   7    3.08    3.06
  14   1  -7    4.03    2.28
 -14   1   7   -0.75    1.93
  14  -1  -7    2.27    2.42
  13  -1  -7    3.44    2.16
 -13  -1   7    3.78    2.72
  13   1  -7    7.42    2.73
 -13   1   7    2.55    2.45
  12  -1  -7    7.03    2.53
 -12  -1   7    8.74    3.06
  12   1  -7    7.86    2.60
 -12   1   7    3.35    2.53
  11   1  -7    7.75    2.25
 -11  -1   7   10.45    2.92
  11  -1  -7    7.57    2.53
 -11   1   7    7.99    2.95
 -11   1   7    7.26    2.21
 -10   1   7    0.64    1.51
 -10  -1   7    0.15    1.57
 -10   1   7    0.88    1.31
  10   1  -7    0.87    1.39
  10  -1  -7    2.85    1.74
 -10  -1   7    2.18    1.49
   9  -1  -7   47.62    4.50
  -9  -1   7   55.47    4.80
  -9  -1   7   45.35    4.12
  -9   1   7   46.04    4.81
   9   1  -7   47.26    4.40
  -9   1   7   42.08    3.98
  -8   1   7   -0.28    1.03
  -8  -1   7    1.61    1.27
   8  -1  -7    0.73    1.33
  -8  -1   7    1.26    1.23
   8   1  -7    0.66    1.26
  -8   1   7    0.37    1.10
  -7   1   7   78.98    5.84
  -7  -1   7  100.89    6.14
   7   1  -7   89.54    6.09
  -7   1   7  102.38    6.09
   7  -1  -7   96.61    6.31
  -7  -1   7   99.72    6.30
  -6  -1   7    0.64    1.04
   6   1  -7    2.28    1.27
   6  -1  -7    1.27    1.20
  -6   1   7    0.24    1.01
  -6  -1   7    2.04    1.11
  -6   1   7    0.69    0.94
  -5   1   7   57.31    3.91
  -5  -1   7   59.08    4.45
  -5   1   7   57.54    4.35
   5   1  -7   58.81    4.41
  -5  -1   7   58.08    3.99
   5  -1  -7   52.41    4.29
  -4   1   7   51.60    3.48
  -4  -1   7   51.90    4.11
  -4  -1   7   48.75    3.42
   4  -1  -7   54.65    4.12
   4   1  -7   52.83    4.12
  -4   1   7   48.85    3.89
  -3  -1   7    9.88    0.80
  -3  -1   7    8.59    1.92
   3   1  -7   10.80    2.05
  -3   1   7    7.47    0.61
  -3   1   7    8.35    1.50
  -3  -1   7    9.21    1.51
  -3   1   7    3.08    1.12
   3  -1  -7    8.00    1.76
  -2   1   7   11.16    2.00
   2  -1  -7   10.31    1.48
  -2   1   7   10.81    0.95
   2  -1  -7   10.01    1.82
   2   1  -7   10.13    1.91
  -2  -1   7   10.48    1.43
   1   1  -7  212.45    8.27
  -1  -1   7  210.51   10.91
  -1   1   7  216.32    8.29
   1  -1  -7  220.57    9.88
  -1  -1   7  204.17    8.53
   1   1  -7  205.85    9.90
  -1   1   7  208.69   10.62
   1  -1  -7  227.50    8.84
   0  -1  -7   -0.15    0.50
   0   1   7    0.55    0.75
   0   1  -7    0.18    0.37
   0   1  -7    0.00    0.46
   0  -1   7    0.17    0.75
   0   1   7    0.53    0.61
   0  -1  -7   -0.23    0.36
   0   1  -7   -0.25    0.57
  -1   1  -7  289.97   12.52
   1   1   7  267.92   13.64
  -1   1  -7  306.57   10.83
  -1  -1  -7  306.67   11.35
  -1  -1  -7  282.59   12.34
   1  -1   7  287.88   14.16
   1   1   7  309.41   11.67
  -2   1  -7   14.59    1.06
  -2   1  -7   10.93    1.67
   2  -1   7   11.43    1.75
   2   1   7   12.52    1.78
   2  -1   7   15.01    2.52
  -2  -1  -7   14.77    1.47
  -2  -1  -7   12.28    1.67
   2   1   7   15.92    2.26
   3   1   7   41.45    3.06
  -3  -1  -7   38.85    2.74
   3  -1   7   36.12    2.96
  -3   1  -7   45.65    2.13
   3   1   7   34.46    3.08
   3  -1   7   38.69    3.63
  -3   1  -7   34.43    2.75
  -3  -1  -7   34.70    2.40
  -4  -1  -7   70.69    3.70
   4   1   7   61.95    4.10
  -4  -1  -7   58.81    3.74
  -4   1  -7   56.82    3.74
   4  -1   7   70.20    5.22
   4  -1   7   59.41    4.10
   4   1   7   55.03    4.17
   5  -1   7   28.54    3.69
  -5   1  -7   12.75    1.97
  -5  -1  -7   27.59    2.40
  -5   1  -7   27.79    1.74
  -5  -1  -7   31.30    2.37
   5   1   7   25.96    2.89
  -6  -1  -7   24.43    2.39
  -6  -1  -7   29.99    2.57
   6  -1   7   36.27    4.23
   6   1   7   28.52    2.85
   6   1   7   21.26    2.91
   6  -1   7   23.63    3.04
   7   1   7  116.57    6.92
   7  -1   7  128.43    7.25
  -7  -1  -7  140.93    6.42
  -7  -1  -7  119.85    6.63
  -8   1  -7    0.62    0.87
   8  -1   7    0.90    1.32
  -8  -1  -7    0.57    0.88
   8   1   7    1.25    1.29
   9  -1   7   76.75    5.55
  -9   1  -7   60.27    4.55
  -9  -1  -7   64.33    4.57
   9   1   7   71.85    5.22
 -10   1  -7    1.60    1.34
 -10  -1  -7    1.42    1.26
  10   1   7    1.80    1.65
  10  -1   7    0.92    1.60
  11   1   7   16.09    3.14
 -11   1  -7   13.66    2.72
  11  -1   7   14.13    3.22
 -11  -1  -7   11.77    2.45
 -12  -1  -7    4.13    1.92
 -12   1  -7    1.57    1.54
  12   1   7    2.56    1.82
  12  -1   7    3.75    2.02
  13   1   7    1.49    1.85
 -13  -1  -7   -0.30    1.52
  13  -1   7    0.46    1.78
 -13   1  -7   -0.30    1.48
  14   2  -7    5.21    2.25
 -14  -2   7    3.34    2.98
 -14   2   7    3.53    2.83
  14  -2  -7    2.59    2.25
 -13  -2   7   16.28    4.08
  13  -2  -7   13.07    3.34
  13   2  -7   13.89    3.26
  12   2  -7    0.06    1.51
 -12   2   7    0.53    1.97
 -12  -2   7    0.71    1.88
  12  -2  -7    0.61    1.91
 -11   2   7   22.18    3.33
 -11  -2   7   24.22    4.26
  11  -2  -7   18.59    3.52
 -11   2   7   16.92    3.64
  11   2  -7   23.51    3.82
  10  -2  -7   15.96    3.25
  10   2  -7   12.98    2.82
 -10  -2   7   19.09    3.64
 -10   2   7   13.49    2.71
 -10   2   7   14.04    3.17
  -9   2   7    9.26    2.38
  -9  -2   7   11.38    2.67
  -9   2   7    8.72    2.23
   9   2  -7    8.27    2.20
   9  -2  -7   10.74    2.60
  -9  -2   7   10.01    2.27
  -8  -2   7   43.67    4.02
   8  -2  -7   45.37    4.25
   8   2  -7   43.32    4.39
  -8   2   7   38.11    3.77
  -8  -2   7   47.30    4.27
  -8   2   7   48.49    4.15
   7  -2  -7   12.84    2.61
  -7  -2   7   14.79    2.69
  -7   2   7   14.87    2.52
   7   2  -7   11.81    2.46
  -7  -2   7   15.40    2.55
  -7   2   7   14.92    2.56
  -6  -2   7   51.53    3.97
  -6  -2   7   50.17    4.16
  -6   2   7   50.01    3.82
   6   2  -7   48.80    4.09
  -6   2   7   48.92    4.05
   6  -2  -7   46.14    4.11
  -5  -2   7  110.15    6.64
   5  -2  -7   99.18    6.24
   5   2  -7  105.23    6.35
  -5   2   7  101.97    6.31
  -5   2   7   95.74    5.62
  -5  -2   7  109.20    5.96
  -4  -2   7    0.34    0.80
   4  -2  -7   -0.64    0.86
  -4   2   7    0.39    0.63
   4   2  -7    0.74    0.39
   4   2  -7    0.34    0.89
  -4   2   7    0.65    0.74
  -4  -2   7    1.78    1.16
   3  -2  -7  121.43    7.03
  -3  -2   7  132.23    7.78
   3   2  -7  147.63    7.57
  -3   2   7  124.38    7.26
   3   2  -7  135.07    5.27
  -3  -2   7  143.11    6.46
  -3   2   7  128.18    5.10
   3  -2  -7  134.88    6.53
   2   2  -7   39.51    3.33
   2  -2  -7   44.51    3.28
  -2  -2   7   30.08    3.29
  -2   2   7   42.84    2.14
  -2   2   7   42.00    3.35
   2   2  -7   43.14    2.28
   2  -2  -7   52.08    3.07
  -2  -2   7   39.42    2.66
  -1   2   7   92.63    4.18
   1   2  -7   96.28    5.54
  -1  -2   7   90.31    6.06
  -1  -2   7   87.53    4.27
  -1   2   7   88.03    5.50
   1  -2  -7  103.06    4.80
   1   2  -7   94.41    4.23
   1  -2  -7   94.02    5.20
   0  -2  -7  155.18    6.46
   0   2   7  144.27    6.23
   0  -2  -7  142.24    6.89
   0  -2   7  135.57    8.15
   0   2   7  141.68    7.64
   0  -2   7  139.52    5.80
   0   2  -7  148.61    6.19
   1  -2   7   28.98    3.43
  -1  -2  -7   27.23    2.29
   1   2   7   29.29    2.67
   1   2   7   29.05    2.24
  -1   2  -7   32.71    1.53
  -1  -2  -7   30.04    2.15
  -1   2  -7   30.37    2.19
  -2  -2  -7   28.47    2.13
  -2   2  -7   28.09    2.21
   2  -2   7   29.68    3.60
  -2  -2  -7   27.76    2.27
   2   2   7   24.55    2.44
   2   2   7   26.24    2.29
  -3   2  -7  232.64    9.56
   3  -2   7  234.86   12.35
   3   2   7  218.77   10.85
  -3  -2  -7  221.55    9.50
   3   2   7  227.88    9.84
  -3  -2  -7  227.20    9.93
   4  -2   7    3.64    1.89
  -4   2  -7    2.70    0.97
   4   2   7    2.24    1.14
  -4  -2  -7    3.05    1.10
  -4  -2  -7    1.42    0.79
  -4   2  -7    2.11    0.92
  -5  -2  -7   86.39    5.14
  -5  -2  -7  117.37    5.58
   5  -2   7  110.26    7.60
   5   2   7   87.47    5.48
  -5   2  -7   88.84    5.24
  -6  -2  -7   48.84    3.41
  -6   2  -7   33.01    2.93
   6  -2   7   41.79    5.08
  -6  -2  -7   35.10    2.93
   6   2   7   32.67    3.40
   6  -2   7   39.00    3.83
  -7  -2  -7   37.42    3.16
   7  -2   7   30.00    3.62
  -7  -2  -7   29.76    2.80
   7   2   7   29.30    3.43
  -7   2  -7   32.00    2.94
   7  -2   7   47.50    5.51
   8  -2   7   35.35    4.01
  -8  -2  -7   26.97    2.98
  -8  -2  -7   38.46    3.13
  -8   2  -7   27.31    3.04
   8  -2   7   44.69    5.56
   8   2   7   29.44    3.58
  -9  -2  -7    3.46    1.46
  -9   2  -7    3.28    1.46
   9   2   7    2.10    1.60
   9  -2   7    2.87    1.76
 -10   2  -7    9.70    2.11
 -10  -2  -7    7.76    1.93
  10   2   7    5.73    2.04
  10  -2   7    9.75    2.58
 -11  -2  -7   21.35    3.07
  11  -2   7   25.27    3.96
  11   2   7   23.58    3.67
 -11   2  -7   19.12    3.06
 -12   2  -7    2.65    1.81
 -12  -2  -7    1.61    1.49
  12  -2   7    1.33    1.83
  12   2   7    2.28    1.73
  13   2   7   19.58    3.79
 -13   2  -7   12.63    2.98
 -13  -2  -7   12.43    2.60
  13  -2   7   16.75    3.80
 -13   3   7    1.36    2.40
  13   3  -7    5.48    2.28
 -13  -3   7   -0.28    1.75
  13  -3  -7    3.13    2.41
  12   3  -7   26.13    4.25
 -12  -3   7   28.76    4.74
  12  -3  -7   26.45    4.32
 -12   3   7   28.52    3.98
  11  -3  -7   -0.44    1.82
 -11  -3   7    1.28    1.73
  11   3  -7    0.07    1.32
 -11   3   7    2.37    1.71
 -11   3   7    0.54    1.78
  10  -3  -7   19.63    3.60
 -10  -3   7   29.89    4.46
 -10   3   7   23.33    3.92
 -10   3   7   24.48    3.47
  10   3  -7   19.18    3.45
  -9   3   7   19.79    3.39
  -9  -3   7   25.66    3.88
  -9   3   7   20.96    3.12
   9   3  -7   22.01    3.43
   9  -3  -7   16.76    3.29
  -9  -3   7   20.75    3.06
   8  -3  -7    4.83    1.79
   8   3  -7    2.82    1.54
  -8   3   7    3.16    1.48
  -8   3   7    0.77    1.26
  -8  -3   7    4.77    1.86
  -8  -3   7    2.30    1.50
  -7   3   7   35.34    3.51
  -7  -3   7   39.37    4.09
  -7  -3   7   43.50    3.76
  -7   3   7   38.60    3.57
   7  -3  -7   39.13    4.12
   7   3  -7   38.66    3.74
  -6  -3   7   27.30    3.26
  -6  -3   7   25.08    3.13
  -6   3   7   20.19    2.84
  -6   3   7   25.72    3.04
   6  -3  -7   21.99    3.04
   6   3  -7   22.16    3.04
  -5   3   7   13.40    2.37
  -5  -3   7   15.17    2.64
  -5  -3   7   15.16    2.34
   5   3  -7   11.35    2.27
   5  -3  -7   15.24    2.56
   4  -3  -7  133.35    6.83
   4   3  -7  133.78    5.44
  -4  -3   7  146.20    8.08
  -4   3   7  111.07    7.16
   4  -3  -7  129.07    7.28
   4   3  -7  134.61    7.51
  -4   3   7  138.21    5.27
  -4  -3   7  134.30    6.74
   3   3  -7    5.65    0.92
   3   3  -7    4.21    1.35
  -3   3   7    4.53    1.39
   3  -3  -7    5.03    1.29
  -3   3   7    5.62    0.84
   3  -3  -7    6.79    1.57
  -3  -3   7    6.54    1.86
  -3  -3   7    4.65    1.22
   2   3  -7  121.22    5.19
  -2   3   7  120.39    4.99
   2  -3  -7  120.94    6.34
  -2  -3   7  115.29    7.26
   2  -3  -7  124.92    5.99
  -2   3   7  120.99    6.74
  -2  -3   7  113.20    5.54
  -1   3   7   63.58    3.23
   1   3  -7   61.46    3.32
  -1  -3   7   61.67    3.29
  -1   3   7   61.34    4.23
   1  -3  -7   71.33    4.10
   1  -3  -7   68.18    3.82
   0  -3   7    3.25    1.43
   0  -3  -7    4.37    1.09
   0   3   7    1.69    0.70
   0   3  -7    3.41    0.83
   0  -3   7    3.11    0.67
   0   3  -7    3.20    1.20
   0   3   7    2.77    1.09
   0  -3  -7    2.86    0.95
  -1   3  -7   98.98    3.66
  -1  -3  -7   98.66    4.94
   1   3   7   93.12    4.76
  -1   3  -7   95.11    4.66
   1   3   7   90.52    5.36
   1  -3   7   93.67    6.52
  -1   3  -7   91.34    5.20
  -1  -3  -7   90.37    4.76
  -2   3  -7   43.70    3.24
   2   3   7   51.53    3.34
  -2  -3  -7   49.40    3.16
   2   3   7   49.16    3.43
  -2   3  -7   46.39    3.02
  -2  -3  -7   52.15    3.14
   2  -3   7   43.13    4.34
  -3   3  -7    7.85    1.44
  -3   3  -7    5.97    1.33
   3  -3   7    8.30    2.31
  -3  -3  -7    7.07    1.44
   3   3   7    7.24    1.52
   3   3   7    8.16    1.47
  -3  -3  -7    9.52    1.43
  -4   3  -7  138.18    6.99
   4  -3   7  140.39    9.41
   4   3   7  141.05    7.20
   4   3   7  140.57    7.12
  -4  -3  -7  141.17    6.88
  -4  -3  -7  153.81    7.14
  -4   3  -7  148.46    6.88
   5   3   7    0.97    0.75
  -5  -3  -7    1.66    0.80
   5   3   7    1.43    0.81
  -5   3  -7    0.74    0.76
  -5  -3  -7    2.46    1.23
  -5   3  -7    1.16    0.89
   5  -3   7    1.63    1.76
   6   3   7   83.99    5.36
  -6   3  -7   88.40    5.18
   6  -3   7   83.26    7.22
  -6   3  -7   84.69    5.00
  -6  -3  -7  102.47    5.55
  -6  -3  -7   79.09    4.87
   7   3   7   11.25    2.29
   7  -3   7   17.84    3.85
  -7  -3  -7   13.37    2.30
  -7  -3  -7   10.06    1.93
  -7   3  -7   10.78    1.99
   8  -3   7    0.52    2.40
   8  -3   7    0.03    1.23
  -8  -3  -7   -0.34    1.20
  -8   3  -7    1.01    1.15
   8   3   7    0.30    1.12
  -8  -3  -7   -0.01    0.88
   9   3   7   39.38    4.24
  -9  -3  -7   44.60    3.79
  -9   3  -7   36.71    3.52
 -10  -3  -7   14.84    2.53
  10   3   7   16.64    3.09
  10  -3   7   14.72    3.18
 -10   3  -7   18.83    2.81
  11  -3   7    8.27    2.73
 -11  -3  -7    7.32    2.12
 -11   3  -7    8.56    2.33
  11   3   7   10.19    2.60
  12  -3   7   24.76    4.29
  12   3   7   26.99    4.09
 -12  -3  -7   24.64    3.39
 -12   3  -7   23.91    3.48
 -13  -3  -7    1.60    1.36
  13   3   7    2.09    2.01
  13  -3   7    1.56    2.23
 -13   3  -7    0.16    1.84
 -13   4   7    3.09    2.69
  13   4  -7    1.72    1.80
 -13  -4   7    4.29    2.48
 -12  -4   7   -0.61    1.68
 -12   4   7    0.63    1.66
  12   4  -7    0.41    1.73
 -12   4   7    1.15    2.11
  12  -4  -7    1.35    2.30
  11  -4  -7    4.97    2.29
  11   4  -7    4.19    2.05
 -11   4   7    3.27    1.85
 -11  -4   7    5.80    2.38
 -11   4   7    0.11    1.51
  10  -4  -7   27.26    4.12
  10   4  -7   30.34    4.10
 -10  -4   7   29.04    4.39
 -10   4   7   29.02    3.85
 -10   4   7   25.14    3.97
   9   4  -7    0.68    1.51
  -9   4   7   -0.37    1.43
   9  -4  -7    0.60    1.54
  -9  -4   7   -0.77    1.30
  -9   4   7    1.49    1.37
  -8   4   7   89.44    6.33
  -8   4   7   89.93    6.16
  -8  -4   7  101.47    6.72
   8  -4  -7   90.73    6.54
   8   4  -7  100.76    6.60
  -8  -4   7  105.70    6.53
   7   4  -7   14.01    2.63
  -7  -4   7   15.32    2.71
   7  -4  -7   14.62    2.76
  -7  -4   7   17.06    2.92
  -7   4   7   14.73    2.63
  -6  -4   7   62.77    4.74
  -6   4   7   52.17    4.24
   6  -4  -7   42.55    4.15
   6   4  -7   46.61    4.10
   6  -4  -7   53.78    4.26
  -6  -4   7   53.38    4.26
  -5  -4   7   23.15    2.88
  -5  -4   7   24.08    3.21
   5  -4  -7   20.76    2.93
  -4  -4   7    2.66    1.09
   4   4  -7    5.70    0.99
  -4   4   7    4.80    1.46
   4  -4  -7    4.76    1.54
   4  -4  -7    7.18    1.65
  -4   4   7    6.44    0.99
  -4  -4   7    6.52    1.93
   4   4  -7    3.70    1.46
   3   4  -7    4.16    0.92
  -3  -4   7    3.50    1.62
   3  -4  -7    3.84    1.33
   3   4  -7    3.57    1.40
   3  -4  -7    4.31    1.34
  -3  -4   7    3.90    1.20
  -3   4   7    5.36    0.97
  -3   4   7    4.72    1.40
  -2   4   7   98.77    4.63
   2   4  -7  104.21    6.13
  -2  -4   7  103.51    5.16
   2  -4  -7  114.81    5.70
   2  -4  -7  107.57    5.65
  -2   4   7  104.85    6.13
   2   4  -7   99.61    4.82
  -2  -4   7  100.63    6.72
   1  -4  -7    0.98    0.83
  -1   4   7    0.70    0.78
   1   4  -7    1.22    0.94
   1   4  -7    1.50    0.67
  -1   4   7    1.03    0.64
  -1  -4   7    0.31    0.55
  -1  -4   7    1.34    1.11
   1  -4  -7    0.86    0.67
   0   4   7  220.95    8.86
   0  -4  -7  222.79    9.39
   0  -4   7  209.26    8.34
   0   4  -7  207.85    8.86
   0   4  -7  219.39   10.12
   0  -4   7  202.95   11.59
   0   4   7  223.15   10.42
   0  -4  -7  214.75    9.36
   1   4   7    0.71    0.69
   1  -4   7    1.03    1.19
  -1  -4  -7    0.49    0.57
  -1   4  -7    1.81    0.90
   1   4   7    0.74    0.75
  -1   4  -7    0.47    0.62
  -1  -4  -7    0.55    0.64
   1  -4   7    0.98    0.37
   2   4   7  149.20    7.55
   2   4   7  157.20    7.16
  -2   4  -7  148.13    6.91
  -2   4  -7  153.38    7.45
  -2  -4  -7  148.51    6.96
   2  -4   7  141.26    9.45
  -2  -4  -7  160.53    7.34
   3   4   7   24.19    2.12
  -3   4  -7   17.29    2.14
   3   4   7   21.66    2.49
   3  -4   7   24.47    4.06
  -3  -4  -7   22.18    1.96
  -3   4  -7   19.85    2.20
  -3  -4  -7   21.73    2.46
  -4   4  -7    1.22    0.83
  -4  -4  -7    1.39    1.09
   4  -4   7    2.28    1.95
  -4  -4  -7    0.46    0.70
  -4   4  -7    1.14    0.78
   4   4   7    0.77    0.92
   4   4   7    1.07    0.76
  -5   4  -7    8.33    1.66
  -5   4  -7    6.96    1.49
  -5  -4  -7    6.92    1.76
  -5  -4  -7    6.43    1.37
   5  -4   7    8.93    2.99
  -6  -4  -7   22.51    2.88
  -6   4  -7   16.08    2.25
   6   4   7   20.02    2.84
  -6   4  -7   19.39    2.47
  -6  -4  -7   17.07    2.19
   6  -4   7   22.86    4.49
  -7  -4  -7    2.19    1.16
  -7  -4  -7    1.25    1.29
  -7   4  -7    1.29    1.07
  -7   4  -7   -0.13    0.90
   7   4   7    0.79    1.14
   7  -4   7    2.21    2.06
   8   4   7   55.68    4.67
  -8  -4  -7   79.62    5.09
  -8  -4  -7   56.48    4.21
   8  -4   7   77.00    7.16
  -8   4  -7   66.06    4.57
  -8   4  -7   54.81    4.26
   9   4   7   -0.06    1.23
  -9  -4  -7    0.79    1.37
   9  -4   7    3.37    2.80
  -9  -4  -7   -0.26    0.93
  -9   4  -7   -0.06    1.13
 -10  -4  -7   38.35    3.61
  10  -4   7   43.52    5.11
 -10  -4  -7   53.30    4.43
 -10   4  -7   39.69    3.73
  10   4   7   39.32    4.47
 -11  -4  -7    3.81    1.58
  11   4   7    2.88    1.86
  11  -4   7    5.92    2.46
 -11   4  -7    4.39    1.93
  12   4   7    2.10    1.90
 -12   4  -7    0.12    1.62
  12  -4   7    0.00    1.76
 -12  -4  -7    1.04    1.18
  13   4   7    1.57    2.14
  13  -4   7    3.90    2.35
 -13   4  -7    1.03    1.74
 -13  -4  -7    0.50    1.32
  13   5  -7    0.26    1.88
 -13  -5   7    0.81    2.11
 -12  -5   7   37.02    5.30
 -12   5   7   33.69    4.64
  12   5  -7   24.54    4.06
  11   5  -7   -1.09    1.63
 -11   5   7    1.04    1.60
 -11  -5   7    1.69    2.03
 -10  -5   7   36.27    4.86
  10  -5  -7   32.20    4.93
 -10   5   7   31.21    4.09
  10   5  -7   35.32    4.42
   9  -5  -7    1.32    1.66
  -9   5   7    2.63    1.63
   9  -5  -7    2.46    1.94
   9   5  -7    1.46    1.68
  -9  -5   7   -0.08    1.43
   8  -5  -7    0.26    1.15
  -8  -5   7    0.95    1.42
   8  -5  -7    1.93    1.66
  -8  -5   7    0.46    1.44
  -8   5   7    0.30    1.19
   8   5  -7   -0.01    0.99
   7  -5  -7    2.93    1.65
   7  -5  -7    0.04    1.12
  -7  -5   7    0.55    1.29
  -7  -5   7   -0.71    0.99
  -7   5   7    0.15    1.08
   7   5  -7    0.14    0.90
  -6  -5   7   85.89    5.83
   6  -5  -7   73.71    5.27
  -6  -5   7   82.50    5.46
   6   5  -7   77.84    5.47
  -6   5   7   63.31    5.11
   6  -5  -7   74.92    5.43
   5  -5  -7    4.41    1.68
   5  -5  -7    4.42    1.58
  -5   5   7    5.06    1.62
  -5  -5   7    3.85    1.44
  -5  -5   7    5.33    1.83
   5   5  -7    5.20    1.79
  -4  -5   7   96.14    5.52
  -4  -5   7  106.05    6.64
  -4   5   7   94.21    4.57
   4  -5  -7   96.89    5.69
   4   5  -7  100.65    4.70
  -4   5   7   75.08    5.57
   4   5  -7   90.44    5.94
   3   5  -7   -0.11    0.92
  -3   5   7   -0.26    0.64
   3   5  -7   -0.20    0.61
  -3  -5   7    0.43    0.76
   3  -5  -7    1.06    0.88
   3  -5  -7    0.55    0.73
  -3   5   7   -0.25    0.60
  -3  -5   7   -0.32    1.00
  -2   5   7   93.39    4.87
   2  -5  -7  115.01    5.65
  -2   5   7  108.05    6.26
   2   5  -7  111.37    6.34
  -2  -5   7  102.33    6.93
   2  -5  -7  107.84    5.79
   2   5  -7  107.73    5.14
  -2  -5   7  102.36    5.33
  -1   5   7    1.01    0.68
  -1  -5   7   -0.06    0.53
   1  -5  -7    0.86    0.86
   1   5  -7   -0.35    0.75
  -1  -5   7    1.41    1.32
   1  -5  -7    1.27    0.66
   1   5  -7   -0.06    0.60
  -1   5   7    0.01    0.71
   0  -5   7   18.26    1.48
   0   5  -7   17.58    1.98
   0  -5  -7   16.95    1.73
   0   5   7   17.33    1.85
   0  -5  -7   19.13    2.27
   0   5  -7   18.51    2.36
   0   5   7   16.40    2.13
   0  -5   7    8.37    2.35
   1  -5   7   15.48    1.14
  -1   5  -7   16.73    2.17
  -1  -5  -7   15.77    2.17
  -1  -5  -7   16.44    1.69
  -1   5  -7   17.55    2.03
   1   5   7   19.64    2.20
   1  -5   7   19.95    3.60
   1   5   7   13.19    1.82
  -2  -5  -7   82.21    4.82
   2   5   7   80.49    4.57
  -2   5  -7   73.81    4.37
   2  -5   7   77.92    6.62
  -2   5  -7   67.67    4.43
   2   5   7   79.98    4.60
  -2  -5  -7   79.49    4.20
  -3  -5  -7    1.15    0.68
  -3   5  -7    0.37    0.73
   3  -5   7    0.82    1.35
  -3   5  -7   -0.15    0.65
  -3  -5  -7    0.00    0.83
   3   5   7    1.13    0.79
   3   5   7    2.63    1.20
  -4   5  -7  121.56    6.72
   4   5   7  124.71    7.00
  -4  -5  -7  153.93    7.61
  -4  -5  -7  141.74    6.85
   4   5   7  148.63    6.94
  -4   5  -7  143.26    7.10
   4  -5   7  157.16   10.32
  -5   5  -7    0.97    0.84
  -5   5  -7    1.16    0.86
   5   5   7   -0.13    0.72
   5  -5   7    2.22    1.98
  -5  -5  -7    0.92    0.79
   6   5   7   77.98    5.23
  -6  -5  -7   68.80    4.55
  -6  -5  -7   74.56    5.26
   6  -5   7   98.77    7.95
  -6   5  -7   79.86    4.94
  -6   5  -7   76.47    4.86
  -7  -5  -7    0.72    1.40
  -7  -5  -7   -0.50    0.77
   7   5   7   -0.40    0.99
   7  -5   7   -0.67    2.00
  -7   5  -7    0.26    1.04
  -7   5  -7   -0.46    0.95
  -8   5  -7    8.25    1.93
  -8   5  -7    7.33    1.93
  -8  -5  -7    6.16    1.56
  -8  -5  -7    9.45    2.46
   8  -5   7   11.06    3.49
   8   5   7    7.16    2.03
   9  -5   7    6.14    3.14
   9   5   7    0.91    1.41
  -9   5  -7    3.35    1.64
  -9  -5  -7    4.18    1.52
  -9  -5  -7    4.20    2.12
  -9   5  -7    1.41    1.24
  10  -5   7   21.98    4.03
 -10  -5  -7   30.93    3.85
 -10  -5  -7   19.80    2.90
  10   5   7   22.77    3.62
 -10   5  -7   19.71    2.98
 -11  -5  -7   -0.18    1.71
 -11  -5  -7    0.82    1.25
  11  -5   7   -0.62    1.79
  11   5   7    0.22    1.40
 -11   5  -7    0.56    1.56
 -12  -5  -7   30.39    3.79
 -12   5  -7   29.59    3.87
  12  -5   7   30.75    4.87
  12   5   7   30.47    4.35
  13  -5   7    2.87    2.50
  13   5   7    0.31    1.65
 -13   5  -7    0.42    1.63
 -13  -5  -7    1.09    1.48
 -13   6   7    1.99    2.36
  13  -6  -7    3.28    2.49
 -13  -6   7    1.75    2.14
  13   6  -7    2.19    2.37
 -12  -6   7    1.07    1.95
 -12   6   7    0.01    1.82
  12  -6  -7    0.49    2.15
  12   6  -7    0.80    1.97
 -11   6   7    2.10    1.99
 -11  -6   7    3.18    2.21
  11  -6  -7    4.41    2.38
  11   6  -7    1.21    1.37
 -10  -6   7   16.82    3.54
 -10   6   7   13.97    3.03
  10  -6  -7    8.85    2.74
  -9  -6   7    2.32    1.79
   9  -6  -7    4.83    2.10
   9   6  -7    4.04    1.95
  -9   6   7    4.71    2.04
   8  -6  -7   45.32    4.95
   8   6  -7   56.70    4.79
  -8  -6   7   55.85    4.85
  -8   6   7   47.72    4.51
   7  -6  -7   10.74    2.42
  -7   6   7   10.24    2.40
  -7  -6   7   10.87    2.54
  -7  -6   7    9.43    2.36
   7   6  -7   10.33    2.53
  -6  -6   7   28.43    3.53
   6   6  -7   31.09    3.73
   6  -6  -7   28.33    3.54
  -6  -6   7   35.23    3.93
   5  -6  -7   12.89    2.31
   5  -6  -7   10.19    2.22
  -5  -6   7   13.00    2.40
  -5   6   7   11.83    2.30
   5   6  -7   12.69    2.54
  -5  -6   7   16.31    2.84
   5   6  -7   13.32    1.74
   4   6  -7    0.29    0.77
  -4   6   7   -0.04    0.75
   4  -6  -7   -0.12    0.88
   4  -6  -7   -0.05    1.03
   4   6  -7    0.23    1.26
  -4  -6   7   -0.80    0.80
  -4  -6   7   -0.23    1.13
  -4   6   7    0.33    0.86
  -3   6   7    5.52    1.52
  -3  -6   7    6.68    1.61
  -3  -6   7    6.45    2.04
  -3   6   7    6.41    1.39
   3   6  -7    4.53    1.65
   3   6  -7    4.64    1.27
   3  -6  -7    5.24    1.28
  -2   6   7   84.36    4.76
   2  -6  -7   98.78    4.99
  -2   6   7   95.03    5.84
   2   6  -7  104.67    6.10
  -2  -6   7  101.84    5.28
  -2  -6   7   92.43    6.70
   2   6  -7   98.88    5.03
   2  -6  -7   97.81    5.63
   1   6  -7   14.54    1.90
  -1  -6   7   14.75    3.02
  -1  -6   7   17.60    1.96
  -1   6   7   18.18    2.32
   1  -6  -7   17.29    1.66
   1  -6  -7   17.05    2.36
  -1   6   7   15.70    1.90
   1   6  -7   15.53    2.33
   0  -6   7  204.63    8.52
   0   6   7  211.29   10.12
   0  -6  -7  203.46    8.81
   0   6   7  214.44    8.93
   0  -6  -7  212.74    9.67
   0   6  -7  195.92    8.92
   0   6  -7  202.86    9.84
  -1   6  -7    0.97    0.86
  -1  -6  -7    0.83    0.91
  -1   6  -7    0.66    0.75
   1  -6   7    0.25    1.46
   1   6   7    0.66    0.78
  -1  -6  -7    1.86    0.76
   1   6   7    0.95    0.83
   2  -6   7   61.21    5.95
  -2  -6  -7   66.45    3.66
   2   6   7   64.97    4.00
   2   6   7   63.26    4.03
  -2   6  -7   56.00    3.83
  -2   6  -7   63.70    4.13
  -2  -6  -7   66.40    4.43
   3  -6   7   29.78    4.73
   3   6   7   28.73    2.91
  -3   6  -7   25.89    2.47
  -3   6  -7   20.64    2.50
   3   6   7   27.95    2.34
  -3  -6  -7   24.25    2.15
  -3  -6  -7   35.95    3.45
   4   6   7    4.94    1.53
  -4   6  -7    3.05    1.12
   4  -6   7    6.53    2.61
  -4  -6  -7    5.47    1.64
  -4  -6  -7    5.91    1.29
  -4   6  -7    3.87    1.25
  -5  -6  -7    1.51    1.52
  -5   6  -7    2.18    1.04
   5  -6   7    5.97    2.61
  -5  -6  -7    4.38    1.12
   5   6   7    0.65    0.92
  -5   6  -7    1.54    1.04
  -6  -6  -7   30.02    2.67
  -6   6  -7   32.12    3.23
  -6   6  -7   31.34    3.02
   6  -6   7   39.76    5.86
   6   6   7   34.07    3.64
  -6  -6  -7   35.16    3.90
  -7   6  -7    7.33    1.91
  -7  -6  -7    7.88    1.77
  -7  -6  -7    8.44    2.46
   7   6   7   11.04    2.41
   7  -6   7   10.40    3.54
  -7   6  -7    7.36    1.87
  -8  -6  -7   42.47    3.68
   8   6   7   52.12    4.43
  -8   6  -7   43.53    3.88
  -8   6  -7   45.32    3.83
  -8  -6  -7   58.64    4.79
   8  -6   7   59.77    7.17
  -9   6  -7    0.95    1.40
  -9   6  -7   -0.22    1.03
   9  -6   7    2.29    2.79
  -9  -6  -7    1.44    1.78
  -9  -6  -7    1.09    1.21
   9   6   7    1.11    1.40
 -10  -6  -7   31.64    3.61
  10   6   7   32.49    4.20
 -10   6  -7   32.48    3.64
 -10  -6  -7   48.72    4.92
 -10   6  -7   33.48    3.85
 -11   6  -7    6.29    2.16
 -11  -6  -7    5.40    1.80
  11  -6   7    4.71    2.78
 -11  -6  -7    4.53    2.32
  11   6   7    4.99    2.08
  12   6   7    0.20    1.65
 -12  -6  -7    1.71    1.42
  12  -6   7    4.25    2.82
 -12   6  -7    2.58    1.98
  12   7  -7    9.66    2.98
  12  -7  -7   10.27    3.40
 -12  -7   7   15.57    3.63
 -12   7   7   12.77    3.37
  11   7  -7    0.12    1.76
 -11   7   7    2.19    1.98
 -11  -7   7    1.54    1.99
  11  -7  -7    0.90    2.03
  10   7  -7   12.07    2.95
 -10  -7   7   12.85    3.09
  10  -7  -7   10.78    3.16
 -10   7   7    9.93    2.86
  -9   7   7    7.26    2.30
   9   7  -7    7.24    2.21
   9  -7  -7    6.06    2.24
  -9  -7   7    5.04    2.27
  -8  -7   7    2.04    1.65
   8   7  -7    2.61    1.66
   8  -7  -7    1.29    1.49
  -8   7   7   -0.59    1.21
  -7  -7   7   29.23    3.80
  -7  -7   7   27.36    3.67
   7  -7  -7   22.44    3.53
   7   7  -7   26.53    3.58
  -6  -7   7   12.58    2.58
   6   7  -7   11.11    2.44
  -6   7   7    8.03    2.17
  -6  -7   7   15.27    2.97
   6  -7  -7    7.56    2.05
  -5  -7   7   11.71    2.69
   5   7  -7   12.62    1.81
   5  -7  -7    6.90    1.93
   5   7  -7   11.54    2.50
  -5   7   7   10.43    2.31
  -5  -7   7   11.04    2.27
  -4   7   7   99.75    5.49
  -4  -7   7  122.15    7.51
  -4  -7   7  115.50    6.44
   4   7  -7  106.06    5.49
  -4   7   7  106.97    6.68
   4   7  -7  113.47    6.88
   4  -7  -7   98.43    6.32
   3  -7  -7    0.24    0.98
  -3   7   7    0.51    0.99
   3   7  -7    0.95    1.10
  -3  -7   7    1.82    1.14
  -3   7   7    0.31    0.85
  -3  -7   7    1.78    1.49
   3   7  -7    1.97    0.97
   2   7  -7   65.49    4.57
   2   7  -7   58.11    3.74
  -2  -7   7   63.75    5.51
  -2   7   7   48.43    4.02
  -2  -7   7   60.75    3.97
  -2   7   7   56.05    3.71
   1  -7  -7   48.87    3.89
   1  -7  -7   49.08    2.95
   1   7  -7   56.08    4.08
  -1   7   7   47.81    3.36
  -1  -7   7   58.19    3.58
   1   7  -7   53.45    3.55
  -1   7   7   46.47    3.71
  -1  -7   7   48.55    4.92
   0  -7   7    3.78    2.00
   0   7  -7    3.39    1.18
   0   7  -7    3.13    1.29
   0   7   7    1.69    1.00
   0  -7  -7    2.74    1.31
   0  -7   7    3.55    1.08
   0  -7  -7    3.62    0.91
   0   7   7    2.81    1.20
  -1  -7  -7   44.25    3.87
   1  -7   7   57.30    5.73
   1   7   7   51.68    3.69
  -1   7  -7   54.58    3.70
  -1  -7  -7   61.89    3.28
   1   7   7   52.59    3.66
  -1   7  -7   53.10    3.84
  -2   7  -7    3.92    1.27
   2   7   7    2.51    1.11
  -2  -7  -7    5.53    1.13
  -2   7  -7    6.13    1.55
  -2  -7  -7    3.95    1.55
   2  -7   7    7.20    2.66
   2   7   7    4.86    1.25
  -3   7  -7    3.17    1.25
  -3  -7  -7    5.45    1.18
   3   7   7    5.53    1.24
   3  -7   7    5.26    2.45
   3   7   7    6.38    1.67
  -3  -7  -7    2.66    1.48
  -3   7  -7    4.69    1.39
  -4  -7  -7   87.64    5.92
   4  -7   7  101.06    8.19
  -4   7  -7   87.58    5.17
  -4   7  -7   85.22    5.30
   4   7   7   95.57    5.66
  -4  -7  -7   87.11    4.90
   5  -7   7    1.10    2.21
  -5   7  -7    3.12    1.24
  -5   7  -7    2.26    1.22
  -5  -7  -7    4.88    2.02
   5   7   7   -0.32    0.75
  -5  -7  -7    4.71    1.22
  -6  -7  -7   80.12    5.66
   6  -7   7   67.61    7.54
   6   7   7   63.95    4.85
  -6  -7  -7   62.08    4.22
  -6   7  -7   64.84    4.40
  -6   7  -7   60.87    4.47
   7  -7   7   18.08    4.32
  -7  -7  -7   14.54    2.25
  -7  -7  -7   21.36    3.54
  -7   7  -7   18.53    2.58
  -7   7  -7   18.75    2.78
   7   7   7   13.44    2.67
  -8   7  -7    0.41    1.16
   8   7   7    0.63    1.47
   8  -7   7   -2.42    2.20
  -8   7  -7   -0.05    1.22
  -8  -7  -7    0.42    1.80
  -8  -7  -7    0.19    1.07
  -9  -7  -7   15.94    2.58
   9   7   7   19.91    3.38
  -9  -7  -7   23.80    3.85
  -9   7  -7   18.50    2.82
  -9   7  -7    6.12    1.98
   9  -7   7   19.58    4.79
 -10  -7  -7    7.87    2.02
 -10   7  -7    9.99    2.53
 -10   7  -7    6.74    2.09
  10   7   7    8.34    2.50
 -10  -7  -7    9.28    2.89
  10  -7   7   13.80    4.83
 -11   7  -7    5.97    2.30
  11   7   7    7.63    2.59
 -11  -7  -7   11.89    3.25
 -11  -7  -7    5.16    1.83
 -11   7  -7    9.39    2.67
 -12   7  -7   13.58    2.94
 -12  -7  -7   14.62    2.87
 -12  -7  -7   18.05    3.82
  12  -7   7   10.80    3.69
  12   7   7   14.20    3.19
 -12   8   7   -2.02    1.86
  12  -8  -7    1.12    2.24
 -12  -8   7   -0.87    1.94
  12   8  -7   -2.15    1.92
  11   8  -7   11.11    3.10
  11  -8  -7   12.68    3.50
 -11  -8   7    9.53    2.85
 -11   8   7   13.08    3.36
  10  -8  -7   12.16    3.07
 -10   8   7   10.50    2.82
  10   8  -7   12.63    3.12
 -10  -8   7    8.82    2.76
   9   8  -7    2.08    1.82
   9  -8  -7    1.57    1.73
  -9   8   7    1.33    1.74
  -9  -8   7    3.30    1.90
  -8  -8   7   10.45    2.68
   8  -8  -7   11.19    2.94
   8   8  -7   10.05    2.63
  -8   8   7   16.88    3.20
   7   8  -7    9.27    2.41
   7  -8  -7    9.15    2.46
  -7   8   7    8.07    2.25
  -7  -8   7    9.08    2.51
  -6   8   7    3.89    1.66
  -6  -8   7    8.62    2.35
  -6  -8   7    5.00    1.80
   6   8  -7    6.17    2.08
   6  -8  -7    4.25    1.80
   5  -8  -7   66.26    5.16
   5   8  -7   70.51    4.31
  -5   8   7   66.28    5.23
   5   8  -7   73.06    5.46
  -5  -8   7   82.38    5.98
  -5  -8   7   70.59    5.15
   4  -8  -7    1.41    1.15
  -4   8   7   -0.18    0.99
   4   8  -7    2.47    1.07
   4   8  -7    1.53    1.63
  -4   8   7    0.89    1.17
  -4  -8   7    1.75    1.56
  -4  -8   7    0.88    1.05
  -3   8   7   63.93    4.89
  -3  -8   7   82.18    6.15
   3   8  -7   65.95    4.23
   3  -8  -7   69.37    5.08
  -3  -8   7   69.63    4.71
   3   8  -7   74.66    5.23
  -3   8   7   64.73    4.32
   2  -8  -7   50.04    4.16
  -2  -8   7   52.41    3.79
  -2   8   7   45.46    3.85
   2   8  -7   51.76    4.12
  -2  -8   7   54.12    5.07
  -2   8   7   49.76    3.63
   2   8  -7   48.08    3.48
  -1  -8   7   30.91    2.79
   1   8  -7   30.81    2.77
  -1   8   7   26.02    2.80
  -1  -8   7   31.99    4.54
  -1   8   7   31.37    3.00
   1   8  -7   34.68    3.23
   0   8  -7   37.10    3.16
   0  -8   7   37.53    5.23
   0   8   7   48.86    3.57
   0  -8  -7   46.67    3.96
   0   8   7   52.16    3.73
   0   8  -7   48.08    3.73
   1  -8   7   -0.81    1.16
  -1   8  -7    3.25    1.11
  -1  -8  -7    2.14    1.42
   1   8   7    2.91    1.15
   1   8   7    2.20    1.18
  -1   8  -7    1.52    1.05
   2  -8   7   32.02    5.19
  -2  -8  -7   36.70    3.88
  -2   8  -7   26.95    2.99
   2   8   7   28.96    2.60
  -2  -8  -7   32.71    2.35
   2   8   7   34.16    3.07
  -2   8  -7   27.99    2.68
   3  -8   7   77.93    7.18
  -3   8  -7   75.08    4.66
  -3  -8  -7   78.24    5.52
  -3   8  -7   72.62    4.80
   3   8   7   76.47    4.96
  -3  -8  -7   78.13    4.27
  -4  -8  -7    2.90    1.00
  -4   8  -7    3.44    1.28
   4  -8   7    2.67    2.37
  -4  -8  -7    2.28    1.55
  -4   8  -7    4.20    1.45
   4   8   7    6.12    1.68
  -5  -8  -7   82.10    5.87
  -5   8  -7   75.35    5.00
  -5  -8  -7   68.51    4.38
  -5   8  -7   76.54    4.80
   5  -8   7   71.98    7.22
   6  -8   7   20.85    4.57
  -6   8  -7   14.74    2.33
  -6   8  -7   14.65    2.54
   6   8   7   18.42    2.99
  -6  -8  -7   23.49    3.76
  -6  -8  -7   18.26    2.32
  -7  -8  -7   14.33    2.27
   7  -8   7   13.78    3.89
  -7   8  -7   12.07    2.27
  -7   8  -7   14.34    2.64
  -7  -8  -7   19.43    3.63
   7   8   7   12.17    2.60
   8   8   7   23.07    3.48
  -8   8  -7   23.35    3.03
  -8  -8  -7   34.03    4.68
  -8   8  -7   23.10    3.28
   8  -8   7   25.47    5.20
  -8  -8  -7   17.67    2.70
  -9  -8  -7    1.22    2.24
  -9   8  -7    0.91    1.20
   9  -8   7    0.64    2.68
   9   8   7    0.11    1.39
  -9  -8  -7   -0.64    1.04
  -9   8  -7    0.84    1.44
  10   8   7    3.87    1.98
 -10   8  -7    0.93    1.70
 -10  -8  -7    2.39    1.48
 -10  -8  -7   12.19    3.37
  10  -8   7    1.28    3.17
 -11   8  -7    8.22    2.47
 -11  -8  -7   11.80    2.48
 -11  -8  -7   15.98    3.60
  11   8   7    9.27    2.75
 -12   8  -7    1.70    1.89
 -12  -8  -7    1.22    2.36
 -12  -8  -7    2.52    1.54
  12   8   7   -0.55    1.72
  11  -9  -7    3.94    2.40
 -11   9   7    1.82    2.05
  11   9  -7    3.20    2.10
 -11  -9   7    4.29    2.26
  10  -9  -7    2.71    1.94
 -10  -9   7    1.81    1.80
  10   9  -7   -0.20    1.74
 -10   9   7    1.02    1.82
   9  -9  -7   24.20    4.13
  -9   9   7   28.12    4.25
   9   9  -7   25.79    4.06
  -9  -9   7   31.75    4.44
   8  -9  -7    0.87    1.49
  -8   9   7    0.52    1.09
   8   9  -7    0.05    1.65
  -8  -9   7   -0.24    1.41
   7  -9  -7   48.54    5.26
  -7  -9   7   51.75    4.66
   7   9  -7   48.47    4.95
  -7   9   7   48.72    4.68
   6  -9  -7    2.21    1.65
  -6   9   7    2.28    1.48
   6   9  -7    4.49    2.02
  -6  -9   7    4.46    1.99
  -6  -9   7    2.46    1.52
  -5   9   7   42.31    3.97
  -5  -9   7   41.99    4.27
   5   9  -7   38.99    4.23
   5   9  -7   32.76    3.04
   5  -9  -7   30.36    4.00
  -5  -9   7   50.88    4.73
   4  -9  -7    6.95    2.10
   4   9  -7    7.90    1.71
  -4  -9   7    7.43    1.94
  -4   9   7    7.76    1.86
  -4   9   7    7.73    2.06
   4   9  -7   10.27    2.52
  -4  -9   7   12.23    2.86
  -3   9   7   19.81    2.90
   3   9  -7   23.05    2.64
  -3  -9   7   22.47    3.00
   3  -9  -7   19.37    3.18
  -3   9   7   19.11    2.62
   3   9  -7   27.76    3.41
  -3  -9   7   24.44    3.94
  -2   9   7    8.24    1.96
   2   9  -7    8.68    2.14
  -2  -9   7   10.54    2.12
   2   9  -7    7.09    1.68
   2  -9  -7    4.40    1.81
  -2   9   7    8.40    1.88
  -2  -9   7   13.23    3.16
   1   9  -7   90.69    5.52
  -1  -9   7   93.29    7.41
  -1   9   7   73.54    4.92
  -1   9   7   72.06    5.14
   1   9  -7   78.70    4.87
   1  -9  -7   78.27    5.60
   0  -9   7    1.00    1.95
   0   9  -7    0.17    1.02
   0   9   7    0.57    1.07
   0   9  -7   -0.25    0.84
   0   9   7    0.80    0.97
   0  -9  -7    0.37    0.89
   1   9   7   30.07    3.23
   1  -9   7   34.61    5.40
  -1   9  -7   33.35    3.28
  -1  -9  -7   33.44    3.92
   1   9   7   31.89    2.88
  -1   9  -7   32.90    2.96
   2   9   7    2.47    1.31
  -2  -9  -7    1.75    1.62
   2  -9   7    5.90    2.71
  -2   9  -7    2.52    1.26
   2   9   7    2.66    1.14
  -2   9  -7    1.98    1.21
  -3   9  -7   24.52    2.63
  -3   9  -7   22.37    2.89
   3   9   7   30.13    3.40
   3  -9   7   27.33    5.07
  -3  -9  -7   24.98    3.66
   4  -9   7    8.68    3.29
   4   9   7    9.21    2.19
  -4   9  -7    9.54    2.06
  -4  -9  -7    9.59    2.56
  -4   9  -7   10.83    1.91
   5   9   7   -0.40    0.80
  -5   9  -7    2.39    1.31
  -5   9  -7    3.06    1.49
  -5  -9  -7    4.50    2.26
   5  -9   7    7.00    2.95
  -6  -9  -7   19.19    3.55
  -6  -9  -7   16.17    2.27
   6   9   7   17.48    2.96
  -6   9  -7   13.16    2.50
  -6   9  -7   15.37    2.39
   7  -9   7   41.09    6.56
   7   9   7   52.67    4.51
  -7  -9  -7   44.68    3.71
  -7   9  -7   44.83    4.38
  -7  -9  -7   59.10    5.70
   8   9   7    0.56    1.50
  -8  -9  -7    2.59    2.14
   8  -9   7    1.31    2.64
  -8  -9  -7    0.80    1.21
  -8   9  -7    0.03    1.52
   9  -9   7   22.96    5.16
  -9  -9  -7   21.10    3.03
   9   9   7   17.52    3.39
  -9  -9  -7   26.73    4.45
 -10   9  -7    1.54    1.66
 -10  -9  -7    0.27    2.04
  10  -9   7    2.31    3.08
 -10  -9  -7    2.17    1.47
  10   9   7    1.07    1.74
 -11  -9  -7    7.48    2.08
  11  -9   7    0.09    3.35
  11   9   7    4.75    2.26
 -11  -9  -7    7.68    3.07
 -11   9  -7    6.17    2.43
 -11 -10   7   17.41    3.73
  11  10  -7   12.01    3.23
 -11  10   7   18.67    3.94
  11 -10  -7   14.91    3.79
  10 -10  -7    0.61    1.94
 -10  10   7   -0.52    1.87
 -10 -10   7    0.04    1.71
  10  10  -7    1.78    2.19
   9 -10  -7   -0.35    1.93
  -9 -10   7    2.29    1.83
  -9  10   7    1.93    1.86
   9  10  -7    3.51    2.25
  -8 -10   7    0.77    1.74
   8 -10  -7    0.12    1.47
  -8  10   7    1.88    1.86
   8  10  -7    0.20    1.78
   7  10  -7    2.74    1.94
   7 -10  -7    3.26    1.97
  -7  10   7    1.16    1.56
  -7 -10   7    4.05    1.94
   6  10  -7   -0.54    1.53
  -6  10   7    1.04    1.39
   6 -10  -7    0.33    1.45
  -6 -10   7    0.03    1.46
  -5 -10   7   66.40    5.11
  -5  10   7   60.54    5.08
   5  10  -7   66.07    5.40
   5  10  -7   60.58    4.29
  -5 -10   7   70.15    5.71
   5 -10  -7   51.82    4.91
  -4 -10   7    0.93    1.29
  -4  10   7    0.39    1.14
  -4 -10   7   -0.22    1.51
   4 -10  -7   -1.16    1.27
  -4  10   7    0.06    1.11
   4  10  -7    0.07    1.52
   4  10  -7   -0.05    1.00
   3 -10  -7   78.78    5.92
   3  10  -7   80.69    5.10
   3  10  -7   98.50    6.20
  -3  10   7   81.46    5.98
  -3 -10   7  104.55    7.47
  -3  10   7   77.95    5.35
  -3 -10   7   77.04    5.43
  -2 -10   7    1.21    1.85
   2 -10  -7   -0.02    1.25
  -2  10   7   -0.07    1.19
   2  10  -7    1.09    1.46
  -2  10   7   -0.18    1.10
   2  10  -7    1.44    1.14
   1  10  -7   20.12    2.81
  -1 -10   7   18.69    3.90
  -1  10   7   17.73    2.77
  -1  10   7   19.92    2.83
   1  10  -7   20.91    2.71
   1 -10  -7   16.06    3.02
   0  10  -7    0.17    0.99
   0 -10   7   -0.99    1.91
   0  10   7    0.82    1.15
   0  10   7    0.26    0.99
   0  10  -7   -0.42    1.04
   0 -10  -7   -0.21    1.25
  -1  10  -7    6.33    1.72
   1  10   7    7.33    2.02
  -1 -10  -7    0.13    1.16
   1  10   7    6.26    1.62
   1 -10   7    5.28    2.75
  -1  10  -7    6.84    1.61
   2  10   7    0.48    1.29
  -2  10  -7   -0.35    0.92
  -2 -10  -7    0.16    1.62
  -2  10  -7    0.35    0.89
   2  10   7   -0.19    0.88
   2 -10   7    1.04    1.74
   3  10   7   56.27    4.47
   3 -10   7   55.76    6.96
  -3  10  -7   53.48    4.31
  -3 -10  -7   56.43    5.07
   4 -10   7    1.60    2.22
   4  10   7    8.62    2.34
  -4  10  -7    6.70    1.96
  -4 -10  -7    6.11    2.42
  -5  10  -7   86.80    5.80
   5 -10   7   95.06    8.55
  -5 -10  -7   91.03    6.84
   6 -10   7   -0.30    2.25
  -6 -10  -7    2.61    2.13
  -6  10  -7   -0.39    1.10
   6  10   7    1.21    1.51
  -7 -10  -7   18.41    3.71
   7  10   7   16.85    3.16
   7 -10   7   14.50    4.15
  -7  10  -7   16.93    3.00
   8 -10   7   -1.73    2.55
  -8  10  -7    0.20    1.37
   8  10   7    0.48    1.50
  -8 -10  -7    1.05    2.35
   9  10   7    4.88    2.10
   9 -10   7    0.60    2.74
  -9 -10  -7    4.83    2.46
  -9  10  -7    0.49    1.31
 -10  10  -7    1.15    1.82
 -10 -10  -7    0.32    2.42
  10 -10   7    1.79    2.93
  10  10   7    0.59    1.89
  10  11  -7    2.24    2.40
  10 -11  -7    0.74    1.90
 -10 -11   7   -0.90    1.59
 -10  11   7    0.44    1.95
   9  11  -7   16.14    3.54
  -9 -11   7   14.97    3.23
   9 -11  -7   18.46    3.88
  -9  11   7    5.95    2.29
   8 -11  -7   -0.76    1.71
  -8  11   7    0.32    1.64
  -8 -11   7    1.57    1.80
   8  11  -7    3.10    2.29
  -7 -11   7   32.39    4.31
  -7  11   7   30.45    4.24
   7 -11  -7   29.90    4.60
   7  11  -7   41.88    4.77
  -6  11   7    0.37    1.26
   6 -11  -7    1.62    1.76
  -6 -11   7   -0.45    1.60
   6  11  -7    0.72    1.82
  -5  11   7    9.32    2.51
   5 -11  -7   13.76    3.16
  -5 -11   7   11.37    2.64
  -5 -11   7   16.89    3.45
   5  11  -7   12.69    2.33
   5  11  -7   11.49    2.87
  -4  11   7    9.02    2.44
  -4 -11   7    7.98    2.12
   4 -11  -7    8.90    2.41
  -4 -11   7   13.69    3.29
  -4  11   7    6.22    2.11
   4  11  -7    8.08    1.87
   4  11  -7   11.53    2.71
   3  11  -7    3.45    1.51
   3  11  -7    2.38    1.88
  -3 -11   7    4.14    1.70
  -3  11   7    0.95    1.46
  -3 -11   7    1.51    1.86
   3 -11  -7    1.86    1.71
  -3  11   7    0.68    1.47
   2 -11  -7    1.05    1.46
   2  11  -7    1.62    1.26
  -2  11   7    1.60    1.38
  -2  11   7    1.68    1.51
  -2 -11   7    2.45    2.23
   2  11  -7    3.16    1.79
  -1  11   7   52.17    4.42
   1 -11  -7   45.39    4.99
  -1 -11   7   56.99    6.53
   1  11  -7   59.02    4.29
  -1  11   7   49.61    4.25
   0 -11  -7   -0.25    1.59
   0  11   7    0.89    1.59
   0  11  -7    1.65    1.28
   0  11   7    0.62    1.15
   0 -11   7   -0.63    1.97
   1 -11   7   81.18    7.64
   1  11   7   68.05    5.18
  -1  11  -7   68.19    4.83
   1  11   7   65.14    4.71
  -1 -11  -7   67.43    5.70
  -2  11  -7    0.32    1.17
   2 -11   7    0.48    1.78
  -2 -11  -7    0.62    1.25
   2  11   7    0.98    1.51
  -3 -11  -7    4.41    2.06
   3  11   7    3.59    1.84
  -3  11  -7    3.76    1.66
   3 -11   7    4.83    2.72
   4  11   7    2.22    1.61
  -4 -11  -7    2.42    1.92
  -4  11  -7    2.43    1.55
   4 -11   7    2.76    2.45
  -5 -11  -7   12.53    3.31
   5 -11   7   13.18    3.92
  -5  11  -7    9.01    2.25
   6  11   7    6.66    2.27
  -6 -11  -7    4.83    2.51
   6 -11   7    7.51    3.15
  -6  11  -7    4.57    1.70
   7 -11   7   18.33    4.65
   7  11   7   23.34    3.85
  -7  11  -7   18.86    3.23
  -7 -11  -7   26.85    4.53
   8  11   7    0.37    1.73
  -8  11  -7    1.75    1.61
   8 -11   7   -0.23    2.41
  -8 -11  -7   -0.81    2.19
  -9 -11  -7   31.96    5.16
   9 -11   7   18.38    4.97
   9  11   7   27.28    4.25
  10  11   7    2.49    1.78
  10 -11   7    0.04    2.59
 -10  11  -7    0.31    1.90
 -10 -11  -7    1.62    2.66
  -9  12   7    3.71    2.30
  -9 -12   7    6.13    2.29
   9 -12  -7    6.54    2.63
   9  12  -7    7.43    2.89
   8 -12  -7    7.05    2.74
   8  12  -7    9.03    3.01
  -8  12   7    6.19    2.45
  -8 -12   7    8.91    2.55
  -7 -12   7    2.79    1.90
   7 -12  -7    2.91    2.00
   7  12  -7    5.07    2.65
  -7  12   7    4.63    2.08
  -6  12   7    2.61    1.84
   6  12  -7    7.26    2.73
   6 -12  -7    2.77    1.95
  -6 -12   7    7.09    2.61
   5 -12  -7   34.98    4.79
   5  12  -7   23.44    3.08
  -5 -12   7   30.77    4.03
  -5  12   7   29.26    4.00
  -4 -12   7    1.65    2.09
  -4 -12   7   -0.12    1.43
   4 -12  -7    0.24    1.39
  -4  12   7   -0.62    1.16
  -4  12   7    1.70    1.67
   4  12  -7    0.45    1.22
   3  12  -7   25.16    3.22
  -3  12   7   26.68    3.64
   3 -12  -7   25.48    4.17
  -3 -12   7   31.00    4.90
  -3  12   7   25.18    3.61
   2  12  -7   10.21    2.24
  -2 -12   7    7.36    3.03
   2 -12  -7   10.49    2.97
  -2  12   7    7.08    2.43
  -2  12   7   10.99    2.52
   1  12  -7   13.83    2.57
  -1  12   7   11.42    2.77
  -1  12   7   15.05    2.73
   1 -12  -7   10.87    2.84
  -1 -12   7   16.56    4.00
   0  12   7   24.36    3.11
   0 -12   7   23.58    4.96
   0  12  -7   24.52    3.24
   0 -12  -7   20.35    3.73
   0  12   7   27.60    3.76
   1 -12   7    4.72    2.80
  -1 -12  -7    2.85    2.07
   1  12   7    2.78    2.17
  -1  12  -7    2.43    1.50
  -2 -12  -7   18.96    3.75
   2 -12   7   27.88    5.44
  -2  12  -7   25.86    3.37
   2  12   7   29.72    3.90
   3 -12   7   27.06    5.47
   3  12   7   38.20    4.44
  -3  12  -7   31.70    3.71
   4  12   7    2.26    1.93
   4 -12   7    1.65    2.63
  -4  12  -7    1.09    1.37
  -4 -12  -7    1.90    1.88
  -5  12  -7   19.41    3.16
   5 -12   7   19.59    4.68
  -5 -12  -7   26.02    4.62
  -6 -12  -7    3.79    2.44
  -6  12  -7    3.36    1.88
   6 -12   7    4.57    3.01
   6  12   7    2.72    2.02
  -7  12  -7    5.76    2.25
  -7 -12  -7    6.65    3.00
   7 -12   7    7.82    3.48
   7  12   7    5.29    2.35
  -8 -12  -7   12.58    3.57
   8 -12   7    4.69    3.28
  -8  12  -7   10.02    2.76
   8  12   7    7.24    2.61
  -9 -12  -7    1.48    2.70
   9  12   7    1.35    1.81
  -9  12  -7    1.60    1.55
   9 -12   7   -1.44    2.41
  -8  13   7    1.67    1.69
  -8 -13   7    1.51    1.83
   8 -13  -7    2.06    2.05
  -7 -13   7    6.95    2.34
  -7  13   7    4.81    2.09
   7 -13  -7    5.81    2.52
  -6 -13   7   13.53    3.09
  -6  13   7    8.46    2.65
   6 -13  -7    7.49    2.79
   5  13  -7   -0.26    1.31
   5 -13  -7   -0.38    1.58
  -5  13   7    1.13    1.59
   4 -13  -7   18.51    3.77
   4  13  -7   21.29    3.20
  -4 -13   7   24.89    4.53
  -4  13   7   15.39    3.12
  -4  13   7   18.93    3.42
   3  13  -7    0.38    1.46
  -3  13   7    2.10    1.78
   3 -13  -7    1.76    1.80
  -3  13   7    1.46    1.79
  -3 -13   7    2.99    2.57
   2 -13  -7   14.51    3.42
  -2  13   7   15.99    2.97
  -2 -13   7   17.83    4.23
  -2  13   7   14.16    3.10
   2  13  -7   15.34    2.67
   1  13  -7    6.79    1.95
   1 -13  -7    7.32    2.55
  -1  13   7    6.56    2.16
  -1 -13   7    9.27    3.59
  -1  13   7    6.80    2.45
   0 -13  -7    2.83    1.82
   0 -13   7    1.18    2.78
   0  13  -7    0.11    1.22
   0  13   7    1.54    1.39
   0  13   7   -0.69    1.92
  -1 -13  -7   15.73    3.50
   1 -13   7   19.81    4.76
  -1  13  -7   18.12    2.91
   1  13   7   24.40    3.92
  -2 -13  -7   11.06    3.43
   2 -13   7   20.31    4.95
  -2  13  -7   10.78    2.43
   2  13   7   10.07    2.80
   3  13   7   -0.60    1.80
   3 -13   7    0.25    1.99
  -3 -13  -7    0.72    2.05
  -3  13  -7    1.43    1.40
   4  13   7   34.68    4.60
   4 -13   7   20.24    5.14
  -4  13  -7   25.10    3.65
  -5  13  -7    1.68    1.55
   5  13   7    2.04    1.67
   5 -13   7   -0.97    2.38
  -5 -13  -7   -0.08    1.90
  -6 -13  -7   24.19    4.66
   6  13   7   19.70    3.81
   6 -13   7   11.02    4.05
  -6  13  -7   14.27    2.90
   7  13   7    4.74    2.33
  -7  13  -7    3.84    2.00
  -7 -13  -7    9.93    3.38
   7 -13   7    2.62    2.87
   8 -13   7    4.31    3.11
   8  13   7    1.86    1.95
  -8  13  -7    1.49    1.92
  -8 -13  -7    2.83    2.82
  -7  14   7    2.15    1.90
   7 -14  -7    2.67    2.30
  -7 -14   7    0.82    1.96
  -6  14   7    9.02    2.81
   6 -14  -7    9.85    3.05
  -5  14   7    1.32    1.61
   5 -14  -7    2.23    2.02
   5  14  -7    1.83    1.50
  -4  14   7    2.35    1.82
  -4  14   7    0.04    1.97
   4 -14  -7    1.79    2.00
   4  14  -7   -0.03    1.49
  -3 -14   7    2.02    2.49
   3  14  -7    1.53    1.37
  -3  14   7    1.99    2.01
  -3  14   7    1.12    1.62
   3 -14  -7    1.60    2.11
  -2 -14   7    7.69    3.26
   2 -14  -7    8.19    2.77
   2  14  -7    8.90    2.27
  -2  14   7    5.97    2.20
  -2  14   7    6.06    2.56
  -1 -14   7   -0.28    2.27
   1  14  -7    0.58    1.50
  -1  14   7    0.43    1.95
   1 -14  -7    0.72    1.68
  -1  14   7    1.00    1.53
   0  14  -7   34.97    3.96
   0 -14  -7   31.33    4.74
   0 -14   7   43.65    6.81
   0  14   7   35.31    4.76
   1 -14   7    3.03    3.07
  -1 -14  -7    3.52    2.21
  -1  14  -7    2.72    1.66
   1  14   7    3.94    2.28
   2  14   7   27.16    4.36
  -2  14  -7   26.69    3.62
  -2 -14  -7   16.49    3.88
   2 -14   7   27.33    5.87
   3  14   7    2.75    2.29
  -3 -14  -7    0.68    2.36
  -3  14  -7    2.04    1.58
   3 -14   7    2.14    2.92
  -4  14  -7   -1.11    1.22
   4  14   7    1.38    2.02
   4 -14   7    0.26    2.86
  -4 -14  -7    1.07    2.38
   5  14   7    1.52    2.00
  -5  14  -7    1.93    1.72
  -5 -14  -7    0.99    1.97
   5 -14   7    1.33    2.81
  -6  14  -7    4.18    1.93
   6 -14   7    8.03    3.55
  -6 -14  -7    2.97    2.42
   6  14   7    8.07    2.87
  -5  15   7    0.49    1.56
   5  15  -7   -0.03    1.41
   5 -15  -7    0.92    2.25
   4 -15  -7   20.94    4.16
  -4  15   7   16.58    3.49
   4  15  -7   18.30    3.14
  -4  15   7   19.88    3.72
   3  15  -7    0.87    1.45
   3 -15  -7    1.98    2.09
  -3  15   7   -0.23    1.58
  -3  15   7    1.23    2.37
   2  15  -7   10.36    2.47
  -2 -15   7   11.64    3.98
   2 -15  -7   12.56    3.52
  -2  15   7    7.64    3.04
  -2  15   7   10.87    2.79
  -1 -15   7    4.31    3.18
  -1  15   7    0.86    2.04
   1  15  -7    0.38    1.54
  -1  15   7   -0.37    1.38
   1 -15  -7   -0.47    1.82
   0 -15   7   -0.11    2.80
   0  15   7    1.90    2.38
   0  15  -7    1.50    1.34
   0 -15  -7    1.74    1.92
  -1  15  -7    0.06    1.44
  -1 -15  -7    0.62    1.82
   1  15   7    1.99    2.26
   1 -15   7    2.20    2.88
  -2  15  -7   14.92    2.97
   2 -15   7    8.06    4.15
   2  15   7   14.03    3.47
  -2 -15  -7    8.65    2.87
   3 -15   7    6.97    3.70
  -3  15  -7    1.69    1.45
   3  15   7    0.91    2.20
  -3 -15  -7    2.14    2.42
  -4  15  -7   17.02    3.18
   4 -15   7    4.09    3.12
  -4 -15  -7   19.99    4.48
   4  15   7   26.54    4.81
   5 -15   7   -2.93    2.66
   5  15   7    0.31    2.01
  -5 -15  -7    0.18    2.48
  -5  15  -7    0.28    1.40
  -2  16   7   11.66    2.81
  -2  16   7   14.04    3.44
   2 -16  -7    7.58    2.78
   2  16  -7   10.97    2.70
  -2 -16   7   12.44    4.28
   1 -16  -7    0.15    2.15
  -1 -16   7    4.50    3.47
   1  16  -7    2.39    1.63
  -1  16   7    2.90    2.38
   0 -16  -7   15.32    3.70
   0 -16   7   19.25    5.07
   0  16  -7   14.28    3.01
   0  16   7   15.83    3.82
  -1  16  -7   -1.06    1.32
   1 -16   7    2.32    3.52
  -1 -16  -7    2.67    2.05
   1  16   7    1.34    2.49
  -2  16  -7    8.29    2.25
  -2 -16  -7    7.04    2.55
   2 -16   7    5.35    3.94
   2  16   7    8.31    3.22
 -13   0   8   -1.74    2.16
  13   0  -8    1.77    2.42
  12   0  -8   20.08    3.98
 -12   0   8   16.08    3.81
 -11   0   8    2.53    2.10
  11   0  -8    0.89    1.80
 -10   0   8   -0.54    1.39
  10   0  -8   -0.03    1.48
 -10   0   8    1.42    1.68
  -9   0   8    0.36    1.28
  -9   0   8    0.98    1.34
   9   0  -8    1.49    1.52
  -8   0   8   16.62    3.01
  -8   0   8   16.56    2.81
   8   0  -8   15.49    3.01
   7   0  -8    0.28    1.20
  -7   0   8   -0.11    1.18
  -7   0   8   -0.25    1.20
   6   0  -8  154.01    8.60
  -6   0   8  120.66    8.13
  -6   0   8  170.73    8.23
   5   0  -8   -0.28    1.00
  -5   0   8    0.62    0.81
  -5   0   8   -0.63    0.90
  -4   0   8  124.49    6.33
  -4   0   8  112.12    7.19
   4   0  -8  121.77    7.18
  -3   0   8    0.52    0.69
  -3   0   8    0.89    0.39
   3   0  -8    0.33    0.91
  -3   0   8    0.50    0.81
   2   0  -8    2.78    1.25
  -2   0   8    0.13    0.56
  -2   0   8    1.17    0.66
  -2   0   8    2.27    1.21
  -1   0   8    0.66    0.86
   1   0  -8    0.12    0.74
  -1   0   8    1.04    0.62
   1   0  -8    1.54    0.67
   0   0   8   34.88    3.48
   0   0   8   42.16    2.80
   0   0  -8   42.56    2.46
   0   0  -8   39.80    3.15
   1   0   8   -0.21    0.73
  -1   0  -8    0.14    0.59
  -1   0  -8    2.39    0.67
   1   0   8   -0.15    0.89
  -2   0  -8  265.49   11.67
   2   0   8  266.90   13.27
  -2   0  -8  259.91   10.22
   2   0   8  267.32   11.21
   3   0   8   -0.06    0.78
  -3   0  -8    0.21    0.60
   3   0   8    1.04    1.22
  -3   0  -8    0.53    0.65
   4   0   8  237.81   11.87
   4   0   8  210.05   10.12
  -4   0  -8  222.70   10.17
  -5   0  -8    1.01    0.71
   5   0   8    0.01    1.16
   5   0   8    0.24    0.99
  -5   0  -8   -0.31    0.64
   6   0   8    5.56    1.91
   6   0   8   -0.02    0.77
  -6   0  -8    3.59    1.26
  -7   0  -8   -0.59    0.83
   7   0   8   -0.03    1.12
   8   0   8   20.90    3.28
  -8   0  -8   24.54    2.92
   9   0   8    0.85    1.49
  -9   0  -8    0.21    1.06
 -10   0  -8   36.53    3.55
  10   0   8   37.95    4.55
 -11   0  -8    0.25    1.35
  11   0   8    1.67    1.47
  12   0   8   35.25    4.63
 -12   0  -8   28.06    3.65
  13   0   8    1.90    1.82
 -13   0  -8    0.74    1.34
 -13   1   8    1.91    2.88
  13   1  -8    3.86    2.46
  13  -1  -8    4.81    2.73
 -13  -1   8    5.70    2.45
  12  -1  -8    7.32    2.79
 -12   1   8    8.04    3.20
 -12  -1   8    8.57    2.99
  12   1  -8    5.69    2.56
 -11  -1   8    0.75    1.91
 -11   1   8    1.26    1.66
 -11   1   8   -0.83    1.48
  11  -1  -8    2.26    2.06
  11   1  -8    0.07    1.55
  10  -1  -8   36.09    4.70
  10   1  -8   36.94    4.75
 -10   1   8   44.09    5.15
 -10   1   8   41.98    4.33
 -10  -1   8   42.02    4.26
 -10  -1   8   50.44    5.47
  -9  -1   8    1.65    1.46
  -9   1   8    2.21    1.58
  -9   1   8    2.26    1.71
   9  -1  -8    3.25    1.81
  -9  -1   8    0.71    1.61
   9   1  -8    1.99    1.58
   8   1  -8   37.65    4.37
   8  -1  -8   41.91    4.58
  -8   1   8   38.19    3.95
  -8  -1   8   43.90    4.17
  -8   1   8   45.43    4.63
  -8  -1   8   48.00    4.80
  -7  -1   8    4.19    1.70
   7   1  -8    4.34    1.79
  -7   1   8    5.47    1.76
  -7   1   8    6.39    1.92
  -7  -1   8    4.94    1.76
   7  -1  -8    4.25    1.89
  -6   1   8    5.62    1.67
   6   1  -8    4.63    1.77
  -6  -1   8    3.96    1.64
   6  -1  -8    5.06    1.91
  -6   1   8    4.68    1.70
  -6  -1   8    2.26    1.27
   5   1  -8   32.42    3.71
  -5  -1   8   31.84    3.22
  -5   1   8   30.74    3.21
  -5  -1   8   32.78    3.68
  -5   1   8   29.73    3.14
   5  -1  -8   29.50    3.56
   4  -1  -8   50.94    4.28
  -4   1   8   43.98    4.02
   4   1  -8   55.78    4.44
  -4  -1   8   58.26    4.59
  -4   1   8   56.14    3.81
  -4  -1   8   54.31    3.73
  -3  -1   8    1.35    0.53
  -3   1   8    0.56    0.90
   3  -1  -8    0.61    0.86
  -3  -1   8    2.25    0.94
   3   1  -8    0.70    1.03
  -3   1   8    1.16    0.38
  -3  -1   8    0.08    1.06
  -2   1   8  220.48   11.44
  -2  -1   8  229.77   11.84
  -2  -1   8  210.92    9.33
   2  -1  -8  259.37    9.81
   2   1  -8  212.99   10.70
  -2   1   8  220.54    8.47
   2  -1  -8  214.09   10.60
   1  -1  -8   29.45    2.98
  -1   1   8   28.30    2.96
  -1  -1   8   26.99    3.38
  -1  -1   8   30.95    2.17
   1  -1  -8   28.83    2.16
   1   1  -8   22.05    2.75
  -1   1   8   28.23    1.98
   0  -1  -8  152.19    6.43
   0  -1   8  129.62    8.24
   0   1  -8  141.38    7.48
   0  -1  -8  148.77    7.38
   0  -1   8  161.06    6.79
   0   1  -8  151.94    6.09
   0   1   8  137.48    8.11
   0   1   8  138.82    6.39
  -1   1  -8    4.03    1.24
  -1  -1  -8    5.26    1.02
  -1   1  -8    5.39    0.82
   1  -1   8    4.30    1.15
  -1  -1  -8    5.56    1.33
   1   1   8    5.38    1.24
   1   1   8    6.97    1.81
   1  -1   8    6.48    1.87
  -2  -1  -8   13.80    1.52
  -2   1  -8   13.27    1.94
   2  -1   8   13.48    2.52
   2   1   8   15.75    2.51
   2   1   8   14.27    2.03
  -2  -1  -8   13.36    1.89
   2  -1   8   13.10    2.01
  -2   1  -8   14.04    1.14
   3  -1   8   61.16    4.07
   3  -1   8   55.60    4.72
  -3  -1  -8   57.35    3.74
  -3   1  -8   54.48    3.80
   3   1   8   53.98    4.33
  -3  -1  -8   58.81    3.36
  -3   1  -8   71.63    2.97
   3   1   8   55.08    3.88
  -4   1  -8   21.26    2.38
  -4  -1  -8   25.48    2.17
   4   1   8   23.02    2.81
  -4  -1  -8   21.30    2.33
   4  -1   8   22.31    3.36
   4  -1   8   19.01    2.61
   4   1   8   21.63    2.88
   5  -1   8   19.67    3.41
   5   1   8   19.29    2.67
   5  -1   8   12.90    2.32
  -5  -1  -8   10.52    1.84
  -5  -1  -8   22.60    2.27
   5   1   8   13.33    2.38
  -5   1  -8   12.28    1.99
  -6   1  -8  105.03    6.32
  -6  -1  -8  124.69    6.55
   6   1   8  134.26    7.44
   7  -1   8    5.88    2.34
  -7  -1  -8    3.52    1.34
   7   1   8    2.39    1.47
  -7   1  -8    1.07    0.94
   7  -1   8    5.84    1.83
  -8  -1  -8   62.51    4.53
   8   1   8   69.23    5.16
   8  -1   8   60.36    5.13
   9   1   8    0.70    1.41
  -9   1  -8    0.31    0.97
  -9  -1  -8    0.84    1.07
   9  -1   8    0.62    1.47
 -10  -1  -8    4.58    1.56
 -10   1  -8    3.56    1.52
  10  -1   8    6.75    2.49
  10   1   8    6.63    2.33
 -11  -1  -8    5.33    1.98
  11  -1   8    6.38    2.27
  11   1   8    5.38    2.02
 -11   1  -8    5.46    1.90
 -12  -1  -8    4.94    1.98
  12  -1   8    2.24    1.87
 -12   1  -8    3.48    1.90
  12   1   8    3.28    2.27
 -13  -1  -8    0.72    1.63
  13  -1   8    4.13    2.15
  13   1   8    4.11    2.22
 -13   1  -8    1.49    1.67
 -13  -2   8    1.15    2.10
  13  -2  -8    2.03    2.40
 -13   2   8    1.60    2.62
  13   2  -8    2.56    2.13
 -12   2   8   13.97    3.75
  12   2  -8   15.62    3.48
  12  -2  -8   17.44    3.98
 -12  -2   8   16.80    3.89
 -11   2   8    8.54    2.49
  11  -2  -8    7.78    2.82
 -11   2   8    8.22    2.93
  11   2  -8   10.13    2.93
 -11  -2   8   12.64    3.42
 -10   2   8    1.53    1.64
 -10  -2   8    3.78    2.09
  10   2  -8    3.52    1.97
 -10   2   8    4.36    2.07
  10  -2  -8    1.44    1.94
  -9  -2   8   28.50    4.16
  -9  -2   8   29.04    3.70
  -9   2   8   28.56    4.09
  -9   2   8   26.86    3.65
   9  -2  -8   21.25    3.71
   8  -2  -8   31.96    4.14
   8   2  -8   29.58    3.93
  -8  -2   8   36.83    3.78
  -8   2   8   29.75    3.84
  -8  -2   8   38.60    4.36
  -8   2   8   37.93    4.16
   7   2  -8   42.48    4.41
   7  -2  -8   41.46    4.39
  -7  -2   8   40.32    3.94
  -7   2   8   44.95    4.10
  -7  -2   8   44.14    4.01
  -7   2   8   43.07    4.22
  -6  -2   8   74.20    5.43
  -6   2   8   73.17    4.91
   6   2  -8   69.53    5.24
  -6  -2   8   75.39    5.03
  -6   2   8   63.21    5.04
   6  -2  -8   64.03    5.23
  -5   2   8    5.75    1.57
   5   2  -8    4.68    1.76
  -5  -2   8    4.48    1.43
  -5   2   8    5.09    1.69
  -5  -2   8    5.61    1.82
   5  -2  -8    5.83    1.87
  -4  -2   8   73.95    4.56
   4  -2  -8   79.28    4.83
  -4  -2   8   74.36    5.56
   4   2  -8   72.06    5.22
   4  -2  -8   72.95    5.19
   3  -2  -8   74.45    4.35
   3   2  -8   72.10    4.98
  -3   2   8   63.79    4.75
  -3  -2   8   66.84    5.23
   3  -2  -8   68.80    4.77
   3   2  -8   68.27    3.14
  -3  -2   8   64.75    3.99
  -3   2   8   63.13    2.91
  -2  -2   8    0.45    0.94
  -2  -2   8    6.05    1.24
   2   2  -8    7.45    1.01
   2  -2  -8    5.86    1.59
  -2   2   8    5.83    0.86
   2   2  -8    4.15    1.41
   2  -2  -8    5.82    1.29
  -2   2   8    4.10    1.38
  -1  -2   8  157.88    6.98
  -1   2   8  164.68    6.85
  -1  -2   8  160.85    9.39
   1  -2  -8  175.72    8.33
   1   2  -8  154.65    8.36
   1  -2  -8  175.70    7.51
   1   2  -8  173.47    6.95
  -1   2   8  159.94    8.85
   0   2  -8   37.03    2.04
   0   2  -8   33.17    2.33
   0  -2   8   34.34    3.56
   0   2   8   31.92    2.40
   0   2  -8   31.29    2.92
   0   2   8   32.44    3.11
   0  -2  -8   35.62    2.85
   0  -2  -8   35.32    2.48
  -1   2  -8   32.98    2.38
   1   2   8   29.85    2.41
   1   2   8   29.11    2.94
   1  -2   8   30.89    3.78
  -1  -2  -8   30.68    2.61
  -1   2  -8   26.18    2.60
  -1   2  -8   35.79    1.73
  -1  -2  -8   33.01    2.36
   2  -2   8  177.47   10.12
  -2  -2  -8  175.56    7.67
  -2   2  -8  175.46    7.73
  -2  -2  -8  177.51    8.26
   2   2   8  174.05    7.98
   2   2   8  168.46    9.13
  -3   2  -8   -0.18    0.64
   3   2   8    0.18    0.89
   3   2   8    0.44    0.85
   3  -2   8    2.35    1.51
  -3  -2  -8   -0.17    0.53
  -3  -2  -8    0.61    0.74
  -3   2  -8    0.57    0.59
  -4  -2  -8   65.19    4.15
   4   2   8   58.26    4.26
   4  -2   8   81.05    6.16
  -4  -2  -8   72.86    4.18
   4   2   8   68.23    4.72
   5   2   8   65.14    4.77
  -5  -2  -8   71.77    4.51
  -5   2  -8   66.90    4.51
   5  -2   8   85.68    5.45
   5  -2   8   85.52    6.62
  -5  -2  -8   86.25    4.68
   5   2   8   61.99    4.67
   6  -2   8   17.04    3.42
   6  -2   8    3.50    1.44
  -6  -2  -8    8.76    1.80
  -6   2  -8   12.68    2.10
  -6  -2  -8   19.83    2.38
  -7   2  -8   28.29    3.04
   7  -2   8   34.15    4.93
   7   2   8   25.56    3.37
   7  -2   8   24.69    3.45
  -7  -2  -8   22.18    2.70
  -7  -2  -8   35.61    3.12
  -8   2  -8   21.06    2.78
   8  -2   8   25.20    3.75
  -8  -2  -8   19.74    2.73
   8   2   8   24.00    3.42
  -9   2  -8    1.27    1.33
   9   2   8    0.67    1.49
  -9  -2  -8    0.84    1.11
   9  -2   8    0.68    1.60
  10  -2   8   49.01    5.28
 -10  -2  -8   37.72    3.61
 -10   2  -8   40.38    3.80
  10   2   8   41.59    4.63
  11   2   8   -1.68    1.40
  11  -2   8    0.60    1.55
 -11  -2  -8   -0.33    1.00
 -11   2  -8   -0.06    1.37
 -12  -2  -8   14.66    2.70
  12  -2   8   14.45    3.40
  12   2   8   17.26    3.43
 -12   2  -8   10.53    2.68
  13   2   8   11.67    2.94
 -13  -2  -8    6.16    2.02
 -13   2  -8    6.40    2.42
  13  -2   8   13.55    3.57
 -13  -3   8   10.97    3.46
 -13   3   8    9.59    3.67
  13   3  -8    8.51    2.84
  13  -3  -8   12.69    3.76
  12   3  -8    1.47    1.96
 -12  -3   8    5.42    2.60
  12  -3  -8    3.06    2.25
 -12   3   8    2.51    2.29
 -12   3   8    1.85    1.80
 -11  -3   8    6.74    2.70
  11   3  -8    7.64    2.59
 -11   3   8    8.02    2.98
  11  -3  -8    7.23    2.86
 -11   3   8    7.08    2.45
 -10  -3   8   13.94    3.27
 -10   3   8    8.58    2.54
 -10   3   8   12.54    3.20
  10   3  -8   10.36    2.72
  10  -3  -8   14.45    3.45
   9   3  -8    2.11    1.79
  -9   3   8    4.25    1.89
   9  -3  -8    3.21    1.78
  -9   3   8    4.12    1.96
  -9  -3   8    4.20    1.81
  -9  -3   8    4.63    2.06
   8   3  -8   11.06    2.62
   8  -3  -8   11.28    2.83
  -8  -3   8   15.16    3.12
  -8  -3   8   13.86    2.68
  -8   3   8   10.75    2.53
  -8   3   8   11.77    2.57
   7   3  -8   54.76    4.64
  -7  -3   8   50.06    4.43
  -7  -3   8   54.53    4.52
  -7   3   8   47.92    4.19
   7  -3  -8   51.06    4.67
  -7   3   8   48.26    4.39
  -6   3   8    3.85    1.47
   6   3  -8    5.94    1.88
   6  -3  -8    6.22    1.99
  -6  -3   8    6.36    1.89
  -6   3   8    3.97    1.59
  -6  -3   8    6.61    2.07
   5  -3  -8   99.21    6.60
   5   3  -8  107.64    6.75
  -5  -3   8  108.64    7.10
  -5  -3   8  110.21    6.22
   5  -3  -8  105.12    6.25
  -4   3   8    1.38    1.13
   4   3  -8   -0.04    1.04
   4  -3  -8    2.48    1.07
  -4  -3   8    1.40    1.41
   4  -3  -8    0.29    1.12
  -4  -3   8    1.02    0.89
  -3   3   8   54.32    4.20
  -3  -3   8   55.13    4.66
  -3   3   8   48.48    2.62
   3  -3  -8   56.70    3.80
   3  -3  -8   53.01    4.11
   3   3  -8   52.07    2.80
   3   3  -8   53.86    4.27
  -3  -3   8   50.35    3.48
  -2  -3   8   62.64    3.64
   2  -3  -8   65.37    4.00
  -2   3   8   53.86    3.00
  -2  -3   8   63.98    5.08
   2  -3  -8   66.56    4.39
   2   3  -8   62.82    3.28
  -2   3   8   64.74    4.60
   1   3  -8   12.19    1.45
  -1   3   8   10.13    1.33
   1  -3  -8   10.84    1.80
  -1  -3   8   12.58    2.65
   1  -3  -8   10.37    1.66
  -1  -3   8   10.63    1.36
  -1   3   8    8.59    1.82
   0  -3  -8   68.75    3.89
   0  -3   8   61.15    5.08
   0   3   8   57.42    3.47
   0  -3   8   59.88    3.05
   0  -3  -8   63.18    3.98
   0   3   8   62.31    4.39
   0   3  -8   66.98    3.60
  -1   3  -8  117.05    5.58
  -1   3  -8  124.07    4.50
  -1   3  -8  107.36    6.19
  -1  -3  -8  121.49    5.81
   1  -3   8  100.05    7.32
   1   3   8  116.28    6.61
  -1  -3  -8  116.81    5.95
   1   3   8  118.63    5.77
  -2   3  -8    1.35    0.88
  -2  -3  -8    2.63    0.99
   2   3   8    1.85    1.01
  -2   3  -8    0.91    0.75
   2  -3   8    1.29    1.37
   2   3   8    1.19    0.87
  -2  -3  -8    2.63    1.01
   3   3   8  140.01    7.47
   3   3   8  137.75    6.98
   3  -3   8  143.20    9.20
  -3   3  -8  130.75    7.03
  -3  -3  -8  139.79    6.87
  -3  -3  -8  140.67    6.79
  -3   3  -8  139.94    6.71
   4   3   8    7.51    1.75
  -4  -3  -8    6.42    1.54
  -4   3  -8    5.99    1.47
  -4   3  -8    7.48    1.64
  -4  -3  -8    5.92    1.32
   4  -3   8   11.82    3.03
   4   3   8    7.01    1.56
   5  -3   8   82.00    6.74
  -5  -3  -8   74.50    4.60
  -5  -3  -8   64.10    4.25
  -5   3  -8   67.39    4.32
   5   3   8   66.39    4.35
  -5   3  -8   64.35    4.40
   5   3   8   61.13    4.53
  -6   3  -8   19.97    2.59
   6  -3   8   27.59    4.70
  -6   3  -8   19.34    2.55
  -6  -3  -8   24.42    2.86
  -6  -3  -8   16.48    2.28
  -7   3  -8    0.43    0.99
   7  -3   8    0.28    2.16
  -7  -3  -8   -0.56    0.69
  -7  -3  -8    1.97    1.29
   7  -3   8    1.51    1.51
   7   3   8    1.45    1.47
   8   3   8   33.27    3.98
  -8   3  -8   27.11    3.22
   8  -3   8   49.51    6.35
  -8  -3  -8   43.78    3.63
  -8  -3  -8   33.82    3.26
   8  -3   8   38.13    4.51
  -9  -3  -8   27.59    3.17
  -9   3  -8   25.66    3.28
   9   3   8   38.00    4.28
   9  -3   8   31.73    4.39
  10   3   8    3.88    1.98
 -10  -3  -8    2.87    1.48
  10  -3   8    1.89    1.96
 -10   3  -8    2.31    1.48
 -11  -3  -8   24.07    3.33
  11   3   8   26.80    4.06
 -11   3  -8   20.24    3.18
  11  -3   8   26.04    4.22
  12  -3   8    4.41    2.45
 -12   3  -8    2.72    1.70
  12   3   8    1.36    1.94
 -12  -3  -8    1.83    1.56
 -13  -3  -8    6.63    2.03
 -13   3  -8    5.71    2.29
  13  -3   8    6.98    2.84
  13   3   8    7.71    2.83
 -13  -4   8   -0.19    2.09
  13   4  -8    4.07    2.52
 -13   4   8    0.43    1.95
 -12   4   8    2.61    2.22
 -12   4   8    1.30    2.24
  12   4  -8    4.54    2.34
 -12  -4   8    5.73    2.74
 -11   4   8   19.30    3.96
  11  -4  -8   21.82    4.32
 -11   4   8   21.54    3.77
  11   4  -8   19.21    3.77
 -11  -4   8   22.87    4.19
 -10   4   8    0.48    1.72
 -10   4   8   -0.27    1.69
  10  -4  -8   -0.08    1.69
  10   4  -8   -0.55    1.41
 -10  -4   8    0.55    1.65
  -9  -4   8   75.30    5.94
   9   4  -8   65.79    5.58
  -9   4   8   55.34    5.09
   9  -4  -8   62.75    5.71
  -9   4   8   58.05    5.14
   8  -4  -8   13.34    3.01
  -8   4   8   13.57    2.79
  -8  -4   8   17.19    2.95
  -8  -4   8   14.36    3.02
   8   4  -8    6.75    2.30
  -7   4   8   16.54    2.94
   7   4  -8   12.53    2.71
   7  -4  -8   12.86    2.91
   7  -4  -8   17.24    3.16
  -7  -4   8   13.53    2.77
  -7  -4   8   17.13    3.00
  -6   4   8   11.14    2.44
   6  -4  -8   10.96    2.56
  -6  -4   8   13.55    2.51
   6   4  -8    9.99    2.38
  -6  -4   8   10.39    2.45
   5   4  -8    0.83    1.16
  -5  -4   8    1.49    1.10
   5  -4  -8    2.14    1.41
   5  -4  -8    1.69    1.37
  -5   4   8    1.07    1.05
  -5  -4   8    0.88    1.36
   4  -4  -8    6.97    1.88
  -4   4   8    7.22    1.85
  -4  -4   8   10.48    2.40
  -4  -4   8    9.77    1.92
   4  -4  -8    8.00    1.85
  -3  -4   8  122.42    6.29
   3   4  -8  122.64    7.26
   3   4  -8  119.19    5.52
  -3  -4   8  142.00    8.24
   3  -4  -8  122.13    6.85
   3  -4  -8  127.38    6.65
  -3   4   8  117.31    7.23
  -3   4   8  124.14    5.41
  -2  -4   8   -1.82    0.87
   2   4  -8    0.32    0.67
   2  -4  -8    1.25    0.95
  -2   4   8    1.52    0.71
   2   4  -8    1.93    1.38
  -2   4   8    1.09    0.94
   2  -4  -8    0.43    0.86
  -2  -4   8    0.51    0.73
  -1   4   8  239.83    9.85
   1   4  -8  249.42   10.07
  -1   4   8  249.49   12.15
   1   4  -8  253.16   11.79
  -1  -4   8  251.83   10.01
   0   4   8   18.55    1.91
   0  -4  -8   18.82    2.05
   0  -4   8   14.14    1.33
   0  -4   8   18.07    3.24
   0  -4  -8   16.84    2.13
   0   4  -8   16.09    2.40
   0   4  -8   17.17    1.90
   0   4   8   18.15    2.45
  -1   4  -8   42.50    3.48
  -1   4  -8   45.48    3.10
   1   4   8   49.67    3.28
   1  -4   8   49.40    4.80
  -1  -4  -8   48.13    3.23
  -1  -4  -8   45.73    3.28
   1   4   8   44.92    3.53
   2  -4   8   28.08    4.25
   2   4   8   33.12    2.82
  -2  -4  -8   38.31    2.93
   2   4   8   31.67    2.81
  -2   4  -8   33.03    2.63
  -2  -4  -8   35.73    2.65
  -2   4  -8   32.28    2.84
  -3  -4  -8   14.52    1.88
   3  -4   8   17.27    3.55
   3   4   8   13.51    2.18
  -3   4  -8   17.86    2.27
  -3  -4  -8   16.22    2.26
   3   4   8   15.72    2.06
  -3   4  -8   14.59    2.00
   4   4   8   15.93    2.45
   4  -4   8   23.90    4.28
   4   4   8   17.66    2.11
  -4   4  -8   19.27    2.35
  -4   4  -8   19.74    2.38
  -4  -4  -8   20.57    2.61
  -4  -4  -8   19.13    2.22
  -5  -4  -8   58.57    4.17
   5   4   8   50.88    4.13
   5  -4   8   55.95    6.51
  -5  -4  -8   45.43    3.49
  -5   4  -8   51.33    3.78
  -5   4  -8   47.74    3.65
  -6  -4  -8    0.51    0.81
   6  -4   8    0.57    2.05
  -6   4  -8    1.89    1.10
  -6   4  -8    0.32    1.00
   6   4   8    0.15    0.88
  -6  -4  -8    1.12    1.23
   7  -4   8  123.89    9.38
  -7   4  -8   84.17    5.62
   7   4   8   92.78    6.20
  -7  -4  -8  102.29    6.13
  -7  -4  -8   85.34    5.51
  -7   4  -8   89.53    5.63
   8  -4   8    6.37    3.26
  -8  -4  -8    4.77    1.47
  -8   4  -8    4.95    1.72
   8   4   8    3.69    1.77
  -8  -4  -8    4.06    1.83
   9   4   8   28.18    3.92
  -9   4  -8   24.33    3.19
  -9  -4  -8   25.89    3.14
   9  -4   8   28.07    4.38
  -9  -4  -8   37.89    3.90
  10   4   8    5.55    2.17
  10  -4   8    6.87    2.51
 -10   4  -8    6.97    2.07
 -10  -4  -8    7.67    1.97
 -11  -4  -8    0.68    1.14
  11   4   8    1.84    1.79
  11  -4   8    2.63    2.19
 -11   4  -8    1.96    1.57
 -12  -4  -8    1.31    1.45
  12  -4   8    2.02    2.40
  12   4   8    0.87    1.86
 -12   4  -8    1.29    1.62
  13   4   8   10.62    2.92
  13  -4   8    6.81    3.00
 -13   4  -8    7.82    2.80
 -13  -4  -8    7.33    2.11
  13  -5  -8   17.61    4.53
  13   5  -8   19.38    3.83
 -13  -5   8   19.85    4.22
 -13   5   8   17.98    3.95
 -12   5   8    0.94    1.98
 -12  -5   8   -0.74    1.87
  12   5  -8   -0.45    1.78
  12  -5  -8   -0.88    1.96
 -11  -5   8   12.43    3.25
  11   5  -8   10.97    3.05
  11  -5  -8   17.23    4.06
 -11   5   8   16.30    3.48
 -10  -5   8    1.46    1.77
  10   5  -8    0.51    1.70
 -10   5   8    2.45    1.98
  10  -5  -8   -1.14    1.48
  -9   5   8    5.23    2.06
   9   5  -8    2.92    1.85
  -9  -5   8    4.67    2.15
   9  -5  -8    6.57    2.37
   8  -5  -8    0.48    1.43
   8   5  -8    0.78    1.45
  -8   5   8   -0.91    1.22
  -8  -5   8    0.88    1.65
  -8  -5   8    0.10    1.42
   8  -5  -8    2.61    1.86
  -7  -5   8   79.67    5.80
   7  -5  -8   85.26    6.07
  -7   5   8   80.46    6.02
   7  -5  -8   73.86    5.90
  -6  -5   8    9.06    2.30
   6  -5  -8    6.57    2.05
   6   5  -8    4.12    1.75
  -6  -5   8    8.78    2.34
   6  -5  -8    6.11    1.95
  -5  -5   8   88.62    6.30
  -5  -5   8   84.62    5.38
   5  -5  -8   70.64    5.30
  -5   5   8   75.60    5.57
   5   5  -8   79.01    5.72
  -4   5   8    0.15    0.94
   4   5  -8    0.41    1.18
   4  -5  -8    0.75    1.11
   4   5  -8    0.89    0.71
   4  -5  -8   -0.33    0.95
  -4  -5   8    1.41    1.32
  -4  -5   8    0.89    1.02
   3  -5  -8   58.70    4.20
  -3   5   8   54.99    4.44
   3   5  -8   64.80    4.88
   3  -5  -8   64.10    4.46
  -3  -5   8   64.51    5.31
   3   5  -8   66.57    3.63
  -3   5   8   57.90    3.45
  -3  -5   8   64.60    4.11
   2  -5  -8    1.77    0.96
  -2  -5   8    2.12    0.99
  -2   5   8    1.02    0.99
   2   5  -8    0.75    0.72
  -2   5   8    1.75    0.81
   2   5  -8    1.77    1.14
  -2  -5   8    0.78    1.34
   2  -5  -8    0.03    0.93
  -1  -5   8    0.52    0.66
   1  -5  -8    1.55    1.04
   1  -5  -8    1.59    0.92
   1   5  -8    1.23    1.17
   1   5  -8    1.06    0.72
  -1   5   8    0.90    0.90
  -1   5   8    0.73    0.76
  -1  -5   8    1.06    1.46
   0   5   8    1.07    0.97
   0  -5  -8    0.82    0.87
   0   5  -8    1.37    0.77
   0   5  -8    0.17    0.93
   0  -5  -8    0.47    0.76
   0  -5   8    1.47    0.69
   0   5   8    1.75    0.94
   0  -5   8    0.91    1.40
   1   5   8  168.33    7.96
   1   5   8  195.18    9.21
  -1   5  -8  173.97    8.00
  -1  -5  -8  177.87    8.50
   1  -5   8  175.76   10.92
  -1  -5  -8  185.16    8.18
  -1   5  -8  165.95    8.67
  -2   5  -8    1.55    1.05
  -2  -5  -8    2.06    0.87
  -2  -5  -8    1.77    1.15
   2   5   8    1.77    1.14
   2   5   8    1.16    0.94
   2  -5   8    1.68    1.59
  -2   5  -8    1.17    0.81
   3   5   8  135.07    7.00
   3   5   8  140.26    7.13
  -3   5  -8  126.71    6.97
  -3  -5  -8  134.75    6.66
   3  -5   8  145.78    9.92
  -3  -5  -8  129.16    7.07
  -3   5  -8  140.23    6.86
   4   5   8    0.76    1.07
  -4   5  -8    0.66    0.84
   4  -5   8    0.69    1.69
  -4  -5  -8   -0.10    1.05
  -4  -5  -8    0.37    0.69
  -4   5  -8    0.45    0.73
   4   5   8    0.83    0.86
   5   5   8   63.82    4.65
  -5  -5  -8   67.15    4.74
   5  -5   8   72.76    6.96
  -5  -5  -8   60.75    4.02
  -5   5  -8   52.11    4.09
  -5   5  -8   65.98    4.37
   6   5   8    0.76    0.99
  -6   5  -8    0.51    1.00
   6  -5   8    1.61    2.03
  -6   5  -8   -0.10    0.87
  -6  -5  -8   -0.04    1.26
  -6  -5  -8    0.63    0.90
   7   5   8   -0.82    1.27
  -7  -5  -8   -0.47    1.40
  -7  -5  -8    0.73    0.96
  -7   5  -8   -0.37    0.96
   7  -5   8   -0.98    2.18
  -7   5  -8    0.07    1.14
  -8  -5  -8    2.47    1.75
  -8  -5  -8    2.00    1.16
  -8   5  -8    2.06    1.40
   8   5   8   -0.19    1.28
   8  -5   8    1.57    2.65
  -8   5  -8    0.74    1.20
  -9  -5  -8   68.34    5.32
  -9   5  -8   43.57    4.03
   9   5   8   44.00    4.87
   9  -5   8   65.53    8.05
  -9  -5  -8   38.23    3.78
  10   5   8   -0.47    1.32
 -10   5  -8    0.78    1.49
  10  -5   8    1.34    2.00
 -10  -5  -8   -0.12    1.09
  11  -5   8   36.49    5.22
 -11   5  -8   33.11    3.94
  11   5   8   33.67    4.58
 -11  -5  -8   30.36    3.73
 -12  -5  -8    0.91    1.40
  12  -5   8    0.26    2.21
 -12   5  -8   -0.09    1.49
  12   5   8    0.74    1.79
  12  -6  -8    1.63    2.39
  12   6  -8    5.24    2.41
 -12   6   8    3.83    2.36
 -12  -6   8    3.54    2.79
  11   6  -8   17.55    3.56
  11  -6  -8   17.55    4.03
 -11  -6   8   20.44    4.13
 -11   6   8   13.02    3.25
 -10  -6   8    0.27    1.61
  10  -6  -8    0.50    1.78
  10   6  -8    0.29    1.09
 -10   6   8    0.65    1.77
  -9   6   8   36.20    4.48
   9   6  -8   16.73    3.28
  -9  -6   8   38.54    4.85
   9  -6  -8   39.72    4.99
   8  -6  -8    3.20    1.76
  -8  -6   8    7.24    2.38
  -8   6   8    4.39    1.99
   8   6  -8    4.32    1.95
   7  -6  -8   38.43    4.47
   7   6  -8   41.30    4.50
  -7   6   8   32.81    4.12
  -7  -6   8   49.27    4.80
  -7  -6   8   53.80    4.76
  -6  -6   8    3.10    1.56
  -6  -6   8    2.82    1.92
  -6   6   8    2.50    1.56
   6   6  -8    4.72    1.91
   6  -6  -8    2.48    1.66
  -5  -6   8    5.99    1.84
   5   6  -8    6.77    2.09
  -5   6   8    7.08    1.96
   5  -6  -8    5.08    1.82
  -5  -6   8    9.20    2.48
   4  -6  -8    5.95    1.65
   4   6  -8    4.02    1.78
   4   6  -8    4.37    1.17
  -4  -6   8    4.82    1.65
  -4  -6   8    5.73    2.14
  -4   6   8    5.15    1.68
   3  -6  -8   81.96    5.35
  -3  -6   8   84.22    6.34
  -3  -6   8   79.80    4.92
   3   6  -8   84.10    4.50
   3   6  -8   89.13    5.88
  -3   6   8   79.52    5.56
   3  -6  -8   91.14    5.14
  -3   6   8   80.74    4.46
  -2   6   8    4.00    1.44
  -2  -6   8    7.23    1.50
   2  -6  -8    5.56    1.62
   2   6  -8    6.71    1.89
   2   6  -8    5.50    1.28
   2  -6  -8    5.66    1.32
  -2   6   8    5.19    1.24
  -2  -6   8    5.42    2.10
  -1  -6   8  140.89    8.81
  -1  -6   8  121.07    5.93
   1  -6  -8  132.50    6.28
   1   6  -8  130.54    7.25
   1  -6  -8  121.35    6.77
  -1   6   8  119.29    7.12
  -1   6   8  119.62    5.98
   1   6  -8  126.97    6.19
   0   6   8   14.35    2.21
   0  -6  -8   12.57    1.64
   0  -6  -8   14.39    2.32
   0   6  -8   10.77    2.11
   0   6   8   10.64    1.71
   0  -6   8    4.25    1.78
   0   6  -8    9.98    1.72
   1   6   8   40.46    3.22
   1   6   8   39.17    3.07
  -1  -6  -8   37.71    2.67
  -1   6  -8   33.52    3.10
  -1   6  -8   34.95    2.91
  -1  -6  -8   33.73    3.14
   1  -6   8   35.77    4.96
  -2  -6  -8   23.94    2.94
  -2   6  -8   19.51    2.39
   2   6   8   22.82    2.64
   2   6   8   22.11    2.24
  -2   6  -8   19.33    2.49
  -2  -6  -8   20.26    1.92
   2  -6   8   15.00    3.54
   3   6   8    4.18    1.49
  -3   6  -8    1.46    0.99
   3  -6   8    4.48    2.39
  -3   6  -8    2.65    1.16
  -3  -6  -8    2.53    1.42
   3   6   8    3.59    1.16
  -3  -6  -8    3.15    1.02
  -4   6  -8    1.58    1.02
   4   6   8    3.08    1.39
  -4  -6  -8    1.69    0.93
   4  -6   8    3.14    2.35
  -4  -6  -8    2.03    1.28
  -4   6  -8    1.34    1.09
  -5   6  -8   38.78    3.40
   5   6   8   35.29    3.76
   5  -6   8   51.97    6.67
  -5  -6  -8   46.60    4.07
  -5   6  -8   38.25    3.29
  -5  -6  -8   39.31    3.10
  -6   6  -8    3.44    1.39
   6  -6   8    4.64    2.81
  -6   6  -8    3.63    1.48
  -6  -6  -8    6.15    2.02
  -6  -6  -8    4.99    1.39
   6   6   8   -0.21    0.93
   7  -6   8   69.23    7.97
   7   6   8   56.73    4.81
  -7   6  -8   55.09    4.35
  -7  -6  -8   66.13    5.18
  -7   6  -8   60.48    4.50
  -7  -6  -8   56.35    4.16
  -8   6  -8    2.41    1.53
   8   6   8    3.06    1.81
  -8  -6  -8    4.94    2.39
  -8   6  -8    4.44    1.76
  -8  -6  -8    1.04    1.19
   8  -6   8    0.69    2.58
  -9  -6  -8   33.70    4.07
   9  -6   8   35.40    6.50
  -9   6  -8   26.45    3.57
  -9  -6  -8   22.44    3.05
  -9   6  -8   22.53    3.19
   9   6   8   31.94    4.15
  10   6   8    6.96    2.38
 -10  -6  -8    4.63    1.78
 -10  -6  -8    6.71    2.71
 -10   6  -8    5.11    2.08
  11  -6   8   -0.88    2.14
 -11  -6  -8    0.53    1.34
  11   6   8    0.66    1.68
 -11   6  -8    0.16    1.51
 -12   6  -8   -0.38    1.77
  12  -6   8    1.38    2.23
  12   6   8   -0.28    1.66
 -12  -6  -8    2.63    1.61
 -12  -7   8    6.06    2.82
 -12   7   8    6.91    2.91
  12   7  -8    2.52    1.59
  12  -7  -8    2.31    2.37
  11  -7  -8    4.44    2.44
 -11  -7   8    2.34    2.25
  11   7  -8    2.46    2.11
 -11   7   8    3.12    2.22
 -10   7   8    7.12    2.42
  10  -7  -8   11.49    3.13
 -10  -7   8    7.36    2.66
  10   7  -8    7.19    2.56
  -9   7   8    0.43    1.62
   9  -7  -8    0.00    1.47
  -9  -7   8    1.79    1.69
   9   7  -8    0.84    1.87
   8   7  -8    9.33    2.53
  -8   7   8    6.41    2.22
   8  -7  -8    9.27    2.64
  -8  -7   8    7.03    2.30
   7   7  -8   22.51    3.57
   7  -7  -8   17.00    3.23
  -7  -7   8   20.81    3.46
  -7  -7   8   28.25    3.94
  -6  -7   8    6.08    1.90
   6  -7  -8    3.53    1.67
  -6   7   8    5.54    1.95
   6   7  -8    4.04    1.86
  -6  -7   8    5.18    2.27
  -5   7   8   46.16    4.32
   5  -7  -8   47.08    4.38
  -5  -7   8   56.98    4.96
  -5  -7   8   45.73    4.06
   5   7  -8   56.76    4.85
   4   7  -8    8.16    2.36
  -4  -7   8    9.77    2.07
   4   7  -8    8.18    1.57
  -4  -7   8    9.84    2.70
  -4   7   8    7.82    2.12
   4  -7  -8    8.02    2.10
   3   7  -8   14.37    1.93
  -3   7   8   12.88    1.94
  -3   7   8    8.59    2.07
  -3  -7   8   11.87    2.75
   3  -7  -8    3.09    1.43
   3   7  -8   13.04    2.56
  -3  -7   8   13.97    2.26
  -2  -7   8   36.76    2.97
  -2   7   8   36.00    3.39
   2   7  -8   39.13    3.93
  -2   7   8   31.54    2.75
  -2  -7   8   43.31    4.47
   2   7  -8   35.13    2.86
   2  -7  -8   38.53    3.55
  -1   7   8    1.21    1.02
   1   7  -8    1.50    1.13
  -1   7   8   -0.03    0.89
   1   7  -8    1.19    0.86
   1  -7  -8    1.07    1.20
  -1  -7   8    0.86    1.66
   0  -7  -8   27.66    3.25
   0  -7   8    9.87    2.86
   0   7   8   25.74    2.84
   0   7   8   25.12    2.61
   0   7  -8   23.69    2.58
   0   7  -8   19.57    2.72
   0  -7  -8   22.88    1.97
   1   7   8   29.47    2.92
  -1  -7  -8   35.60    2.48
  -1  -7  -8   36.64    3.76
   1   7   8   33.30    2.95
  -1   7  -8   26.95    2.97
  -1   7  -8   25.28    2.76
   1  -7   8   36.97    5.19
   2   7   8    0.45    0.84
   2   7   8    0.64    0.95
  -2   7  -8    0.47    0.92
  -2   7  -8    1.11    0.88
  -2  -7  -8    0.39    1.17
  -2  -7  -8    0.85    0.77
   2  -7   8    0.44    1.76
   3  -7   8  112.29    8.97
  -3   7  -8  104.82    5.95
   3   7   8  110.63    6.18
   3   7   8  104.64    5.83
  -3  -7  -8  104.23    5.50
  -3  -7  -8  114.81    6.76
  -3   7  -8   87.93    5.74
   4   7   8    1.01    1.26
   4  -7   8   -0.02    1.84
  -4  -7  -8    0.81    0.88
  -4   7  -8    0.85    0.99
  -4  -7  -8    1.77    1.51
  -4   7  -8    0.96    1.11
   5   7   8   24.51    3.24
  -5   7  -8   17.86    2.66
  -5  -7  -8   24.42    2.56
   5  -7   8   21.11    4.74
  -5   7  -8   23.36    2.77
  -5  -7  -8   26.66    3.60
   6  -7   8   20.70    4.89
  -6   7  -8   21.99    2.78
  -6  -7  -8   17.02    2.35
  -6  -7  -8   23.79    3.68
  -6   7  -8   23.38    3.07
  -7  -7  -8    1.64    1.17
  -7   7  -8   -0.22    1.03
  -7  -7  -8    1.73    1.82
   7   7   8    1.33    1.58
  -7   7  -8    0.97    1.31
   7  -7   8    2.36    2.72
  -8  -7  -8   26.64    3.12
  -8   7  -8   26.87    3.28
   8  -7   8   31.57    6.06
  -8   7  -8   25.29    3.43
  -8  -7  -8   37.66    4.54
   8   7   8   24.97    3.67
  -9   7  -8   12.76    2.70
   9  -7   8   18.94    5.05
   9   7   8   15.92    3.13
  -9   7  -8   12.35    2.69
  -9  -7  -8   11.89    2.32
  -9  -7  -8   20.87    3.58
 -10  -7  -8    2.26    1.41
 -10  -7  -8    3.20    2.25
 -10   7  -8    2.63    1.90
 -10   7  -8    0.52    1.29
  10   7   8    3.53    2.10
  10  -7   8    4.63    3.61
 -11  -7  -8   30.34    4.32
 -11  -7  -8   16.14    2.96
  11   7   8   22.86    3.97
 -11   7  -8   20.73    3.39
 -12   7  -8    1.95    1.87
  12   7   8    5.38    2.11
 -12  -7  -8    2.49    1.78
  12  -7   8    1.06    2.30
 -11  -8   8    7.46    2.72
  11  -8  -8    5.17    2.49
  11   8  -8    5.26    2.58
 -11   8   8    7.14    2.85
 -10  -8   8    0.54    2.01
  10   8  -8    0.27    1.72
 -10   8   8   -1.65    1.65
  10  -8  -8    0.11    1.86
   9   8  -8   14.05    3.19
   9  -8  -8   15.36    3.44
  -9   8   8   13.88    3.22
  -9  -8   8   16.56    3.28
   8  -8  -8    9.15    2.69
  -8  -8   8   10.41    2.85
  -8   8   8    2.96    1.77
   8   8  -8    9.60    2.79
  -7  -8   8    9.43    2.55
   7  -8  -8    4.79    1.97
  -7   8   8    4.78    2.10
   7   8  -8    8.19    2.57
  -6  -8   8   36.88    4.13
  -6  -8   8   49.53    4.76
   6  -8  -8   35.86    4.38
  -6   8   8   36.01    4.30
   6   8  -8   46.21    4.78
   5   8  -8    9.36    2.41
  -5  -8   8    8.70    2.62
  -5   8   8    5.95    2.03
  -5  -8   8    7.34    1.98
   5  -8  -8    5.80    1.92
   4   8  -8   37.43    4.11
  -4  -8   8   27.93    3.39
   4   8  -8   33.75    2.86
   4  -8  -8   33.47    3.99
  -4   8   8   33.05    3.50
  -4  -8   8   44.31    4.43
   3   8  -8   28.83    2.79
  -3   8   8   29.56    2.93
  -3  -8   8   33.46    3.35
   3  -8  -8   25.50    3.45
  -3   8   8   25.69    3.34
   3   8  -8   31.33    3.65
  -3  -8   8   32.00    4.30
   2   8  -8    1.74    1.09
   2  -8  -8    0.34    1.10
   2   8  -8    1.56    1.39
  -2  -8   8    2.70    1.30
  -2  -8   8    0.15    1.52
  -2   8   8    2.69    1.26
  -2   8   8    3.01    1.40
  -1  -8   8   20.11    3.85
  -1   8   8   18.06    2.47
  -1   8   8   20.68    2.71
   1   8  -8   20.56    2.94
   1  -8  -8   18.55    2.98
   1   8  -8   11.45    2.08
   0   8  -8    2.24    1.12
   0  -8   8    3.87    2.30
   0   8   8    3.27    1.28
   0  -8  -8    3.31    1.55
   0   8  -8    4.27    1.60
   0   8   8    3.22    1.31
   1   8   8   18.41    2.50
   1   8   8   17.80    2.35
  -1  -8  -8   15.01    2.81
  -1   8  -8   17.62    2.48
   1  -8   8   13.05    3.58
  -1   8  -8   15.25    2.34
   2  -8   8   63.62    6.59
  -2   8  -8   64.55    4.40
  -2   8  -8   51.63    4.12
  -2  -8  -8   66.11    5.02
   2   8   8   62.70    4.45
   2   8   8   65.55    4.27
  -3  -8  -8    2.57    1.02
  -3  -8  -8    2.56    1.59
   3   8   8    2.29    1.54
  -3   8  -8    2.12    1.29
   3  -8   8    2.65    2.42
  -3   8  -8    2.90    1.34
   4  -8   8   84.50    8.04
  -4   8  -8   77.60    5.22
  -4   8  -8   76.42    5.09
  -4  -8  -8   89.80    6.22
  -4  -8  -8   81.46    4.77
   4   8   8   88.83    5.68
   5   8   8   38.11    4.04
  -5   8  -8   30.00    3.40
  -5  -8  -8   34.53    2.88
  -5   8  -8   27.58    3.10
  -5  -8  -8   36.86    4.35
   5  -8   8   41.13    6.46
  -6   8  -8    3.12    1.46
  -6  -8  -8    2.39    1.90
  -6   8  -8    1.79    1.32
  -6  -8  -8    2.38    1.16
   6  -8   8    2.78    2.83
   6   8   8   -0.32    1.00
   7   8   8   19.83    3.38
  -7  -8  -8   19.34    3.62
  -7   8  -8   15.82    2.74
   7  -8   8   20.22    5.03
  -7   8  -8   18.95    2.80
  -7  -8  -8   13.64    2.31
  -8   8  -8    9.27    2.23
  -8  -8  -8    6.33    1.81
  -8  -8  -8   12.67    3.49
   8   8   8    7.06    2.36
   8  -8   8    3.96    3.36
  -8   8  -8    6.95    2.11
  -9  -8  -8    2.37    1.52
  -9   8  -8    2.66    1.81
  -9   8  -8    2.64    1.77
  -9  -8  -8    5.27    2.78
   9  -8   8    3.49    3.36
   9   8   8    2.81    1.83
 -10  -8  -8   19.75    3.11
  10  -8   8   23.16    5.97
 -10  -8  -8   23.10    3.99
  10   8   8   15.35    3.25
 -11   8  -8   -0.11    1.71
 -11  -8  -8    3.64    2.58
 -11  -8  -8    2.56    1.37
  11   8   8    0.53    1.70
 -11   9   8    0.22    1.98
 -11  -9   8    0.46    2.01
  11   9  -8   -0.11    1.97
  11  -9  -8    1.66    2.09
 -10  -9   8   20.15    3.82
  10  -9  -8   18.73    3.98
 -10   9   8   16.31    3.64
  10   9  -8   19.70    3.77
   9  -9  -8    1.22    1.71
  -9   9   8    0.45    1.78
  -9  -9   8    0.48    1.59
   9   9  -8    1.07    1.87
  -8  -9   8   17.86    3.48
  -8   9   8    7.96    2.63
   8   9  -8   18.77    3.62
   8  -9  -8   15.35    3.36
   7   9  -8    5.24    2.31
   7  -9  -8    4.04    1.87
  -7   9   8    3.43    1.94
  -7  -9   8    2.56    1.89
   6  -9  -8    8.15    2.42
  -6  -9   8   15.04    3.35
   6   9  -8    9.07    2.58
  -6   9   8    8.09    2.38
  -6  -9   8   10.00    2.52
   5   9  -8    4.77    2.26
  -5  -9   8    4.49    1.80
  -5  -9   8    7.22    2.62
   5  -9  -8    3.77    1.71
  -5   9   8    2.38    1.64
   4   9  -8   30.30    3.82
  -4   9   8   21.28    3.28
   4   9  -8   22.96    2.66
  -4  -9   8   25.61    3.20
  -4  -9   8   33.66    4.42
   4  -9  -8   17.00    3.16
  -3  -9   8    1.68    1.28
  -3  -9   8    1.76    1.83
   3  -9  -8    2.27    1.62
  -3   9   8    0.54    1.10
  -3   9   8    1.34    1.31
   3   9  -8    0.54    0.98
   3   9  -8    1.05    1.42
  -2  -9   8  100.04    7.57
  -2   9   8   94.59    5.64
  -2   9   8   90.26    6.13
   2   9  -8  104.30    6.42
   2   9  -8   89.97    5.34
   2  -9  -8   72.64    5.80
   1   9  -8    0.09    1.27
   1   9  -8    0.93    0.98
  -1   9   8    0.37    1.16
  -1   9   8   -0.36    1.00
  -1  -9   8    0.76    1.75
   1  -9  -8   -0.38    1.14
   0  -9  -8   50.73    4.58
   0   9   8   54.59    4.19
   0   9  -8   49.76    3.85
   0  -9   8   61.05    6.27
   0   9   8   56.31    4.15
   0   9  -8   52.23    4.29
  -1   9  -8    6.22    1.69
   1   9   8    3.50    1.36
   1   9   8    5.13    1.73
  -1   9  -8    6.37    1.79
   1  -9   8    0.61    1.62
  -1  -9  -8    3.22    1.74
   2  -9   8    7.57    3.14
   2   9   8   12.16    1.99
  -2   9  -8   12.06    2.20
   2   9   8    8.78    2.12
  -2  -9  -8    7.01    2.26
  -2   9  -8    8.44    1.93
  -3   9  -8    8.41    1.92
  -3  -9  -8    5.16    2.18
   3   9   8   12.00    2.50
   3  -9   8    9.42    3.44
  -3   9  -8    8.47    1.97
   4   9   8   34.06    3.82
  -4  -9  -8   36.91    4.43
   4  -9   8   38.96    6.38
  -4   9  -8   31.99    3.53
  -4   9  -8   32.33    3.17
  -5   9  -8    3.35    1.54
  -5  -9  -8    2.85    1.96
  -5   9  -8    1.44    1.25
   5  -9   8    2.75    2.60
   5   9   8    0.79    1.36
  -6   9  -8   61.20    4.61
  -6   9  -8   53.08    4.47
   6  -9   8   59.96    7.93
  -6  -9  -8   68.45    5.79
   7   9   8    0.68    1.56
   7  -9   8    2.30    2.74
  -7  -9  -8   -0.25    1.02
  -7  -9  -8    0.65    2.12
  -7   9  -8    0.72    1.34
  -8  -9  -8   35.51    4.81
   8  -9   8   23.79    5.43
  -8   9  -8   22.79    3.48
   8   9   8   23.34    3.74
  -8  -9  -8   24.89    3.14
  -9  -9  -8    2.60    2.40
   9  -9   8    6.26    3.59
   9   9   8    0.80    1.48
  -9  -9  -8    0.87    1.31
  -9   9  -8    0.67    1.58
  10  -9   8    8.31    4.12
 -10  -9  -8    6.32    1.88
  10   9   8    2.36    1.99
 -10   9  -8    0.26    1.34
 -10  -9  -8    3.65    2.83
 -11  -9  -8    6.02    2.17
 -11   9  -8    1.69    2.00
  11   9   8    1.94    1.87
 -11  -9  -8    4.28    2.92
  10 -10  -8    1.49    1.94
  10  10  -8   -1.49    2.10
 -10  10   8   -0.28    1.73
 -10 -10   8    0.56    1.95
   9 -10  -8   -0.36    1.60
   9  10  -8    1.47    2.10
  -9  10   8    1.35    1.54
  -9 -10   8    0.35    1.58
  -8 -10   8    9.63    2.75
   8  10  -8   14.75    3.32
   8 -10  -8   13.58    3.28
  -8  10   8   12.19    3.12
   7  10  -8    1.16    2.17
  -7 -10   8   -0.03    1.53
   7 -10  -8    2.40    1.72
  -7  10   8    1.37    1.67
  -6  10   8   62.54    5.35
   6  10  -8   62.37    5.51
   6 -10  -8   49.02    5.49
  -6 -10   8   60.62    5.06
   5 -10  -8    0.29    1.30
   5  10  -8    0.30    1.69
  -5 -10   8    1.78    2.20
  -5  10   8    0.13    1.25
  -5 -10   8    0.12    1.46
   4 -10  -8   44.26    4.90
  -4 -10   8   49.16    4.20
   4  10  -8   40.83    3.52
  -4  10   8   37.48    4.03
  -4 -10   8   53.82    5.37
   4  10  -8   49.93    4.91
  -3  10   8    0.86    1.29
  -3  10   8    0.35    1.22
   3 -10  -8   -0.60    1.53
  -3 -10   8    2.06    2.05
   3  10  -8    1.12    1.71
   3  10  -8    0.20    1.03
   2  10  -8    1.61    1.29
  -2  10   8    3.18    1.52
  -2  10   8    0.73    1.43
  -2 -10   8    2.63    2.17
   2  10  -8    4.15    1.96
   2 -10  -8    3.41    1.89
   1  10  -8    1.65    1.15
  -1  10   8    2.75    1.40
   1 -10  -8    0.07    1.34
   1  10  -8    2.58    1.78
  -1  10   8    2.28    1.61
  -1 -10   8    2.21    2.16
   0  10  -8    8.71    1.90
   0  10   8    9.18    2.23
   0 -10   8   12.42    3.76
   0  10   8    8.82    2.06
   0 -10  -8    2.40    1.48
   0  10  -8   11.37    2.37
   1  10   8    4.05    1.49
  -1 -10  -8    0.81    1.54
   1 -10   8    2.76    2.65
   1  10   8    2.75    1.61
  -1  10  -8    2.94    1.50
  -1  10  -8    2.09    1.35
  -2  10  -8   76.45    5.02
   2  10   8   68.02    5.06
   2 -10   8   74.15    7.55
  -2 -10  -8   66.77    5.67
  -2  10  -8   73.49    5.02
  -3  10  -8    1.27    1.38
   3  10   8    2.38    1.65
  -3  10  -8    1.34    1.23
  -3 -10  -8    2.50    1.90
   3 -10   8    0.97    2.20
  -4  10  -8   53.51    4.43
   4 -10   8   59.36    7.75
   4  10   8   65.07    5.20
  -4 -10  -8   65.26    5.62
  -5  10  -8    1.68    1.39
   5  10   8    2.70    1.62
   5 -10   8    1.92    2.43
  -5 -10  -8    0.84    2.03
   6 -10   8    2.64    2.78
   6  10   8    0.97    1.35
  -6  10  -8    0.47    1.14
  -6 -10  -8    0.27    2.07
  -7  10  -8   -0.18    1.38
   7  10   8    0.15    1.57
  -7 -10  -8    0.08    2.19
   7 -10   8    0.87    2.54
   8 -10   8    8.15    3.71
  -8  10  -8    9.01    2.49
  -8 -10  -8   14.97    3.72
   8  10   8    8.45    2.57
   9 -10   8    1.19    3.36
  -9  10  -8   -0.77    1.48
  -9 -10  -8    0.60    2.56
   9  10   8    1.62    1.95
  10  10   8   19.03    3.78
 -10 -10  -8   34.06    5.06
  10 -10   8   28.74    6.54
 -10 -11   8   10.30    3.03
  10  11  -8   13.91    3.39
  10 -11  -8    7.65    2.88
 -10  11   8    8.34    3.05
   9  11  -8   -0.60    2.11
   9 -11  -8    1.89    2.05
  -9  11   8    0.51    1.81
  -9 -11   8   -0.88    1.45
  -8  11   8   14.00    3.28
   8 -11  -8   18.95    4.00
   8  11  -8   19.57    3.95
  -8 -11   8   18.67    3.57
   7 -11  -8    2.88    2.11
  -7 -11   8    2.80    1.84
   7  11  -8    2.86    2.36
  -7  11   8    2.15    1.89
   6  11  -8    0.17    1.93
  -6 -11   8    1.13    1.60
  -6  11   8    0.91    1.54
   6 -11  -8    2.39    1.79
  -5 -11   8   12.84    3.30
   5 -11  -8    5.10    2.21
  -5 -11   8    9.20    2.53
  -5  11   8    9.03    2.52
   5  11  -8    6.87    2.65
   4  11  -8   15.44    3.12
  -4 -11   8   17.89    3.75
   4  11  -8   11.80    2.28
  -4  11   8   12.45    2.80
   4 -11  -8    8.78    2.56
  -3 -11   8    3.37    2.51
   3  11  -8    3.57    1.98
  -3  11   8    1.04    1.54
   3 -11  -8    2.18    1.75
   3  11  -8    0.30    1.25
  -3  11   8    0.93    1.50
  -2 -11   8   64.83    6.38
  -2  11   8   54.43    4.74
  -2  11   8   57.76    4.90
   2 -11  -8   62.79    5.52
   2  11  -8   57.62    4.38
   2  11  -8   68.04    5.18
   1  11  -8   -1.02    1.03
  -1 -11   8   -0.31    2.18
  -1  11   8    0.00    1.36
   1 -11  -8   -1.18    1.49
   1  11  -8   -0.15    1.53
  -1  11   8    0.24    1.18
   0  11  -8   50.30    4.16
   0 -11  -8   42.81    5.11
   0 -11   8   70.00    6.96
   0  11   8   59.36    4.64
   0  11   8   52.98    4.61
   1 -11   8    2.53    2.61
   1  11   8    1.79    1.59
  -1  11  -8    5.28    1.72
   1  11   8    1.65    1.40
  -1 -11  -8   -0.14    1.35
   2  11   8    3.17    1.96
  -2 -11  -8    1.66    1.89
   2 -11   8    2.09    2.06
  -2  11  -8    2.38    1.47
   3  11   8    8.68    2.32
  -3 -11  -8    7.64    2.80
   3 -11   8    7.92    3.35
  -3  11  -8    7.75    2.08
  -4 -11  -8    8.76    2.78
   4 -11   8    8.47    3.37
  -4  11  -8    6.10    1.91
   4  11   8    8.73    2.50
   5 -11   8    2.45    2.59
  -5 -11  -8    0.42    2.00
   5  11   8    0.98    1.75
  -5  11  -8    1.60    1.50
   6  11   8   18.02    3.33
  -6  11  -8   23.20    3.41
  -6 -11  -8   32.29    4.86
   6 -11   8   30.22    6.07
   7 -11   8    1.05    3.04
  -7 -11  -8   -1.29    2.18
   7  11   8    0.51    1.79
  -7  11  -8    0.07    1.35
   8  11   8   23.16    4.03
   8 -11   8   27.42    6.28
  -8  11  -8   14.60    3.12
  -8 -11  -8   22.99    4.55
   9 -11   8    2.19    3.26
   9  11   8   -0.08    1.50
  -9  11  -8    0.03    1.52
  -9 -11  -8    0.96    2.71
   9 -12  -8    8.53    2.95
  -9 -12   8    7.47    2.56
  -9  12   8    8.89    3.22
   9  12  -8    8.15    3.09
  -8  12   8   10.03    2.87
   8 -12  -8    6.15    2.67
  -8 -12   8    9.96    2.87
  -7 -12   8    2.82    1.97
  -7  12   8    4.23    2.34
   7  12  -8    4.47    2.82
   7 -12  -8    1.96    2.07
   6 -12  -8   15.78    3.62
  -6 -12   8   15.06    3.17
  -6  12   8   13.14    3.16
   6  12  -8   17.20    3.80
  -5  12   8    3.04    1.78
   5 -12  -8    0.52    1.68
   5  12  -8    2.90    2.17
  -4 -12   8   26.83    4.59
  -4  12   8   17.80    3.45
   4 -12  -8   19.97    3.73
   4  12  -8   21.94    3.00
   3 -12  -8   10.28    2.78
  -3  12   8    6.88    2.27
  -3  12   8    7.07    2.32
  -3 -12   8   11.48    3.35
   3  12  -8    6.15    1.98
   2 -12  -8    1.82    1.74
  -2  12   8    2.37    1.65
   2  12  -8    3.51    1.54
  -2  12   8    2.79    1.69
  -2 -12   8    5.64    2.73
   1 -12  -8   11.63    3.07
   1  12  -8   17.31    2.75
  -1  12   8   12.64    2.70
  -1  12   8   14.05    3.03
  -1 -12   8   10.82    3.64
   0 -12   8   21.10    4.84
   0  12  -8   18.26    2.85
   0  12   8   17.43    3.21
   0 -12  -8   16.15    3.56
   0  12   8   17.93    2.88
  -1  12  -8    8.65    2.20
  -1 -12  -8    6.17    2.47
   1  12   8    9.17    2.60
   1 -12   8    7.03    3.40
  -2  12  -8   36.11    3.87
   2 -12   8   38.45    6.49
   2  12   8   40.07    4.59
  -3  12  -8    0.80    1.31
   3  12   8    0.89    1.97
  -3 -12  -8    1.16    2.08
   3 -12   8    0.52    2.31
   4 -12   8   15.31    4.33
   4  12   8   23.39    3.87
  -4  12  -8   19.11    3.14
  -4 -12  -8   15.10    3.60
   5  12   8    4.89    2.38
   5 -12   8   12.32    4.15
  -5 -12  -8    4.40    2.61
  -5  12  -8    3.46    1.83
   6  12   8    2.56    1.85
  -6 -12  -8    0.64    2.23
   6 -12   8    3.12    3.09
  -6  12  -8   -0.97    1.19
   7 -12   8   12.87    4.65
  -7 -12  -8    7.92    3.36
   7  12   8   13.49    3.36
  -7  12  -8   11.53    2.75
   8 -12   8   13.97    4.73
  -8 -12  -8   12.50    3.77
  -8  12  -8    3.82    2.19
   8  12   8    5.37    2.42
  -8  13   8    2.87    1.99
   8 -13  -8    4.80    2.19
  -8 -13   8    1.37    1.74
  -7 -13   8   10.90    2.74
   7 -13  -8    9.61    3.00
  -7  13   8    8.56    2.88
  -6  13   8    1.38    1.83
   6 -13  -8    1.45    1.99
  -5  13   8   12.66    3.02
   5 -13  -8    9.12    2.90
  -4 -13   8    4.14    2.95
  -4  13   8    3.67    1.95
   4  13  -8    4.66    1.75
   4 -13  -8    1.92    1.98
  -3  13   8    8.18    2.39
  -3  13   8    5.27    2.26
   3 -13  -8    6.34    2.30
  -3 -13   8    6.64    2.90
   3  13  -8    7.10    2.11
  -2  13   8   16.77    3.29
   2  13  -8   14.29    2.67
  -2 -13   8   21.20    4.66
   2 -13  -8    9.74    2.83
  -2  13   8   15.62    3.05
  -1 -13   8    3.94    2.86
   1  13  -8    1.03    1.35
  -1  13   8    0.69    1.50
   1 -13  -8    2.27    1.95
  -1  13   8    1.56    1.88
   0  13  -8   11.90    2.44
   0  13   8    9.69    2.74
   0  13   8   12.01    2.55
   0 -13   8   11.78    3.98
   0 -13  -8    9.79    3.01
   1 -13   8   27.38    5.78
   1  13   8   16.44    3.40
  -1 -13  -8   17.99    3.84
  -1  13  -8   20.68    3.09
  -2  13  -8    0.46    1.24
   2  13   8   -0.13    1.77
   2 -13   8    0.15    2.85
  -2 -13  -8   -0.65    1.81
   3 -13   8   21.46    5.29
   3  13   8   24.37    4.04
  -3  13  -8   24.44    3.47
   4  13   8    2.55    2.13
  -4 -13  -8    1.47    2.15
   4 -13   8   -2.11    2.75
  -4  13  -8    1.55    1.66
  -5 -13  -8    7.65    3.06
   5 -13   8   10.66    3.98
  -5  13  -8    8.72    2.24
   5  13   8    6.82    2.77
   6  13   8    7.74    2.65
  -6  13  -8    6.66    2.10
  -6 -13  -8   10.73    3.64
   6 -13   8    5.32    3.59
   7 -13   8    1.03    2.58
  -7  13  -8    1.81    1.61
   7  13   8    2.38    2.27
  -7 -13  -8    0.77    2.53
  -6  14   8    3.69    2.14
   6 -14  -8    3.39    2.22
  -5  14   8    1.52    1.82
   5 -14  -8   -0.28    1.99
   4  14  -8    1.31    1.48
   4 -14  -8    1.49    2.04
  -4  14   8    1.49    1.77
  -3 -14   8    8.08    3.33
  -3  14   8    7.31    2.77
  -3  14   8   12.00    3.04
   3 -14  -8    9.74    2.96
   3  14  -8   10.00    2.32
  -2 -14   8    1.66    2.77
   2  14  -8    0.22    1.40
  -2  14   8    1.75    1.59
   2 -14  -8    0.26    1.90
  -2  14   8   -1.39    1.74
  -1  14   8   31.46    4.06
  -1  14   8   36.64    4.84
   1 -14  -8   24.48    4.57
   1  14  -8   22.07    3.31
  -1 -14   8   36.32    6.05
   0 -14   8    1.55    3.21
   0  14   8    0.99    2.08
   0  14  -8    1.63    1.50
   0 -14  -8    0.44    1.76
  -1  14  -8    6.88    2.12
  -1 -14  -8    3.56    2.47
   1  14   8    8.24    2.82
   1 -14   8    5.59    3.73
   2 -14   8    2.86    3.40
  -2 -14  -8    2.36    2.36
  -2  14  -8    2.07    1.56
   2  14   8    3.05    2.40
  -3 -14  -8    2.52    2.55
   3  14   8   -0.67    2.08
  -3  14  -8    1.93    1.61
   3 -14   8    2.55    2.65
  -4  14  -8    1.44    1.58
   4 -14   8    1.73    2.95
  -4 -14  -8    0.43    1.84
   4  14   8    3.40    2.39
   5 -14   8    8.79    3.57
  -5  14  -8   11.46    2.70
  -5 -14  -8    8.47    3.44
   5  14   8   12.50    3.56
  -6 -14  -8    0.14    2.62
   6  14   8    1.84    2.01
  -6  14  -8    0.71    1.45
   6 -14   8    0.68    2.81
   4  15  -8    0.79    1.49
   4 -15  -8    0.77    2.08
  -4  15   8    0.37    1.64
  -3 -15   8    7.63    3.28
  -3  15   8    5.39    2.28
   3 -15  -8    4.83    2.53
  -3  15   8    6.33    2.55
   3  15  -8    4.88    1.90
   2 -15  -8    0.14    1.79
   2  15  -8    1.76    1.49
  -2 -15   8    1.93    2.73
  -2  15   8    0.36    1.74
  -2  15   8   -2.04    1.89
   1  15  -8    7.47    2.16
   1 -15  -8    2.82    2.15
  -1  15   8    4.68    2.47
  -1 -15   8    4.29    3.29
   0  15  -8    2.73    1.69
   0 -15   8    1.35    2.99
   0  15   8   -0.76    2.17
   0 -15  -8    0.58    1.77
   1 -15   8   20.36    5.35
  -1  15  -8   19.85    3.23
  -1 -15  -8   10.55    3.11
   1  15   8   18.28    3.96
  -2  15  -8    1.49    1.49
   2 -15   8    1.75    2.99
  -2 -15  -8    1.37    2.37
   2  15   8    1.74    2.29
  -3 -15  -8   15.42    4.40
   3  15   8   14.64    3.72
   3 -15   8   21.10    5.53
  -3  15  -8   19.94    3.42
  -4  15  -8    0.22    1.45
   4  15   8    2.39    2.42
  -4 -15  -8    0.02    2.73
   4 -15   8    0.24    3.22
  13   0  -9    9.36    3.32
 -13   0   9    8.58    3.13
  12   0  -9    0.62    2.25
 -12   0   9   -1.68    1.86
  11   0  -9    0.76    1.78
 -11   0   9    0.80    1.57
 -11   0   9    1.87    1.95
  10   0  -9    0.62    1.63
 -10   0   9    1.48    1.82
 -10   0   9    1.28    1.69
  -9   0   9   35.38    4.66
   9   0  -9   31.12    4.50
  -9   0   9   31.26    4.15
  -8   0   9   -0.50    1.32
   8   0  -9    0.73    1.59
  -8   0   9    0.04    1.26
   7   0  -9  112.77    7.48
  -7   0   9  108.29    7.35
  -7   0   9  113.21    7.06
  -6   0   9    0.79    1.11
  -6   0   9   -1.28    0.94
   6   0  -9   -0.80    1.19
   5   0  -9   28.31    3.74
  -5   0   9   37.15    3.26
  -5   0   9   33.60    3.88
  -4   0   9    0.19    0.74
   4   0  -9    1.16    1.07
  -4   0   9   -0.18    1.04
   3   0  -9    1.10    1.05
  -3   0   9    1.55    0.92
  -3   0   9    1.15    1.22
   2   0  -9    1.24    0.76
  -2   0   9    1.33    0.68
   2   0  -9    0.02    0.90
  -2   0   9   -0.04    0.91
  -1   0   9   77.06    3.93
  -1   0   9   62.66    5.22
   1   0  -9   68.08    4.84
   1   0  -9   75.94    3.96
   0   0  -9    1.68    0.70
   0   0   9    1.21    1.24
   0   0  -9   -0.17    0.76
   0   0   9    1.12    0.84
  -1   0  -9  143.05    7.59
   1   0   9  148.28    7.12
   1   0   9  147.05    8.85
  -1   0  -9  154.38    6.38
   2   0   9    0.24    0.89
  -2   0  -9    0.26    0.58
  -2   0  -9    0.16    0.63
   2   0   9    0.45    1.10
  -3   0  -9   61.83    3.27
   3   0   9   62.73    5.07
  -3   0  -9   59.34    4.08
   3   0   9   56.65    4.22
   4   0   9    1.95    1.38
  -4   0  -9    0.19    0.77
   4   0   9   -0.05    0.94
  -5   0  -9   32.58    2.95
   5   0   9   39.98    4.04
   5   0   9   36.73    3.78
  -6   0  -9   -0.24    0.83
   6   0   9   -0.56    1.14
   6   0   9    0.40    1.32
  -7   0  -9   46.99    3.67
   7   0   9   34.71    4.09
  -8   0  -9   -0.78    0.93
   8   0   9   -1.19    1.42
   9   0   9   55.44    5.40
  -9   0  -9   49.26    4.25
  10   0   9   -0.62    1.51
 -10   0  -9   -0.22    1.23
 -11   0  -9   28.37    3.62
  11   0   9   28.87    4.33
 -12   0  -9    0.51    1.66
  12   0   9   -1.05    1.68
 -13   0  -9    0.78    1.58
  13   0   9    1.18    1.88
 -13  -1   9    9.24    3.45
  13   1  -9    8.04    3.06
  13  -1  -9    7.52    2.98
 -13   1   9    7.93    3.29
 -12  -1   9    2.33    2.29
  12  -1  -9    1.43    2.24
 -12   1   9   -0.44    2.10
  12   1  -9    1.68    2.04
 -11   1   9   31.26    4.34
 -11   1   9   36.65    5.31
  11   1  -9   32.40    4.83
 -11  -1   9   35.53    5.20
  11  -1  -9   35.38    5.08
 -10  -1   9    2.33    1.91
 -10  -1   9   -0.02    1.69
 -10   1   9    1.18    1.59
  10   1  -9    1.38    1.64
 -10   1   9    1.82    2.00
  10  -1  -9    1.31    1.93
  -9  -1   9   24.45    4.03
  -9   1   9   23.17    3.91
  -9  -1   9   29.73    3.91
   9   1  -9   22.15    3.84
   9  -1  -9   23.66    4.00
  -9   1   9   23.89    3.74
  -8   1   9    5.41    2.07
  -8  -1   9    7.59    2.50
   8  -1  -9    2.37    1.94
   8   1  -9    4.32    2.20
  -8   1   9    6.27    2.12
  -8  -1   9    5.98    2.12
  -7  -1   9    2.90    1.58
   7  -1  -9    1.68    1.75
  -7   1   9    2.12    1.58
  -7   1   9    1.33    1.35
   7   1  -9    1.06    1.60
  -7  -1   9    2.11    1.61
   6  -1  -9   10.41    2.62
  -6   1   9   15.28    2.91
  -6   1   9   12.42    2.39
  -6  -1   9   15.50    2.68
  -6  -1   9   10.69    2.51
   6   1  -9   10.31    2.49
  -5  -1   9  100.58    6.72
  -5  -1   9   96.31    5.76
  -5   1   9   82.66    5.47
   5   1  -9  102.99    6.64
  -5   1   9   91.01    6.35
   5  -1  -9   79.03    6.11
  -4   1   9    2.40    1.10
   4   1  -9    0.70    1.17
  -4   1   9   -0.12    0.73
  -4  -1   9    3.47    1.18
   4  -1  -9    1.75    1.29
  -4  -1   9    2.06    1.56
   3   1  -9  165.91    8.99
   3  -1  -9  163.52    8.88
  -3   1   9  166.47    9.43
  -3  -1   9  160.45    7.74
  -2   1   9    0.95    1.10
  -2  -1   9    1.32    0.78
   2  -1  -9    1.33    1.09
   2   1  -9    1.10    1.05
   2  -1  -9    1.34    0.90
  -2  -1   9    0.27    1.24
  -2  -1   9    1.65    0.93
  -2   1   9    0.71    0.62
  -1   1   9   70.60    3.77
  -1  -1   9   75.10    3.99
   1  -1  -9   76.72    4.12
  -1  -1   9   76.32    5.73
   1   1  -9   75.09    3.87
  -1   1   9   71.52    5.34
   1   1  -9   60.35    4.68
   1  -1  -9   70.78    4.86
   0   1   9   35.48    3.99
   0  -1  -9   39.53    3.32
   0   1  -9   42.24    2.48
   0  -1  -9   40.39    2.71
   0  -1   9   42.72    2.98
   0   1  -9   37.32    3.31
   0   1   9   39.70    2.82
   0  -1   9   41.97    4.05
   1  -1   9    0.51    0.89
   1   1   9    0.29    0.93
  -1   1  -9    0.76    0.47
   1  -1   9    1.21    1.14
  -1  -1  -9    0.25    0.62
  -1  -1  -9    0.33    0.60
   1   1   9   -0.29    0.76
  -1   1  -9   -0.40    0.60
   2   1   9   24.36    2.73
   2  -1   9   23.30    2.63
  -2  -1  -9   21.31    2.49
  -2   1  -9   24.15    2.66
  -2  -1  -9   22.14    1.96
   2  -1   9   26.97    3.71
  -2   1  -9   22.62    1.60
   2   1   9   21.99    3.16
  -3  -1  -9   97.41    4.83
  -3  -1  -9   83.78    5.25
   3   1   9   96.92    5.57
   3  -1   9   94.94    5.67
   3   1   9   90.74    6.31
  -3   1  -9   92.45    5.50
   3  -1   9  101.69    6.93
   4   1   9    3.60    1.63
   4  -1   9    1.92    1.32
  -4  -1  -9    2.22    1.00
  -4  -1  -9    3.48    1.07
   4  -1   9    2.15    1.64
  -4   1  -9    2.19    1.12
   4   1   9    1.01    1.08
   5   1   9  119.77    7.56
  -5   1  -9  115.30    6.64
   5  -1   9  122.25    7.16
   5   1   9  127.88    7.14
  -5  -1  -9  112.82    6.51
   5  -1   9  146.46    8.72
   6  -1   9    4.31    1.75
   6  -1   9    3.05    2.11
  -6  -1  -9    1.82    1.09
   6   1   9    1.81    1.43
  -6   1  -9    2.26    1.34
  -7  -1  -9   50.14    3.85
   7   1   9   33.44    4.08
   7  -1   9   49.22    4.42
  -7   1  -9   52.70    4.03
   8  -1   9    1.03    1.66
   8   1   9   -0.28    1.35
  -8   1  -9    0.56    1.06
  -8  -1  -9   -0.46    0.94
  -9   1  -9    0.26    0.98
  -9  -1  -9    0.74    1.24
   9  -1   9    3.80    2.03
   9   1   9    0.98    1.59
  10   1   9    5.93    2.32
 -10   1  -9    0.62    1.09
 -10  -1  -9    6.14    1.78
  10  -1   9    6.84    2.35
 -11  -1  -9    7.42    2.14
 -11   1  -9    4.65    1.74
  11  -1   9   13.93    3.42
  11   1   9    6.36    2.53
  12  -1   9    0.69    1.90
  12   1   9    2.21    2.00
 -12  -1  -9   -0.40    1.46
 -12   1  -9   -0.60    1.50
 -13   1  -9   14.41    3.21
  13  -1   9   12.43    3.04
  13   1   9   14.85    3.34
 -13  -1  -9   11.63    2.81
  13  -2  -9    4.48    2.66
 -13  -2   9    4.66    2.87
  13   2  -9    3.53    2.65
 -13   2   9    6.79    3.36
 -12   2   9    8.28    2.88
 -12   2   9    9.35    2.87
  12  -2  -9   10.90    3.47
 -12  -2   9    9.17    3.13
  12   2  -9    5.62    2.55
  11  -2  -9    1.52    2.12
 -11   2   9    1.80    1.91
 -11   2   9    1.31    1.82
 -11  -2   9    0.03    1.95
  11   2  -9    1.16    1.83
 -10  -2   9   15.27    3.13
  10   2  -9   11.23    2.90
 -10   2   9   17.16    3.36
  10  -2  -9   15.29    3.45
 -10  -2   9    9.90    2.89
 -10   2   9   14.65    3.31
   9   2  -9   29.75    4.34
  -9  -2   9   28.74    4.00
  -9  -2   9   35.64    4.64
  -9   2   9   37.95    4.68
   9  -2  -9   23.54    4.07
  -9   2   9   27.63    3.96
   8  -2  -9    4.86    2.05
  -8  -2   9    6.78    2.25
  -8   2   9    6.14    2.20
   8   2  -9    6.28    2.18
  -8  -2   9    5.52    2.15
  -8   2   9    7.03    2.29
  -7   2   9   68.60    5.47
  -7  -2   9   59.66    5.15
  -7   2   9   63.58    4.98
   7   2  -9   64.26    5.34
   7  -2  -9   53.61    5.07
  -7  -2   9   73.21    5.39
  -6  -2   9    8.29    2.24
   6   2  -9    8.33    2.24
  -6  -2   9    5.60    1.88
  -6   2   9    5.84    1.96
  -6   2   9    5.30    1.77
   6  -2  -9    6.16    2.18
   5   2  -9   26.81    3.62
  -5   2   9   29.43    3.69
  -5  -2   9   29.05    3.30
  -5  -2   9   27.62    3.81
   5  -2  -9   29.99    3.77
   4  -2  -9   46.65    3.69
   4  -2  -9   47.87    4.24
  -4  -2   9   45.11    4.45
   4   2  -9   47.09    4.24
  -4   2   9   49.27    4.26
  -4  -2   9   48.02    3.61
  -3  -2   9    1.07    0.90
   3  -2  -9    0.66    0.89
  -3   2   9    0.17    0.96
   3   2  -9    1.08    1.09
   3  -2  -9    1.67    1.13
  -3  -2   9    1.30    1.36
   2   2  -9   24.44    3.16
  -2   2   9   28.35    1.91
  -2   2   9   31.09    3.20
  -2  -2   9   28.25    3.84
  -2  -2   9   27.55    2.37
   2  -2  -9   34.79    2.71
   2  -2  -9   27.65    3.17
   2   2  -9   31.59    2.06
   1  -2  -9   62.99    4.44
   1   2  -9   61.15    4.59
  -1  -2   9   56.63    3.44
  -1   2   9   62.71    3.47
   1   2  -9   65.03    3.51
  -1   2   9   60.50    4.76
  -1  -2   9   70.37    5.53
   1  -2  -9   68.98    4.03
   0   2  -9   11.43    1.58
   0   2   9   11.52    1.68
   0   2   9   10.10    2.20
   0  -2   9   11.63    2.62
   0  -2  -9   10.74    1.94
   0  -2  -9   12.58    1.71
   0   2  -9   10.52    2.13
   0   2  -9   12.68    1.28
  -1   2  -9  107.41    5.33
   1  -2   9  105.42    7.31
  -1   2  -9  108.31    4.42
  -1  -2  -9  113.51    5.39
  -1   2  -9   94.08    5.91
   1   2   9  107.71    6.69
  -1  -2  -9  101.95    5.82
   1   2   9  104.39    5.49
  -2   2  -9    6.83    1.63
  -2  -2  -9    8.12    1.52
   2  -2   9    6.45    2.17
   2   2   9    5.16    1.57
  -2   2  -9    8.49    1.57
  -2  -2  -9    8.13    1.65
   2   2   9    7.58    1.69
   3   2   9   47.11    4.03
  -3  -2  -9   55.34    3.46
   3   2   9   48.46    3.71
  -3  -2  -9   44.24    3.40
   3  -2   9   54.05    5.03
  -4  -2  -9   84.45    5.11
   4   2   9   89.03    5.86
   4   2   9   77.66    5.28
  -4  -2  -9  100.90    5.08
   4  -2   9   84.60    5.66
   5  -2   9   -0.19    1.07
  -5  -2  -9    0.64    0.81
   5  -2   9   -1.18    1.54
   5   2   9    1.25    1.31
  -5  -2  -9    2.74    1.30
  -5   2  -9    0.48    0.68
   5   2   9    0.72    1.22
   6  -2   9   37.30    4.16
   6   2   9   39.54    4.08
   6  -2   9   68.01    5.88
  -6   2  -9   26.15    3.20
  -6  -2  -9   36.17    3.25
  -7   2  -9   38.42    3.45
   7  -2   9   57.48    6.30
   7   2   9   23.51    3.54
  -7  -2  -9   39.20    3.42
   7  -2   9   36.78    4.28
  -8   2  -9    1.34    1.22
   8  -2   9    1.84    1.73
   8   2   9    1.84    1.71
  -8  -2  -9    2.14    1.31
   9   2   9   45.50    4.98
  -9   2  -9   48.70    4.19
   9  -2   9   50.29    5.32
  -9  -2  -9   42.94    3.90
 -10  -2  -9    2.10    1.41
  10  -2   9    2.44    2.03
  10   2   9    3.83    1.93
 -10   2  -9    1.41    1.42
 -11  -2  -9   12.66    2.56
 -11   2  -9   12.10    2.74
  11  -2   9   13.62    3.37
  11   2   9   10.17    2.94
  12   2   9   12.11    3.17
  12  -2   9   11.76    3.26
 -12   2  -9    6.99    2.50
 -12  -2  -9    7.70    2.26
 -13  -3   9    6.78    2.86
  13  -3  -9    7.28    3.28
  13   3  -9    5.47    2.75
 -13   3   9    2.64    2.91
 -12   3   9    0.88    2.29
 -12  -3   9    0.65    1.98
  12   3  -9    0.12    1.74
  12  -3  -9    2.08    2.32
 -12   3   9    0.68    1.98
 -11   3   9    4.20    2.33
  11   3  -9    6.52    2.66
 -11   3   9    9.71    2.82
  11  -3  -9    7.81    3.17
 -11  -3   9   10.05    2.95
  10  -3  -9    3.16    2.38
 -10   3   9   10.76    2.87
  10   3  -9    6.40    2.32
 -10   3   9    5.22    2.21
 -10  -3   9    8.66    2.74
  -9  -3   9    5.81    2.20
   9   3  -9    2.14    1.75
   9  -3  -9    4.77    2.42
  -9  -3   9    1.61    1.75
  -9   3   9    6.26    2.20
  -9   3   9    2.48    1.70
   8   3  -9   43.56    4.87
  -8  -3   9   51.51    4.74
  -8   3   9   52.00    5.06
  -8   3   9   44.20    4.49
  -8  -3   9   49.58    5.17
   8  -3  -9   39.74    4.91
  -7  -3   9    1.00    1.55
  -7   3   9    1.51    1.33
  -7   3   9    0.35    1.32
   7   3  -9    0.10    1.38
  -7  -3   9    1.38    1.53
   7  -3  -9    1.41    1.56
  -6   3   9   36.01    4.24
  -6  -3   9   44.37    4.04
   6   3  -9   39.96    4.43
   6  -3  -9   39.05    4.48
  -6  -3   9   46.67    4.44
   6  -3  -9   47.18    4.21
   5  -3  -9    5.34    1.77
   5  -3  -9    5.50    1.76
  -5  -3   9    6.70    1.83
   5   3  -9    5.57    1.88
  -5  -3   9    8.32    2.37
   4  -3  -9    4.48    1.72
   4  -3  -9    4.89    1.58
   4   3  -9    4.76    1.82
  -4  -3   9    4.79    1.53
  -4  -3   9    5.79    2.09
  -4   3   9    4.16    1.65
  -3  -3   9   68.39    5.63
   3   3  -9   68.45    5.12
  -3   3   9   65.42    5.03
   3  -3  -9   69.72    4.51
  -3  -3   9   69.11    4.26
   3  -3  -9   64.99    4.83
   2   3  -9   29.98    3.41
  -2   3   9   22.70    3.04
  -2   3   9   21.82    1.80
   2  -3  -9   26.22    3.05
  -2  -3   9   25.08    2.23
   2   3  -9   26.23    2.03
   2  -3  -9   32.30    2.70
   1  -3  -9   22.99    2.65
   1   3  -9   18.68    1.88
  -1   3   9   21.57    1.82
   1  -3  -9   20.08    2.32
  -1  -3   9   21.08    1.84
  -1   3   9   21.90    2.87
  -1  -3   9   20.97    3.53
   1   3  -9   10.28    2.13
   0   3   9  111.75    6.92
   0  -3  -9  115.74    6.31
   0   3  -9  117.11    5.64
   0  -3  -9  125.15    6.08
   0   3   9  112.11    5.62
   0  -3   9  116.47    7.90
   1   3   9    2.41    1.21
  -1  -3  -9    3.42    1.14
  -1   3  -9    1.12    0.77
   1  -3   9    2.60    1.50
  -1   3  -9    0.77    0.83
   1   3   9    3.03    1.14
  -1  -3  -9    2.01    1.04
   2   3   9  105.97    5.86
  -2   3  -9  105.43    5.54
  -2  -3  -9  109.54    5.67
  -2   3  -9  102.72    6.08
   2  -3   9  116.91    7.93
   2   3   9  102.00    6.45
  -2  -3  -9  105.42    5.82
  -3   3  -9    9.87    1.98
  -3  -3  -9    8.94    1.77
  -3  -3  -9   11.58    1.83
   3   3   9    7.11    1.84
   3  -3   9   11.66    2.92
   3   3   9   10.05    2.06
  -3   3  -9   11.14    1.85
  -4  -3  -9   24.75    2.75
   4   3   9   23.80    2.84
   4  -3   9   30.07    4.75
   4   3   9   18.89    2.83
  -4   3  -9   23.57    2.77
  -4   3  -9   21.27    2.54
  -4  -3  -9   23.72    2.52
  -5   3  -9   47.14    3.63
  -5   3  -9   39.68    3.58
   5  -3   9   55.98    5.68
  -5  -3  -9   45.46    3.50
   5   3   9   44.60    3.97
  -5  -3  -9   51.66    3.75
  -6   3  -9    3.05    1.49
   6   3   9    1.73    1.47
   6  -3   9    4.49    2.58
  -6  -3  -9    4.85    1.69
  -6  -3  -9    3.16    1.32
   6  -3   9    2.53    1.68
  -7  -3  -9   21.00    2.73
   7   3   9   10.85    2.53
  -7   3  -9   19.76    2.78
   7  -3   9   25.73    3.92
   7  -3   9   36.92    5.47
   8  -3   9   62.81    6.90
  -8   3  -9   31.11    3.56
   8   3   9   28.43    3.98
  -8  -3  -9   33.85    3.54
   8  -3   9   34.19    4.43
  -9   3  -9    0.23    1.29
   9   3   9   -0.49    1.40
  -9  -3  -9    0.13    1.10
   9  -3   9    0.26    1.69
  10   3   9   28.41    4.21
  10  -3   9   33.52    4.81
 -10   3  -9   20.87    3.21
 -10  -3  -9   26.44    3.31
 -11  -3  -9    3.74    1.64
 -11   3  -9    2.82    1.75
  11   3   9    3.68    2.15
  11  -3   9    5.35    2.75
 -12  -3  -9    2.31    1.59
  12   3   9    3.60    2.22
 -12   3  -9    2.83    1.77
  12  -3   9    3.98    2.52
 -13   4   9    2.85    3.06
  13   4  -9    2.35    1.84
 -13  -4   9    1.96    2.45
 -12   4   9   21.30    4.04
 -12   4   9   13.03    3.78
  12   4  -9   21.46    4.18
 -12  -4   9   19.60    4.30
 -11   4   9   -2.05    1.74
  11   4  -9    1.38    1.80
  11  -4  -9   -0.32    2.13
 -11   4   9   -0.02    1.91
 -11  -4   9   -1.54    1.76
 -10   4   9   24.53    3.84
 -10  -4   9   26.30    4.50
  10  -4  -9   22.65    4.36
  10   4  -9   26.86    4.33
   9   4  -9    4.34    2.20
   9  -4  -9    5.04    2.36
   9  -4  -9    4.62    2.44
  -9  -4   9    2.85    2.04
  -9  -4   9    5.99    2.25
  -9   4   9    1.72    1.86
  -8  -4   9    9.62    2.75
   8  -4  -9    6.62    2.45
  -8  -4   9    9.44    2.58
  -8   4   9    5.38    2.03
   8   4  -9    7.55    2.40
   8  -4  -9    4.67    2.36
  -7  -4   9    5.49    2.19
   7  -4  -9    0.21    1.22
   7   4  -9    2.77    1.96
  -7   4   9    2.56    1.61
  -7  -4   9    2.99    1.75
   7  -4  -9    2.56    1.77
   6   4  -9    4.89    2.01
   6  -4  -9    5.11    1.94
   6  -4  -9    5.35    1.95
  -6  -4   9    5.10    2.24
  -6   4   9    3.56    1.65
  -6  -4   9    4.85    1.72
  -5   4   9    7.79    2.14
   5  -4  -9    6.97    2.13
   5   4  -9   10.27    2.54
  -5  -4   9   10.02    2.64
   5  -4  -9   11.37    2.44
  -5  -4   9   11.12    2.33
   4  -4  -9  120.57    7.36
   4  -4  -9  126.89    7.10
  -4  -4   9  127.47    6.84
  -4   4   9  114.57    7.62
  -4  -4   9  144.54    8.73
   3  -4  -9    1.56    1.16
   3  -4  -9    1.32    1.02
  -3   4   9   -0.01    0.92
   3   4  -9    0.85    1.08
  -3  -4   9    1.59    1.44
  -3  -4   9    2.03    1.12
  -2   4   9  120.38    7.75
   2   4  -9  115.35    7.51
   2   4  -9  138.33    6.19
   2  -4  -9  145.11    7.18
  -2  -4   9  137.69    8.87
  -2  -4   9  143.81    6.60
   2  -4  -9  149.96    7.56
  -2   4   9  138.64    5.99
  -1   4   9   28.30    3.24
  -1   4   9   24.63    2.10
  -1  -4   9   20.27    3.63
   1   4  -9   21.81    2.97
   1   4  -9   22.64    2.03
  -1  -4   9   23.27    1.97
   1  -4  -9   26.70    2.77
   1  -4  -9   25.41    2.69
   0  -4  -9   16.61    2.15
   0   4  -9   17.54    2.00
   0  -4   9   16.05    3.23
   0   4   9   17.49    2.61
   0   4   9   17.56    2.01
   0   4  -9   16.35    2.58
   0  -4  -9   20.87    2.44
  -1  -4  -9   19.90    2.34
  -1   4  -9   26.33    2.94
   1   4   9   25.48    2.94
   1  -4   9   16.39    3.41
  -1   4  -9   23.99    2.39
   1   4   9   22.82    2.44
  -1  -4  -9   26.22    2.70
  -2  -4  -9   24.27    2.71
  -2   4  -9   22.79    2.51
   2   4   9   23.98    2.79
  -2   4  -9   22.85    2.81
   2  -4   9   24.07    4.16
   2   4   9   26.87    2.84
  -2  -4  -9   21.49    2.35
   3   4   9   12.51    2.18
  -3  -4  -9   12.80    2.17
   3  -4   9   16.66    3.60
   3   4   9   11.46    2.02
  -3   4  -9   12.43    2.14
  -3   4  -9   12.75    2.04
  -3  -4  -9   10.19    1.80
  -4   4  -9  104.01    6.30
   4   4   9  110.43    6.41
  -4   4  -9  114.29    6.21
   4   4   9  109.09    6.54
  -4  -4  -9  119.02    6.46
  -4  -4  -9  111.94    6.11
   4  -4   9  130.12    9.15
  -5  -4  -9    5.37    1.74
  -5   4  -9    3.41    1.33
   5  -4   9    7.45    3.07
  -5   4  -9    4.23    1.51
   5   4   9    3.10    1.58
  -5  -4  -9    3.73    1.34
   6   4   9   77.76    5.70
  -6  -4  -9  103.30    5.89
  -6  -4  -9   74.38    5.06
  -6   4  -9   84.01    5.36
   6  -4   9  105.54    8.54
  -6   4  -9   77.93    5.32
   7   4   9    6.23    2.03
  -7  -4  -9   15.30    2.78
  -7   4  -9    9.27    2.03
  -7  -4  -9    8.02    1.85
  -7   4  -9   12.27    2.34
   7  -4   9   16.05    4.14
  -8  -4  -9    4.72    1.59
   8  -4   9    9.43    2.89
   8  -4   9    4.22    3.26
  -8   4  -9    6.17    1.92
   8   4   9    3.91    2.03
   9   4   9    4.51    2.10
   9  -4   9    6.98    2.57
  -9   4  -9    3.91    1.85
  -9  -4  -9    3.75    1.49
  10  -4   9    5.70    2.48
  10   4   9    3.92    2.20
 -10  -4  -9    5.48    1.75
 -10   4  -9    4.12    1.89
  11   4   9    0.37    1.72
 -11  -4  -9    0.44    1.19
  11  -4   9    0.15    2.01
 -11   4  -9   -0.54    1.43
  12   4   9   11.27    3.05
 -12  -4  -9   13.62    2.66
 -12   4  -9   14.27    3.05
  12  -4   9   17.30    3.97
  12   5  -9    3.59    2.32
 -12  -5   9    1.85    2.36
  12  -5  -9    1.00    2.29
 -12   5   9    0.25    1.94
 -11  -5   9    1.46    2.05
 -11   5   9   -0.27    1.72
  11   5  -9   -0.78    1.60
  11  -5  -9    3.47    2.07
  10   5  -9    8.64    2.83
  10  -5  -9    7.84    3.04
 -10   5   9    7.50    2.60
 -10  -5   9   11.48    3.27
   9   5  -9    1.92    1.79
  -9  -5   9    0.30    1.68
  -9   5   9   -0.74    1.51
   9  -5  -9    2.39    2.13
  -8  -5   9   44.88    4.97
  -8   5   9   36.42    4.52
   8   5  -9   33.11    4.41
   8  -5  -9   31.23    4.59
  -8  -5   9   48.02    4.64
   8  -5  -9   31.36    4.46
   7  -5  -9    0.18    1.60
  -7  -5   9    1.51    1.69
  -7  -5   9    0.65    1.44
   7  -5  -9    0.23    1.42
  -7   5   9    0.90    1.34
   7   5  -9    1.32    1.47
  -6   5   9   24.76    3.67
   6  -5  -9   49.02    4.44
   5   5  -9    0.54    1.36
   5  -5  -9    0.34    1.31
  -5   5   9   -0.24    1.06
   5  -5  -9    0.45    1.18
  -5  -5   9    0.65    1.11
  -5  -5   9   -0.62    1.39
  -4  -5   9   27.73    4.05
   4   5  -9   22.84    3.44
   4  -5  -9   28.69    3.41
   4  -5  -9   32.44    3.49
  -4   5   9   22.77    3.26
  -4  -5   9   23.83    2.99
   3   5  -9    3.06    1.03
   3  -5  -9    2.04    1.31
  -3  -5   9    1.96    1.14
  -3  -5   9    4.18    2.00
   3  -5  -9    3.08    1.35
  -3   5   9    2.83    1.46
   3   5  -9    3.00    1.70
  -2  -5   9   24.77    2.46
   2   5  -9   25.55    2.25
  -2   5   9   23.65    3.17
  -2  -5   9   25.77    3.90
  -2   5   9   22.02    2.01
   2  -5  -9   26.07    2.72
   2   5  -9   25.48    3.30
   2  -5  -9   19.98    2.74
   1   5  -9    5.53    1.75
   1   5  -9    6.85    1.40
   1  -5  -9    6.89    1.52
  -1   5   9    5.85    1.35
  -1   5   9    7.75    1.88
   1  -5  -9    7.65    1.79
   0   5   9  156.63    7.45
   0  -5   9  183.87   10.69
   0  -5  -9  160.24    7.89
   0   5  -9  162.10    7.54
   0   5   9  169.75    8.98
   0  -5  -9  175.14    8.30
   0   5  -9  139.23    8.38
   1   5   9    2.01    1.08
   1   5   9    0.27    0.94
  -1   5  -9   -0.07    0.99
  -1   5  -9    0.84    0.81
  -1  -5  -9    1.43    0.86
   1  -5   9    1.27    1.56
  -1  -5  -9    1.63    1.21
   2   5   9   98.91    5.97
  -2  -5  -9  108.09    6.05
  -2  -5  -9   96.69    5.40
   2  -5   9  105.40    8.04
   2   5   9  100.68    5.68
  -2   5  -9   90.67    5.81
  -2   5  -9   97.46    5.46
   3  -5   9    0.90    1.77
   3   5   9    0.46    1.12
  -3  -5  -9   -0.17    0.93
  -3   5  -9   -0.09    0.96
   3   5   9    0.43    0.84
  -3  -5  -9    0.25    0.70
  -3   5  -9   -0.09    0.74
  -4   5  -9   36.14    3.15
   4   5   9   39.61    3.81
  -4  -5  -9   31.99    3.52
  -4   5  -9   34.89    3.32
   4  -5   9   39.89    5.71
  -4  -5  -9   35.97    3.01
  -5  -5  -9    0.45    0.97
  -5  -5  -9   -0.74    1.24
  -5   5  -9    0.97    1.18
   5  -5   9    1.31    2.20
   5   5   9    0.89    1.35
  -5   5  -9    0.14    0.82
   6   5   9   10.10    2.40
   6  -5   9   16.24    4.35
  -6   5  -9   12.05    2.21
  -6  -5  -9   11.73    2.63
  -6   5  -9   11.02    2.14
  -6  -5  -9   10.48    1.99
  -7  -5  -9   -0.23    1.56
   7   5   9    0.88    1.44
  -7  -5  -9    0.36    1.07
  -7   5  -9    0.86    1.15
   7  -5   9    0.96    2.56
  -7   5  -9    0.95    1.17
  -8  -5  -9   86.53    5.77
  -8  -5  -9   52.93    4.43
   8  -5   9   91.78    8.63
  -8   5  -9   52.68    4.65
  -8   5  -9   61.30    4.79
   8   5   9   53.78    5.41
  -9   5  -9   -0.26    1.30
   9   5   9   -0.74    1.42
   9  -5   9   -0.64    1.66
   9  -5   9    1.77    3.02
  -9  -5  -9   -0.38    0.90
 -10   5  -9   31.06    3.86
  10  -5   9   30.88    4.97
 -10  -5  -9   28.98    3.56
  10   5   9   23.66    3.97
  11  -5   9    0.36    2.19
 -11  -5  -9    1.13    1.41
 -11   5  -9   -0.07    1.47
  11   5   9    2.75    2.12
 -12  -5  -9    4.06    1.90
  12  -5   9    4.24    2.56
 -12   5  -9    3.07    2.00
  12   5   9    5.05    2.35
 -12  -6   9   15.48    3.91
 -12   6   9   16.46    3.78
  12   6  -9   12.54    3.47
  12  -6  -9   13.96    3.97
  11  -6  -9   -1.02    1.89
 -11  -6   9    1.11    2.17
  11   6  -9    2.20    2.11
 -11   6   9    0.37    1.94
 -10   6   9   13.78    3.28
  10   6  -9   14.71    3.44
 -10  -6   9   19.92    3.96
  10  -6  -9   21.24    4.13
  -9  -6   9    1.70    1.83
   9   6  -9    0.11    1.33
  -9   6   9    2.63    2.02
   9  -6  -9    4.13    2.15
  -8  -6   9   12.63    3.06
  -8   6   9    8.26    2.56
   8   6  -9    5.54    2.26
   8  -6  -9    6.65    2.55
  -8  -6   9    5.37    2.27
   7  -6  -9    5.76    2.25
  -7  -6   9    7.02    2.25
  -7   6   9    0.80    1.25
  -7  -6   9    9.32    2.82
   7   6  -9    7.96    2.40
   6   6  -9   16.73    3.33
  -6  -6   9   18.84    3.19
   6  -6  -9   13.83    2.91
  -6   6   9   14.59    3.00
  -6  -6   9   23.49    3.85
  -5  -6   9   12.34    2.42
  -5   6   9    7.40    2.14
  -5  -6   9   17.13    3.33
   5   6  -9   13.30    2.82
   5  -6  -9    6.64    2.11
   4  -6  -9  134.73    7.50
  -4  -6   9  147.37    9.07
   4  -6  -9  128.09    7.66
  -4   6   9  127.91    8.13
  -4  -6   9  132.65    7.26
   4   6  -9  134.28    8.14
  -3  -6   9    2.33    1.86
   3   6  -9    1.33    1.40
  -3  -6   9    2.85    1.20
  -3   6   9    2.83    1.42
   3  -6  -9    2.15    1.48
   3  -6  -9    3.77    1.47
   3   6  -9    1.75    0.97
   2   6  -9  104.69    6.54
  -2   6   9   94.28    4.96
  -2  -6   9  102.54    7.44
  -2  -6   9   94.48    5.21
  -2   6   9   87.94    6.13
   2  -6  -9   97.61    5.46
   2   6  -9   81.65    4.84
   2  -6  -9   97.69    5.97
  -1   6   9    7.47    1.83
  -1   6   9    5.60    1.38
   1   6  -9    5.81    1.40
  -1  -6   9    6.93    2.43
   1  -6  -9    7.56    1.97
   1   6  -9    5.99    1.93
   1  -6  -9    4.22    1.25
   0   6   9   21.54    2.41
   0   6  -9   23.80    2.50
   0  -6  -9   21.78    2.93
   0  -6   9   24.96    4.28
   0  -6  -9   24.01    2.39
   0   6   9   23.17    2.90
   0   6  -9   24.71    3.15
  -1   6  -9    3.13    1.44
   1   6   9    4.64    1.48
   1  -6   9    2.50    1.72
  -1  -6  -9    4.87    1.29
  -1  -6  -9    4.54    1.55
  -1   6  -9    4.34    1.32
  -2  -6  -9   20.32    2.21
  -2  -6  -9   21.63    3.00
   2   6   9   19.27    2.54
   2   6   9   19.03    2.52
   2  -6   9   20.47    4.17
  -2   6  -9   19.03    2.45
  -2   6  -9   15.93    2.49
  -3  -6  -9    5.84    1.41
  -3  -6  -9    5.40    1.81
   3   6   9    4.10    1.57
  -3   6  -9    4.69    1.55
  -3   6  -9    4.08    1.36
   3   6   9    6.69    1.60
   3  -6   9    7.80    2.89
   4  -6   9   87.27    7.89
  -4  -6  -9   80.02    5.53
  -4  -6  -9   72.62    4.64
  -4   6  -9   72.90    4.89
   4   6   9   81.49    5.41
  -4   6  -9   74.51    5.03
   5   6   9    2.69    1.61
  -5   6  -9    2.33    1.29
  -5  -6  -9    1.06    1.54
  -5   6  -9    1.61    1.14
   5  -6   9    2.31    2.42
  -5  -6  -9    2.83    1.18
  -6  -6  -9   70.25    4.85
  -6   6  -9   68.44    5.00
   6  -6   9   98.57    8.79
   6   6   9   67.61    5.38
  -6  -6  -9   88.87    6.00
  -6   6  -9   66.29    4.94
  -7  -6  -9   13.10    2.97
   7   6   9    4.76    2.01
   7  -6   9    9.28    3.85
  -7  -6  -9    9.51    2.05
  -7   6  -9    8.23    2.09
  -7   6  -9   10.39    2.31
   8   6   9    6.03    2.47
  -8  -6  -9   17.11    3.37
  -8  -6  -9    9.38    2.08
  -8   6  -9   13.39    2.63
  -8   6  -9   11.98    2.55
   8  -6   9   14.67    4.74
  -9  -6  -9    6.03    1.92
  -9   6  -9    2.72    1.69
   9   6   9    2.63    1.89
  -9   6  -9    5.13    1.99
  -9  -6  -9    3.68    2.17
   9  -6   9    8.42    3.86
  10   6   9    4.04    2.10
  10  -6   9    3.43    2.54
 -10   6  -9    2.86    1.98
 -10  -6  -9    5.46    1.79
 -11   6  -9    1.22    1.59
  11  -6   9    0.93    2.53
  11   6   9    1.50    1.77
 -11  -6  -9    1.63    1.40
 -12  -6  -9   11.18    2.57
  12   6   9   15.34    3.37
  12  -6   9   22.85    4.61
 -12   6  -9   15.65    3.34
 -12   7   9   -0.91    2.12
  12   7  -9    0.39    1.81
 -12  -7   9    3.33    2.35
  12  -7  -9    2.82    2.49
 -11  -7   9    9.46    2.87
 -11   7   9    7.31    2.70
  11   7  -9    3.53    2.19
  11  -7  -9    8.72    3.15
  10  -7  -9    6.89    2.79
  10   7  -9    5.75    2.52
 -10  -7   9    3.57    2.23
 -10   7   9    4.60    2.38
   9  -7  -9    0.23    1.45
   9   7  -9    0.51    1.90
  -9  -7   9    3.32    2.25
  -9   7   9    1.17    1.84
  -8  -7   9   30.50    4.25
   8  -7  -9   23.15    4.16
  -8   7   9   24.11    3.96
   8   7  -9   28.40    4.27
  -7  -7   9    1.97    1.91
   7  -7  -9   -0.44    1.45
   7   7  -9    0.42    1.82
  -7   7   9    1.01    1.44
  -7  -7   9   -1.00    1.31
  -6  -7   9   27.29    3.69
   6   7  -9   28.95    4.05
   6  -7  -9   26.88    4.02
  -6  -7   9   37.12    4.60
  -6   7   9   27.59    3.90
  -5   7   9   17.48    3.20
  -5  -7   9   29.14    4.24
  -5  -7   9   28.64    3.50
   5   7  -9   24.11    3.65
  -4  -7   9    2.28    1.28
  -4  -7   9    1.02    1.79
  -4   7   9    1.19    1.25
   4  -7  -9    0.11    1.23
   4   7  -9    1.28    1.63
  -3   7   9   44.12    4.13
   3  -7  -9   42.09    4.29
   3   7  -9   50.80    4.46
   3   7  -9   44.53    3.20
  -3  -7   9   52.46    5.24
  -3  -7   9   42.12    3.57
  -2  -7   9    3.71    2.08
   2  -7  -9    2.57    1.53
  -2   7   9    2.46    1.24
   2   7  -9    2.35    1.53
  -2   7   9    2.55    1.49
   2   7  -9    2.66    1.12
  -1   7   9   22.61    2.49
   1   7  -9   18.90    2.35
   1  -7  -9   19.21    2.96
   1   7  -9   21.54    3.13
  -1  -7   9   20.79    4.00
  -1   7   9   19.61    2.84
   0   7  -9   40.51    3.86
   0  -7  -9   44.70    3.93
   0   7   9   40.96    3.37
   0  -7  -9   40.18    2.92
   0   7   9   44.65    3.70
   0   7  -9   39.56    3.23
   1   7   9    1.52    1.08
  -1   7  -9    1.15    0.98
   1  -7   9    0.79    1.76
  -1   7  -9    1.69    1.25
  -1  -7  -9    2.32    0.95
  -1  -7  -9    1.34    1.52
   1   7   9    0.97    0.97
   2   7   9   75.95    4.96
  -2  -7  -9   74.71    4.44
  -2   7  -9   79.42    4.94
   2   7   9   73.36    4.95
  -2   7  -9   79.15    5.18
   2  -7   9   85.38    7.54
  -2  -7  -9   72.08    5.36
   3  -7   9   11.27    3.39
  -3  -7  -9    6.96    2.06
  -3  -7  -9    7.33    1.47
   3   7   9    8.39    2.09
  -3   7  -9    8.26    2.01
  -3   7  -9    6.57    1.69
   4  -7   9    3.04    2.60
  -4   7  -9    2.23    1.24
  -4   7  -9    2.15    1.31
   4   7   9    0.52    1.43
  -4  -7  -9    0.81    1.64
  -4  -7  -9    1.03    0.96
   5  -7   9   33.42    5.90
  -5   7  -9   23.05    3.08
  -5  -7  -9   22.30    2.64
  -5   7  -9   26.25    3.13
   5   7   9   29.21    3.69
  -5  -7  -9   28.52    3.93
   6   7   9    4.73    2.02
  -6  -7  -9    5.16    2.30
  -6   7  -9    3.78    1.63
   6  -7   9    4.38    3.04
  -6  -7  -9    5.23    1.56
  -6   7  -9    4.73    1.62
  -7  -7  -9   28.99    4.04
  -7   7  -9   22.12    3.08
   7  -7   9   35.03    6.52
  -7   7  -9   18.50    3.01
   7   7   9   15.62    3.07
  -7  -7  -9   18.61    2.66
   8   7   9   19.48    3.66
   8  -7   9   23.05    5.67
  -8   7  -9   17.48    3.01
  -8  -7  -9   27.70    4.30
  -8   7  -9   16.53    2.91
  -8  -7  -9   16.73    2.71
   9  -7   9    3.54    4.11
  -9  -7  -9    2.75    2.28
  -9  -7  -9    0.47    1.23
  -9   7  -9    1.46    1.57
  -9   7  -9    0.25    1.49
   9   7   9    0.01    1.52
 -10   7  -9   20.02    3.40
  10   7   9   16.95    3.61
 -10  -7  -9   19.87    3.10
 -10   7  -9   19.54    3.48
 -11   7  -9    2.88    1.98
 -11  -7  -9    1.98    1.51
  11  -7   9    3.81    2.97
  11   7   9    2.88    2.03
  11   8  -9    1.91    2.33
 -11   8   9   -1.20    1.90
 -11  -8   9    1.08    1.99
  11  -8  -9    1.85    2.32
  10  -8  -9    7.06    3.13
  10   8  -9   10.22    3.17
 -10   8   9    8.80    2.84
 -10  -8   9    9.00    3.13
   9   8  -9   10.88    3.10
   9  -8  -9    9.71    2.91
  -9   8   9   12.08    3.26
  -9  -8   9   12.09    3.05
   8  -8  -9    5.98    2.31
  -8  -8   9    6.07    2.38
  -8   8   9    0.20    1.24
   8   8  -9    4.86    2.46
  -7  -8   9   31.95    4.24
  -7   8   9   20.69    3.73
   7  -8  -9   19.23    3.59
  -7  -8   9   42.43    5.01
   7   8  -9   29.27    4.29
  -6  -8   9    7.70    2.87
   6   8  -9    6.69    2.53
   6  -8  -9    2.85    1.94
  -6   8   9    7.15    2.34
  -6  -8   9    8.15    2.42
   5   8  -9   19.38    3.38
  -5   8   9   14.30    2.94
  -5  -8   9   16.03    2.86
  -5  -8   9   24.11    4.03
   5  -8  -9   10.83    2.78
  -4  -8   9   29.04    3.47
   4   8  -9   37.98    4.25
  -4  -8   9   44.15    5.13
  -4   8   9   34.50    4.07
   3   8  -9   -0.35    1.49
   3   8  -9   -0.43    0.85
  -3   8   9    0.29    1.05
  -3  -8   9    1.98    1.80
   3  -8  -9    0.22    1.35
   2   8  -9   33.11    3.04
  -2  -8   9   30.77    4.49
   2   8  -9   40.04    4.07
  -2   8   9   30.10    3.58
   2  -8  -9   24.42    3.58
  -2   8   9   27.74    2.98
   1  -8  -9   27.43    3.65
  -1   8   9   24.86    2.89
  -1   8   9   32.03    3.57
   1   8  -9   32.93    3.76
  -1  -8   9   31.88    4.86
   1   8  -9   27.30    2.86
   0   8   9    4.14    1.61
   0   8  -9    5.12    1.51
   0   8  -9    3.99    1.83
   0  -8  -9    4.78    1.90
   0   8   9    5.61    1.68
   0  -8   9    2.99    2.20
   1   8   9   40.78    3.58
   1   8   9   38.80    3.68
   1  -8   9   48.74    6.18
  -1   8  -9   41.80    3.72
  -1  -8  -9   39.49    4.26
  -1   8  -9   41.24    3.44
   2   8   9   13.15    2.40
   2   8   9   14.41    2.29
  -2  -8  -9   11.62    2.63
  -2   8  -9   16.69    2.49
  -2   8  -9   18.15    2.69
   2  -8   9   15.79    3.92
   3  -8   9   42.65    6.42
  -3   8  -9   33.96    3.53
  -3   8  -9   33.14    3.49
   3   8   9   40.69    3.99
  -3  -8  -9   42.86    4.51
   4   8   9   51.34    4.31
   4  -8   9   45.80    6.79
  -4   8  -9   42.08    3.78
  -4  -8  -9   45.67    3.45
  -4  -8  -9   48.08    4.83
  -4   8  -9   44.42    3.80
  -5  -8  -9    0.30    1.74
  -5   8  -9    1.03    1.26
   5   8   9    0.34    1.37
  -5  -8  -9    0.70    0.95
   5  -8   9    5.25    3.03
  -5   8  -9    0.23    1.09
  -6  -8  -9   13.11    3.21
  -6   8  -9    6.05    1.95
   6  -8   9    9.49    4.09
  -6   8  -9    6.69    2.04
  -6  -8  -9    9.22    1.99
  -7  -8  -9   17.65    3.70
  -7  -8  -9   21.02    2.75
  -7   8  -9   18.24    2.84
   7  -8   9   18.56    5.06
   7   8   9   13.83    3.08
  -7   8  -9   16.29    2.84
  -8  -8  -9    2.47    1.46
   8  -8   9    3.62    3.59
  -8   8  -9    6.27    2.01
  -8  -8  -9    4.21    2.52
   8   8   9    3.13    2.04
  -8   8  -9    4.83    2.05
  -9  -8  -9   31.61    4.64
   9  -8   9   40.57    7.33
  -9   8  -9   26.61    3.62
  -9   8  -9   21.48    3.65
  -9  -8  -9   25.44    3.38
   9   8   9   24.04    3.96
 -10  -8  -9    0.43    1.55
 -10  -8  -9    0.84    2.18
  10   8   9    0.18    1.88
 -10   8  -9    0.79    1.75
 -10   8  -9    0.39    1.84
  10  -8   9    1.37    3.50
 -11   8  -9    1.14    1.59
 -11  -8  -9    9.52    2.35
  11   8   9   10.01    2.78
  10  -9  -9    0.47    2.09
 -10  -9   9    3.68    2.23
  10   9  -9   -0.22    1.90
 -10   9   9   -0.07    1.88
  -9   9   9    9.31    3.04
   9  -9  -9   11.58    3.15
   9   9  -9   10.55    3.28
  -9  -9   9   16.31    3.49
   8  -9  -9    2.63    1.77
  -8  -9   9    1.87    1.87
   8   9  -9    3.40    2.28
  -8   9   9    1.10    1.77
  -7   9   9   -0.01    1.50
   7   9  -9    2.29    2.03
   7  -9  -9    0.80    1.66
  -7  -9   9    0.17    1.59
  -6  -9   9    3.04    1.83
   6  -9  -9    0.66    1.42
  -6  -9   9    3.57    2.26
  -6   9   9    1.09    1.69
   6   9  -9    3.20    2.31
  -5   9   9   22.99    3.65
   5   9  -9   29.21    4.09
  -5  -9   9   30.24    4.51
  -5  -9   9   25.39    3.50
   5  -9  -9   19.49    3.61
   4   9  -9    0.93    1.74
   4  -9  -9    0.83    1.67
  -4  -9   9    1.06    2.08
  -4   9   9   -0.13    1.27
   3   9  -9   59.34    4.16
  -3   9   9   59.89    5.11
  -3  -9   9   69.95    6.23
   3   9  -9   70.22    5.47
   2   9  -9    0.88    1.72
   2   9  -9    0.23    1.05
  -2  -9   9    1.86    1.89
  -2   9   9    0.28    1.28
   2  -9  -9    1.60    1.56
  -2   9   9    1.30    1.31
  -1   9   9   62.71    4.88
   1   9  -9   65.58    5.12
  -1   9   9   58.55    4.42
   1  -9  -9   53.68    4.95
  -1  -9   9   64.84    6.36
   1   9  -9   64.04    4.33
   0   9   9    3.46    1.51
   0   9   9    2.72    1.64
   0   9  -9    4.06    1.45
   0   9  -9    6.60    2.08
   0  -9  -9    4.80    2.06
   0  -9   9    6.51    2.74
  -1   9  -9    2.73    1.28
   1  -9   9   -0.46    1.56
  -1   9  -9    2.45    1.51
  -1  -9  -9    2.32    1.66
   1   9   9    2.78    1.58
   1   9   9    1.45    1.23
   2   9   9    3.01    1.40
   2  -9   9    3.35    2.63
  -2   9  -9    3.80    1.70
  -2   9  -9    4.34    1.55
   2   9   9    4.13    1.70
  -2  -9  -9    2.96    1.84
  -3   9  -9   40.84    3.87
   3   9   9   50.71    4.31
  -3   9  -9   49.83    4.05
   3  -9   9   46.89    6.82
  -3  -9  -9   51.11    5.20
   4  -9   9    0.63    2.37
  -4   9  -9    0.50    1.29
   4   9   9   -0.20    1.34
  -4  -9  -9   -0.42    1.73
  -4   9  -9    0.57    1.21
  -5   9  -9   39.31    4.13
  -5  -9  -9   55.39    5.59
  -5   9  -9   45.94    4.04
   5  -9   9   63.18    8.19
   5   9   9   47.24    4.80
   6  -9   9    0.76    2.63
  -6  -9  -9    2.59    2.08
   6   9   9    1.60    1.90
  -6   9  -9    1.41    1.39
  -6   9  -9    1.32    1.45
  -7   9  -9   20.93    3.36
   7   9   9   13.36    3.07
   7  -9   9   29.66    6.26
  -7  -9  -9   24.96    4.25
  -7   9  -9   21.00    3.09
  -8  -9  -9    2.73    1.45
  -8  -9  -9    1.88    2.60
  -8   9  -9   -0.34    1.29
   8   9   9   -1.24    1.76
   8  -9   9    1.27    2.77
  -9  -9  -9    1.57    1.40
   9  -9   9   -1.13    2.92
  -9   9  -9    1.73    1.80
   9   9   9   -1.21    1.66
  -9  -9  -9    0.35    2.53
  10   9   9    2.21    2.07
 -10  -9  -9    3.58    2.66
  10  -9   9   -0.94    3.49
 -10  -9  -9    0.27    1.29
 -10   9  -9   -0.43    1.71
  10 -10  -9    1.50    2.20
  10  10  -9    2.10    2.12
 -10  10   9    1.97    2.35
 -10 -10   9    0.03    1.89
  -9  10   9    3.19    2.03
   9  10  -9   15.32    3.72
  -9 -10   9   10.42    2.91
   9 -10  -9    7.94    2.96
  -8 -10   9    1.68    1.86
   8 -10  -9    1.07    1.82
   8  10  -9    2.52    2.16
  -8  10   9   -0.66    1.61
  -7  10   9   32.89    4.61
   7 -10  -9   29.28    4.63
  -7 -10   9   41.85    4.76
   7  10  -9   36.29    4.79
  -6 -10   9    2.09    2.28
   6  10  -9   -0.08    1.92
   6 -10  -9    0.32    1.48
  -6  10   9    0.02    1.45
  -6 -10   9   -0.02    1.55
  -5  10   9   10.07    2.56
   5  10  -9   12.57    3.11
   5 -10  -9   10.63    2.94
  -5 -10   9   19.01    3.90
   4  10  -9    0.65    1.91
  -4 -10   9    2.23    2.21
  -4  10   9    0.14    1.30
   4 -10  -9    0.40    1.74
  -3 -10   9    2.28    2.07
   3  10  -9   -0.34    1.50
  -3  10   9   -0.57    1.21
   3 -10  -9    0.65    1.62
   3  10  -9   -0.23    1.04
   2 -10  -9    0.47    1.23
  -2 -10   9    0.79    2.14
   2  10  -9    0.32    1.01
   2  10  -9   -0.76    1.46
  -2  10   9   -0.37    1.23
  -2  10   9    0.78    1.40
  -1  10   9   30.93    3.67
   1 -10  -9   32.67    4.43
   1  10  -9   38.48    4.04
  -1 -10   9   39.81    5.63
   1  10  -9   29.64    3.22
  -1  10   9   26.34    3.41
   0  10  -9    0.79    1.16
   0  10   9    0.81    1.18
   0 -10  -9    0.93    1.68
   0 -10   9    1.84    2.15
   0  10  -9    0.89    1.53
   0  10   9    1.68    1.59
  -1  10  -9   84.72    5.45
  -1 -10  -9   80.86    6.39
   1  10   9   87.72    5.76
  -1  10  -9   80.95    5.63
   1  10   9   88.49    5.92
   2 -10   9    0.56    2.30
   2  10   9    0.50    1.47
  -2 -10  -9   -0.22    1.47
  -2  10  -9    0.94    1.19
  -2  10  -9    0.36    1.36
   3  10   9   29.22    3.86
  -3  10  -9   18.81    2.92
  -3  10  -9   21.46    2.95
   3 -10   9   21.72    5.03
  -3 -10  -9   25.05    4.03
  -4  10  -9    1.05    1.34
  -4 -10  -9    0.21    1.94
   4 -10   9   -1.31    1.95
   4  10   9    0.88    1.70
  -5 -10  -9    1.57    2.01
   5 -10   9    1.59    2.33
  -5  10  -9    1.23    1.34
   5  10   9   -0.24    1.54
  -6 -10  -9    3.63    2.51
   6 -10   9   -0.48    2.71
   6  10   9    1.16    1.73
  -6  10  -9    2.50    1.49
  -7 -10  -9   13.88    3.62
   7  10   9   11.23    3.09
   7 -10   9   13.17    4.63
  -7  10  -9   11.42    2.56
   8  10   9    0.39    1.92
   8 -10   9    2.39    3.32
  -8  10  -9   -0.09    1.25
  -8 -10  -9   -0.99    2.11
   9  10   9   27.76    4.45
   9 -10   9   25.10    6.24
  -9 -10  -9   37.84    5.50
  -9  10  -9   23.83    3.85
  -9 -11   9    5.16    2.31
  -9  11   9    5.11    2.48
   9  11  -9    5.42    2.88
   9 -11  -9    4.35    2.35
   8  11  -9    5.11    2.65
  -8 -11   9    5.82    2.20
  -8  11   9    2.86    2.20
   8 -11  -9    5.17    2.51
  -7  11   9    2.13    1.77
   7 -11  -9    1.98    1.99
  -7 -11   9    1.71    1.91
   7  11  -9    4.52    2.63
   6  11  -9    3.55    2.33
   6 -11  -9    1.92    1.89
  -6  11   9    3.86    2.14
   5  11  -9   15.88    3.42
  -5  11   9   17.32    3.48
   5 -11  -9   18.31    3.69
  -5 -11   9   24.09    4.35
  -4 -11   9   -0.04    2.12
   4  11  -9    1.20    1.92
   4 -11  -9    1.07    1.51
  -4  11   9    0.49    1.33
   3 -11  -9   38.68    5.07
  -3 -11   9   60.02    6.00
  -3  11   9   39.86    4.54
   3  11  -9   49.59    4.77
   3  11  -9   40.79    3.65
   2  11  -9   -0.92    1.63
  -2 -11   9   -0.30    1.97
  -2  11   9    1.62    1.61
  -2  11   9   -0.04    1.31
   2  11  -9    1.48    1.31
   2 -11  -9    0.11    1.65
  -1  11   9   18.80    3.23
  -1  11   9   23.85    3.33
  -1 -11   9   22.55    4.75
   1  11  -9   23.55    3.47
   1  11  -9   21.32    2.87
   0  11  -9    7.39    2.01
   0  11   9    8.77    2.49
   0 -11   9    7.52    3.30
   0 -11  -9    6.74    2.58
   0  11   9    6.30    2.00
  -1  11  -9   -0.20    1.20
  -1 -11  -9   -0.22    1.82
   1  11   9    1.67    1.82
   1 -11   9   -1.24    2.08
   2  11   9   17.89    3.19
   2 -11   9   20.89    4.99
  -2 -11  -9   16.24    3.49
  -2  11  -9   19.60    3.02
  -3 -11  -9   10.56    3.13
   3 -11   9   19.64    5.16
   3  11   9   18.80    3.29
  -3  11  -9   15.36    2.71
  -4 -11  -9   -0.93    1.69
   4 -11   9    0.06    2.18
  -4  11  -9   -0.37    1.12
   4  11   9    1.12    1.62
  -5 -11  -9   51.74    5.95
  -5  11  -9   46.47    4.56
   5  11   9   50.31    5.28
   5 -11   9   49.23    7.74
  -6 -11  -9    1.89    2.34
  -6  11  -9    1.59    1.52
   6  11   9    0.24    1.69
   6 -11   9    0.36    2.54
   7 -11   9   22.82    5.71
  -7  11  -9   16.33    3.18
  -7 -11  -9   19.59    4.21
   7  11   9   16.24    3.60
   8 -11   9    2.33    3.36
  -8  11  -9    3.41    1.78
   8  11   9    1.32    1.97
  -8 -11  -9    1.16    2.45
  -9 -11  -9   -0.79    2.78
  -9  11  -9    0.47    1.81
   9  11   9   -0.16    1.62
   9 -11   9   -2.43    3.40
   8 -12  -9    0.92    1.88
   8  12  -9    2.72    2.77
  -8  12   9    3.78    2.22
  -8 -12   9    1.13    1.81
   7  12  -9   12.93    3.38
   7 -12  -9    8.22    2.80
  -7  12   9    7.66    2.68
  -6  12   9    4.62    2.36
   6  12  -9    2.52    2.60
   6 -12  -9    6.43    2.58
  -5  12   9    8.20    2.69
   5 -12  -9    7.68    2.56
   5  12  -9    6.45    3.06
  -4  12   9   10.36    2.77
  -4 -12   9   13.54    3.68
   4 -12  -9    8.03    2.67
   3  12  -9    0.28    1.30
  -3 -12   9    2.00    2.43
  -3  12   9    1.46    1.58
   3 -12  -9    0.73    1.80
   2  12  -9    9.06    2.16
  -2  12   9    7.01    2.32
   2 -12  -9    7.42    2.77
  -2  12   9   11.84    2.85
  -2 -12   9   11.63    3.52
  -1  12   9   19.10    3.36
  -1  12   9   17.42    3.19
   1 -12  -9   13.28    3.49
  -1 -12   9   18.12    4.51
   1  12  -9   14.44    2.55
   0 -12   9    3.32    2.77
   0  12  -9    1.35    1.27
   0 -12  -9    0.19    1.38
   0  12   9    1.09    1.49
   0  12   9    0.28    1.84
  -1 -12  -9   14.09    3.51
   1  12   9   22.36    3.74
  -1  12  -9   20.36    3.00
   1 -12   9   20.41    4.93
  -2  12  -9    4.62    1.81
   2 -12   9    0.66    2.27
   2  12   9   -0.37    1.90
  -2 -12  -9    1.33    1.96
  -3  12  -9    6.23    2.05
  -3 -12  -9    4.57    2.58
   3  12   9    9.19    2.75
   3 -12   9    3.40    3.09
  -4  12  -9   10.79    2.46
   4 -12   9   11.53    4.42
   4  12   9   13.14    3.28
  -4 -12  -9    7.81    2.93
  -5 -12  -9   -0.69    2.28
   5  12   9    1.00    1.80
  -5  12  -9    1.08    1.47
   5 -12   9    0.90    2.54
   6  12   9    5.93    2.56
  -6  12  -9    5.93    2.25
  -6 -12  -9    9.08    3.24
   6 -12   9    9.57    4.51
  -7 -12  -9   12.48    3.86
   7 -12   9   14.63    4.72
   7  12   9   10.46    3.14
  -7  12  -9   11.16    2.68
   8  12   9    0.40    2.14
  -8 -12  -9    2.90    3.25
  -8  12  -9    2.96    1.69
   8 -12   9    3.40    3.53
   7 -13  -9    0.84    2.05
  -7  13   9    0.99    1.69
  -6  13   9   10.89    3.04
   6 -13  -9    8.63    2.94
   5 -13  -9    4.88    2.28
  -5  13   9    4.98    2.17
  -4 -13   9    6.18    3.22
   4 -13  -9    2.77    2.02
  -4  13   9    2.89    2.10
   3 -13  -9   12.36    3.30
   3  13  -9   13.03    2.58
  -3 -13   9   20.54    4.52
  -3  13   9    9.01    2.59
   2 -13  -9    3.22    2.31
   2  13  -9    6.85    2.00
  -2  13   9    6.59    2.26
  -2 -13   9    7.01    3.15
  -2  13   9    7.28    2.73
  -1 -13   9    2.26    2.65
   1  13  -9    5.36    1.84
   1 -13  -9    1.54    2.06
  -1  13   9    4.30    2.42
  -1  13   9    3.71    2.06
   0 -13   9   31.16    5.93
   0  13   9   32.20    4.57
   0  13  -9   26.24    3.42
   0 -13  -9   23.81    4.48
   1  13   9    0.52    1.95
  -1 -13  -9    0.80    1.51
   1 -13   9   -0.38    2.56
  -1  13  -9    0.63    1.23
   2 -13   9   10.40    4.23
  -2  13  -9   14.70    2.89
   2  13   9   18.31    3.70
  -2 -13  -9   12.34    3.49
   3  13   9    3.98    2.65
   3 -13   9    5.31    3.47
  -3  13  -9    7.76    2.20
  -3 -13  -9    8.19    3.02
   4  13   9    0.94    2.30
  -4  13  -9    0.82    1.64
  -4 -13  -9    0.71    2.20
   4 -13   9    5.04    3.55
  -5 -13  -9    6.99    3.17
   5 -13   9    9.93    4.19
   5  13   9    6.40    2.93
  -5  13  -9    8.02    2.26
   6 -13   9    2.20    3.44
   6  13   9    0.62    2.21
  -6 -13  -9    4.70    3.06
  -6  13  -9    1.33    1.56
  -5  14   9    0.79    1.66
   5 -14  -9    2.12    1.95
  -4  14   9   21.45    3.98
   4 -14  -9   19.23    4.08
   3  14  -9    0.45    1.36
   3 -14  -9   -0.71    1.78
  -3 -14   9    0.36    2.48
  -3  14   9   -2.14    1.35
  -2  14   9   17.35    3.51
  -2 -14   9   21.42    4.85
  -2  14   9   14.43    3.18
   2  14  -9   16.53    2.93
   2 -14  -9   15.23    3.68
  -1 -14   9    4.56    2.82
  -1  14   9    3.08    1.90
   1 -14  -9    1.09    2.13
   1  14  -9    0.66    1.48
  -1  14   9    2.06    2.18
   0  14  -9    0.74    1.39
   0  14   9   -0.10    2.24
   0 -14  -9    1.87    2.45
   1 -14   9    2.17    3.19
  -1 -14  -9    1.81    2.36
   1  14   9    0.35    2.26
  -1  14  -9    2.32    1.73
  -2 -14  -9   -0.32    1.89
   2  14   9    4.36    2.57
  -2  14  -9    5.78    1.95
   2 -14   9    5.95    3.89
  -3  14  -9    0.06    1.48
   3 -14   9   -0.88    2.24
  -3 -14  -9   -0.36    2.38
   3  14   9    3.25    2.43
  -4  14  -9   16.38    3.03
   4 -14   9   16.09    5.31
  -4 -14  -9   13.36    3.90
   4  14   9   14.06    3.55
   5 -14   9    3.13    3.23
   5  14   9    1.57    2.31
  -5  14  -9    0.17    1.36
  -5 -14  -9   -1.35    2.43
  -3 -15   9   -0.42    2.35
  -3  15   9    0.93    1.82
   3 -15  -9   -1.21    1.63
   3  15  -9    1.36    1.52
  -2  15   9    4.08    2.50
  -2  15   9    4.55    2.03
   2  15  -9    4.99    1.82
   2 -15  -9    2.84    2.11
  -2 -15   9    9.00    3.69
   1 -15  -9    2.04    1.89
   1  15  -9   -1.06    1.35
  -1  15   9    2.36    2.46
  -1 -15   9    3.05    3.04
   0  15   9   18.94    4.23
   0 -15   9   14.78    4.72
   0 -15  -9   14.16    3.98
   0  15  -9   19.19    3.15
   1 -15   9   -0.13    2.98
  -1 -15  -9   -0.58    2.42
   1  15   9   -0.22    2.38
  -1  15  -9    0.44    1.46
   2 -15   9   13.18    5.00
   2  15   9   19.10    4.28
  -2 -15  -9   15.40    4.15
  -2  15  -9   13.18    2.80
 -13   0  10   -0.54    2.07
  13   0 -10    0.09    2.42
  12   0 -10   -0.34    2.00
 -12   0  10    1.66    2.21
  11   0 -10   -0.43    1.81
 -11   0  10   -0.06    2.01
 -11   0  10   -0.74    2.02
 -10   0  10   38.82    5.31
 -10   0  10   38.18    4.90
  10   0 -10   43.12    5.49
  -9   0  10   -0.74    1.62
  -9   0  10   -0.41    1.58
   9   0 -10   -0.67    1.66
  -8   0  10   63.39    5.49
   8   0 -10   58.20    5.52
  -8   0  10   62.20    5.51
   7   0 -10   -0.69    1.36
  -7   0  10    0.54    1.62
  -7   0  10    1.17    1.50
   6   0 -10   10.47    2.76
  -6   0  10   10.96    2.69
  -6   0  10   13.36    2.63
  -5   0  10   -0.52    0.95
   5   0 -10    0.19    1.18
  -5   0  10    0.45    1.29
   4   0 -10   10.16    2.42
  -4   0  10    3.00    1.58
  -4   0  10   10.08    2.00
   3   0 -10   -0.32    1.15
  -3   0  10   -0.38    1.04
  -2   0  10  152.97    9.56
   2   0 -10  170.52    7.62
   2   0 -10  153.42    8.75
  -1   0  10    0.06    0.90
   1   0 -10    0.12    0.82
   1   0 -10    0.97    0.78
  -1   0  10    0.07    1.06
   0   0 -10  239.83    9.88
   0   0  10  250.03   10.36
   0   0 -10  221.13   11.36
   0   0  10  251.26   13.26
   1   0  10    0.40    1.11
  -1   0 -10    0.86    0.68
   1   0  10    0.05    1.02
  -1   0 -10   -0.25    0.81
  -2   0 -10   19.14    1.72
   2   0  10   17.95    2.57
   2   0  10   17.60    3.24
  -2   0 -10   15.64    2.38
   3   0  10    1.79    1.58
  -3   0 -10   -0.78    0.78
   3   0  10   -0.25    1.04
   4   0  10   13.31    2.49
  -4   0 -10   11.57    2.08
   4   0  10   15.07    3.07
   5   0  10   -0.66    1.10
  -5   0 -10   -0.11    0.78
   5   0  10   -0.31    1.49
   6   0  10   24.95    3.61
   6   0  10   35.87    4.42
  -6   0 -10   22.42    2.91
  -7   0 -10   -0.15    0.88
   7   0  10    0.32    1.46
   8   0  10   80.72    6.17
  -8   0 -10   67.51    5.05
   9   0  10   -0.23    1.57
  -9   0 -10   -0.25    1.12
  10   0  10   12.09    3.05
 -10   0 -10   12.57    2.64
  11   0  10    0.99    1.76
 -11   0 -10   -0.42    1.31
 -12   0 -10    3.08    1.96
  12   0  10    4.50    2.33
  12  -1 -10   14.96    4.15
  12   1 -10   14.52    3.42
 -12   1  10   14.89    3.73
 -12  -1  10   16.14    4.10
 -11  -1  10    0.68    1.83
  11   1 -10    0.00    1.81
  11  -1 -10    3.10    2.32
 -11   1  10    3.55    2.04
 -11   1  10    2.85    2.44
 -10  -1  10    4.10    2.33
 -10   1  10    6.34    2.50
  10  -1 -10    6.84    2.77
 -10  -1  10    5.63    2.46
 -10   1  10    7.98    2.72
  10   1 -10    6.96    2.74
  -9   1  10    6.12    2.33
   9   1 -10    5.62    2.30
  -9  -1  10    6.39    2.31
   9  -1 -10    5.12    2.55
  -9   1  10    7.10    2.54
  -9  -1  10    5.77    2.44
  -8  -1  10    5.18    2.30
  -8   1  10    7.99    2.48
  -8   1  10    4.72    2.09
   8   1 -10    7.68    2.74
   8  -1 -10    3.84    2.14
  -8  -1  10    4.31    2.11
  -7  -1  10    1.15    1.45
  -7   1  10    0.73    1.30
  -7  -1  10    1.24    1.51
   7  -1 -10    0.78    1.49
   7   1 -10    0.12    1.43
  -7   1  10    0.91    1.68
  -6   1  10   76.07    6.18
  -6   1  10   79.72    5.59
  -6  -1  10   83.74    5.70
   6   1 -10   86.24    6.35
  -6  -1  10   80.38    6.24
   6  -1 -10   72.20    6.00
   5   1 -10   -0.10    1.18
   5  -1 -10   -0.72    1.21
  -5   1  10   -0.02    1.12
  -5  -1  10    1.60    1.21
  -5  -1  10    0.66    1.35
  -5   1  10    0.50    1.39
  -4  -1  10   68.88    4.73
  -4  -1  10   73.23    5.98
   4   1 -10   76.37    5.72
   4  -1 -10   74.37    5.65
   4  -1 -10   80.37    5.08
  -3  -1  10    1.13    0.93
  -3  -1  10    0.47    1.12
   3   1 -10    0.10    1.04
   3  -1 -10   -0.08    1.02
  -3   1  10    0.91    1.19
   3  -1 -10    0.39    0.86
   2  -1 -10   32.76    2.69
  -2  -1  10   32.67    4.22
   2  -1 -10   31.38    3.58
  -2  -1  10   35.10    2.46
   2   1 -10   26.33    3.41
  -2   1  10   23.61    3.57
  -1   1  10   25.93    3.67
   1  -1 -10   25.21    3.13
  -1  -1  10   21.63    3.64
  -1   1  10   25.19    2.29
   1   1 -10   25.02    2.12
   1   1 -10   17.14    2.84
  -1  -1  10   27.54    2.43
   1  -1 -10   28.69    2.39
   0  -1  10   11.60    2.84
   0   1 -10    7.97    1.90
   0  -1  10   12.05    1.95
   0   1  10   11.14    2.53
   0  -1 -10   10.76    1.60
   0  -1 -10    8.94    1.94
   0   1 -10   10.17    1.38
   0   1  10    9.03    1.69
   1   1  10   26.98    3.64
  -1  -1 -10   26.27    2.95
  -1   1 -10   21.01    1.70
   1  -1  10   23.49    2.68
  -1  -1 -10   23.22    2.08
  -1   1 -10   22.47    2.90
   1  -1  10   24.35    3.80
   1   1  10   23.32    2.65
  -2   1 -10  131.25    7.38
  -2  -1 -10  138.13    6.35
   2   1  10  129.54    7.00
   2  -1  10  140.91    8.96
   2   1  10  133.79    8.47
   2  -1  10  147.96    7.41
  -2  -1 -10  129.19    7.22
   3  -1  10    4.91    1.97
  -3   1 -10    5.00    1.50
  -3  -1 -10    4.88    1.25
   3  -1  10    3.11    1.46
  -3  -1 -10    3.78    1.22
   3   1  10    4.87    1.73
   3   1  10    5.71    1.89
   4   1  10   74.10    5.77
  -4   1 -10   75.47    5.00
   4  -1  10   74.09    5.31
   4   1  10   79.06    5.30
   4  -1  10   89.48    6.66
  -4  -1 -10   67.48    4.74
   5  -1  10    0.51    1.76
  -5  -1 -10   -0.38    0.84
   5   1  10    1.68    1.45
  -5   1 -10    0.19    0.96
   5   1  10    2.21    1.39
   5  -1  10    1.15    1.25
  -6   1 -10    8.29    2.07
  -6  -1 -10    6.10    1.71
   6   1  10    5.93    2.18
   6  -1  10    6.29    2.18
   6  -1  10    9.05    2.80
   7   1  10    1.77    1.60
  -7   1 -10    2.50    1.39
   7  -1  10    3.04    1.79
  -7  -1 -10    2.61    1.28
  -8   1 -10    2.96    1.57
   8   1  10    3.19    2.02
  -8  -1 -10    4.60    1.62
   8  -1  10    5.25    2.32
  -9  -1 -10    9.76    2.26
   9   1  10    9.66    2.75
   9  -1  10    9.18    2.79
  -9   1 -10    5.42    1.97
 -10  -1 -10   20.31    3.20
  10   1  10   35.36    4.76
  10  -1  10   26.87    4.34
 -11  -1 -10    0.00    1.13
  11  -1  10   -0.40    1.69
 -11   1 -10   -0.02    0.93
  11   1  10    0.22    1.69
 -12  -1 -10    9.97    2.50
  12  -1  10   17.63    3.91
  12   1  10   15.57    3.60
 -12   2  10    3.78    2.50
  12  -2 -10    1.93    2.69
 -12  -2  10    1.59    2.45
 -12   2  10   -0.85    1.75
  12   2 -10    0.55    2.01
 -11  -2  10    5.44    2.80
 -11   2  10    5.46    2.59
  11  -2 -10    6.18    2.70
 -11   2  10    7.46    2.85
  11   2 -10    4.57    2.45
 -10  -2  10   19.68    3.95
 -10  -2  10   16.23    3.41
  10   2 -10   19.69    3.81
 -10   2  10   17.08    3.64
  10  -2 -10   17.43    3.86
 -10   2  10   18.66    3.89
   9   2 -10    1.02    1.59
  -9   2  10    0.32    1.55
   9  -2 -10   -0.44    1.77
  -9   2  10    1.53    1.75
  -9  -2  10   -1.04    1.45
  -9  -2  10   -0.28    1.68
   8  -2 -10   29.83    4.59
  -8  -2  10   36.52    4.64
  -8   2  10   35.15    4.53
  -8   2  10   30.67    4.29
  -8  -2  10   38.47    4.60
   7  -2 -10   18.67    3.51
  -7  -2  10   17.40    3.30
   7   2 -10   19.93    3.57
  -7  -2  10   13.83    3.06
  -7   2  10   18.15    3.21
  -7   2  10   16.43    3.19
  -6  -2  10   19.95    3.51
  -6  -2  10   21.10    3.20
   6   2 -10   18.96    3.47
  -6   2  10   18.32    3.34
   6  -2 -10   17.54    3.31
  -6   2  10   13.32    2.69
   5  -2 -10   22.12    3.49
   5   2 -10   19.60    3.43
  -5  -2  10   19.15    2.90
   5  -2 -10   22.27    3.19
  -5  -2  10   20.91    3.67
   4  -2 -10   19.07    2.77
  -4   2  10   20.80    3.35
  -4  -2  10   22.46    3.72
   4  -2 -10   17.18    3.02
  -4  -2  10   25.59    2.97
   4   2 -10   20.23    3.27
  -3  -2  10    9.23    2.58
   3   2 -10   18.82    3.10
   3  -2 -10   20.51    2.64
  -3  -2  10   21.15    2.51
  -3   2  10   15.55    2.93
   3  -2 -10   20.59    3.06
  -2  -2  10   74.72    4.40
  -2  -2  10   78.14    6.26
   2   2 -10   71.57    5.36
   2  -2 -10   82.20    4.76
   2  -2 -10   74.42    5.28
  -2   2  10   63.85    5.34
   1   2 -10    3.14    0.95
   1  -2 -10    4.47    1.51
   1  -2 -10    2.25    1.13
  -1   2  10    2.70    0.98
   1   2 -10    3.37    1.49
  -1  -2  10    2.96    1.70
  -1   2  10    2.59    1.39
   0   2 -10   80.01    3.85
   0  -2 -10   73.23    5.01
   0   2 -10   72.43    5.18
   0   2  10   73.61    5.67
   0   2  10   79.26    4.48
   0  -2 -10   81.00    4.52
   0  -2  10   81.12    6.36
  -1  -2 -10   31.25    3.13
   1   2  10   27.22    3.55
  -1  -2 -10   33.27    2.63
   1  -2  10   30.13    3.09
   1   2  10   27.18    2.78
   1  -2  10   24.95    4.03
  -1   2 -10   22.20    2.95
  -2  -2 -10   35.35    3.17
   2  -2  10   37.98    4.84
   2   2  10   35.65    3.19
  -2  -2 -10   42.60    3.03
   2   2  10   44.23    4.10
   2  -2  10   44.70    3.68
  -2   2 -10   39.11    3.50
   3  -2  10   46.95    5.38
   3   2  10   48.62    4.28
  -3  -2 -10   42.78    3.44
   3   2  10   43.95    3.70
  -3   2 -10   39.36    3.55
  -3  -2 -10   42.47    3.14
   3  -2  10   46.32    3.97
  -4  -2 -10    5.81    1.54
  -4   2 -10    3.11    1.31
   4  -2  10    5.67    2.33
   4   2  10    4.78    1.70
   4  -2  10    4.37    1.67
  -4  -2 -10    5.07    1.50
   4   2  10    5.39    1.82
   5  -2  10   41.12    5.21
  -5  -2 -10   28.90    3.18
   5   2  10   32.75    3.70
   5   2  10   27.40    3.63
   5  -2  10   28.39    3.73
   6  -2  10   62.81    5.26
   6   2  10   55.03    4.88
   6  -2  10   82.87    6.86
  -6  -2 -10   54.06    4.30
   7  -2  10   12.24    3.49
  -7  -2 -10    7.08    1.87
   7  -2  10    6.26    2.13
  -7   2 -10    4.75    1.70
   7   2  10   10.44    2.64
   8   2  10   42.15    4.83
   8  -2  10   42.57    4.98
  -8  -2 -10   34.37    3.41
  -8   2 -10   37.08    3.87
   9   2  10    6.49    2.44
   9  -2  10    7.49    2.71
  -9  -2 -10    7.16    2.06
  -9   2 -10    7.16    2.24
 -10  -2 -10    7.76    2.07
  10  -2  10    5.51    2.48
  10   2  10    6.25    2.59
 -10   2 -10    5.47    2.11
 -11  -2 -10    9.24    2.28
  11   2  10   10.33    3.11
 -11   2 -10    9.01    2.44
  11  -2  10   10.29    3.16
 -12  -2 -10    2.10    1.53
 -12   2 -10    0.14    1.64
  12  -2  10    1.51    2.23
  12   2  10    2.04    2.11
 -12   3  10    3.53    2.45
 -12   3  10    9.41    3.02
 -12  -3  10    8.24    3.12
  12   3 -10    6.06    2.79
  12  -3 -10    1.84    2.76
  11  -3 -10   12.03    3.64
 -11   3  10    9.57    2.98
  11   3 -10    6.79    2.83
 -11   3  10    9.02    2.87
 -11  -3  10   10.55    3.23
  10   3 -10    1.08    1.86
 -10  -3  10    3.11    2.41
  10  -3 -10    3.48    2.58
 -10   3  10    1.94    1.82
 -10   3  10    3.06    2.08
   9  -3 -10   29.93    4.82
  -9   3  10   26.71    4.31
  -9  -3  10   28.22    4.20
   9   3 -10   31.65    4.56
  -9  -3  10   31.03    4.65
  -9   3  10   31.03    4.42
  -8  -3  10    1.97    1.87
   8   3 -10    4.06    2.10
  -8  -3  10    1.81    1.85
   8  -3 -10    3.61    2.19
  -8   3  10    6.52    2.49
   7   3 -10    9.68    2.67
   7  -3 -10   13.90    3.16
  -7   3  10   14.64    3.14
  -7  -3  10   17.68    3.33
   7  -3 -10   17.23    3.43
  -7  -3  10   14.27    3.16
  -6   3  10   21.64    3.58
  -6  -3  10   27.36    3.61
  -6  -3  10   22.99    3.83
   6  -3 -10   24.14    3.56
   6  -3 -10   23.93    3.75
   6   3 -10   24.59    3.86
  -5   3  10   -0.95    0.99
   5  -3 -10   -0.37    1.16
  -5  -3  10    0.03    1.11
   5  -3 -10    0.53    1.31
   5   3 -10   -1.12    1.09
  -5  -3  10   -0.19    1.39
   4  -3 -10   51.40    4.54
  -4  -3  10   51.25    3.90
   4   3 -10   47.54    4.49
   4  -3 -10   54.25    4.22
  -4   3  10   46.64    4.48
  -4  -3  10   61.00    5.46
   3  -3 -10   27.89    3.11
  -3  -3  10   30.81    2.78
   3   3 -10   27.00    3.66
  -3  -3  10   36.10    4.57
  -3   3  10   28.34    3.72
   3  -3 -10   32.46    3.64
  -2  -3  10    6.88    1.43
   2   3 -10    8.52    1.39
  -2   3  10    5.73    1.84
   2  -3 -10    9.48    1.91
   2  -3 -10   11.04    2.27
   2   3 -10    7.50    2.14
  -2  -3  10    3.14    1.68
  -1   3  10   78.66    4.36
  -1   3  10   71.48    5.69
   1  -3 -10   91.18    5.59
  -1  -3  10   94.95    6.97
   1  -3 -10   95.02    5.22
  -1  -3  10   83.22    4.51
   1   3 -10   86.36    4.56
   1   3 -10   84.50    5.85
   0  -3 -10   13.11    2.17
   0   3 -10   13.12    1.84
   0   3  10   12.61    2.48
   0  -3  10   16.44    3.38
   0   3  10   12.62    1.90
   0  -3 -10   19.37    2.34
   0   3 -10    8.41    2.10
   1  -3  10   78.30    6.47
  -1  -3 -10   82.15    4.69
   1   3  10   74.15    4.57
  -1  -3 -10   70.54    4.72
  -1   3 -10   70.41    4.32
   1   3  10   74.60    5.46
  -2  -3 -10   22.27    2.65
  -2   3 -10   26.08    2.67
   2   3  10   29.06    3.04
   2  -3  10   26.47    4.30
  -2  -3 -10   24.67    2.65
   2   3  10   22.83    3.11
  -3   3 -10    0.89    0.88
   3   3  10   -0.95    1.01
   3   3  10    0.97    1.23
   3  -3  10    0.60    1.62
  -3  -3 -10    0.17    0.81
  -3  -3 -10    0.76    0.98
  -3   3 -10    0.20    1.06
   4  -3  10   64.95    5.98
  -4   3 -10   53.42    3.94
   4   3  10   48.48    4.15
  -4  -3 -10   51.20    3.88
   4   3  10   50.94    4.23
  -4   3 -10   43.55    3.87
  -4  -3 -10   52.17    3.86
  -5   3 -10   17.35    2.65
  -5  -3 -10   10.61    2.08
   5  -3  10   14.71    2.99
   5  -3  10   21.12    4.28
   5   3  10   11.56    2.57
  -5  -3 -10   18.66    2.59
   6  -3  10    3.36    1.96
  -6  -3 -10    2.50    1.25
  -6   3 -10    4.54    1.59
   6   3  10    2.24    1.70
   6  -3  10    5.98    2.96
  -7   3 -10   32.68    3.61
  -7  -3 -10   28.02    3.28
   7  -3  10   55.88    6.92
   7   3  10   27.91    4.01
   8  -3  10    2.94    2.07
  -8   3 -10    3.25    1.70
   8   3  10    7.43    2.51
  -8  -3 -10    3.89    1.56
   9  -3  10   35.56    5.02
  -9   3 -10   23.11    3.32
   9   3  10   28.02    4.20
  -9  -3 -10   24.84    3.25
  10   3  10    7.34    2.65
 -10   3 -10    7.99    2.33
 -10  -3 -10    6.73    1.95
  10  -3  10    8.95    2.98
 -11  -3 -10    1.13    1.40
  11   3  10    3.17    2.19
 -11   3 -10    0.66    1.62
  11  -3  10    1.59    2.43
 -12   3 -10    7.86    2.30
 -12  -3 -10    7.45    2.11
  12   3  10    9.59    3.03
  12  -3  10    8.66    3.37
  12   4 -10    0.57    1.92
 -12  -4  10    0.72    2.21
 -12   4  10    2.12    2.33
  11  -4 -10    4.44    3.08
 -11  -4  10    6.55    2.92
  11   4 -10    2.45    2.20
 -11   4  10    6.63    2.59
  10   4 -10    2.05    1.95
 -10  -4  10    3.42    2.29
  10  -4 -10    1.50    2.42
  10  -4 -10    1.19    2.57
 -10   4  10    3.02    2.19
  -9  -4  10    0.78    1.68
  -9  -4  10    0.05    1.89
   9  -4 -10   -1.05    1.77
   9   4 -10    0.88    1.54
   9  -4 -10   -0.24    2.11
  -9   4  10    0.63    1.71
   8   4 -10    5.82    2.26
   8  -4 -10    1.38    1.67
   8  -4 -10    4.60    2.61
  -8   4  10    2.75    1.93
  -8  -4  10    7.39    2.63
  -8  -4  10    6.34    2.40
   7   4 -10   18.50    3.66
  -7  -4  10   33.31    4.41
   7  -4 -10   23.61    3.92
   7  -4 -10   21.17    3.86
  -7  -4  10   24.04    3.73
  -7   4  10   23.38    3.95
   6  -4 -10    6.13    2.17
  -6   4  10    0.32    1.08
  -6  -4  10    6.21    2.43
   6   4 -10    7.92    2.54
   6  -4 -10    6.46    2.23
  -6  -4  10    6.49    2.20
   5  -4 -10   77.67    6.13
   5  -4 -10   88.36    6.06
  -5  -4  10   89.04    5.85
  -5   4  10   85.88    6.55
   5   4 -10   99.88    6.88
  -5  -4  10   99.99    7.32
   4  -4 -10   -1.01    1.05
  -4  -4  10    1.54    1.22
  -4  -4  10    0.98    1.67
  -4   4  10    1.06    1.25
   4   4 -10    0.20    1.33
   4  -4 -10    1.06    1.21
  -3  -4  10   65.94    5.81
  -3   4  10   55.68    4.89
   3  -4 -10   64.15    4.85
  -3  -4  10   61.66    4.16
   3  -4 -10   63.37    4.56
   2  -4 -10   18.87    2.68
  -2  -4  10   18.37    2.13
   2  -4 -10   15.35    2.45
  -2   4  10   12.91    2.55
   2   4 -10   15.57    1.81
  -2  -4  10    5.30    2.15
   1  -4 -10    2.12    1.13
  -1   4  10    0.56    0.87
   1   4 -10   -0.09    1.04
  -1  -4  10    1.16    1.48
  -1   4  10    0.56    1.11
   1  -4 -10    0.33    0.91
   1   4 -10    0.32    0.72
   0   4  10   15.07    2.04
   0  -4 -10   12.63    2.19
   0  -4  10   16.24    3.55
   0  -4 -10   13.42    2.16
   0   4  10   13.62    2.54
   0   4 -10   17.68    2.86
   0   4 -10   11.18    1.80
   1   4  10   29.83    2.95
  -1  -4 -10   31.38    2.82
   1  -4  10   27.91    4.41
  -1   4 -10   25.40    2.61
   1   4  10   30.82    3.46
  -1  -4 -10   33.33    3.19
  -1   4 -10   26.15    3.20
   2   4  10    8.57    1.84
  -2   4 -10    8.77    1.78
   2   4  10    8.03    1.91
  -2  -4 -10    8.77    1.94
   2  -4  10    6.96    2.58
  -2   4 -10    6.33    1.80
  -2  -4 -10    7.81    1.68
  -3  -4 -10  144.88    7.44
  -3  -4 -10  142.87    7.39
  -3   4 -10  133.27    7.66
  -3   4 -10  131.41    7.07
   3   4  10  127.61    7.80
   3   4  10  136.83    7.53
   3  -4  10  173.32   10.68
   4  -4  10    3.56    2.42
   4   4  10    2.20    1.19
   4   4  10    2.14    1.52
  -4   4 -10    0.89    1.36
  -4   4 -10    1.55    1.07
  -4  -4 -10    2.46    1.43
  -4  -4 -10    1.54    0.99
  -5   4 -10   95.60    6.15
  -5  -4 -10  113.87    6.36
  -5  -4 -10   94.07    5.91
   5  -4  10  133.69    9.52
   5   4  10   93.59    6.38
  -5   4 -10   95.07    5.93
  -6   4 -10   17.10    2.71
  -6  -4 -10   18.63    2.82
  -6  -4 -10   13.41    2.31
   6   4  10   15.47    3.01
  -6   4 -10   17.28    2.70
   6  -4  10   21.91    4.59
  -7   4 -10    0.91    1.35
   7  -4  10   -0.56    1.22
  -7  -4 -10    0.10    1.12
   7  -4  10    2.29    2.79
   7   4  10   -1.34    1.39
   8  -4  10    8.15    2.74
   8   4  10    4.81    2.13
  -8  -4 -10    6.26    1.82
   8  -4  10   10.45    3.83
  -8   4 -10    8.31    2.16
   9  -4  10    8.78    3.00
  -9  -4 -10    8.25    2.08
  -9   4 -10    9.85    2.40
   9   4  10    9.73    2.92
 -10  -4 -10    2.03    1.55
  10   4  10    2.69    2.12
  10  -4  10    1.69    2.37
 -10   4 -10    3.30    1.73
 -11  -4 -10   13.24    2.72
  11   4  10   18.84    3.83
  11  -4  10   24.36    4.70
 -11   4 -10   19.14    3.30
 -12  -4 -10    1.27    1.19
  12  -4  10   -1.98    1.81
  12   4  10   -0.32    1.68
 -12   4 -10    0.55    1.79
  12   5 -10    0.86    1.96
  12  -5 -10    5.29    3.01
 -12  -5  10   -1.64    1.97
 -12   5  10    0.62    2.19
 -11   5  10   13.65    3.65
  11  -5 -10   11.56    3.65
  11   5 -10   11.75    3.29
 -11  -5  10   13.96    3.73
 -10   5  10    0.49    1.86
  10   5 -10   -1.43    1.81
 -10  -5  10    1.28    1.86
  10  -5 -10   -1.17    2.29
  -9   5  10   26.61    4.24
   9   5 -10   30.33    4.62
  -9  -5  10   37.09    4.89
   9  -5 -10   28.06    4.86
  -8  -5  10   -0.16    1.53
   8  -5 -10    1.44    2.15
  -8   5  10    0.47    1.64
   8   5 -10    0.98    1.75
  -8  -5  10   -0.43    1.73
   7  -5 -10   32.15    4.44
  -7   5  10   27.04    4.12
  -7  -5  10   38.97    4.52
  -7  -5  10   45.89    5.15
   7   5 -10   31.93    4.46
   7  -5 -10   32.14    4.54
   6   5 -10    0.37    1.34
  -6  -5  10    0.44    1.42
  -6  -5  10   -1.21    1.75
   6  -5 -10    0.13    1.50
   6  -5 -10    0.77    1.65
  -6   5  10   -0.94    1.17
   5   5 -10    1.22    1.27
   5  -5 -10    3.19    1.84
  -5  -5  10    6.70    2.05
  -5  -5  10    4.75    2.30
  -5   5  10    3.54    1.78
   5  -5 -10    5.69    2.09
   4  -5 -10    7.09    2.08
   4   5 -10    7.43    2.28
   4  -5 -10    5.79    2.00
  -4   5  10    4.60    1.87
  -4  -5  10    5.17    1.69
  -4  -5  10    8.14    2.76
  -3  -5  10   39.85    3.40
   3  -5 -10   43.51    3.87
   3  -5 -10   48.90    4.05
  -3   5  10   41.29    4.15
   3   5 -10   47.57    4.46
  -3  -5  10   47.78    4.99
   2   5 -10   -0.04    1.36
   2  -5 -10   -0.29    0.96
  -2   5  10    0.96    0.90
   2   5 -10   -0.20    0.73
  -2  -5  10    0.62    1.62
  -2   5  10    1.09    1.16
   2  -5 -10    0.73    1.09
  -1   5  10   75.89    5.51
   1   5 -10   84.25    5.80
   1   5 -10   74.66    4.33
  -1   5  10   70.07    4.19
   1  -5 -10   76.51    5.05
   1  -5 -10   80.76    4.97
  -1  -5  10   62.39    6.04
   0  -5  10   -0.97    1.30
   0  -5 -10    1.23    1.08
   0   5 -10   -0.42    1.17
   0   5  10   -0.13    1.07
   0   5 -10    0.29    0.79
   0  -5 -10   -0.55    0.77
   0   5  10    0.89    0.98
   1   5  10   60.93    4.14
  -1  -5 -10   64.75    4.47
  -1   5 -10   58.55    3.98
   1  -5  10   74.94    6.50
   1   5  10   58.97    4.63
  -1   5 -10   51.17    4.40
  -1  -5 -10   58.89    4.10
  -2   5 -10    1.68    1.04
   2   5  10    0.01    1.19
   2  -5  10    2.17    2.03
  -2   5 -10    0.84    1.19
   2   5  10    1.46    1.16
  -2  -5 -10    1.10    1.21
  -2  -5 -10    1.02    0.89
  -3  -5 -10   22.96    3.05
  -3  -5 -10   19.26    2.40
  -3   5 -10   20.91    2.62
   3  -5  10   27.57    4.97
  -3   5 -10   16.71    2.69
   3   5  10   21.73    2.81
   3   5  10   21.16    3.01
  -4  -5 -10    1.14    1.04
   4   5  10    0.44    1.38
   4  -5  10    0.65    2.09
  -4  -5 -10    1.09    1.30
  -4   5 -10    1.07    1.06
  -4   5 -10    1.54    1.45
  -5  -5 -10   37.27    3.87
   5  -5  10   36.85    5.86
  -5  -5 -10   31.93    3.21
   5   5  10   23.94    3.53
  -5   5 -10   26.96    3.20
  -5   5 -10   23.65    3.07
   6  -5  10    4.11    3.08
  -6  -5 -10    3.45    1.96
  -6  -5 -10    1.28    1.13
  -6   5 -10    1.19    1.43
  -6   5 -10    1.97    1.36
   6   5  10    1.33    1.71
   7  -5  10   97.04    8.94
  -7   5 -10   65.91    5.04
  -7   5 -10   66.49    5.18
  -7  -5 -10   70.98    5.08
   7   5  10   69.65    5.71
  -8   5 -10   -0.20    1.31
   8  -5  10    1.80    3.17
   8   5  10   -0.09    1.75
  -8  -5 -10    0.22    1.04
  -9   5 -10   25.48    3.45
   9  -5  10   23.59    4.62
   9   5  10   28.50    4.41
  -9  -5 -10   23.04    3.19
  10   5  10    2.75    1.96
 -10   5 -10    0.40    1.59
 -10  -5 -10    0.84    1.24
  10  -5  10    2.73    2.26
  11  -5  10    3.30    2.73
 -11  -5 -10    5.97    1.91
  11   5  10    2.21    1.99
 -11   5 -10    2.84    2.17
 -11   6  10   11.22    3.37
  11  -6 -10    5.63    2.88
 -11  -6  10   13.05    3.55
  11   6 -10    8.28    2.87
 -10  -6  10   -0.26    1.95
  10  -6 -10   -0.04    1.98
  10   6 -10    2.01    1.91
 -10   6  10    1.78    2.16
   9  -6 -10    3.36    2.60
   9   6 -10    0.82    1.72
  -9  -6  10    0.66    2.01
  -9   6  10    1.03    1.67
  -8  -6  10    1.37    2.15
  -8   6  10    2.52    1.73
   8   6 -10   -0.63    1.29
  -8  -6  10    2.13    1.93
   8  -6 -10    1.94    2.04
   7   6 -10   19.64    3.84
  -7  -6  10   16.72    3.37
  -7  -6  10   28.03    4.39
  -6  -6  10    9.79    2.56
  -6  -6  10   19.92    3.93
  -6   6  10    8.16    2.54
   6  -6 -10    8.26    2.52
   6   6 -10    7.17    2.60
  -5  -6  10   70.80    5.31
   5   6 -10   77.69    6.19
   5  -6 -10   74.36    5.75
  -5   6  10   69.38    5.89
  -5  -6  10   92.25    7.02
   4   6 -10    7.08    2.49
   4  -6 -10    4.60    1.99
  -4   6  10    5.53    1.93
  -4  -6  10    6.23    1.82
  -4  -6  10    4.72    2.36
   3  -6 -10   63.25    4.96
   3   6 -10   73.29    5.65
  -3   6  10   56.80    5.11
  -3  -6  10   72.52    6.32
   3  -6 -10   65.62    4.71
  -2   6  10    7.53    2.09
  -2   6  10    8.46    1.63
   2   6 -10    8.43    2.45
   2   6 -10    6.75    1.50
  -2  -6  10   10.74    2.97
   2  -6 -10    6.90    1.74
   2  -6 -10    7.43    2.05
  -1  -6  10    0.18    1.10
   1   6 -10   -0.18    1.23
   1   6 -10    1.13    0.92
   1  -6 -10    0.15    1.16
  -1   6  10    0.56    1.08
  -1   6  10    0.62    1.11
   0  -6  10    1.47    1.78
   0  -6 -10    0.00    0.80
   0   6 -10    0.98    0.87
   0  -6 -10    0.10    1.14
   0   6  10   -0.15    1.09
   0   6 -10    1.20    1.33
   0   6  10    2.00    1.11
  -1  -6 -10   62.70    4.10
   1  -6  10   71.37    6.58
  -1   6 -10   63.45    4.20
   1   6  10   55.20    4.13
   1   6  10   56.98    4.63
  -1   6 -10   57.67    4.62
  -1  -6 -10   62.99    4.69
   2  -6  10   13.98    3.79
  -2   6 -10   10.62    1.95
   2   6  10    8.61    2.00
  -2  -6 -10    8.79    1.72
  -2  -6 -10   12.04    2.53
   2   6  10    8.47    2.07
  -2   6 -10    8.97    2.20
  -3   6 -10  107.30    6.99
  -3   6 -10  131.10    6.94
  -3  -6 -10  124.75    6.67
  -3  -6 -10  129.91    7.47
   3  -6  10  139.19   10.18
   3   6  10  123.64    7.18
   3   6  10  123.11    7.13
  -4   6 -10   -0.29    0.98
  -4  -6 -10    0.56    1.01
  -4   6 -10    0.29    1.05
   4   6  10    0.17    1.46
   4  -6  10    0.34    2.16
  -4  -6 -10    0.36    1.64
  -5  -6 -10   45.78    3.80
  -5   6 -10   45.12    4.14
  -5  -6 -10   64.17    4.99
   5  -6  10   70.61    8.02
  -5   6 -10   43.96    3.95
   5   6  10   52.21    4.69
  -6   6 -10   10.40    2.24
  -6  -6 -10   14.57    3.04
  -6   6 -10   12.14    2.37
   6  -6  10   17.27    4.68
  -6  -6 -10   13.51    2.31
   6   6  10   11.21    2.73
   7   6  10    1.73    1.70
  -7   6 -10   -0.76    1.41
  -7  -6 -10    2.64    2.03
  -7   6 -10    1.10    1.41
  -7  -6 -10    2.19    1.34
   7  -6  10   -0.05    2.84
   8  -6  10    4.63    3.38
   8   6  10    1.50    1.99
  -8   6 -10    2.06    1.60
  -8  -6 -10    2.34    1.36
  -8   6 -10    2.45    1.50
  -9  -6 -10   12.12    2.46
   9   6  10   14.85    3.38
  -9   6 -10   13.40    2.78
   9  -6  10   24.38    5.94
 -10  -6 -10    1.98    1.45
  10   6  10    0.17    1.68
 -10   6 -10    1.59    1.86
  10  -6  10    1.01    2.80
  11  -6  10   23.04    4.88
  11   6  10   13.76    3.40
 -11  -6 -10   16.37    3.03
 -11   6 -10   16.13    3.33
 -11   7  10    3.41    2.48
  11   7 -10    3.71    1.97
  11  -7 -10    6.25    2.84
 -11  -7  10    6.96    3.03
 -10   7  10    2.06    2.16
 -10  -7  10    2.14    2.16
  10  -7 -10    3.26    2.32
  10   7 -10    1.29    2.05
   9  -7 -10   24.94    4.54
   9   7 -10   24.69    4.41
  -9  -7  10   31.85    4.76
  -9   7  10   23.47    4.30
  -8  -7  10   -0.18    1.76
  -8   7  10    1.61    1.63
   8  -7 -10    0.14    2.09
   8   7 -10    2.19    2.04
  -7  -7  10   18.26    3.57
   7  -7 -10   16.90    3.57
  -7   7  10   14.86    3.29
  -7  -7  10   25.13    4.26
   7   7 -10   18.00    3.71
  -6  -7  10   29.85    4.48
   6   7 -10   22.11    3.95
  -6   7  10   17.24    3.46
  -6  -7  10   19.47    3.32
   5  -7 -10   -0.23    1.34
  -5  -7  10    0.17    1.31
  -5  -7  10    0.40    2.04
   5   7 -10   -0.19    1.80
  -5   7  10   -0.76    1.18
   4   7 -10   22.61    3.60
   4  -7 -10   23.35    3.61
  -4  -7  10   28.08    4.50
  -4   7  10   20.53    3.49
  -3   7  10   12.82    2.75
   3   7 -10   16.75    3.15
   3  -7 -10   13.53    2.88
  -3  -7  10   18.55    3.90
  -2  -7  10   11.73    3.25
  -2   7  10   12.47    2.56
   2  -7 -10    9.56    2.44
  -2   7  10   12.61    2.01
   2   7 -10   13.70    2.91
   2   7 -10   11.81    1.97
  -1  -7  10   51.24    5.93
  -1   7  10   34.57    3.14
   1  -7 -10   47.93    4.32
  -1   7  10   43.37    4.03
   1   7 -10   37.04    3.17
   1   7 -10   45.73    4.26
   0  -7  10    2.42    2.03
   0   7 -10    2.42    1.67
   0  -7 -10    0.90    1.38
   0   7  10    2.18    1.30
   0   7 -10    1.37    1.01
   0   7  10    1.66    1.19
   1  -7  10   25.46    4.91
  -1   7 -10   22.07    3.06
  -1  -7 -10   19.82    2.32
   1   7  10   20.05    2.70
  -1  -7 -10   25.87    3.44
   1   7  10   19.72    2.88
  -1   7 -10   17.60    2.50
   2   7  10   34.21    3.33
   2  -7  10   44.86    6.09
  -2  -7 -10   34.97    4.02
  -2   7 -10   33.49    3.65
  -2   7 -10   36.58    3.24
  -2  -7 -10   36.86    3.00
   2   7  10   34.31    3.57
  -3   7 -10    0.77    1.04
   3  -7  10    0.45    2.15
  -3  -7 -10    1.17    1.68
   3   7  10    0.27    1.24
  -3   7 -10   -1.07    1.03
  -3  -7 -10    0.73    0.96
  -4  -7 -10   31.37    4.00
  -4  -7 -10   27.56    2.90
   4  -7  10   32.23    5.75
   4   7  10   20.01    3.23
  -4   7 -10   23.03    3.03
  -4   7 -10   26.24    3.29
   5  -7  10   22.86    5.08
  -5   7 -10   14.86    2.61
  -5   7 -10   13.04    2.50
   5   7  10   16.15    3.11
  -5  -7 -10   19.17    3.53
  -5  -7 -10   17.49    2.48
  -6  -7 -10    2.80    1.46
   6   7  10    1.14    1.76
  -6  -7 -10    3.60    2.23
  -6   7 -10    1.05    1.44
   6  -7  10    3.46    3.27
  -6   7 -10    2.34    1.42
  -7   7 -10   24.75    3.35
  -7   7 -10   27.63    3.63
  -7  -7 -10   39.86    4.52
   7   7  10   27.56    4.13
  -7  -7 -10   23.86    3.11
   7  -7  10   36.64    6.84
   8   7  10    3.31    2.17
   8  -7  10    5.91    3.79
  -8  -7 -10    3.15    1.50
  -8   7 -10    2.54    1.69
  -8   7 -10    4.90    1.97
  -8  -7 -10    6.66    2.80
   9   7  10   16.06    3.69
  -9   7 -10   17.08    3.14
   9  -7  10   26.66    6.09
  -9  -7 -10   13.43    2.61
  -9   7 -10   16.23    3.05
 -10   7 -10    3.98    2.16
 -10  -7 -10    5.14    1.83
  10   7  10    3.42    2.19
 -11  -7 -10    1.91    1.50
  11  -7  10    2.43    2.67
  11   7  10   -0.91    1.61
 -11   7 -10   -0.56    1.73
 -11   8  10    2.73    2.29
  11   8 -10    2.71    2.45
  11  -8 -10    4.23    2.64
 -11  -8  10    5.45    2.82
  10  -8 -10    8.87    2.90
 -10  -8  10   17.31    4.04
  10   8 -10   10.56    3.40
 -10   8  10   12.44    3.48
  -9   8  10   -1.23    1.57
   9  -8 -10    1.74    2.07
  -9  -8  10    0.88    1.83
   9   8 -10   -0.15    2.00
  -8  -8  10   24.60    4.14
   8   8 -10   15.64    3.58
   8  -8 -10   18.07    3.87
  -8   8  10   16.50    3.61
  -7  -8  10    8.75    2.82
  -7  -8  10   12.46    3.46
   7   8 -10    7.79    2.78
  -7   8  10    6.17    2.47
   7  -8 -10    6.40    2.71
  -6  -8  10    4.03    1.93
   6   8 -10    6.21    2.46
   6  -8 -10    4.18    2.15
  -6   8  10    4.68    2.01
  -6  -8  10    8.20    2.84
   5   8 -10   22.79    3.81
  -5  -8  10   23.61    4.22
  -5   8  10   19.11    3.44
  -5  -8  10   18.04    3.11
  -4  -8  10    3.46    2.47
   4   8 -10    5.97    2.41
   4  -8 -10    2.90    1.93
  -4   8  10    3.20    1.75
   3  -8 -10   39.04    4.56
   3   8 -10   37.17    4.36
  -3   8  10   34.60    4.22
  -3  -8  10   43.28    5.44
  -2   8  10   56.48    4.10
   2   8 -10   73.41    5.53
   2  -8 -10   58.23    5.05
  -2  -8  10   63.52    6.16
  -2   8  10   51.37    4.77
   2   8 -10   55.55    4.00
   1  -8 -10    0.71    1.41
  -1  -8  10    0.78    2.00
   1   8 -10    0.21    1.04
  -1   8  10    0.60    1.20
   1   8 -10    1.95    1.68
  -1   8  10    1.69    1.20
   0   8 -10   59.01    4.93
   0  -8 -10   62.90    5.22
   0   8 -10   56.03    4.10
   0   8  10   55.27    4.23
   0   8  10   67.04    5.01
   1  -8  10   19.06    4.25
  -1   8 -10   14.55    2.41
  -1   8 -10   19.39    3.05
   1   8  10   20.64    3.00
  -1  -8 -10   16.81    3.16
   1   8  10   19.32    2.82
  -2   8 -10   10.71    2.25
   2   8  10    9.73    2.21
   2  -8  10   15.86    4.07
  -2   8 -10    9.53    2.38
   2   8  10   11.52    2.27
  -2  -8 -10   11.16    2.71
   3  -8  10   34.09    5.91
   3   8  10   29.66    3.62
  -3   8 -10   26.34    3.26
  -3   8 -10   30.70    3.53
  -3  -8 -10   27.31    3.89
  -4   8 -10    0.79    1.11
  -4  -8 -10    2.40    1.16
  -4  -8 -10   -0.98    1.63
   4  -8  10   -0.15    2.36
   4   8  10    0.37    1.45
  -4   8 -10    0.58    1.40
  -5  -8 -10   10.09    2.12
  -5  -8 -10   12.31    3.16
   5  -8  10   19.78    5.11
  -5   8 -10    8.17    2.25
   5   8  10   11.83    2.80
  -5   8 -10    8.36    2.16
  -6   8 -10   20.29    3.11
  -6  -8 -10   20.76    2.75
   6  -8  10   25.10    5.65
  -6   8 -10   15.44    2.79
   6   8  10   21.45    3.67
  -6  -8 -10   25.56    4.16
   7   8  10    0.17    1.71
  -7  -8 -10    0.15    1.19
  -7   8 -10    1.04    1.58
  -7  -8 -10   -0.86    2.02
   7  -8  10    0.89    3.45
  -7   8 -10    0.58    1.25
  -8   8 -10   25.72    3.70
   8   8  10   28.58    4.49
  -8  -8 -10   24.82    3.33
   8  -8  10   37.65    7.19
  -8   8 -10   28.84    3.76
  -8  -8 -10   41.54    5.03
  -9   8 -10    4.25    1.95
  -9   8 -10    6.30    2.25
  -9  -8 -10    4.50    1.89
  -9  -8 -10    6.32    3.06
   9   8  10    6.12    2.67
   9  -8  10    9.53    4.86
 -10   8 -10    5.52    2.29
 -10   8 -10    6.12    2.39
 -10  -8 -10    5.24    1.92
  10   8  10    5.48    2.52
 -10   9  10    2.77    2.30
 -10  -9  10    6.70    2.70
  10  -9 -10    6.24    2.97
  10   9 -10    7.44    2.94
   9  -9 -10    1.13    1.99
  -9  -9  10    2.40    2.21
   9   9 -10    1.99    2.18
  -9   9  10    0.88    1.50
   8  -9 -10    4.13    2.27
   8   9 -10    2.11    2.25
  -8   9  10    1.62    1.97
  -8  -9  10    1.43    1.96
   7  -9 -10   -0.43    1.73
   7   9 -10    0.67    2.10
  -7   9  10   -0.45    1.42
  -7  -9  10    1.35    2.05
   6   9 -10   31.84    4.52
  -6   9  10   26.14    4.22
   6  -9 -10   28.66    4.68
  -6  -9  10   30.61    4.06
  -6  -9  10   46.18    5.60
   5  -9 -10    1.13    1.65
  -5  -9  10    0.21    2.38
  -5   9  10    0.41    1.31
   5   9 -10    0.95    1.88
   4   9 -10   42.34    4.74
  -4   9  10   26.03    3.97
  -4  -9  10   38.13    5.23
  -3   9  10    2.97    1.76
   3   9 -10    2.54    2.00
   3  -9 -10    4.51    2.14
  -3  -9  10    6.45    2.70
  -2   9  10   19.52    3.19
   2   9 -10   16.56    3.32
  -2   9  10   17.20    2.74
  -2  -9  10   24.90    4.56
   2   9 -10   16.63    2.45
   2  -9 -10   17.29    3.37
  -1  -9  10   10.31    3.31
   1   9 -10   12.77    2.87
   1  -9 -10    4.97    2.27
   1   9 -10    5.55    1.66
  -1   9  10    5.05    1.83
  -1   9  10    8.04    2.22
   0   9  10    7.67    2.08
   0   9 -10    7.25    2.26
   0  -9 -10    5.36    2.12
   0  -9  10    5.93    2.84
   0   9 -10    5.22    1.59
   0   9  10    6.41    1.89
   1   9  10    1.18    1.33
  -1   9 -10    0.90    1.45
   1   9  10    0.44    1.47
  -1  -9 -10    3.05    2.12
   1  -9  10    2.17    2.26
  -1   9 -10    1.42    1.10
   2   9  10   54.69    4.59
  -2   9 -10   45.11    4.18
  -2  -9 -10   49.26    5.16
   2  -9  10   53.46    7.13
  -2   9 -10   43.69    3.92
  -3   9 -10    1.75    1.43
   3   9  10    0.27    1.54
  -3   9 -10    1.16    1.40
   3  -9  10    2.54    2.58
  -3  -9 -10   -1.22    1.43
  -4   9 -10   26.96    3.44
  -4   9 -10   29.04    3.47
   4  -9  10   32.03    6.11
   4   9  10   28.73    3.97
  -4  -9 -10   24.36    4.02
  -5  -9 -10    0.69    2.17
   5   9  10    0.97    1.69
  -5   9 -10    0.84    1.46
   5  -9  10    0.92    2.86
  -5   9 -10    0.59    1.16
  -6   9 -10    5.57    2.00
   6   9  10    6.34    2.38
   6  -9  10   12.66    4.43
  -6   9 -10    6.18    2.12
  -6  -9 -10   18.59    3.83
  -7   9 -10    0.39    1.37
  -7   9 -10    2.91    1.86
   7   9  10    0.67    1.74
   7  -9  10    3.70    3.17
  -7  -9 -10    1.74    2.30
  -8   9 -10    0.62    1.48
   8  -9  10    0.49    3.18
  -8  -9 -10   -0.08    2.50
   8   9  10    1.43    1.92
  -9  -9 -10    2.70    2.76
   9   9  10   -1.72    1.62
  -9   9 -10    0.06    1.40
   9  -9  10    0.84    3.21
   9 -10 -10    0.34    1.84
  -9 -10  10    1.57    1.81
   9  10 -10   -0.26    2.11
  -9  10  10    0.03    2.03
  -8 -10  10   17.04    3.59
   8 -10 -10   12.81    3.53
  -8  10  10   16.12    3.71
   8  10 -10   17.33    3.91
  -7  10  10    0.65    1.65
   7 -10 -10    1.19    1.90
   7  10 -10    1.80    2.44
   6 -10 -10    2.16    2.23
   6  10 -10    2.69    2.41
  -6  10  10    2.27    1.77
  -6 -10  10    3.29    2.65
   5 -10 -10    0.29    1.92
  -5  10  10    1.06    1.49
  -5 -10  10    1.77    2.27
   5  10 -10    0.31    1.79
  -4 -10  10    7.84    2.96
  -4  10  10    3.44    1.82
   4  10 -10    5.33    2.46
   4 -10 -10    3.70    2.14
  -3 -10  10    1.54    2.33
   3  10 -10    1.01    2.04
   3 -10 -10    1.31    1.35
  -3  10  10    1.05    1.48
  -2 -10  10   53.76    6.35
  -2  10  10   41.45    4.32
   2  10 -10   50.52    5.00
   2  10 -10   41.91    3.61
   2 -10 -10   41.13    4.98
  -1  10  10    3.83    1.75
  -1 -10  10    4.48    2.68
  -1  10  10    1.95    1.61
   1  10 -10    2.44    2.07
   1  10 -10    2.16    1.36
   1 -10 -10    1.02    1.79
   0  10 -10   80.38    5.71
   0  10  10   74.71    5.61
   0 -10  10   79.38    7.60
   0 -10 -10   65.10    5.87
   0  10 -10   69.67    4.93
   0  10  10   72.24    5.33
   1  10  10    0.94    1.68
   1  10  10    1.24    1.44
  -1 -10 -10   -0.57    1.63
  -1  10 -10   -1.23    1.03
   1 -10  10   -0.61    1.46
  -1  10 -10    0.35    1.61
  -2  10 -10   11.65    2.39
   2  10  10   11.72    2.63
   2 -10  10    8.99    3.60
  -2 -10 -10    9.82    2.83
  -2  10 -10    9.26    2.39
  -3  10 -10   -1.02    1.01
  -3  10 -10   -0.22    1.41
   3  10  10   -0.12    1.52
  -3 -10 -10   -0.47    1.80
   3 -10  10   -1.63    2.19
   4 -10  10    1.68    2.55
  -4  10 -10    1.56    1.70
  -4  10 -10    1.57    1.36
   4  10  10    2.20    1.87
  -4 -10 -10    3.76    2.20
   5 -10  10    2.37    2.96
  -5  10 -10   -0.12    1.18
   5  10  10    1.45    1.77
  -5 -10 -10   -0.35    2.04
  -6  10 -10   15.30    2.95
   6 -10  10   21.36    5.49
   6  10  10   21.55    3.93
  -6 -10 -10   24.67    4.37
   7 -10  10    3.08    3.55
   7  10  10    2.58    2.15
  -7 -10 -10    3.36    2.64
  -7  10 -10    2.71    1.68
   8 -10  10   36.33    7.43
   8  10  10   26.88    4.45
  -8 -10 -10   36.51    5.48
  -8  10 -10   27.55    3.95
   9 -10  10    3.07    3.60
  -9  10 -10   -1.20    1.17
   9  10  10   -0.55    2.07
  -9 -10 -10    1.10    2.87
   8  11 -10    1.10    2.66
  -8  11  10    4.02    2.35
   8 -11 -10    0.77    1.78
   7 -11 -10    2.94    2.06
   7  11 -10    3.06    2.63
  -7  11  10    1.77    1.85
   6 -11 -10   18.79    3.88
   6  11 -10   22.15    4.12
  -6  11  10   18.12    3.63
  -5  11  10    2.17    1.70
   5 -11 -10    0.31    1.84
   5  11 -10   -0.56    2.06
  -5 -11  10   -0.43    2.37
  -4  11  10   23.87    3.93
  -4 -11  10   39.58    5.47
   4 -11 -10   21.52    4.18
   4  11 -10   36.30    4.59
  -3  11  10   -0.48    1.38
   3  11 -10    0.98    1.87
   3 -11 -10   -0.96    1.65
  -3 -11  10    1.14    2.32
  -2  11  10    5.01    1.99
   2 -11 -10    1.22    1.68
  -2 -11  10    5.09    2.82
   2  11 -10    5.48    1.62
   2  11 -10    7.20    2.46
   1  11 -10    5.13    1.75
   1  11 -10    5.42    2.32
  -1  11  10    6.92    2.29
   1 -11 -10   -0.06    1.83
  -1 -11  10    5.55    2.93
  -1  11  10    6.61    2.10
   0  11 -10    4.77    1.73
   0 -11 -10    4.41    2.43
   0  11  10    3.10    1.65
   0  11 -10    4.58    2.13
   0 -11  10    5.42    2.90
   0  11  10    3.39    2.06
  -1  11 -10    4.49    1.74
   1  11  10    1.97    1.92
   1 -11  10    1.95    2.34
  -1 -11 -10    3.66    2.35
  -2  11 -10   21.70    3.11
  -2 -11 -10   24.11    4.25
   2  11  10   24.93    3.81
   2 -11  10   27.09    5.53
  -3  11 -10    0.60    1.29
  -3 -11 -10    0.59    1.95
   3  11  10    1.89    1.88
   3 -11  10    2.37    2.72
   4 -11  10   33.03    6.50
  -4  11 -10   28.04    3.71
  -4 -11 -10   34.41    5.00
   4  11  10   32.02    4.45
   5 -11  10    5.10    3.57
  -5  11 -10    1.19    1.39
  -5 -11 -10    3.41    2.51
   5  11  10    2.30    2.03
   6  11  10    6.81    2.62
  -6 -11 -10    5.75    3.04
   6 -11  10    7.67    3.79
  -6  11 -10    4.46    2.00
   7  11  10    1.16    2.13
   7 -11  10    6.57    3.66
  -7  11 -10    1.94    1.71
  -7 -11 -10    7.87    3.18
   8  11  10    4.58    2.78
  -8 -11 -10    5.22    3.14
   8 -11  10    4.40    3.89
  -8  11 -10    2.43    1.71
   7 -12 -10    1.14    1.73
   7  12 -10    0.64    2.43
  -7  12  10    3.08    2.33
   6 -12 -10    4.96    2.47
  -6  12  10    6.87    2.63
   6  12 -10    3.94    2.60
  -5  12  10    9.61    2.93
   5  12 -10   13.74    3.63
   5 -12 -10   10.08    2.94
  -5 -12  10   12.39    3.84
   4 -12 -10    3.76    2.67
  -4  12  10    5.68    2.36
  -4 -12  10    3.34    2.52
   4  12 -10    4.86    2.60
   3 -12 -10    6.01    2.71
  -3 -12  10   13.49    3.89
  -3  12  10   10.38    2.83
  -2 -12  10   23.42    4.89
  -2  12  10   22.24    3.82
   2 -12 -10   14.61    3.59
   2  12 -10   19.15    2.90
  -1  12  10    0.02    1.64
  -1  12  10   -0.47    1.56
   1  12 -10    0.23    1.24
   1 -12 -10    0.08    1.49
  -1 -12  10   -2.44    2.12
   0 -12 -10   11.20    3.23
   0  12 -10   10.48    2.30
   0  12  10   12.49    2.88
   0  12  10   13.76    3.11
   0 -12  10   12.00    4.03
   1 -12  10    2.43    2.93
   1  12  10    1.80    2.19
  -1  12 -10    3.52    1.77
  -1 -12 -10    1.89    2.22
   2  12  10    6.91    2.49
  -2 -12 -10    2.34    2.30
  -2  12 -10    4.18    1.81
   2 -12  10    2.32    2.98
   3 -12  10   13.40    4.46
  -3  12 -10   12.44    2.73
   3  12  10   12.67    3.17
  -3 -12 -10   11.11    3.34
   4  12  10    0.43    2.10
   4 -12  10    0.00    2.56
  -4 -12 -10    2.18    2.57
  -4  12 -10    0.93    1.36
  -5  12 -10    8.87    2.40
  -5 -12 -10   25.09    4.88
   5 -12  10   12.87    4.57
   5  12  10    9.46    3.03
   6 -12  10   13.42    4.67
   6  12  10    8.74    2.89
  -6  12 -10    6.38    2.19
  -6 -12 -10   11.53    3.76
  -7 -12 -10   -0.17    2.66
   7 -12  10    2.72    3.30
  -7  12 -10    0.78    1.48
   7  12  10    0.50    2.04
  -6  13  10    7.54    2.80
   6 -13 -10   10.97    3.22
  -5  13  10    2.28    2.22
   5 -13 -10    1.77    1.86
  -4 -13  10   11.44    3.53
   4 -13 -10    4.09    2.35
  -4  13  10    6.63    2.58
   3 -13 -10    4.86    2.76
  -3 -13  10    8.86    3.35
  -3  13  10    9.78    2.99
   2  13 -10    0.72    1.33
  -2 -13  10    0.92    2.64
   2 -13 -10    0.93    2.16
  -2  13  10   -0.32    1.75
   1  13 -10   15.18    2.76
  -1  13  10   16.17    3.34
  -1 -13  10   25.28    5.27
  -1  13  10   20.13    3.89
   1 -13 -10   15.16    3.82
   0  13 -10    2.00    1.52
   0 -13 -10    1.52    1.83
   0  13  10   -0.48    2.40
   0 -13  10    2.90    3.06
  -1 -13 -10    6.57    3.03
   1  13  10    7.64    2.81
  -1  13 -10    8.26    2.27
   1 -13  10    7.46    3.49
   2  13  10    7.27    2.78
  -2  13 -10    7.87    2.27
  -2 -13 -10    4.90    2.74
   2 -13  10   -0.12    2.26
  -3  13 -10    0.57    1.35
   3  13  10    2.09    2.50
  -3 -13 -10    1.73    2.53
   3 -13  10    1.94    3.19
   4 -13  10    8.51    3.85
   4  13  10    6.94    2.91
  -4 -13 -10    6.67    3.03
  -4  13 -10    7.85    2.31
   5 -13  10    8.11    3.89
   5  13  10    5.04    2.81
  -5  13 -10    3.98    1.84
  -5 -13 -10    3.83    2.82
  -4  14  10    1.74    2.13
   4 -14 -10    4.07    2.38
  -3  14  10    9.32    2.87
  -3 -14  10   11.03    3.72
   3 -14 -10    7.75    2.93
  -2 -14  10    0.69    2.55
   2 -14 -10   -0.57    2.14
   2  14 -10    1.48    1.49
  -2  14  10    0.53    1.67
  -1  14  10    0.93    2.43
   1 -14 -10    1.24    2.29
   1  14 -10    1.47    1.68
  -1 -14  10    1.72    3.25
   0  14  10    2.08    2.44
   0 -14 -10    1.92    2.38
   0  14 -10    3.71    1.78
   0 -14  10    0.39    2.73
   1 -14  10    3.67    3.21
  -1 -14 -10    0.97    1.90
   1  14  10    7.96    3.03
  -1  14 -10    6.93    2.10
  -2  14 -10    0.60    1.55
   2  14  10    2.82    2.33
  -2 -14 -10    2.00    2.83
   2 -14  10    1.12    3.26
  -3  14 -10   19.68    3.26
  -3 -14 -10   19.33    4.42
   3 -14  10   13.63    4.80
   3  14  10   15.64    3.84
  -4  14 -10    2.20    1.61
   4 -14  10    0.04    3.09
  -4 -14 -10    1.31    2.75
   4  14  10   -0.51    2.50
  12   0 -11    1.00    2.44
 -12   0  11    0.65    2.24
  11   0 -11   26.38    4.97
 -11   0  11   29.32    5.07
 -11   0  11   25.06    4.48
  10   0 -11    0.35    2.13
 -10   0  11    0.89    2.06
 -10   0  11    2.18    2.26
  -9   0  11   27.28    4.39
  -9   0  11   37.06    4.97
   9   0 -11   26.41    4.70
   8   0 -11   -0.11    1.61
  -8   0  11    0.67    1.62
  -8   0  11    1.31    1.80
  -7   0  11    1.04    1.65
   7   0 -11    2.67    2.00
  -7   0  11    0.76    1.71
  -6   0  11   -0.65    1.11
   6   0 -11    0.73    1.51
  -6   0  11    1.38    1.55
  -5   0  11   10.26    2.78
  -5   0  11   11.14    2.38
   5   0 -11    8.18    2.59
   4   0 -11   -0.68    1.21
  -4   0  11    0.23    1.16
  -4   0  11    0.73    1.24
  -3   0  11  123.04    8.62
   3   0 -11  126.63    8.01
   3   0 -11  138.37    7.00
   2   0 -11   -0.38    1.00
  -2   0  11   -0.64    1.19
   2   0 -11   -0.18    0.80
  -1   0  11  147.29    9.57
   1   0 -11  135.95    8.29
  -1   0  11  157.44    7.03
   1   0 -11  145.06    6.94
   0   0  11    0.22    1.16
   0   0  11    0.48    1.26
   0   0 -11    0.30    0.73
   0   0 -11    1.95    1.25
   1   0  11    2.89    1.83
  -1   0 -11    1.20    1.15
   1   0  11    0.99    1.26
   2   0  11    1.06    1.21
   2   0  11    0.61    1.29
  -2   0 -11    0.38    0.94
   3   0  11   16.76    3.36
   3   0  11   15.42    2.60
  -3   0 -11   11.94    2.39
  -4   0 -11    0.17    0.95
   4   0  11    1.11    1.56
   4   0  11    0.88    1.21
   5   0  11   87.85    6.10
   5   0  11   97.11    7.18
  -5   0 -11   76.09    5.43
  -6   0 -11    0.87    1.10
   6   0  11   -1.48    1.42
   6   0  11   -0.19    1.53
  -7   0 -11   87.15    6.14
   7   0  11  113.53    7.43
  -8   0 -11   -0.53    0.91
   8   0  11    1.06    1.42
   9   0  11    5.08    2.37
  -9   0 -11    4.05    1.67
 -10   0 -11    0.26    1.56
  10   0  11   -1.70    2.00
  11   0  11    4.75    2.52
 -11   0 -11    5.16    2.13
  12   0  11   -1.55    1.68
 -12   0 -11    0.23    1.86
 -12   1  11    0.89    2.22
  12  -1 -11   -0.04    2.53
 -12  -1  11    2.38    2.60
  12   1 -11    1.87    2.36
  11  -1 -11    0.14    2.20
  11   1 -11    1.13    2.19
 -11  -1  11    0.09    2.12
 -11   1  11   -0.83    1.81
 -11   1  11    0.54    2.25
 -10   1  11    6.10    2.81
 -10  -1  11    6.95    2.62
 -10   1  11    5.46    2.49
  10   1 -11    4.83    2.31
 -10  -1  11    2.77    2.27
  10  -1 -11    5.53    2.73
   9  -1 -11   13.66    3.59
  -9   1  11   13.30    3.24
  -9  -1  11   17.25    3.62
  -9  -1  11   15.22    3.46
   9   1 -11   10.21    3.10
  -9   1  11   13.59    3.36
   8  -1 -11   -1.08    1.60
  -8  -1  11    0.83    1.77
  -8   1  11   -0.42    1.51
   8   1 -11    0.36    1.76
  -8   1  11   -0.19    1.72
  -8  -1  11   -0.24    1.80
  -7  -1  11   42.31    4.77
   7  -1 -11   37.07    4.94
   7   1 -11   32.71    4.71
  -7  -1  11   38.39    4.93
  -7   1  11   48.54    5.00
  -7   1  11   40.44    5.04
  -6   1  11    4.26    1.80
  -6  -1  11    4.69    1.88
  -6   1  11    4.77    2.28
   6   1 -11    5.00    2.17
   6  -1 -11    6.42    2.35
  -6  -1  11    3.10    1.95
  -5   1  11   33.09    4.62
   5  -1 -11   56.69    5.17
  -5  -1  11   55.42    5.31
  -5  -1  11   57.23    4.52
   5   1 -11   59.82    5.20
  -4  -1  11    2.03    1.83
  -4   1  11    3.06    1.87
  -4  -1  11    5.55    1.71
   4  -1 -11    1.14    1.40
   4  -1 -11    3.72    1.62
   4   1 -11    5.43    2.12
   3  -1 -11    4.59    1.81
   3  -1 -11    5.41    1.63
  -3   1  11    4.72    2.09
  -3  -1  11    7.83    1.81
   3   1 -11    8.24    2.24
  -3  -1  11    5.08    2.34
  -2   1  11   14.79    3.11
   2   1 -11   19.49    2.26
   2  -1 -11   17.07    3.00
   2  -1 -11   17.46    2.36
   2   1 -11   16.06    2.90
  -2  -1  11   15.51    3.33
  -1  -1  11   30.82    2.73
  -1   1  11   28.30    2.56
   1  -1 -11   21.47    3.17
   1   1 -11   25.23    2.22
   1  -1 -11   27.72    2.71
  -1   1  11   23.89    3.84
   1   1 -11   17.69    3.06
  -1  -1  11   25.07    4.09
   0   1  11    0.73    1.29
   0  -1 -11    2.54    1.02
   0   1  11    1.65    1.16
   0  -1  11    2.81    1.73
   0   1 -11    1.40    1.14
   0  -1  11    0.71    1.14
   0  -1 -11    0.01    0.97
  -1   1 -11  110.71    6.88
  -1  -1 -11  109.51    6.77
   1  -1  11  122.09    6.57
   1   1  11  109.01    7.82
   1  -1  11  122.90    8.52
   1   1  11  117.65    6.34
  -1  -1 -11  118.07    5.80
   2  -1  11    4.09    1.60
  -2  -1 -11    3.76    1.42
   2  -1  11    4.57    2.10
  -2   1 -11    3.74    1.47
   2   1  11    3.24    1.90
   2   1  11    3.87    1.51
  -3   1 -11   68.10    4.91
   3  -1  11   77.31    5.21
   3  -1  11   77.43    6.41
   3   1  11   63.12    4.71
  -3  -1 -11   61.47    4.66
   3   1  11   53.99    5.28
  -4  -1 -11    0.52    0.97
   4  -1  11    0.38    1.82
   4   1  11   -0.79    1.19
  -4   1 -11    0.64    1.02
   4   1  11    1.43    1.54
   4  -1  11    0.37    1.33
  -5  -1 -11    5.16    1.64
   5   1  11    2.03    1.85
   5  -1  11    6.46    2.14
   5   1  11    4.02    1.78
   5  -1  11    5.70    2.36
  -5   1 -11    3.72    1.54
  -6   1 -11   15.53    2.70
   6   1  11   14.66    3.03
   6  -1  11   20.06    3.55
   6  -1  11   23.52    4.26
  -6  -1 -11   15.84    2.63
  -7   1 -11   15.14    2.79
   7  -1  11   15.29    3.32
  -7  -1 -11   13.17    2.55
   7   1  11   11.81    2.95
  -8   1 -11    6.30    2.11
  -8  -1 -11    5.40    1.54
   8   1  11    1.25    1.39
   8  -1  11    1.59    1.49
  -9  -1 -11   26.97    3.51
  -9   1 -11   28.41    3.66
   9   1  11   30.11    4.49
   9  -1  11   36.97    4.92
  10  -1  11    1.44    2.44
 -10   1 -11   -0.30    1.55
  10   1  11   -1.50    2.03
 -10  -1 -11    0.96    1.35
  11  -1  11   15.20    3.57
 -11   1 -11    6.57    2.20
  11   1  11   16.45    3.58
 -11  -1 -11   11.14    2.52
 -12  -2  11    0.24    2.13
 -12   2  11    4.69    2.70
  12  -2 -11    3.16    2.96
  12   2 -11    1.87    2.27
 -12   2  11    3.35    2.60
 -11   2  11   16.70    3.87
 -11  -2  11   13.80    3.71
 -11   2  11   15.55    3.76
  11   2 -11   13.66    3.57
  11  -2 -11   13.66    4.09
 -10   2  11    0.10    1.89
 -10   2  11    2.54    2.20
  10   2 -11    0.81    2.02
 -10  -2  11   -0.69    1.98
 -10  -2  11    0.15    1.98
  10  -2 -11   -0.93    2.07
  -9   2  11   11.42    3.08
   9  -2 -11   17.62    3.87
  -9  -2  11   17.95    3.78
  -9   2  11   16.41    3.57
  -9  -2  11   14.69    3.71
   9   2 -11   18.21    3.83
   8   2 -11    9.02    2.76
  -8  -2  11   14.07    3.34
  -8   2  11    8.51    2.74
  -8  -2  11    8.38    2.75
   8  -2 -11   10.11    3.15
  -8   2  11   10.70    2.93
   7  -2 -11    4.78    2.44
  -7   2  11    4.10    2.20
  -7  -2  11    5.20    2.41
  -7  -2  11    5.36    2.32
  -6   2  11   12.92    3.11
   6  -2 -11   13.11    3.03
  -6  -2  11   14.80    3.33
   6   2 -11   13.73    3.07
  -6  -2  11   14.58    2.89
   6  -2 -11   15.04    3.05
   5   2 -11   14.61    3.15
  -5  -2  11   17.89    2.96
   5  -2 -11   19.82    3.58
   5  -2 -11   21.71    3.25
  -5  -2  11   20.72    3.91
  -4   2  11    4.71    2.09
   4   2 -11   10.79    2.70
   4  -2 -11    8.37    2.41
   4  -2 -11    6.84    2.00
  -4  -2  11    6.19    2.49
  -4  -2  11    9.46    2.11
   3  -2 -11   91.86    6.32
   3  -2 -11   78.61    5.30
  -3  -2  11   93.11    5.41
   3   2 -11   88.10    6.34
  -3   2  11   84.84    6.51
   2  -2 -11    1.88    1.34
   2   2 -11    1.60    1.34
  -2   2  11    0.35    1.17
  -2  -2  11    0.18    0.86
   2  -2 -11    0.90    1.09
  -2  -2  11    1.08    1.69
  -1   2  11   65.35    3.94
   1  -2 -11   69.24    4.42
   1  -2 -11   67.20    5.04
  -1   2  11   58.66    5.37
   1   2 -11   67.77    3.89
   1   2 -11   62.77    5.12
  -1  -2  11   69.89    6.22
  -1  -2  11   84.27    4.70
   0  -2  11   29.79    4.52
   0   2  11   30.41    2.89
   0  -2 -11   26.62    3.21
   0  -2 -11   32.30    2.75
   0  -2  11   33.88    3.19
   0   2 -11   28.19    3.45
   0   2  11   26.31    3.82
   1  -2  11   12.15    3.03
   1   2  11    9.78    2.43
  -1  -2 -11    7.97    1.90
   1  -2  11   12.93    2.36
  -1  -2 -11   10.12    1.88
   1   2  11   10.95    2.13
  -1   2 -11    7.99    2.04
   2  -2  11   21.03    2.99
   2  -2  11   18.82    3.81
   2   2  11   19.56    2.72
  -2  -2 -11   16.74    2.61
  -2  -2 -11   19.60    2.31
   2   2  11   12.71    2.85
  -2   2 -11   15.82    2.76
   3  -2  11   15.93    3.76
  -3  -2 -11   11.50    2.22
   3  -2  11   17.47    2.85
  -3   2 -11   15.30    2.68
   3   2  11   13.57    2.61
   3   2  11   15.41    3.00
   4   2  11    0.91    1.45
  -4  -2 -11    1.94    1.14
   4   2  11    1.81    1.43
   4  -2  11    0.81    1.35
  -4   2 -11    1.87    1.48
   4  -2  11    2.99    2.13
   5   2  11   62.02    5.33
   5  -2  11   78.81    5.89
  -5   2 -11   63.47    4.86
   5   2  11   64.74    5.26
  -5  -2 -11   60.54    4.67
   5  -2  11   89.05    7.20
   6  -2  11    2.29    2.59
   6   2  11    3.25    1.93
   6  -2  11    4.81    2.13
  -6  -2 -11    2.81    1.36
  -6   2 -11    0.12    0.90
   7   2  11   27.51    4.19
   7  -2  11   38.63    4.92
  -7  -2 -11   32.89    3.66
   7  -2  11   53.19    6.26
  -8  -2 -11    9.92    2.18
   8   2  11    5.33    2.14
  -8   2 -11    1.58    1.28
   8  -2  11   -0.09    1.45
  -9   2 -11    1.76    1.61
  -9  -2 -11    3.26    1.59
   9   2  11    6.01    2.55
   9  -2  11    8.93    2.81
  10   2  11   12.78    3.58
  10  -2  11   12.37    3.38
 -10   2 -11   13.24    2.86
 -10  -2 -11    9.39    2.32
 -11   2 -11    5.24    2.12
  11   2  11    5.70    2.59
 -11  -2 -11    4.21    1.68
  11  -2  11    4.13    2.49
  12   3 -11   10.63    3.44
 -12   3  11    7.99    3.28
  12  -3 -11    8.88    3.55
 -12   3  11   12.45    3.38
 -12  -3  11   14.38    3.84
  11   3 -11    0.72    2.17
 -11   3  11   -0.88    2.08
 -11   3  11    0.71    2.06
  11  -3 -11    1.22    2.49
 -11  -3  11   -0.68    2.26
  10   3 -11   15.05    3.68
 -10  -3  11   25.65    4.62
 -10  -3  11   15.42    3.62
 -10   3  11   19.82    4.19
  10  -3 -11   23.22    4.74
   9  -3 -11    2.61    2.39
   9   3 -11    4.08    2.27
  -9  -3  11    5.90    2.74
  -9  -3  11    4.55    2.32
  -9   3  11    3.19    2.28
   9  -3 -11    2.82    2.51
  -8  -3  11    7.74    2.64
   8  -3 -11    5.95    2.71
  -8   3  11    9.63    2.86
  -8  -3  11   11.69    3.07
   8  -3 -11    5.74    2.51
   8   3 -11    7.37    2.54
  -7   3  11   18.84    3.80
  -7  -3  11   21.79    3.71
   7  -3 -11   24.11    3.99
   7   3 -11   30.35    4.43
  -7  -3  11   26.94    4.26
   7  -3 -11   16.63    3.68
  -6  -3  11    4.58    1.89
   6  -3 -11    3.92    2.05
   6   3 -11    7.03    2.32
   6  -3 -11    2.50    1.98
  -6   3  11    1.72    1.34
  -6  -3  11    4.75    2.34
  -5   3  11   15.71    3.34
   5  -3 -11   16.16    3.29
  -5  -3  11   16.27    3.56
   5  -3 -11   13.55    2.77
   5   3 -11   13.03    2.96
  -5  -3  11   15.36    2.72
   4  -3 -11   28.09    3.47
   4  -3 -11   26.64    3.75
  -4  -3  11   27.30    4.42
   4   3 -11   23.14    3.74
  -4   3  11   20.71    3.62
  -4  -3  11   29.54    3.32
   3   3 -11   -0.34    1.20
  -3  -3  11    0.97    1.02
   3  -3 -11    0.45    1.33
  -3   3  11    0.89    1.36
   3  -3 -11   -0.19    1.10
  -3  -3  11    0.91    1.74
   2  -3 -11   59.17    4.24
   2   3 -11   49.14    4.70
   2  -3 -11   63.10    4.87
  -2   3  11   52.57    4.90
  -2  -3  11   62.37    5.84
  -1   3  11    7.78    2.20
   1   3 -11    8.55    2.44
   1  -3 -11    9.92    1.96
  -1   3  11    7.69    1.60
  -1  -3  11   11.49    3.04
   1  -3 -11    9.24    2.08
   1   3 -11   11.08    1.72
   0   3  11   23.18    2.58
   0  -3  11   24.34    4.30
   0   3  11   19.60    3.21
   0  -3 -11   24.61    2.75
   0  -3 -11   20.71    2.84
   0   3 -11   25.66    2.54
   0   3 -11   23.26    3.29
  -1  -3 -11   43.04    3.41
   1  -3  11   46.81    5.66
  -1   3 -11   43.47    3.30
  -1  -3 -11   46.47    3.78
   1   3  11   40.65    4.07
  -1   3 -11   30.88    3.75
   1   3  11   43.85    3.51
  -2  -3 -11    7.71    1.83
   2  -3  11   10.35    3.12
   2   3  11    5.55    1.94
  -2   3 -11    6.14    1.52
   2   3  11    4.88    1.76
  -2  -3 -11    8.59    1.81
   3  -3  11   50.65    6.07
  -3  -3 -11   38.72    3.36
  -3  -3 -11   36.71    3.37
   3   3  11   37.45    3.89
   3   3  11   44.92    4.20
   4  -3  11   54.81    6.30
   4  -3  11   52.33    4.61
   4   3  11   34.41    3.94
   4   3  11   27.07    3.73
  -4   3 -11   29.41    3.61
  -4  -3 -11   38.38    3.44
  -5   3 -11    2.17    1.42
   5   3  11    5.20    2.07
   5  -3  11    2.55    1.82
  -5  -3 -11    1.70    1.30
   5  -3  11    3.07    2.52
   6  -3  11   46.91    5.17
   6   3  11   41.58    4.73
  -6  -3 -11   40.01    3.71
   6  -3  11   64.74    7.16
  -6   3 -11   36.07    3.92
   7   3  11    6.51    2.53
  -7  -3 -11    8.43    2.07
   7  -3  11   15.06    4.13
  -7   3 -11   11.06    2.53
   7  -3  11   10.02    2.87
  -8   3 -11   11.01    2.51
  -8  -3 -11   12.50    2.45
   8   3  11    3.61    1.95
   9  -3  11   11.04    3.31
  -9   3 -11    6.49    2.21
   9   3  11    8.01    2.89
  -9  -3 -11    5.72    2.01
  10   3  11    1.91    2.03
 -10  -3 -11    0.07    1.24
 -10   3 -11    1.07    1.68
  10  -3  11    1.14    2.33
  11   3  11    9.55    2.93
  11  -3  11   10.82    3.38
 -11   3 -11    7.65    2.39
 -11  -3 -11    7.71    2.28
 -12  -4  11    4.02    2.73
  12   4 -11    2.97    2.05
  12  -4 -11    6.28    3.72
 -12   4  11    2.91    2.72
 -11   4  11    0.92    1.97
 -11  -4  11    2.55    2.51
  11   4 -11    2.34    2.34
  11  -4 -11    2.48    2.94
  10   4 -11    1.13    1.75
  10  -4 -11    0.13    2.21
 -10   4  11    1.49    2.27
 -10  -4  11    2.02    2.16
   9  -4 -11    0.79    2.12
  -9  -4  11    0.88    2.32
   9  -4 -11    1.94    2.38
   9   4 -11    2.30    2.02
  -9   4  11    2.80    1.95
  -9  -4  11    4.20    2.46
  -8   4  11   27.28    4.45
   8   4 -11   22.66    4.13
   8  -4 -11   31.76    4.91
  -8  -4  11   32.13    4.61
  -8  -4  11   30.36    4.59
   8  -4 -11   28.20    4.61
  -7  -4  11   -0.66    1.75
   7  -4 -11    0.29    1.93
   7   4 -11   -0.61    1.50
  -7  -4  11    0.16    1.56
  -7   4  11    2.57    1.89
   7  -4 -11   -1.30    1.64
   6  -4 -11   59.78    5.35
  -6   4  11   42.51    5.34
   6   4 -11   58.97    5.49
  -6  -4  11   79.77    6.65
   6  -4 -11   60.27    5.58
  -6  -4  11   66.34    5.30
  -5   4  11    8.84    2.69
   5   4 -11   14.23    3.21
   5  -4 -11   15.40    3.15
  -5  -4  11   13.42    2.71
  -5  -4  11   11.03    3.15
   5  -4 -11   11.31    2.73
  -4   4  11   13.46    2.99
   4   4 -11   19.91    3.55
  -4  -4  11   21.26    4.09
   4  -4 -11   20.72    3.36
  -4  -4  11   28.22    3.28
   4  -4 -11   19.64    3.15
   3  -4 -11    9.41    2.33
  -3  -4  11   10.02    3.02
  -3  -4  11    8.94    1.86
  -3   4  11    6.32    2.20
   3  -4 -11    9.36    2.37
   3   4 -11    8.89    2.46
   2  -4 -11    8.68    2.07
   2  -4 -11    6.93    1.90
   2   4 -11    1.58    1.31
  -2  -4  11    1.31    1.40
  -2   4  11    5.62    1.99
   1   4 -11    4.94    1.30
   1  -4 -11    3.57    1.54
   1  -4 -11    4.13    1.57
  -1   4  11    4.45    1.29
   1   4 -11    0.23    1.02
  -1   4  11    4.71    1.86
  -1  -4  11    7.43    2.69
   0   4  11   66.87    4.26
   0  -4  11   74.22    6.58
   0   4  11   60.54    5.18
   0  -4 -11   65.90    4.61
   0  -4 -11   65.60    4.66
   0   4 -11   59.10    4.96
   0   4 -11   71.39    4.26
  -1   4 -11    7.98    1.73
   1   4  11   10.05    2.06
  -1  -4 -11    9.78    1.99
   1   4  11    6.57    1.96
  -1   4 -11    7.92    2.17
   1  -4  11    7.71    2.82
  -1  -4 -11   11.57    2.14
  -2  -4 -11   90.58    5.58
   2   4  11   68.99    5.67
   2  -4  11  110.05    8.23
  -2   4 -11   83.78    5.18
  -2   4 -11   83.77    5.93
  -2  -4 -11   91.51    5.53
   2   4  11   91.55    5.67
  -3   4 -11    2.15    1.44
  -3  -4 -11    1.70    1.16
   3   4  11    2.84    1.62
   3  -4  11    2.86    2.17
  -3  -4 -11    1.85    1.34
   3   4  11    1.17    1.20
  -3   4 -11    0.65    0.93
   4   4  11   37.02    4.08
   4   4  11   31.86    3.36
  -4   4 -11   34.59    3.53
  -4  -4 -11   35.84    3.32
   4  -4  11   50.86    6.41
  -4  -4 -11   38.07    3.71
  -4   4 -11   30.88    3.67
  -5   4 -11   12.74    2.42
  -5   4 -11    8.54    2.15
   5   4  11   11.86    2.72
  -5  -4 -11   11.92    2.24
   5  -4  11   16.10    4.15
  -6   4 -11    1.02    1.32
  -6  -4 -11    0.65    1.11
   6  -4  11    1.80    2.85
   6  -4  11    0.87    1.84
   6   4  11    2.90    2.06
  -7  -4 -11    4.41    1.70
   7  -4  11    4.40    2.26
   7   4  11    3.37    2.13
  -7   4 -11    3.15    1.66
   7  -4  11    5.67    3.52
  -8  -4 -11   14.92    2.75
   8  -4  11    0.44    1.63
  -8   4 -11   18.63    3.13
   8   4  11    4.12    2.17
  -9  -4 -11    0.61    1.27
   9   4  11    2.33    2.18
   9  -4  11    1.34    2.32
  -9   4 -11    0.87    1.52
 -10  -4 -11   22.38    3.36
  10  -4  11   27.94    5.25
 -10   4 -11   26.44    3.83
  10   4  11   26.31    4.54
 -11   4 -11    0.79    1.56
  11  -4  11    3.07    2.76
 -11  -4 -11    2.26    1.56
  11   4  11    1.40    2.14
  11   5 -11    1.83    2.14
  11  -5 -11    0.06    2.40
 -11  -5  11   -1.36    2.09
 -11   5  11    0.65    1.88
  10   5 -11   16.69    3.83
 -10  -5  11   24.66    4.48
 -10   5  11   17.89    3.88
  10  -5 -11   17.48    4.36
   9   5 -11    1.64    1.96
   9  -5 -11   -0.23    1.95
  -9  -5  11   -0.69    1.70
  -9   5  11    0.10    1.74
  -9  -5  11   -0.21    1.96
  -8  -5  11   24.32    4.21
   8   5 -11   13.59    3.47
  -8  -5  11   20.79    4.06
  -8   5  11   19.20    3.89
   8  -5 -11   21.54    4.28
   7  -5 -11    1.59    1.94
  -7   5  11   -0.02    1.06
  -7  -5  11   -0.49    1.71
   7   5 -11    1.25    1.88
  -7  -5  11    1.95    1.75
  -6  -5  11   11.33    3.24
  -6  -5  11    9.16    2.59
   6  -5 -11   13.15    3.03
  -6   5  11    9.24    2.78
   6  -5 -11    9.60    2.65
   6   5 -11    9.71    2.97
   5   5 -11    1.32    1.41
  -5  -5  11    1.55    1.46
   5  -5 -11    1.47    1.79
  -5  -5  11    0.88    1.94
  -5   5  11    1.24    1.41
   5  -5 -11    1.54    1.75
  -4  -5  11   83.09    6.92
   4  -5 -11   75.09    5.60
   4  -5 -11   65.14    5.41
  -4   5  11   60.81    5.64
  -4  -5  11   73.96    5.03
  -3  -5  11    2.54    2.19
   3   5 -11   -0.05    1.38
   3  -5 -11    2.73    1.54
  -3   5  11    2.12    1.49
   3  -5 -11    0.51    1.36
  -2  -5  11   35.13    5.15
  -2   5  11   38.11    4.36
   2  -5 -11   40.11    3.64
   2  -5 -11   40.48    4.04
   2   5 -11   37.18    4.31
  -1   5  11    2.31    1.50
   1  -5 -11    1.80    1.41
  -1   5  11    1.73    1.10
   1   5 -11    1.27    1.04
   1   5 -11    0.61    1.49
  -1  -5  11    1.36    1.86
   1  -5 -11    2.75    1.29
   0   5 -11   21.28    2.48
   0  -5  11   22.73    4.39
   0  -5 -11   22.49    2.76
   0   5  11   17.69    3.11
   0   5  11   23.74    2.63
   0  -5 -11   23.59    3.12
   0   5 -11   18.18    3.20
   1   5  11    0.57    1.17
  -1  -5 -11    0.40    1.11
  -1   5 -11    0.04    0.79
   1  -5  11   -0.76    1.47
  -1   5 -11    0.50    1.22
   1   5  11   -0.14    1.18
  -1  -5 -11    1.48    1.11
  -2   5 -11    2.08    1.54
   2   5  11    0.40    1.16
  -2  -5 -11    0.50    0.96
   2  -5  11   -0.47    1.97
   2   5  11   -0.16    1.15
  -2   5 -11    0.63    0.91
  -2  -5 -11    0.68    1.30
   3   5  11    5.66    1.96
  -3  -5 -11    5.20    1.81
  -3   5 -11    5.35    1.89
   3   5  11    5.05    1.98
  -3  -5 -11    4.82    1.58
  -3   5 -11    4.45    1.64
   3  -5  11    6.15    2.81
  -4   5 -11   60.47    4.59
   4   5  11   62.60    5.13
  -4   5 -11   56.34    4.78
  -4  -5 -11   63.41    4.63
   4  -5  11   92.26    8.20
  -4  -5 -11   70.62    5.14
  -5  -5 -11   -0.03    0.94
  -5   5 -11    0.46    1.37
   5  -5  11    2.16    2.78
   5   5  11    0.05    1.73
  -5  -5 -11    1.66    1.81
  -5   5 -11   -0.38    1.02
  -6  -5 -11   54.04    4.30
  -6   5 -11   50.83    4.35
   6  -5  11   69.87    7.94
   6   5  11   49.87    5.20
  -6   5 -11   45.40    4.27
   7  -5  11    2.90    3.00
  -7   5 -11    0.26    1.52
   7   5  11    1.27    1.80
  -7  -5 -11    0.67    1.19
  -8   5 -11   16.76    3.06
   8  -5  11   36.41    6.62
   8   5  11    4.87    2.44
  -8  -5 -11   17.62    2.93
  -9   5 -11   -1.32    1.29
   9  -5  11    0.25    2.16
   9   5  11   -0.04    1.92
  -9  -5 -11   -0.16    1.19
 -10  -5 -11    0.13    1.34
  10  -5  11    0.08    2.18
  10   5  11   -2.12    1.80
 -10   5 -11    0.93    1.72
 -11   5 -11   -0.54    1.76
  11  -5  11    0.46    2.59
 -11  -5 -11    0.25    1.40
  11   5  11    1.51    2.03
 -11  -6  11    0.19    2.18
 -11   6  11    0.85    2.15
  11  -6 -11    0.63    2.94
  11   6 -11    1.48    2.44
 -10   6  11    3.01    2.29
 -10  -6  11    2.52    2.55
  10  -6 -11    2.94    2.95
  10   6 -11    3.80    2.77
  -9   6  11    0.33    1.67
   9  -6 -11    2.59    2.52
   9   6 -11    1.58    2.09
  -9  -6  11    1.44    1.99
   8   6 -11    5.62    2.32
  -8  -6  11   28.67    4.61
  -8   6  11   23.21    4.21
  -8  -6  11   24.84    4.33
   7  -6 -11    2.04    2.15
   7   6 -11    0.71    1.60
  -7  -6  11    2.48    1.99
  -7  -6  11    1.85    2.37
  -7   6  11    1.00    1.88
  -6   6  11   40.76    5.07
  -6  -6  11   43.37    4.66
   6   6 -11   37.02    4.85
  -6  -6  11   53.29    6.06
   6  -6 -11   40.67    4.99
  -5  -6  11    5.76    2.03
   5   6 -11    5.07    2.36
   5  -6 -11    4.17    1.97
  -5  -6  11    7.65    2.92
  -5   6  11    4.71    2.10
  -4  -6  11   38.60    5.27
   4  -6 -11   27.92    3.95
  -4   6  11   25.44    3.93
   4   6 -11   28.38    4.13
  -3  -6  11   11.15    3.26
  -3   6  11    7.99    2.40
   3   6 -11    7.66    2.53
   3  -6 -11   13.46    2.89
  -2  -6  11    0.23    1.79
   2   6 -11   -1.38    1.30
   2  -6 -11    0.06    1.41
  -2   6  11   -0.88    1.08
   2  -6 -11    1.54    1.16
  -1   6  11    4.90    1.57
   1   6 -11    2.97    1.89
   1  -6 -11    5.81    1.70
   1   6 -11    5.11    1.45
  -1   6  11    2.34    1.59
   1  -6 -11    3.83    1.84
  -1  -6  11    1.98    1.82
   0  -6  11   80.56    7.11
   0   6 -11   61.52    5.14
   0   6  11   59.70    5.06
   0  -6 -11   67.89    4.56
   0   6 -11   50.34    3.96
   0   6  11   67.26    4.43
   0  -6 -11   61.06    4.93
   1   6  11    6.11    1.90
  -1  -6 -11    5.87    1.96
  -1   6 -11    4.42    1.87
   1  -6  11    4.03    2.39
   1   6  11    3.65    1.48
  -1   6 -11    3.50    1.48
  -1  -6 -11    7.50    1.75
  -2  -6 -11  115.11    7.07
  -2   6 -11  101.58    6.91
   2   6  11  118.86    7.24
   2  -6  11  141.28    9.99
   2   6  11  103.53    6.46
  -2  -6 -11  104.41    6.26
  -2   6 -11  114.41    6.45
  -3  -6 -11   -0.34    1.41
   3   6  11    1.03    1.17
   3  -6  11    0.76    2.29
  -3   6 -11    1.39    1.08
  -3   6 -11    0.02    1.34
   3   6  11    1.45    1.50
  -3  -6 -11    1.08    0.97
   4   6  11   15.97    3.09
  -4  -6 -11   20.17    3.29
   4  -6  11   21.86    4.86
  -4   6 -11   15.55    2.74
  -4   6 -11   16.64    2.91
  -4  -6 -11   17.15    2.59
   5   6  11    9.37    2.67
  -5   6 -11    6.38    1.90
   5  -6  11   10.71    3.90
  -5   6 -11    7.84    2.20
  -5  -6 -11   11.95    2.76
  -5  -6 -11    8.69    1.96
  -6   6 -11    1.86    1.65
   6  -6  11    6.90    3.48
  -6   6 -11    1.61    1.41
  -6  -6 -11    2.09    1.37
   6   6  11    2.98    2.17
  -6  -6 -11    3.03    2.10
   7  -6  11    4.96    3.27
  -7   6 -11    2.05    1.55
   7   6  11    3.27    2.26
  -7  -6 -11    2.82    1.49
  -7   6 -11    3.26    1.90
  -8   6 -11   18.11    3.18
  -8  -6 -11   16.08    2.84
   8   6  11    7.64    2.59
  -8   6 -11   16.77    3.16
   8  -6  11   35.78    7.21
   9  -6  11    3.41    2.70
  -9   6 -11    2.52    1.79
  -9  -6 -11    1.69    1.28
   9   6  11    0.76    2.08
 -10   6 -11   14.74    3.13
  10  -6  11   23.91    5.15
  10   6  11   15.52    3.68
 -10  -6 -11   15.30    2.90
  10  -7 -11    8.90    3.74
 -10  -7  11   13.03    3.54
  10   7 -11    1.55    1.78
 -10   7  11   12.93    3.62
  -9   7  11   -0.22    1.75
   9  -7 -11    2.64    2.62
  -9  -7  11    2.67    2.32
   9   7 -11    2.91    2.57
  -8  -7  11    9.05    3.00
  -8   7  11    0.87    1.36
   8   7 -11    4.32    2.58
  -8  -7  11    8.91    2.91
   8  -7 -11    6.47    2.83
  -7  -7  11   12.65    3.14
   7   7 -11   14.56    3.43
  -7   7  11   11.58    3.33
  -7  -7  11   17.25    4.14
   7  -7 -11    0.74    1.89
   6  -7 -11    0.79    1.78
   6   7 -11    2.37    2.23
  -6   7  11    2.00    1.76
  -6  -7  11    1.56    1.76
  -6  -7  11    4.16    2.87
   5  -7 -11   16.99    3.46
  -5  -7  11   28.86    4.85
  -5   7  11   13.20    3.11
   5   7 -11   22.83    3.92
   4  -7 -11   33.56    4.27
  -4   7  11   34.90    4.48
   4   7 -11   43.48    4.91
  -4  -7  11   40.78    5.43
   3   7 -11    4.44    2.27
  -3  -7  11    6.15    2.78
  -3   7  11    2.33    1.59
   3  -7 -11    3.35    1.95
   2  -7 -11   69.24    5.51
  -2  -7  11   84.76    7.28
  -2   7  11   63.44    5.53
   2   7 -11   75.84    5.89
  -1   7  11    2.30    1.60
   1   7 -11    1.45    1.14
  -1   7  11    1.63    1.23
  -1  -7  11    2.88    2.03
   1  -7 -11    2.19    1.84
   1   7 -11    3.12    1.93
   0   7 -11    9.63    1.90
   0   7 -11    9.70    2.51
   0  -7  11   10.66    3.31
   0  -7 -11    7.63    2.23
   0   7  11    6.73    1.80
   0   7  11    9.24    2.38
  -1  -7 -11   40.31    4.38
  -1   7 -11   45.46    4.28
  -1  -7 -11   35.41    3.17
  -1   7 -11   33.58    3.42
   1   7  11   42.26    3.74
   1  -7  11   47.71    6.30
   1   7  11   45.21    4.12
   2   7  11    3.16    1.62
  -2   7 -11    2.23    1.63
  -2  -7 -11    3.52    1.95
  -2   7 -11    1.55    1.32
   2   7  11    1.69    1.58
   2  -7  11    5.68    3.02
  -2  -7 -11    3.31    1.25
  -3  -7 -11   24.08    2.83
   3   7  11   21.69    3.32
  -3  -7 -11   23.42    3.60
  -3   7 -11   23.59    3.32
  -3   7 -11   23.05    3.02
   3  -7  11   30.00    5.57
  -4  -7 -11   22.53    2.83
   4   7  11   25.17    3.70
  -4   7 -11   21.69    3.24
  -4   7 -11   20.41    3.01
   4  -7  11   31.64    5.83
  -4  -7 -11   26.41    3.83
   5   7  11    1.55    1.81
  -5  -7 -11   -0.82    0.96
  -5   7 -11    0.90    1.29
  -5  -7 -11    1.49    2.03
   5  -7  11   -0.80    2.39
  -5   7 -11    0.49    1.49
   6  -7  11   52.11    7.69
  -6   7 -11   31.06    3.83
   6   7  11   37.47    4.70
  -6  -7 -11   44.22    4.96
  -6  -7 -11   33.65    3.57
  -6   7 -11   32.78    3.91
  -7  -7 -11    5.64    1.80
   7  -7  11    9.23    4.24
   7   7  11    6.60    2.68
  -7  -7 -11    6.22    2.75
  -7   7 -11    4.12    1.96
  -7   7 -11    4.60    1.89
   8  -7  11   17.47    5.26
   8   7  11    3.04    1.99
  -8   7 -11   11.39    2.85
  -8   7 -11   10.42    2.55
  -8  -7 -11   10.56    2.26
  -9  -7 -11    5.74    1.96
   9   7  11    7.58    2.97
  -9   7 -11    6.92    2.45
   9  -7  11   14.72    5.28
  -9   7 -11    7.01    2.32
  10   7  11    4.18    2.74
 -10  -7 -11    1.22    1.33
  10  -7  11   -1.25    2.40
 -10   7 -11    1.81    1.92
 -10   8  11    0.19    2.08
  10  -8 -11    1.82    2.06
 -10  -8  11    1.12    2.19
  10   8 -11    4.19    2.70
   9   8 -11    9.49    3.31
  -9  -8  11   10.15    3.08
   9  -8 -11   13.22    3.87
  -9   8  11    6.35    2.66
   8   8 -11    9.13    3.06
  -8   8  11    7.53    2.81
  -8  -8  11   11.82    3.20
   8  -8 -11    7.65    3.14
  -7  -8  11    0.76    2.48
   7  -8 -11    1.64    1.97
  -7  -8  11   -0.85    1.88
  -7   8  11    0.63    1.85
   7   8 -11   -0.10    1.88
  -6   8  11    8.91    2.79
   6   8 -11    9.98    3.00
  -6  -8  11   12.91    3.72
   6  -8 -11    0.17    1.56
   5   8 -11   11.76    3.21
   5  -8 -11   10.61    2.92
  -5   8  11    6.05    2.32
  -5  -8  11   10.55    3.41
  -4   8  11    8.06    2.42
   4   8 -11    7.69    3.04
  -4  -8  11    8.25    3.11
   4  -8 -11    7.56    2.49
  -3   8  11   44.69    4.66
   3   8 -11   56.61    5.11
   3  -8 -11   40.54    4.86
  -3  -8  11   59.62    6.12
  -2  -8  11    1.70    2.33
   2  -8 -11    1.59    1.83
   2   8 -11    1.63    1.94
  -2   8  11   -0.05    1.36
   1  -8 -11   43.41    4.74
  -1   8  11   38.69    3.57
  -1  -8  11   58.76    6.68
  -1   8  11   37.38    4.05
   1   8 -11   41.75    3.52
   1   8 -11   45.24    4.73
   0   8  11   19.80    3.16
   0   8  11   16.78    2.65
   0  -8 -11   18.01    3.41
   0   8 -11   12.72    2.30
   0   8 -11   16.24    3.09
   0  -8  11   12.85    3.56
  -1  -8 -11    5.47    2.18
  -1   8 -11    3.81    1.44
  -1   8 -11    5.70    2.12
   1  -8  11    4.18    2.67
   1   8  11    7.44    2.18
   1   8  11    5.70    1.90
  -2   8 -11   12.67    2.43
   2   8  11   12.64    2.44
   2  -8  11   16.71    4.41
  -2  -8 -11   11.29    2.83
   2   8  11   10.65    2.39
  -2   8 -11   11.12    2.68
  -3   8 -11    4.65    1.78
  -3  -8 -11    9.08    2.80
  -3   8 -11    8.58    2.42
   3   8  11    7.95    2.45
   3  -8  11   11.72    4.05
  -4   8 -11    9.92    2.54
   4  -8  11   16.34    4.42
  -4   8 -11   10.82    2.43
   4   8  11   12.69    2.90
  -4  -8 -11   16.32    3.43
   5  -8  11   29.56    5.99
   5   8  11   25.15    4.00
  -5  -8 -11   23.46    2.94
  -5   8 -11   22.64    3.32
  -5   8 -11   29.00    3.63
  -5  -8 -11   28.45    4.37
   6  -8  11    0.88    2.58
  -6  -8 -11   -0.93    1.09
  -6   8 -11    2.25    1.44
  -6   8 -11   -1.25    1.44
  -6  -8 -11    0.22    1.81
   6   8  11   -1.45    1.56
   7  -8  11   31.07    6.50
  -7   8 -11   17.48    3.13
  -7  -8 -11   21.23    2.98
   7   8  11   18.27    3.88
  -7  -8 -11   22.74    4.20
  -7   8 -11   19.83    3.34
   8   8  11    0.17    1.80
  -8   8 -11    9.36    2.71
   8  -8  11   12.94    4.89
  -8  -8 -11   10.07    2.34
  -8   8 -11    6.88    2.23
   9   8  11    0.06    1.98
  -9   8 -11    3.46    1.85
   9  -8  11    6.62    4.40
  -9  -8 -11    0.76    1.38
  -9   8 -11    3.70    2.04
  -9   9  11    0.94    1.88
  -9  -9  11    5.76    2.78
   9   9 -11    5.38    2.97
   9  -9 -11    1.88    2.24
  -8   9  11   -0.88    1.96
   8  -9 -11   -1.66    1.89
  -8  -9  11   -0.01    1.94
   8   9 -11    0.56    2.14
   7  -9 -11   13.12    3.53
  -7  -9  11   26.66    4.64
   7   9 -11   22.10    4.12
  -7   9  11   17.66    3.82
   6  -9 -11    0.82    1.86
  -6   9  11    1.03    1.51
  -6  -9  11   -2.56    1.85
   6   9 -11    0.44    2.17
  -5   9  11   16.33    3.45
  -5  -9  11   20.63    4.22
   5  -9 -11    5.51    2.44
   5   9 -11   23.04    3.91
  -4   9  11    4.39    2.06
  -4  -9  11    5.60    2.79
   4  -9 -11    1.93    1.85
   4   9 -11    1.12    1.97
   3  -9 -11    1.65    1.95
   3   9 -11    4.03    2.39
  -3  -9  11    6.00    2.89
  -3   9  11    3.04    1.79
   2  -9 -11    7.05    2.56
   2   9 -11    9.78    2.85
  -2   9  11    4.62    1.90
  -2  -9  11    4.71    2.58
   1   9 -11   20.01    2.75
  -1  -9  11   28.64    5.27
  -1   9  11   22.89    3.18
   1  -9 -11   25.12    4.06
  -1   9  11   19.80    3.36
   1   9 -11   22.65    3.68
   0   9 -11    0.36    1.70
   0   9 -11    3.02    1.40
   0  -9 -11    2.88    2.13
   0  -9  11    2.41    2.10
   0   9  11    3.86    1.70
   0   9  11    2.76    1.63
  -1   9 -11   44.21    3.86
   1  -9  11   51.10    6.93
  -1  -9 -11   48.73    5.28
   1   9  11   45.50    4.28
  -1   9 -11   51.69    4.71
   1   9  11   48.19    4.26
   2   9  11    0.41    1.66
  -2   9 -11    0.79    1.23
  -2  -9 -11    0.13    1.74
  -2   9 -11    0.57    1.41
   2  -9  11   -0.76    1.86
  -3   9 -11   20.68    3.25
   3  -9  11   30.84    5.86
   3   9  11   24.31    3.69
  -3  -9 -11   22.83    4.08
  -3   9 -11   21.31    3.10
   4   9  11    0.44    1.61
   4  -9  11    3.40    2.82
  -4   9 -11    0.29    1.51
  -4   9 -11    1.87    1.50
  -4  -9 -11    1.01    1.99
  -5   9 -11    4.87    1.93
   5   9  11    5.12    2.28
  -5  -9 -11    2.64    2.56
   5  -9  11    6.15    3.42
  -5   9 -11    5.21    1.95
  -6  -9 -11    3.61    2.47
  -6   9 -11    2.68    1.85
  -6   9 -11    2.28    1.60
   6  -9  11    9.81    4.34
   6   9  11    3.02    2.25
   7  -9  11   10.28    4.45
  -7  -9 -11    9.15    3.21
  -7   9 -11    4.74    1.99
   7   9  11    9.00    2.84
  -7   9 -11    5.25    2.13
  -8   9 -11    1.95    1.61
   8   9  11    0.17    1.62
  -8  -9 -11    3.06    2.75
   8  -9  11    0.34    3.57
   9  -9  11   23.55    6.31
  -9   9 -11   13.25    2.93
   9   9  11   16.10    3.91
  -8  10  11   -0.09    1.87
   8 -10 -11    1.95    1.96
   8  10 -11    1.45    2.41
   7 -10 -11    0.49    2.19
   7  10 -11    0.30    2.44
  -7  10  11    1.15    1.87
   6  10 -11    0.85    2.19
   6 -10 -11    1.03    2.00
  -6  10  11   -0.69    1.59
  -6 -10  11    0.81    2.30
   5  10 -11    8.47    3.11
  -5 -10  11   11.53    3.58
   5 -10 -11    5.05    2.37
  -5  10  11    9.66    2.77
   4  10 -11    0.11    1.99
   4 -10 -11   -0.93    1.38
  -4 -10  11    0.39    2.39
  -4  10  11    0.05    1.55
   3  10 -11   47.65    5.22
  -3 -10  11   57.13    6.65
  -3  10  11   43.54    5.03
   3 -10 -11   38.09    5.22
   2  10 -11    0.04    1.79
   2 -10 -11   -0.10    1.89
  -2 -10  11    0.98    2.25
  -2  10  11   -0.31    1.36
   1 -10 -11   26.40    4.42
  -1  10  11   32.71    4.15
  -1 -10  11   41.98    6.16
   1  10 -11   27.64    3.28
   1  10 -11   32.27    4.17
   0  10 -11   -0.40    1.18
   0 -10  11   -0.20    2.32
   0  10 -11    0.51    1.76
   0 -10 -11   -0.78    1.76
   0  10  11   -0.40    1.22
   0  10  11    0.52    1.58
   1 -10  11    1.90    2.52
   1  10  11    2.59    1.85
  -1 -10 -11   -0.30    1.73
  -1  10 -11   -1.40    1.57
  -1  10 -11    2.18    1.40
  -2 -10 -11    0.90    1.90
  -2  10 -11    0.01    1.60
   2 -10  11   -0.05    2.44
   2  10  11    1.08    1.83
  -2  10 -11    0.91    1.34
  -3  10 -11    7.16    2.11
  -3  10 -11    6.68    2.34
   3 -10  11    8.17    3.49
  -3 -10 -11    3.43    2.29
   3  10  11    5.56    2.30
   4 -10  11    0.94    2.81
  -4 -10 -11    2.11    2.11
  -4  10 -11    0.23    1.25
   4  10  11    2.46    2.03
  -4  10 -11    1.13    1.71
   5  10  11   36.48    4.88
  -5  10 -11   27.11    3.70
   5 -10  11   45.92    7.57
  -5 -10 -11   32.34    5.06
  -6  10 -11    0.45    1.37
   6  10  11    0.85    2.07
  -6 -10 -11    1.55    2.60
   6 -10  11    5.33    3.58
  -7 -10 -11   33.90    5.37
   7 -10  11   35.21    7.10
  -7  10 -11   27.35    3.94
   7  10  11   32.95    4.99
   8  10  11    1.11    1.89
  -8 -10 -11    2.90    2.94
  -8  10 -11    0.12    1.57
   8 -10  11    3.32    3.78
   8  11 -11   -0.18    2.25
  -8  11  11    0.38    1.75
   8 -11 -11    0.11    1.72
   7 -11 -11   14.16    3.57
  -7  11  11   14.23    3.59
   7  11 -11   18.78    4.12
   6 -11 -11   -1.34    2.03
  -6  11  11    0.96    1.61
   6  11 -11    1.25    2.41
  -5 -11  11   24.05    4.85
   5  11 -11   17.25    3.91
   5 -11 -11   13.79    3.73
  -5  11  11   16.11    3.50
  -4 -11  11    4.76    3.22
   4 -11 -11    2.16    1.92
   4  11 -11    1.20    2.17
  -4  11  11    1.58    1.75
   3 -11 -11   -0.25    1.69
  -3 -11  11   -1.71    2.09
  -3  11  11    1.04    1.77
   3  11 -11    1.34    2.11
   2 -11 -11    4.53    2.60
  -2 -11  11    7.00    3.16
   2  11 -11    6.80    2.75
  -2  11  11    6.23    2.30
   1 -11 -11    7.75    2.86
   1  11 -11    8.75    2.21
  -1 -11  11   13.31    4.09
   1  11 -11    8.14    2.73
  -1  11  11    9.69    2.70
   0 -11 -11    1.02    2.09
   0 -11  11    1.47    2.27
   0  11  11    0.77    1.55
   0  11 -11    1.06    1.41
   0  11  11    0.83    1.83
   0  11 -11    0.90    1.74
  -1 -11 -11   19.63    4.00
   1  11  11   27.07    3.98
  -1  11 -11   24.96    3.28
  -1  11 -11   26.20    3.68
   2 -11  11   -1.02    2.34
  -2  11 -11    0.48    1.29
   2  11  11    0.80    2.05
  -2 -11 -11   -1.18    1.78
  -3 -11 -11   15.04    3.70
  -3  11 -11   20.39    3.17
   3  11  11   17.93    3.53
   3 -11  11   17.08    4.88
   4 -11  11    0.96    2.68
   4  11  11    2.43    2.23
  -4  11 -11    0.45    1.40
  -4 -11 -11    0.30    2.10
  -5 -11 -11    1.69    2.48
   5  11  11    4.74    2.42
  -5  11 -11    1.09    1.37
   5 -11  11    1.56    3.13
   6  11  11    3.21    2.35
   6 -11  11    6.44    3.92
  -6  11 -11    2.90    1.97
  -6 -11 -11    6.29    3.34
  -7  11 -11    5.00    2.03
   7  11  11    5.48    2.65
  -7 -11 -11    4.69    3.21
   7 -11  11    7.75    4.38
  -6  12  11    7.08    2.83
   6  12 -11    5.69    2.96
   6 -12 -11    1.85    2.23
   5 -12 -11    4.86    2.83
  -5 -12  11    9.19    3.54
  -5  12  11    6.82    2.69
   5  12 -11    8.36    3.17
  -4  12  11    4.96    2.24
   4 -12 -11    4.69    2.70
  -4 -12  11    8.61    3.68
   4  12 -11    8.81    3.10
  -3 -12  11   15.15    4.19
   3 -12 -11    4.48    2.29
  -3  12  11   12.74    3.04
   2 -12 -11    1.45    2.05
  -2 -12  11    1.00    2.87
  -2  12  11    0.87    1.72
   1 -12 -11    7.45    2.99
  -1 -12  11   11.85    4.03
  -1  12  11    8.19    2.55
   1  12 -11    7.23    2.01
   0  12  11    7.37    2.76
   0 -12 -11    6.72    2.89
   0 -12  11    4.74    3.24
   0  12 -11    8.37    2.28
  -1  12 -11    0.74    1.42
  -1 -12 -11    1.65    2.25
   1 -12  11    1.95    2.85
   1  12  11    2.41    2.20
  -2 -12 -11    7.85    2.93
  -2  12 -11    8.22    2.28
   2 -12  11    6.88    3.58
   2  12  11   10.58    3.10
  -3  12 -11    5.78    2.15
  -3 -12 -11    6.50    3.02
   3  12  11    5.86    2.64
   3 -12  11    4.93    3.36
   4  12  11    3.95    2.53
  -4  12 -11    6.11    2.13
  -4 -12 -11    4.45    2.77
   4 -12  11    9.27    4.12
   5 -12  11   24.06    5.95
  -5 -12 -11   17.03    4.05
  -5  12 -11   13.49    2.92
   5  12  11   17.55    3.80
   6  12  11    2.83    2.43
   6 -12  11    4.45    3.43
  -6 -12 -11    1.06    2.84
  -6  12 -11    1.43    1.60
  -5  13  11    2.63    2.03
   5 -13 -11    1.28    2.45
  -4  13  11   10.13    3.14
   4 -13 -11    7.22    3.34
  -4 -13  11   17.12    4.50
  -3  13  11   -0.25    2.02
   3 -13 -11    0.58    2.20
  -3 -13  11    0.73    2.65
  -2 -13  11   13.33    4.23
   2 -13 -11    3.87    2.51
  -2  13  11   11.82    3.10
  -1 -13  11    6.46    3.50
   1  13 -11    3.31    1.78
   1 -13 -11    1.63    2.44
  -1  13  11    3.69    2.09
   0  13  11    5.07    2.94
   0 -13  11    5.51    3.36
   0  13 -11    4.64    2.00
  -1  13 -11    7.21    2.18
   1 -13  11    6.07    3.42
  -1 -13 -11    6.36    3.05
   1  13  11    6.50    2.94
  -2  13 -11    1.26    1.57
   2  13  11    3.25    2.42
   2 -13  11    2.90    2.42
  -2 -13 -11   -0.27    2.17
  -3 -13 -11    6.53    3.14
  -3  13 -11    6.73    2.18
   3 -13  11    4.19    3.55
   3  13  11    7.13    3.02
  -4 -13 -11    9.72    3.66
   4 -13  11    6.68    3.42
  -4  13 -11    9.97    2.53
   4  13  11   11.17    3.34
   2 -14 -11    1.13    2.59
  -2 -14  11    0.38    2.86
  -2  14  11    1.36    1.71
   1  14 -11    0.41    1.40
  -1 -14  11    2.88    3.16
   1 -14 -11    2.28    2.23
   0 -14 -11    2.37    2.68
   0  14  11   10.73    3.47
   0  14 -11    9.96    2.37
   0 -14  11   12.41    4.36
  -1  14 -11    2.80    1.74
   1 -14  11    5.24    3.30
   1  14  11    1.11    2.29
  -1 -14 -11   -1.40    2.36
  -2 -14 -11   14.37    4.02
   2 -14  11   15.25    4.84
   2  14  11   16.77    3.98
  -2  14 -11   13.90    2.78
  11   0 -12   -0.23    2.33
 -11   0  12    0.96    2.28
 -11   0  12    2.76    2.31
  10   0 -12    8.91    3.19
 -10   0  12    9.75    3.16
 -10   0  12    2.52    2.29
  -9   0  12    2.07    2.15
  -9   0  12    0.52    1.89
   9   0 -12    0.71    1.96
   8   0 -12   -0.74    1.71
  -8   0  12   -1.74    1.58
  -8   0  12   -0.70    1.86
   7   0 -12    1.36    2.03
  -7   0  12   -0.74    1.52
  -7   0  12   -0.54    1.41
  -6   0  12   19.42    3.82
   6   0 -12   16.78    3.58
  -6   0  12   18.07    3.24
  -5   0  12   -0.37    1.50
  -5   0  12   -0.71    1.34
   5   0 -12    0.25    1.35
  -4   0  12   77.50    6.66
   4   0 -12   77.44    5.30
   4   0 -12   76.60    6.23
   3   0 -12    0.41    1.29
  -3   0  12    0.29    1.57
   3   0 -12    1.18    1.13
   2   0 -12   36.07    3.03
  -2   0  12   30.99    4.66
   2   0 -12   33.60    4.22
  -1   0  12   -0.05    1.38
   1   0 -12    0.28    0.90
   1   0 -12    0.01    1.12
   0   0  12    0.47    1.51
   0   0  12   -0.11    1.18
   0   0 -12    0.16    1.20
  -1   0 -12   -0.41    1.12
   1   0  12    1.20    1.46
   1   0  12   -0.42    1.54
   2   0  12   16.96    3.66
  -2   0 -12   16.26    2.81
   2   0  12   19.38    2.99
   3   0  12    0.28    1.38
   3   0  12    0.38    1.51
  -3   0 -12    0.16    1.15
   4   0  12  123.57    8.71
  -4   0 -12   96.81    6.52
   4   0  12  108.19    7.06
   5   0  12    0.39    1.41
   5   0  12   -0.82    1.78
  -5   0 -12   -0.16    1.06
   6   0  12   60.03    5.41
  -6   0 -12   59.78    4.71
  -7   0 -12    0.46    1.11
   7   0  12   -1.78    1.58
   8   0  12    4.72    2.43
  -8   0 -12    2.44    1.50
  -9   0 -12   -0.19    1.10
   9   0  12    0.73    1.68
 -10   0 -12    7.28    2.48
  10   0  12   12.77    3.62
  11   0  12   -0.38    2.38
 -11   0 -12    0.66    1.88
 -11   1  12    0.81    2.24
 -11  -1  12    2.50    2.68
 -11   1  12    3.84    2.57
  11   1 -12    2.38    2.66
  11  -1 -12    3.87    3.20
 -11  -1  12    5.81    2.88
  10  -1 -12   11.78    3.54
 -10   1  12   10.79    3.31
 -10  -1  12   13.23    3.61
  10   1 -12   16.49    3.98
 -10  -1  12   11.99    3.60
 -10   1  12   14.70    3.58
   9  -1 -12    0.33    2.21
  -9   1  12   -1.95    1.60
  -9  -1  12    0.70    2.04
  -9   1  12   -0.23    1.75
  -9  -1  12    1.10    1.88
   9   1 -12    0.65    1.97
   8  -1 -12   25.06    4.55
  -8  -1  12   28.70    4.83
  -8   1  12   36.53    4.92
  -8  -1  12   30.45    4.62
  -8   1  12   26.82    4.52
   8   1 -12   26.40    4.49
  -7  -1  12    2.11    1.91
  -7   1  12    1.35    1.84
   7   1 -12    2.35    1.99
   7  -1 -12    3.43    2.20
  -7  -1  12    1.57    2.13
  -7   1  12    0.28    1.96
   6   1 -12   15.88    3.46
   6  -1 -12   13.61    3.35
  -6   1  12   14.55    3.69
  -6  -1  12   13.02    3.36
  -6  -1  12   12.14    2.87
  -5   1  12    1.21    1.29
   5  -1 -12    7.18    2.37
   5  -1 -12    4.88    2.09
  -5  -1  12    5.98    2.59
   5   1 -12    6.14    2.39
  -5  -1  12    6.33    2.00
   4   1 -12    0.54    1.56
   4  -1 -12   -0.39    1.28
   4  -1 -12    0.70    1.23
  -4  -1  12    1.18    1.37
  -4   1  12    0.55    1.51
  -4  -1  12    0.70    1.26
  -3  -1  12   11.33    3.17
   3   1 -12    9.19    2.52
  -3   1  12   14.01    3.23
   3   1 -12   13.36    2.25
   3  -1 -12    8.43    2.52
   3  -1 -12   11.08    2.31
   2   1 -12   71.49    4.42
   2  -1 -12   70.15    5.63
  -2   1  12   64.20    5.98
   2   1 -12   66.39    5.61
   2  -1 -12   67.73    4.55
  -2  -1  12   76.56    6.67
   1  -1 -12   -0.01    1.34
   1   1 -12    0.74    1.28
  -1  -1  12   -0.18    1.54
   1  -1 -12    0.97    1.12
  -1   1  12    0.09    1.45
   0  -1 -12   96.05    6.40
   0   1 -12   78.72    6.05
   0  -1 -12   90.94    5.17
   0  -1  12   90.05    7.54
   0  -1  12  101.55    5.85
   0   1  12   92.77    5.48
   0   1  12  101.24    7.61
   1  -1  12    0.94    1.86
  -1   1 -12    0.21    1.00
  -1  -1 -12    0.40    1.04
   1  -1  12    0.16    1.41
   1   1  12    0.02    1.36
   1   1  12    0.64    1.35
  -2  -1 -12   42.88    3.96
   2   1  12   40.46    4.08
   2  -1  12   53.88    6.07
   2  -1  12   52.00    4.36
   2   1  12   50.70    5.11
  -2   1 -12   41.37    4.28
   3   1  12    4.84    2.19
   3  -1  12    6.01    2.04
   3  -1  12    3.80    2.35
   3   1  12    4.98    1.91
  -3  -1 -12    4.02    1.57
  -3   1 -12    3.67    1.53
   4   1  12    8.09    2.66
  -4   1 -12    7.96    2.17
   4   1  12    5.82    2.14
   4  -1  12   11.70    3.35
  -4  -1 -12    7.80    2.06
   4  -1  12   10.96    2.66
  -5   1 -12   14.71    2.79
   5   1  12   16.48    3.53
   5  -1  12   12.03    2.80
   5   1  12   15.55    3.08
   5  -1  12   22.26    4.37
  -5  -1 -12   14.67    2.64
   6  -1  12   33.62    5.13
   6  -1  12   22.48    3.92
  -6  -1 -12   26.26    3.36
   6   1  12   25.64    4.01
  -6   1 -12   18.99    3.12
  -7   1 -12   -0.18    1.26
   7   1  12    1.99    1.84
   7  -1  12   -1.62    1.73
  -7  -1 -12    0.62    1.12
  -8   1 -12   35.52    4.21
  -8  -1 -12   31.31    3.89
   8  -1  12   40.85    5.26
   8   1  12   36.78    5.04
  -9  -1 -12    1.87    1.30
   9   1  12   -0.65    1.60
  -9   1 -12    0.77    1.64
   9  -1  12    0.77    1.53
  10   1  12   14.55    3.75
 -10   1 -12    9.09    2.58
 -10  -1 -12    7.73    2.31
  10  -1  12   14.41    3.88
 -11  -1 -12    1.39    1.37
  11   1  12    0.61    2.34
 -11   1 -12    0.21    1.77
  11  -1  12   -2.47    2.25
 -11   2  12    1.08    2.27
  11  -2 -12    4.13    3.10
 -11  -2  12    2.94    2.63
 -11   2  12   -1.61    1.84
  11   2 -12    1.26    2.00
  10   2 -12    6.34    2.84
 -10  -2  12    9.96    3.22
 -10   2  12    6.51    2.80
 -10  -2  12    4.64    2.74
  10  -2 -12    6.86    3.15
 -10   2  12    6.08    2.78
  -9  -2  12    8.64    2.92
  -9   2  12    8.22    2.88
  -9  -2  12   11.48    3.40
   9  -2 -12    7.80    3.05
  -9   2  12    6.85    2.75
   9   2 -12    6.85    2.93
  -8   2  12    0.24    1.87
   8  -2 -12    0.47    2.06
  -8  -2  12    0.86    1.78
   8   2 -12    0.01    1.72
  -8  -2  12    2.20    2.05
   7   2 -12   17.67    3.68
  -7   2  12   15.07    3.66
   7  -2 -12   15.56    3.56
  -7  -2  12   15.78    3.31
   7  -2 -12   14.60    3.60
  -7  -2  12   19.92    4.02
  -6  -2  12   21.27    4.21
  -6  -2  12   17.86    3.28
  -6   2  12   13.05    3.30
   6  -2 -12   16.65    3.22
   6  -2 -12   16.45    3.61
   5  -2 -12    7.01    2.30
  -5  -2  12    6.65    2.12
   5   2 -12    9.34    2.81
  -5   2  12    8.59    2.79
  -5  -2  12    8.54    2.86
   5  -2 -12    9.76    2.80
  -4  -2  12   34.90    5.11
   4  -2 -12   31.40    4.32
  -4  -2  12   35.79    3.82
  -4   2  12   29.32    4.42
   4   2 -12   34.51    4.50
   4  -2 -12   42.63    4.17
  -3   2  12    8.85    2.61
   3  -2 -12   10.20    2.32
   3  -2 -12   13.97    2.98
   3   2 -12    9.70    2.57
  -3  -2  12   10.55    2.21
  -3  -2  12   14.47    3.60
   2  -2 -12   36.41    3.60
   2  -2 -12   36.08    4.23
   2   2 -12   41.66    4.65
  -2  -2  12   39.35    5.41
  -2   2  12   33.25    4.54
  -1   2  12   29.78    4.30
  -1  -2  12   34.11    5.05
   1  -2 -12   34.28    3.10
   1  -2 -12   25.02    3.51
   1   2 -12   29.46    3.95
   0   2  12   -0.57    1.35
   0   2 -12    0.31    1.15
   0  -2 -12    0.10    0.88
   0   2  12    1.09    1.16
   0  -2 -12   -0.09    1.07
   0  -2  12    0.49    1.60
   0  -2  12   -0.17    1.30
   1  -2  12   22.08    3.05
  -1   2 -12   12.67    2.60
  -1  -2 -12   17.25    2.84
   1   2  12   15.77    3.39
  -1  -2 -12   15.93    2.33
   1   2  12   18.25    2.75
   1  -2  12   19.77    4.18
   2   2  12   39.13    3.93
   2   2  12   32.20    4.38
   2  -2  12   36.51    5.31
   2  -2  12   39.02    4.04
  -2   2 -12   34.91    3.98
  -2  -2 -12   34.30    3.73
  -3  -2 -12    3.35    1.45
   3   2  12    3.65    2.06
   3  -2  12    5.19    2.69
   3   2  12    2.60    1.55
  -3   2 -12    1.59    1.42
   3  -2  12    1.06    1.49
   4   2  12   41.21    4.78
   4  -2  12   46.10    4.80
  -4  -2 -12   35.44    3.81
   4  -2  12   59.36    6.68
  -4   2 -12   36.58    4.09
   4   2  12   45.48    4.62
   5  -2  12    1.43    1.75
   5  -2  12    5.96    3.07
   5   2  12    2.07    1.79
  -5   2 -12    2.43    1.53
  -5  -2 -12    2.53    1.48
  -6  -2 -12   19.41    3.06
  -6   2 -12   17.54    3.11
   6  -2  12   33.74    5.44
   6   2  12   18.61    3.64
   6  -2  12   23.35    4.02
  -7   2 -12    9.76    2.40
  -7  -2 -12   14.89    2.67
   7  -2  12   17.29    3.67
   7   2  12   13.72    3.20
   8  -2  12    3.41    2.34
  -8  -2 -12    2.56    1.37
   8   2  12    0.37    1.87
  -8   2 -12    0.21    1.05
  -9   2 -12   -0.19    1.16
  -9  -2 -12    9.10    2.35
   9  -2  12    0.89    1.84
   9   2  12    1.91    1.97
  10  -2  12   11.75    3.58
  10   2  12   13.72    3.69
 -10  -2 -12   12.36    2.81
 -10   2 -12    6.20    2.13
  11   2  12    0.29    2.37
  11  -2  12    2.86    2.83
 -11   2 -12    0.96    1.96
 -11  -2 -12    2.26    1.50
  11  -3 -12    7.01    3.88
 -11   3  12    4.66    2.76
  11   3 -12    8.25    2.97
 -11  -3  12   10.02    3.45
  11  -3 -12    6.49    3.54
 -10  -3  12   10.37    3.37
  10   3 -12    6.53    3.01
  10  -3 -12    5.90    3.51
  10  -3 -12    5.62    3.08
 -10   3  12    5.20    2.57
 -10  -3  12    4.76    2.78
   9  -3 -12    2.01    2.64
  -9  -3  12    3.90    2.44
   9  -3 -12   -0.16    2.50
  -9   3  12    2.26    2.10
   9   3 -12    2.02    2.28
  -9  -3  12    1.55    2.04
  -8  -3  12   16.68    3.73
   8  -3 -12   16.36    3.81
   8   3 -12   15.35    3.56
  -8  -3  12   16.41    3.78
   8  -3 -12   12.48    3.53
  -8   3  12   13.70    3.57
  -7  -3  12   12.22    3.31
  -7  -3  12   10.07    2.89
   7  -3 -12    9.26    3.07
   7  -3 -12    7.01    2.67
  -7   3  12    5.15    2.51
   7   3 -12    5.55    2.40
   6   3 -12    6.63    2.62
   6  -3 -12    3.67    2.19
  -6   3  12   -0.06    1.24
  -6  -3  12    4.83    2.14
   6  -3 -12    2.98    2.35
  -6  -3  12    3.40    2.37
  -5   3  12   53.48    5.58
   5   3 -12   61.55    5.70
   5  -3 -12   73.90    5.62
  -5  -3  12   64.82    6.35
  -5  -3  12   64.71    5.12
   5  -3 -12   65.59    5.70
  -4  -3  12   -0.05    1.88
   4  -3 -12    1.23    1.48
  -4  -3  12    0.89    1.29
   4   3 -12   -0.34    1.40
   4  -3 -12   -0.37    1.41
  -4   3  12    0.42    1.46
   3  -3 -12   42.25    4.64
   3   3 -12   35.64    4.47
  -3   3  12   32.62    4.52
   3  -3 -12   48.73    4.08
   2  -3 -12   15.65    2.97
  -2   3  12   14.93    3.16
   2   3 -12   13.65    2.98
   2  -3 -12   17.75    2.76
  -2  -3  12   15.82    3.88
   1   3 -12    3.10    2.01
  -1   3  12    3.04    1.77
   1  -3 -12    2.41    1.35
   1  -3 -12    3.20    1.47
  -1  -3  12    4.65    2.40
   0  -3 -12   50.40    3.88
   0  -3  12   58.24    5.93
   0   3 -12   43.89    4.61
   0   3  12   50.67    3.76
   0  -3 -12   47.60    4.17
   0   3  12   44.89    4.69
   1   3  12    6.73    1.92
   1   3  12    5.25    2.02
  -1  -3 -12    7.30    1.93
   1  -3  12    6.72    2.86
   1  -3  12    7.68    2.23
  -1  -3 -12    6.15    1.68
  -1   3 -12    3.94    1.90
  -2  -3 -12   24.92    3.19
   2  -3  12   23.11    4.61
  -2   3 -12   19.17    3.16
  -2  -3 -12   22.60    2.80
   2   3  12   19.86    3.43
   2   3  12   20.71    3.07
   2  -3  12   25.99    3.52
   3  -3  12   54.63    6.58
   3   3  12   39.50    4.29
  -3  -3 -12   44.22    3.94
   3  -3  12   61.73    5.04
   3   3  12   43.89    4.39
   4  -3  12    2.16    1.95
  -4   3 -12    0.78    0.96
   4   3  12    4.77    2.00
  -4  -3 -12    3.39    1.51
   4  -3  12    3.84    2.61
   4   3  12    2.65    1.85
   5  -3  12   42.73    4.99
  -5  -3 -12   40.78    4.00
   5   3  12   44.87    4.92
   5  -3  12   64.10    7.24
   6   3  12   11.07    2.97
  -6  -3 -12   10.64    2.33
  -6   3 -12   10.26    2.50
   6  -3  12   12.47    3.18
   6  -3  12   16.02    4.25
  -7   3 -12    3.43    1.93
  -7  -3 -12    5.96    1.95
   7   3  12    4.97    2.40
   7  -3  12    3.56    2.50
   7  -3  12   11.36    3.95
  -8  -3 -12   12.00    2.58
   8  -3  12   12.33    3.33
   8   3  12   12.93    3.42
  -8   3 -12    9.33    2.62
   9  -3  12    1.28    1.86
  -9   3 -12    2.20    1.83
  -9  -3 -12    3.78    1.70
   9   3  12    1.40    1.87
 -10   3 -12    4.87    2.15
  10  -3  12   10.79    3.74
  10   3  12    6.36    2.96
 -10  -3 -12    5.11    2.07
  11   3  12    8.75    3.47
 -11   3 -12    6.09    2.50
  11  -3  12    9.89    3.58
 -11  -3 -12    8.79    2.40
 -11   4  12    2.52    2.39
  11   4 -12    3.17    2.39
 -11  -4  12    0.81    2.77
  11  -4 -12    0.70    2.31
 -10  -4  12    3.35    2.42
 -10   4  12    5.90    2.59
  10   4 -12    4.13    2.37
  10  -4 -12    0.75    2.87
  -9  -4  12   27.75    4.53
  -9   4  12   16.90    3.92
   9   4 -12   21.56    4.26
   9  -4 -12   17.73    4.47
  -9  -4  12   26.86    4.56
   8  -4 -12    0.60    2.14
   8  -4 -12   -0.02    2.13
  -8  -4  12    2.50    2.17
  -8  -4  12    1.22    2.21
   8   4 -12    1.06    1.74
  -8   4  12   -1.10    1.48
  -7  -4  12   32.94    4.54
   7  -4 -12   35.41    4.91
   7  -4 -12   32.95    4.74
  -7  -4  12   44.90    5.64
  -7   4  12   19.47    4.00
   7   4 -12   34.26    4.86
   6  -4 -12    8.30    2.64
   6   4 -12   12.88    3.19
   6  -4 -12   11.52    3.09
  -6   4  12   10.32    3.22
  -6  -4  12   12.84    2.99
  -6  -4  12   11.10    3.42
   5  -4 -12    6.94    2.73
   5   4 -12    3.94    2.35
   5  -4 -12    9.73    2.66
  -5  -4  12    6.97    3.01
  -5   4  12    9.02    2.68
  -5  -4  12    8.91    2.43
   4  -4 -12    2.46    1.80
  -4  -4  12    5.09    2.67
   4   4 -12    3.47    2.09
   4  -4 -12    4.80    1.99
  -4   4  12    3.44    1.89
  -3  -4  12    1.41    2.20
   3   4 -12    2.26    2.01
   3  -4 -12    1.34    1.56
  -3   4  12    1.93    1.66
   3  -4 -12   -0.28    1.38
   2   4 -12   -0.68    1.37
   2  -4 -12    0.70    1.35
   2  -4 -12    0.93    1.34
  -2   4  12    0.48    1.35
  -2  -4  12    1.52    1.84
  -1   4  12   68.75    5.92
   1  -4 -12   81.98    5.46
   1  -4 -12   74.61    5.46
  -1  -4  12   84.56    7.33
   0  -4 -12   -0.27    1.13
   0   4  12    0.44    1.22
   0  -4 -12    0.37    1.26
   0   4  12    0.76    1.40
   0  -4  12    0.22    1.73
   0   4 -12   -0.69    0.89
   0   4 -12    0.01    1.09
  -1  -4 -12   66.73    4.88
   1   4  12   64.97    5.43
   1  -4  12   91.10    7.63
   1   4  12   65.18    4.67
  -1   4 -12   44.99    4.68
  -1  -4 -12   59.58    4.62
  -1   4 -12   69.76    4.48
   2   4  12   11.62    2.72
   2  -4  12    9.98    3.55
  -2   4 -12   10.21    2.51
  -2   4 -12   13.15    2.35
  -2  -4 -12    9.89    2.25
   2   4  12   12.36    2.47
  -2  -4 -12   16.61    2.67
   3  -4  12    5.82    3.08
  -3  -4 -12    1.59    1.28
  -3  -4 -12    1.00    1.08
   3   4  12    2.34    1.57
  -3   4 -12    3.89    1.57
  -3   4 -12    3.03    1.60
   3   4  12    3.04    1.91
   4  -4  12    3.36    2.77
  -4   4 -12    2.50    1.72
   4   4  12   -0.02    1.54
  -4  -4 -12    2.08    1.30
  -5  -4 -12   12.41    2.43
   5  -4  12   16.83    3.53
   5  -4  12   19.24    4.94
   5   4  12   14.66    3.16
  -5   4 -12   10.00    2.47
  -6  -4 -12    0.24    1.28
   6  -4  12    0.10    1.66
   6   4  12    1.65    1.99
   6  -4  12    4.06    3.18
  -6   4 -12   -0.83    1.28
   7   4  12   29.02    4.44
  -7   4 -12   22.28    3.53
   7  -4  12   44.36    6.86
   7  -4  12   29.64    4.88
  -7  -4 -12   23.55    3.32
   8  -4  12    0.98    2.31
  -8  -4 -12    0.09    1.19
   8   4  12    1.49    2.20
  -8   4 -12    0.53    1.67
  -9   4 -12   23.29    3.63
  -9  -4 -12   29.02    3.71
   9  -4  12   13.04    3.73
 -10   4 -12    1.39    1.79
 -10  -4 -12    3.69    1.81
  10   4  12    1.84    2.50
  10  -4  12    5.76    2.83
  11   5 -12   13.66    3.55
 -11  -5  12   13.49    3.93
  11  -5 -12    5.16    3.92
 -11   5  12    7.51    2.98
  10   5 -12    1.34    2.12
 -10  -5  12    0.58    2.13
 -10   5  12    1.13    2.06
  10  -5 -12   -0.89    2.02
  -9  -5  12    3.75    2.53
  -9   5  12    2.75    2.44
   9   5 -12    3.49    2.23
   9  -5 -12    0.59    2.27
  -9  -5  12    1.25    2.11
   8  -5 -12   -0.60    2.14
  -8  -5  12    0.68    2.31
  -8   5  12    0.91    1.96
  -8  -5  12    1.31    1.99
   8   5 -12    0.40    1.94
  -7   5  12    4.57    2.31
  -7  -5  12   19.85    4.40
   7   5 -12   19.61    4.03
  -7  -5  12   19.73    3.80
   7  -5 -12   12.76    3.38
  -6  -5  12    1.46    2.20
  -6   5  12    1.64    1.80
   6   5 -12    0.67    1.99
  -6  -5  12    1.37    1.81
   6  -5 -12   -0.16    1.72
   5   5 -12   72.92    6.29
   5  -5 -12   74.17    6.17
   5  -5 -12   72.22    5.92
  -5  -5  12   93.28    7.68
  -5   5  12   66.72    6.22
   4   5 -12   -0.83    1.30
  -4   5  12    0.77    1.62
   4  -5 -12    0.70    1.62
  -4  -5  12    0.82    2.17
   4  -5 -12    0.72    1.51
   3  -5 -12   28.39    3.83
  -3   5  12   35.85    4.61
  -3  -5  12   38.75    5.57
   3  -5 -12   29.11    3.82
   2  -5 -12    0.45    1.23
  -2  -5  12    0.94    1.53
  -2   5  12    0.96    1.54
   2  -5 -12    0.34    1.37
   2   5 -12    0.46    1.74
   1  -5 -12    4.52    1.85
   1   5 -12    6.61    2.39
  -1   5  12    1.66    1.66
   1  -5 -12    4.59    1.70
  -1  -5  12    5.91    2.85
   0  -5 -12    1.37    1.47
   0   5 -12    0.48    0.95
   0   5  12    0.40    1.22
   0   5 -12    0.78    1.44
   0   5  12    0.23    1.26
   0  -5 -12    1.46    1.22
   0  -5  12   -1.00    1.75
  -1   5 -12   23.27    2.84
  -1   5 -12   22.22    3.53
  -1  -5 -12   20.25    2.91
   1   5  12   22.90    3.58
   1  -5  12   29.93    5.35
  -1  -5 -12   26.33    3.40
   1   5  12   19.82    2.90
  -2   5 -12    0.36    1.04
  -2   5 -12    1.50    1.56
  -2  -5 -12    3.02    1.34
  -2  -5 -12    1.13    1.48
   2  -5  12   -1.23    2.00
   2   5  12    1.41    1.46
   2   5  12    0.28    1.53
  -3   5 -12   76.00    5.89
   3   5  12   86.62    6.23
  -3  -5 -12   82.10    5.60
  -3  -5 -12   92.41    6.09
   3  -5  12  103.47    8.87
   3   5  12   84.50    6.04
  -3   5 -12   87.56    5.60
  -4   5 -12    5.49    1.84
   4  -5  12    8.75    3.86
   4   5  12    8.10    2.55
  -4   5 -12    3.51    1.92
  -4  -5 -12    5.98    1.86
   5  -5  12   54.38    7.39
  -5  -5 -12   33.37    3.70
  -5   5 -12   29.26    3.73
  -5   5 -12   32.15    3.76
   5   5  12   35.39    4.48
  -6  -5 -12    0.44    1.25
   6  -5  12    0.05    2.77
   6   5  12    0.63    2.04
  -6   5 -12   -0.49    1.46
  -7   5 -12    8.77    2.54
   7  -5  12   13.60    4.54
   7  -5  12   11.33    3.38
  -7  -5 -12    6.92    2.06
   7   5  12    6.15    2.90
  -8  -5 -12    0.33    1.23
   8  -5  12   -0.74    2.17
  -8   5 -12    0.61    1.65
   8  -5  12    0.92    3.56
   8   5  12   -1.80    1.94
   9   5  12   -0.05    1.84
  -9  -5 -12    3.32    1.92
   9  -5  12    3.70    2.52
  10  -5  12   -1.12    2.49
 -10   5 -12   -0.23    1.61
 -10  -5 -12    1.22    1.49
  10   5  12    2.76    2.52
 -10  -6  12    1.94    2.38
  10  -6 -12    0.66    2.60
  10   6 -12    1.76    2.41
 -10   6  12    1.58    2.00
  -9   6  12   10.58    3.25
  -9  -6  12   24.97    4.47
   9   6 -12   18.49    4.10
  -8  -6  12    1.39    2.11
   8   6 -12   -1.22    1.83
   8  -6 -12    0.14    2.01
  -8  -6  12    2.44    2.42
  -8   6  12   -0.89    1.26
  -7  -6  12   39.15    5.66
   7  -6 -12   29.72    4.88
  -7   6  12   19.40    4.03
  -7  -6  12   27.76    4.31
  -6  -6  12    3.12    2.49
   6   6 -12    0.98    1.80
  -6   6  12    0.40    1.71
   6  -6 -12    2.27    2.06
   5   6 -12   20.04    3.95
   5  -6 -12   12.80    3.22
  -5   6  12   10.41    2.97
  -5  -6  12   17.22    4.19
   4  -6 -12    0.08    1.67
  -4   6  12    1.45    1.61
  -4  -6  12   -2.00    1.91
   4   6 -12   -0.10    1.80
  -3  -6  12    8.89    3.16
   3  -6 -12    9.22    2.50
   3   6 -12    8.98    2.90
  -3   6  12    6.48    2.32
   2   6 -12    2.98    2.02
  -2  -6  12    2.70    2.40
  -2   6  12    4.79    2.20
   2  -6 -12    3.67    1.97
   2  -6 -12    4.22    1.77
  -1   6  12   43.69    4.59
   1   6 -12   45.42    4.92
   1  -6 -12   50.93    4.64
   1  -6 -12   51.10    4.13
  -1  -6  12   54.45    6.66
   0  -6 -12    0.75    1.12
   0   6 -12    1.05    1.62
   0   6  12    0.63    1.11
   0   6  12    1.15    1.46
   0  -6  12    0.39    2.21
   0  -6 -12    1.89    1.62
   0   6 -12   -0.53    0.95
  -1   6 -12   57.92    5.08
  -1  -6 -12   54.75    4.31
   1   6  12   57.16    5.06
  -1   6 -12   54.71    4.18
  -1  -6 -12   53.18    4.79
   1  -6  12   69.62    7.09
   1   6  12   55.07    4.35
   2   6  12    7.07    2.25
   2   6  12    6.23    2.05
  -2  -6 -12    5.80    2.14
  -2   6 -12    5.41    2.16
  -2  -6 -12    7.08    1.84
  -2   6 -12    6.71    1.95
   3   6  12    7.31    2.30
  -3   6 -12    5.02    1.76
  -3  -6 -12    9.95    2.12
  -3   6 -12    6.71    2.32
  -3  -6 -12    8.32    2.46
   3  -6  12    7.98    3.40
  -4  -6 -12    1.85    1.36
   4   6  12    2.20    1.93
  -4   6 -12    2.57    1.42
   4  -6  12   -1.17    2.45
  -4  -6 -12    1.85    2.03
  -4   6 -12    0.62    1.65
   5   6  12    6.84    2.50
   5  -6  12   10.00    3.94
  -5   6 -12    5.94    2.01
  -5  -6 -12    6.59    1.93
  -5   6 -12    5.73    2.22
   6   6  12    1.11    2.00
   6  -6  12    2.75    3.51
  -6   6 -12   -0.12    1.55
  -6  -6 -12    1.91    1.42
  -6   6 -12    1.96    1.55
  -7  -6 -12   22.31    3.30
  -7   6 -12   20.30    3.53
   7   6  12   29.52    4.68
   7  -6  12   45.09    7.29
  -7   6 -12   21.06    3.40
   8   6  12    1.12    2.21
  -8   6 -12    2.28    1.87
  -8  -6 -12    0.36    1.28
   8  -6  12    2.85    3.55
   8  -6  12   -0.36    2.44
  -9   6 -12   17.49    3.48
   9  -6  12   24.75    5.25
  -9  -6 -12   19.09    3.17
  10  -6  12    1.13    2.89
  10   6  12    1.44    2.54
 -10   6 -12    1.54    1.77
 -10  -6 -12    2.78    1.72
  10   7 -12    1.32    1.83
  10  -7 -12    3.02    3.07
 -10   7  12    1.83    2.39
 -10  -7  12    1.86    2.39
  -9   7  12    1.47    2.09
   9  -7 -12    0.66    2.59
   9   7 -12    0.74    2.07
  -9  -7  12    2.19    2.41
   8   7 -12    6.85    3.06
   8  -7 -12    3.46    2.40
  -8   7  12    3.65    2.52
  -8  -7  12    9.19    3.03
  -8  -7  12   10.29    3.40
   7  -7 -12    1.85    2.20
  -7   7  12    3.83    2.52
   7   7 -12    3.76    2.60
  -7  -7  12    3.95    2.67
   6   7 -12    2.14    2.10
  -6   7  12    4.81    2.34
  -6  -7  12    5.89    3.21
   6  -7 -12    4.41    2.32
  -5   7  12   21.00    4.00
  -5  -7  12   31.03    5.24
   5   7 -12   26.19    4.37
   5  -7 -12   20.38    3.84
   4   7 -12    0.68    1.89
  -4   7  12   -0.40    1.33
  -4  -7  12   -0.54    2.25
   4  -7 -12   -0.38    1.62
   3  -7 -12   22.75    3.83
  -3   7  12   30.29    4.38
  -3  -7  12   45.76    6.20
   3   7 -12   31.91    4.41
  -2   7  12   12.80    2.94
   2   7 -12   17.50    3.53
   2  -7 -12   13.55    3.01
  -2  -7  12   15.26    3.98
   1   7 -12    0.42    1.82
  -1   7  12    1.62    1.65
  -1  -7  12    1.98    1.84
   1  -7 -12    1.19    1.78
   0  -7 -12   34.74    4.31
   0  -7  12   47.70    6.50
   0   7 -12   32.06    3.31
   0   7  12   39.52    3.79
   0   7  12   33.47    4.27
   0   7 -12   36.91    4.36
  -1  -7 -12   11.87    2.91
  -1   7 -12   12.15    2.86
   1  -7  12   14.33    4.02
   1   7  12   13.73    2.59
  -1   7 -12    9.68    2.12
   1   7  12   11.55    2.70
   2   7  12   25.15    3.44
  -2  -7 -12   26.82    3.96
   2   7  12   21.15    3.36
  -2   7 -12   26.15    3.71
  -2   7 -12   20.20    2.97
   2  -7  12   33.34    5.85
  -2  -7 -12   23.72    2.92
   3   7  12   28.82    3.84
   3  -7  12   47.05    7.00
  -3   7 -12   23.73    3.25
  -3  -7 -12   28.47    4.12
  -3  -7 -12   33.38    3.43
  -3   7 -12   29.45    3.82
  -4  -7 -12    0.36    1.12
  -4   7 -12   -0.51    1.53
   4   7  12    0.33    1.74
  -4  -7 -12    0.01    1.81
  -4   7 -12    0.20    1.25
   4  -7  12    2.53    3.05
  -5   7 -12   30.75    3.88
  -5  -7 -12   31.94    3.59
  -5   7 -12   32.30    3.97
  -5  -7 -12   41.23    4.86
   5  -7  12   52.45    7.54
   5   7  12   33.17    4.51
  -6   7 -12    5.51    2.25
   6   7  12    3.44    2.38
   6  -7  12    5.45    3.70
  -6   7 -12    3.14    1.66
  -6  -7 -12    4.52    1.85
  -7  -7 -12    1.17    1.48
   7  -7  12    3.74    3.33
   7   7  12    2.58    2.36
  -7   7 -12    1.84    1.79
  -7   7 -12    1.22    1.63
  -8  -7 -12    8.54    2.31
   8   7  12    6.57    2.85
   8  -7  12   12.99    5.23
  -8   7 -12   10.65    2.84
  -8   7 -12    9.50    2.54
  -9   7 -12    1.40    2.05
   9   7  12    2.79    2.06
   9  -7  12   -0.72    2.86
  -9  -7 -12    3.85    1.81
  -9   8  12    1.27    1.88
   9   8 -12    3.40    2.72
  -9  -8  12    6.15    2.94
   9  -8 -12    4.02    3.11
  -8   8  12   -0.74    1.89
   8  -8 -12   -0.14    1.80
   8   8 -12    2.42    2.57
   7   8 -12    2.76    2.59
  -7   8  12    3.97    2.20
  -7  -8  12    4.82    3.08
   7  -8 -12    3.22    2.30
   6  -8 -12   11.97    3.31
  -6   8  12   10.26    3.03
   6   8 -12   13.87    3.50
  -6  -8  12   18.78    4.50
  -5  -8  12    2.42    2.76
  -5   8  12    1.87    1.72
   5  -8 -12    0.99    1.95
   5   8 -12    0.27    1.97
  -4   8  12   25.18    4.24
  -4  -8  12   36.18    5.67
   4  -8 -12   27.44    4.38
   4   8 -12   28.55    4.43
  -3   8  12    3.19    2.00
  -3  -8  12    6.00    3.08
   3  -8 -12    3.95    2.17
   3   8 -12    5.07    2.55
  -2  -8  12   11.46    3.75
   2   8 -12   13.51    3.22
  -2   8  12    8.21    2.69
   2  -8 -12    6.13    2.48
   1  -8 -12   17.89    3.48
   1   8 -12   22.23    3.78
  -1   8  12   12.21    3.03
  -1  -8  12   19.28    4.55
   0   8  12    0.86    1.43
   0  -8 -12   -0.04    1.68
   0   8 -12    1.55    1.21
   0  -8  12    1.71    2.46
   0   8  12   -0.16    1.45
   0   8 -12   -0.23    1.45
   1   8  12    8.77    2.37
   1  -8  12   12.31    3.79
  -1   8 -12    7.32    2.00
  -1  -8 -12    9.43    2.67
  -1   8 -12    9.51    2.60
   1   8  12    6.67    2.28
  -2   8 -12   12.95    2.55
   2  -8  12   12.33    4.07
   2   8  12   15.54    2.94
  -2   8 -12   13.85    2.97
  -2  -8 -12   14.35    3.29
  -3   8 -12    4.36    2.16
   3  -8  12    7.54    3.66
   3   8  12    5.63    2.15
  -3  -8 -12    4.27    2.27
  -3   8 -12    7.94    2.16
  -4   8 -12   22.83    3.33
   4  -8  12   28.70    5.99
  -4  -8 -12   28.47    4.40
  -4   8 -12   20.22    3.39
   4   8  12   23.28    3.95
  -5   8 -12    0.33    1.69
   5  -8  12   -3.07    2.57
  -5  -8 -12   -0.80    1.92
  -5   8 -12    0.12    1.25
   5   8  12    0.44    1.79
  -6  -8 -12   16.18    3.72
   6   8  12   12.08    3.24
  -6   8 -12   12.80    2.75
  -6   8 -12   14.78    3.04
   6  -8  12   22.83    5.31
  -7   8 -12   13.49    2.86
   7  -8  12   17.61    5.35
  -7   8 -12    9.20    2.65
  -7  -8 -12   10.09    2.35
   7   8  12    8.28    2.97
   8  -8  12    3.24    3.84
  -8   8 -12   -0.08    1.82
  -8   8 -12    0.33    1.49
  -8  -8 -12    1.35    1.52
   8   8  12    2.58    2.54
   9   8  12    0.07    1.97
  -9  -8 -12    6.18    2.01
  -9   8 -12    3.84    2.31
  -9   8 -12    4.83    1.98
   9  -8  12    9.01    4.28
  -8   9  12   11.54    3.50
   8   9 -12   12.13    3.64
   8  -9 -12   10.34    3.33
  -7  -9  12    1.70    2.86
   7  -9 -12   -0.37    1.88
   7   9 -12    2.46    2.38
  -7   9  12   -0.78    1.73
  -6   9  12    6.92    2.71
  -6  -9  12   12.35    3.76
   6   9 -12    7.22    3.11
   6  -9 -12    5.92    2.73
  -5   9  12    5.73    2.37
   5   9 -12    5.38    2.68
   5  -9 -12    3.16    2.26
  -5  -9  12    4.83    3.12
   4  -9 -12   -0.63    1.80
  -4  -9  12    0.03    2.32
   4   9 -12   -0.77    1.76
  -4   9  12    0.27    1.60
  -3  -9  12    0.58    2.49
   3   9 -12    0.90    1.97
   3  -9 -12    1.22    2.05
  -3   9  12    1.64    1.70
  -2  -9  12   42.84    6.24
  -2   9  12   21.46    3.89
   2  -9 -12   25.54    4.27
   2   9 -12   33.41    4.51
   1   9 -12    1.04    1.78
   1  -9 -12    0.64    1.79
  -1  -9  12    1.80    2.55
  -1   9  12    0.67    1.47
   0   9 -12   34.00    3.58
   0   9  12   32.61    4.17
   0   9  12   32.64    3.90
   0  -9 -12   33.92    4.69
   0   9 -12   35.46    4.41
   1  -9  12    1.19    2.49
   1   9  12   -0.26    1.35
  -1   9 -12    2.19    1.39
  -1   9 -12    1.17    1.92
   1   9  12    1.79    1.69
  -1  -9 -12    0.14    1.93
  -2  -9 -12    8.64    2.70
  -2   9 -12   14.60    2.56
   2   9  12   15.13    3.13
  -2   9 -12    8.76    2.62
   2  -9  12   16.06    4.53
   3   9  12    2.51    1.99
  -3   9 -12    1.96    1.43
   3  -9  12    4.32    2.95
  -3   9 -12    1.62    1.79
  -3  -9 -12    3.80    2.41
   4  -9  12    3.69    3.09
   4   9  12    1.13    1.94
  -4   9 -12   -0.38    1.71
  -4  -9 -12    1.38    2.06
  -4   9 -12   -0.67    1.36
  -5  -9 -12    1.13    2.44
  -5   9 -12    2.04    1.66
  -5   9 -12    1.72    1.88
   5  -9  12    7.30    3.86
   5   9  12   -0.08    1.84
  -6  -9 -12   26.49    4.78
   6  -9  12   23.84    6.09
  -6   9 -12   16.91    3.09
  -6   9 -12   17.21    3.25
   6   9  12   22.02    4.28
   7  -9  12   -1.50    3.38
   7   9  12   -0.58    2.15
  -7   9 -12   -0.04    1.64
  -7   9 -12    0.33    1.85
   8   9  12   10.36    3.30
  -8   9 -12   16.72    3.22
  -8   9 -12   14.93    3.31
   8  -9  12   29.21    6.55
   8  10 -12    0.39    2.34
  -8  10  12    1.35    1.80
   8 -10 -12    3.50    2.92
   7 -10 -12    0.06    2.13
   7  10 -12    0.85    2.37
  -7  10  12    1.82    2.06
  -6 -10  12   12.90    4.00
  -6  10  12   14.98    3.61
   6  10 -12   14.86    3.70
   6 -10 -12    1.89    1.92
  -5 -10  12   -1.71    2.08
   5 -10 -12    1.51    2.21
   5  10 -12   -0.54    2.32
  -5  10  12   -1.16    1.56
  -4 -10  12   41.92    6.24
  -4  10  12   28.65    4.55
   4  10 -12   39.45    5.03
   4 -10 -12   22.53    4.46
   3 -10 -12   -0.22    1.83
  -3  10  12   -0.03    1.79
   3  10 -12    1.91    2.36
  -3 -10  12   -0.38    2.24
  -2  10  12   13.98    3.34
  -2 -10  12   21.01    4.75
   2  10 -12   19.76    3.83
   2 -10 -12   10.06    3.13
   1  10 -12   -0.42    2.05
   1 -10 -12    1.83    2.08
  -1  10  12    0.71    1.47
  -1 -10  12    2.12    2.49
   0  10 -12    0.46    1.76
   0  10  12   -1.16    1.29
   0 -10 -12   -0.37    1.98
   0  10 -12    0.20    1.21
   0 -10  12    3.92    2.56
   1  10  12    2.10    2.02
  -1  10 -12    0.41    1.85
  -1  10 -12    0.43    1.30
   1 -10  12    1.30    2.66
  -1 -10 -12    0.91    2.02
  -2 -10 -12   11.16    3.26
  -2  10 -12   10.08    2.78
  -2  10 -12   12.41    2.46
   2 -10  12   16.05    4.65
   2  10  12   13.94    3.13
  -3 -10 -12    0.34    2.00
   3 -10  12    1.11    2.42
  -3  10 -12    0.52    1.71
  -3  10 -12   -0.95    1.12
   3  10  12    1.27    2.05
   4 -10  12   42.27    7.24
   4  10  12   28.85    4.49
  -4  10 -12   27.17    3.72
  -4 -10 -12   29.18    4.77
  -4  10 -12   28.45    3.95
  -5  10 -12    0.74    1.87
   5 -10  12    0.04    2.71
  -5 -10 -12    1.17    2.54
  -5  10 -12   -0.38    1.44
   5  10  12    2.39    2.23
  -6 -10 -12   16.46    4.04
   6  10  12   12.22    3.32
   6 -10  12   11.94    4.66
  -6  10 -12   11.85    2.83
  -7  10 -12    0.29    1.54
   7 -10  12   -1.77    2.97
  -7 -10 -12    1.57    2.76
   7  10  12    3.80    2.56
   7 -11 -12   -0.21    2.56
  -7  11  12    0.12    1.70
   7  11 -12    1.92    2.55
   6 -11 -12    6.16    2.96
  -6  11  12   11.31    3.24
   6  11 -12   14.46    3.77
  -6 -11  12    6.39    3.46
   5 -11 -12    0.64    1.66
   5  11 -12    5.54    2.99
  -5  11  12    1.98    2.11
  -5 -11  12    2.10    2.76
  -4  11  12    0.39    1.73
  -4 -11  12   -0.13    2.74
   4 -11 -12   -0.46    1.95
   4  11 -12   -1.12    2.21
  -3 -11  12    7.89    3.23
   3 -11 -12    2.39    2.44
   3  11 -12    4.33    2.75
  -3  11  12    4.22    2.08
   2  11 -12   18.28    3.69
  -2  11  12   15.51    3.47
  -2 -11  12   19.14    4.66
   2 -11 -12   16.31    4.00
   1 -11 -12   -0.76    1.97
   1  11 -12    0.55    1.88
  -1  11  12   -0.02    1.54
  -1 -11  12    0.84    2.63
   0 -11  12   29.07    5.72
   0  11 -12   21.33    3.12
   0  11 -12   31.81    4.30
   0  11  12   25.25    3.87
   0 -11 -12   20.56    4.40
  -1  11 -12   -0.75    1.99
  -1  11 -12    1.36    1.44
   1  11  12    1.36    2.11
  -1 -11 -12    0.42    2.10
   1 -11  12    0.38    2.63
   2  11  12   13.18    3.39
  -2  11 -12    9.40    2.28
  -2 -11 -12   12.41    3.51
   2 -11  12   11.47    4.20
   3  11  12    1.06    2.31
  -3 -11 -12    1.00    2.27
  -3  11 -12    1.04    1.43
   3 -11  12    2.23    2.78
   4  11  12   -0.66    2.02
   4 -11  12    2.82    3.15
  -4  11 -12    0.71    1.50
  -4 -11 -12    0.09    2.39
  -5  11 -12    5.29    2.00
   5 -11  12    4.34    3.98
   5  11  12    6.21    2.79
  -5 -11 -12    2.57    2.98
  -6 -11 -12   12.12    3.78
   6 -11  12    5.76    3.93
   6  11  12    7.11    3.18
  -6  11 -12    6.30    2.19
  -5 -12  12    1.32    2.84
   5  12 -12    2.04    2.77
   5 -12 -12    1.32    2.60
  -5  12  12    3.57    2.38
   4  12 -12   11.34    3.38
  -4  12  12    6.05    2.65
   4 -12 -12    3.16    2.22
  -4 -12  12    8.07    3.73
  -3 -12  12    1.32    2.74
   3  12 -12    1.91    2.50
   3 -12 -12    1.72    2.38
  -3  12  12    1.39    1.90
  -2 -12  12    6.48    3.36
   2 -12 -12    3.84    2.75
  -2  12  12    4.29    2.39
   1 -12 -12    1.67    2.44
  -1  12  12    6.86    2.43
  -1 -12  12    5.01    3.04
   0 -12  12   -0.21    2.67
   0  12 -12    0.23    1.50
   0 -12 -12   -0.39    2.15
  -1 -12 -12    8.14    3.18
  -1  12 -12    6.95    2.17
   1 -12  12    2.45    2.65
   1  12  12    6.47    2.75
  -2  12 -12    6.71    2.16
   2 -12  12    8.55    4.07
  -2 -12 -12    6.38    3.11
   2  12  12    7.90    3.07
  -3 -12 -12    2.14    2.56
   3  12  12    1.00    2.47
  -3  12 -12    2.31    1.70
   3 -12  12    3.05    3.04
  -4 -12 -12   18.96    4.53
   4 -12  12   15.67    4.83
   4  12  12   11.60    3.46
  -4  12 -12   10.26    2.63
   5  12  12    2.73    2.72
  -5 -12 -12    0.78    2.79
  -5  12 -12    0.14    1.45
   5 -12  12   -0.95    2.63
   3 -13 -12   -0.18    1.87
  -3 -13  12   10.38    3.89
  -3  13  12    6.00    2.59
  -2  13  12    2.61    2.19
   2 -13 -12    3.48    3.02
  -2 -13  12    3.12    2.92
   1 -13 -12    5.06    2.93
  -1 -13  12    6.65    3.40
   0  13 -12   12.53    2.72
   0 -13 -12   10.00    3.73
   0 -13  12   11.31    4.10
   1  13  12    1.47    2.59
  -1  13 -12    0.51    1.38
   1 -13  12   -0.94    2.87
  -1 -13 -12    2.12    2.70
  -2 -13 -12    2.76    2.73
   2 -13  12    5.15    3.67
  -2  13 -12    1.61    1.66
   2  13  12    7.06    2.94
 -11   0  13    0.60    2.25
 -11   0  13    6.41    3.20
  11   0 -13    3.15    2.86
  10   0 -13   -0.61    2.50
 -10   0  13   -0.28    2.16
 -10   0  13   -1.51    2.02
  -9   0  13    1.45    2.37
   9   0 -13    4.52    2.46
  -9   0  13    4.44    2.83
   8   0 -13    0.79    1.73
  -8   0  13   -1.79    1.68
  -8   0  13    1.61    2.12
  -7   0  13   23.29    4.45
   7   0 -13   25.21    4.44
  -7   0  13   23.65    4.10
  -6   0  13    1.44    2.06
   6   0 -13    1.09    1.95
   5   0 -13   32.23    4.68
   5   0 -13   34.11    4.05
   4   0 -13    0.79    1.60
  -4   0  13    0.67    1.81
   4   0 -13    0.94    1.35
  -3   0  13    8.32    2.92
   3   0 -13    7.20    2.52
   3   0 -13    8.09    2.10
  -2   0  13    1.99    2.21
   2   0 -13    0.56    1.05
   2   0 -13    0.61    1.43
  -1   0  13    3.71    2.37
   1   0 -13    3.15    1.82
   0   0 -13    0.20    1.36
   0   0  13    2.06    1.96
   1   0  13   46.52    5.84
  -1   0 -13   33.85    4.15
   1   0  13   42.54    4.15
  -2   0 -13    0.03    1.13
   2   0  13    1.71    2.05
   2   0  13    1.12    1.58
  -3   0 -13   81.89    6.18
   3   0  13   99.35    8.21
   3   0  13  101.34    6.80
   4   0  13    0.57    2.08
  -4   0 -13    1.40    1.42
   4   0  13    0.11    2.39
   5   0  13   19.33    4.14
  -5   0 -13   14.07    2.84
   5   0  13   11.43    3.13
   6   0  13    0.22    1.90
  -6   0 -13    1.85    1.37
  -7   0 -13    4.28    1.79
   7   0  13    5.80    2.71
  -8   0 -13   -0.58    1.22
   8   0  13   -0.20    1.99
  -9   0 -13    8.56    2.33
   9   0  13   12.25    3.52
 -10   0 -13   -0.23    1.20
  10   0  13    3.59    2.50
 -11   1  13   12.47    3.86
 -11   1  13    9.47    3.37
 -11  -1  13   16.21    4.15
  11  -1 -13   16.76    4.41
  11   1 -13   11.72    3.64
 -11  -1  13   15.44    4.13
 -10  -1  13   -1.15    2.29
 -10   1  13    1.02    2.24
  10  -1 -13    0.91    2.14
 -10   1  13    0.47    2.17
 -10  -1  13    0.47    2.45
  10   1 -13    1.47    2.18
   9   1 -13   22.27    4.41
  -9  -1  13   20.94    4.20
  -9   1  13   19.82    4.51
  -9  -1  13   23.07    4.61
  -9   1  13   18.65    4.03
   9  -1 -13   22.86    4.70
   8  -1 -13   -1.15    1.93
  -8   1  13   -1.03    1.63
  -8   1  13   -0.37    1.83
  -8  -1  13   -1.39    1.94
   8   1 -13    2.54    2.13
  -8  -1  13    0.02    1.84
   7  -1 -13    7.60    2.73
   7   1 -13    9.52    2.99
  -7  -1  13    9.28    3.06
   7  -1 -13    9.75    3.00
  -7  -1  13    6.64    2.47
  -7   1  13    6.50    2.82
   6  -1 -13    9.35    2.99
   6  -1 -13   10.45    2.98
  -6  -1  13    9.47    3.17
  -6   1  13   12.57    3.32
  -6  -1  13   10.00    2.75
   6   1 -13    8.09    2.80
  -5  -1  13   13.78    3.63
   5  -1 -13   11.08    2.79
   5  -1 -13    9.82    2.90
  -5   1  13    7.72    2.75
  -5  -1  13   10.04    2.67
   5   1 -13    7.13    2.68
   4   1 -13    7.83    2.25
   4  -1 -13    8.48    2.61
  -4  -1  13    3.26    2.26
  -4   1  13    5.58    2.53
   4  -1 -13    6.29    2.06
   4   1 -13    6.68    2.61
   3  -1 -13   68.69    4.93
   3  -1 -13   70.47    5.97
  -3  -1  13   70.64    6.72
   3   1 -13   66.36    5.90
   3   1 -13   68.44    4.72
  -3   1  13   59.81    6.11
   2  -1 -13    0.15    1.18
   2   1 -13   -0.30    1.49
  -2  -1  13    0.67    1.86
  -2   1  13   -0.56    1.65
   2  -1 -13    0.61    1.50
  -1  -1  13   63.25    6.48
  -1   1  13   55.31    5.81
   1   1 -13   59.92    5.29
   1  -1 -13   59.72    5.19
   0   1  13    0.93    1.70
   0  -1 -13    1.04    1.27
   0  -1  13    0.80    1.82
   0   1 -13   -0.39    1.19
  -1   1 -13   12.30    2.83
  -1  -1 -13   16.02    2.98
   1   1  13   21.65    4.11
   1  -1  13   17.78    2.99
   1  -1  13   21.42    4.48
   1   1  13   15.07    2.76
   2   1  13   15.75    3.59
  -2   1 -13    9.25    2.55
   2  -1  13   11.34    2.71
   2  -1  13   10.33    3.30
   2   1  13   14.07    2.79
  -2  -1 -13   11.21    2.65
  -3   1 -13    3.51    1.88
   3  -1  13    4.88    2.61
  -3  -1 -13    5.03    1.94
   3   1  13    4.31    2.44
   3   1  13    2.89    1.87
   3  -1  13    4.83    2.20
   4   1  13   15.45    3.66
   4  -1  13   15.83    3.53
   4   1  13   15.55    3.49
  -4  -1 -13   12.22    2.54
   4  -1  13   16.61    4.19
  -4   1 -13    9.72    2.39
   5  -1  13   49.80    5.41
   5   1  13   44.74    5.16
  -5   1 -13   41.60    4.46
  -5  -1 -13   39.54    4.38
   5  -1  13   64.09    6.88
   5   1  13   50.42    5.90
   6  -1  13    3.21    2.31
   6   1  13    2.23    2.11
   6  -1  13    2.18    2.47
  -6   1 -13    2.77    1.57
  -6  -1 -13    3.27    1.64
  -7  -1 -13   37.64    4.16
  -7   1 -13   31.14    4.07
   7  -1  13   39.73    5.33
   7   1  13   31.62    4.80
   8  -1  13   -0.36    1.96
  -8  -1 -13    1.11    1.40
   8   1  13    1.63    2.13
  -8   1 -13    0.96    1.60
   9   1  13   12.48    3.72
  -9  -1 -13    7.35    2.23
   9  -1  13    6.84    3.14
  -9   1 -13    5.72    2.32
 -10  -1 -13    1.06    1.51
 -10   1 -13    1.65    1.70
  10   1  13    2.20    2.13
  10  -1  13    1.21    2.30
 -11   2  13    0.90    2.56
  11  -2 -13    4.57    2.97
 -11  -2  13    2.80    2.73
  11   2 -13    1.38    2.13
 -10  -2  13    6.23    3.15
  10  -2 -13   10.05    3.70
  10   2 -13    3.88    2.64
  10  -2 -13    4.93    3.05
 -10   2  13    4.96    3.15
 -10  -2  13    6.63    3.13
   9   2 -13    2.97    2.46
   9  -2 -13    3.12    2.71
  -9  -2  13    5.13    2.69
  -9  -2  13    3.32    2.51
  -9   2  13    5.82    2.83
   9  -2 -13    6.80    3.15
  -8  -2  13    8.36    3.05
   8   2 -13    6.13    2.71
  -8  -2  13    4.78    2.44
  -8   2  13    1.88    2.19
   8  -2 -13    6.05    2.96
   8  -2 -13    6.04    2.79
  -7  -2  13   28.26    4.86
  -7   2  13   21.65    4.47
   7   2 -13   25.95    4.55
   7  -2 -13   18.63    4.03
   7  -2 -13   26.62    4.35
  -7  -2  13   29.20    4.52
  -6   2  13   -0.82    1.24
   6  -2 -13    1.63    2.03
  -6  -2  13    4.47    2.56
  -6  -2  13    2.65    1.88
   6   2 -13    4.52    2.43
   6  -2 -13    3.41    2.33
  -5   2  13   13.61    3.53
  -5  -2  13   17.66    4.12
   5  -2 -13   14.53    3.07
  -5  -2  13   13.77    2.96
   5   2 -13   14.12    3.30
   5  -2 -13   12.91    3.30
   4  -2 -13   13.47    3.07
   4   2 -13   11.45    3.09
  -4  -2  13    2.80    2.23
  -4   2  13   10.90    3.09
   4  -2 -13    8.91    2.38
  -3   2  13    1.29    1.77
   3   2 -13    2.87    1.92
   3  -2 -13    2.90    1.86
   3  -2 -13    2.48    1.56
  -3  -2  13    7.45    3.06
   2  -2 -13   24.70    3.83
  -2   2  13   21.41    4.10
   2   2 -13   21.86    3.82
  -2  -2  13   23.82    4.71
   2  -2 -13   17.92    2.88
   1   2 -13    3.33    1.83
   1  -2 -13    2.20    1.39
  -1  -2  13    4.52    2.60
   1  -2 -13    3.02    1.59
  -1   2  13    2.90    2.06
   0   2 -13   12.29    2.74
   0   2  13   13.24    3.22
   0  -2  13   13.98    3.75
   0  -2 -13   14.29    2.83
   1  -2  13   52.09    6.43
  -1   2 -13   38.13    4.38
  -1  -2 -13   44.65    4.49
   1   2  13   37.41    3.91
   1  -2  13   48.20    4.48
   1   2  13   38.79    5.15
  -2  -2 -13    2.95    1.50
   2  -2  13    3.52    2.62
  -2   2 -13    2.71    1.63
   2   2  13    2.46    1.92
   2  -2  13    3.14    1.99
   2   2  13    3.23    1.83
   3   2  13   29.35    3.88
  -3   2 -13   24.34    3.64
  -3  -2 -13   30.25    3.73
   3  -2  13   35.06    4.37
   3   2  13   24.21    4.24
   3  -2  13   40.19    5.82
   4   2  13   22.67    3.79
   4  -2  13   25.89    5.20
  -4   2 -13   18.90    3.28
   4   2  13   22.25    4.01
   4  -2  13   24.22    3.95
  -4  -2 -13   22.48    3.26
   5  -2  13   14.13    4.12
  -5   2 -13   11.64    2.67
   5   2  13    8.53    2.72
  -5  -2 -13   12.04    2.60
   5  -2  13   11.35    3.07
   6  -2  13   40.81    6.28
   6   2  13   19.73    3.91
   6  -2  13   28.11    4.68
  -6  -2 -13   24.24    3.43
  -6   2 -13   19.61    3.42
   7  -2  13    2.33    2.31
  -7   2 -13   -0.28    1.49
  -7  -2 -13   -0.30    1.18
   7   2  13   -1.00    2.13
   8   2  13    7.96    3.02
  -8   2 -13    4.90    2.14
   8  -2  13    6.93    2.98
  -8  -2 -13    5.19    2.01
   9   2  13   14.69    3.69
  -9   2 -13    4.40    1.94
   9  -2  13   15.76    3.93
  -9  -2 -13   10.73    2.59
  10   2  13    0.04    1.87
  10  -2  13    0.36    2.39
 -10  -2 -13   -0.53    1.32
 -10   2 -13    0.89    1.40
  10  -3 -13    0.25    2.58
 -10   3  13    0.64    2.25
 -10  -3  13    2.91    2.60
  10   3 -13    0.23    2.06
 -10  -3  13    1.87    2.70
  10  -3 -13    0.76    3.06
   9  -3 -13    4.84    3.03
   9  -3 -13    5.86    3.29
  -9  -3  13    4.87    2.71
   9   3 -13    7.96    2.97
  -9   3  13    5.38    2.86
  -9  -3  13    8.78    3.18
  -8  -3  13    8.57    2.97
  -8  -3  13    8.69    3.28
   8  -3 -13    8.66    3.20
   8   3 -13   10.04    3.08
  -8   3  13   12.60    3.59
   8  -3 -13    7.29    3.20
  -7  -3  13    2.29    2.04
   7  -3 -13   -0.07    2.23
  -7  -3  13    0.07    1.92
   7  -3 -13    1.98    2.21
  -7   3  13    1.49    2.15
   7   3 -13    0.98    2.03
   6   3 -13   43.43    5.35
  -6  -3  13   44.64    4.80
  -6   3  13   34.34    5.17
  -6  -3  13   48.64    6.13
   6  -3 -13   35.36    4.74
   6  -3 -13   38.45    5.28
  -5   3  13    0.38    1.88
   5  -3 -13    3.56    2.00
   5  -3 -13    1.78    2.01
  -5  -3  13    0.48    2.02
   5   3 -13    0.64    1.73
   4  -3 -13   26.61    3.73
   4  -3 -13   27.41    4.26
  -4   3  13   24.69    4.44
  -4  -3  13   40.68    5.77
   4   3 -13   28.67    4.39
   3   3 -13   10.05    2.74
   3  -3 -13   12.46    3.12
  -3  -3  13    5.98    2.79
  -3   3  13   10.48    3.09
   3  -3 -13   14.15    2.84
  -2  -3  13   -0.01    1.99
   2  -3 -13   -0.35    1.20
   2   3 -13    0.32    1.53
   2  -3 -13   -0.30    1.19
  -2   3  13    0.89    1.60
  -1   3  13   34.14    4.73
  -1  -3  13   50.90    6.50
   1  -3 -13   41.79    4.45
   1  -3 -13   43.98    3.93
   1   3 -13   35.55    4.52
   0   3 -13    8.41    2.58
   0  -3 -13   12.95    2.49
   0  -3 -13   12.13    2.64
   0   3  13   14.24    3.10
   0  -3  13   16.40    4.16
  -1   3 -13    1.51    1.59
   1   3  13    4.06    1.75
  -1  -3 -13    2.15    1.52
   1   3  13    1.47    1.59
   1  -3  13    4.32    2.71
   1  -3  13    3.59    1.72
  -2  -3 -13   44.56    4.12
  -2   3 -13   42.23    4.70
   2   3  13   36.33    4.77
   2  -3  13   59.76    5.04
   2   3  13   39.60    4.25
   2  -3  13   45.45    6.44
  -3  -3 -13    3.56    1.69
   3   3  13    2.74    1.99
   3   3  13    6.06    2.29
  -3   3 -13    5.08    2.03
   3  -3  13    7.29    3.11
   3  -3  13    6.38    2.25
   4  -3  13   38.51    4.85
   4   3  13   32.40    4.44
   4  -3  13   48.83    6.77
  -4  -3 -13   29.29    3.71
   4   3  13   30.94    4.36
   5  -3  13   12.74    3.28
   5  -3  13   14.30    4.19
  -5  -3 -13    6.85    2.09
   5   3  13   11.67    3.12
   6  -3  13    2.67    3.08
  -6  -3 -13    1.13    1.41
   6   3  13    0.42    1.99
   6  -3  13   -0.23    1.82
  -6   3 -13    0.46    1.17
  -7  -3 -13   16.87    2.97
   7  -3  13   21.57    4.35
   7   3  13   20.95    4.16
  -7   3 -13   16.37    3.15
   8  -3  13    8.79    3.37
   8   3  13    7.46    3.07
  -8   3 -13    4.96    2.20
  -8  -3 -13    9.24    2.42
  -9  -3 -13    1.63    1.56
   9  -3  13    2.45    2.78
  -9   3 -13    6.32    2.41
  10   3  13    4.02    2.60
 -10   3 -13   10.18    2.91
 -10  -3 -13   12.24    2.76
  10  -3  13   14.88    3.77
  10   4 -13   20.33    4.35
 -10   4  13   12.45    3.79
  10  -4 -13   16.51    4.74
 -10  -4  13   15.24    4.09
  -9  -4  13    1.43    2.35
  -9   4  13   -1.30    1.81
   9  -4 -13    1.07    2.55
   9   4 -13   -0.17    1.93
  -9  -4  13    1.01    2.20
   8  -4 -13   11.60    3.48
  -8  -4  13   16.83    3.74
   8   4 -13    9.43    3.00
   8  -4 -13    8.72    3.26
  -8  -4  13   13.39    3.66
  -8   4  13   11.01    3.48
   7  -4 -13    2.63    2.24
  -7  -4  13    3.81    2.70
  -7   4  13    1.80    1.66
  -7  -4  13    4.15    2.41
   7   4 -13    5.71    2.38
   7  -4 -13    1.38    2.30
  -6   4  13   -0.56    1.73
   6   4 -13   -0.24    1.78
   6  -4 -13    2.55    2.07
  -6  -4  13    0.37    2.09
   6  -4 -13    0.52    1.81
   5  -4 -13    4.35    2.36
   5  -4 -13    7.36    2.65
   5   4 -13    4.15    2.07
  -5   4  13    4.89    2.39
  -5  -4  13    7.44    3.11
   4  -4 -13    9.08    2.68
  -4  -4  13   11.81    3.93
   4   4 -13   10.73    3.07
  -4   4  13    7.50    2.71
   4  -4 -13   14.46    3.28
   3   4 -13    1.83    1.90
   3  -4 -13    3.61    2.05
  -3  -4  13    2.21    2.15
  -3   4  13    4.78    2.17
   3  -4 -13    4.57    2.07
   2  -4 -13   49.79    4.77
   2   4 -13   55.21    5.72
  -2  -4  13   63.72    7.20
  -2   4  13   44.05    5.46
   2  -4 -13   58.57    4.81
  -1  -4  13    3.55    2.54
   1   4 -13   -0.51    1.59
  -1   4  13    2.69    1.97
   1  -4 -13    3.37    1.80
   1  -4 -13    5.34    2.01
   0   4  13   49.67    5.23
   0  -4  13   68.21    6.90
   0  -4 -13   52.99    4.67
   0  -4 -13   55.22    4.55
  -1  -4 -13   10.11    2.44
  -1   4 -13    8.82    2.02
   1  -4  13   14.34    4.10
   1   4  13    9.69    2.27
   1   4  13   11.09    2.92
  -1  -4 -13   11.10    2.52
   2   4  13    1.99    1.77
  -2   4 -13    0.73    1.52
  -2  -4 -13    2.25    1.49
   2  -4  13   -0.50    2.23
   2   4  13    0.55    1.45
   3   4  13    1.15    1.78
   3  -4  13    0.54    2.55
   3  -4  13    0.02    1.64
   3   4  13    1.73    1.76
  -3  -4 -13    1.04    1.18
  -3   4 -13   -0.06    1.58
  -4  -4 -13   19.46    3.12
   4  -4  13   30.42    4.57
  -4   4 -13   25.49    3.70
   4   4  13   19.65    3.63
   4  -4  13   37.85    6.33
  -5   4 -13   -0.22    1.54
   5  -4  13   -1.63    1.62
  -5  -4 -13   -0.18    1.31
   5  -4  13   -0.17    2.54
   5   4  13    1.48    2.01
  -6  -4 -13   37.29    4.25
   6   4  13   42.64    5.34
  -6   4 -13   36.54    4.48
   6  -4  13   48.66    5.97
   6  -4  13   67.48    8.25
  -7   4 -13   -0.46    1.63
  -7  -4 -13    1.11    1.72
   7  -4  13    1.41    2.57
   7   4  13   -1.85    2.00
   7  -4  13    0.00    3.12
   8  -4  13   34.04    5.62
   8   4  13   19.41    4.20
  -8   4 -13   18.54    3.48
  -8  -4 -13   17.99    3.13
   9   4  13    4.97    2.63
  -9   4 -13    2.42    1.87
   9  -4  13    4.13    3.03
  -9  -4 -13    2.30    1.52
 -10  -4 -13    1.68    1.58
  10   4  13    0.30    2.04
 -10   4 -13    1.92    1.86
  10  -4  13   -2.78    2.47
  10  -5 -13   -0.33    2.78
 -10   5  13    1.29    2.27
 -10  -5  13    2.00    2.56
  10   5 -13    1.17    2.18
  -9   5  13   -1.36    2.01
  -9  -5  13    2.17    2.34
   9   5 -13    1.58    2.02
  -9  -5  13   -1.07    2.23
   9  -5 -13    1.78    2.77
  -8  -5  13   16.44    4.09
  -8   5  13   16.18    4.05
   8  -5 -13   13.61    3.79
  -8  -5  13   16.73    3.78
   8   5 -13   14.11    3.67
  -7  -5  13   -2.83    1.81
   7  -5 -13   -0.16    1.94
  -7   5  13    1.27    2.02
   7   5 -13    1.85    2.37
  -6   5  13   28.87    4.89
   6   5 -13   29.49    4.79
  -6  -5  13   38.54    5.69
   6  -5 -13   31.84    4.74
   5   5 -13    0.82    2.05
  -5   5  13    0.21    1.72
  -5  -5  13    2.00    2.69
   5  -5 -13    1.56    1.86
  -4   5  13   28.75    4.82
   4  -5 -13   37.98    4.72
   4   5 -13   44.29    5.28
  -4  -5  13   54.92    6.69
   4  -5 -13   33.99    4.49
  -3   5  13   -0.03    1.63
   3  -5 -13   -0.31    1.58
   3  -5 -13    1.70    1.72
  -3  -5  13    2.15    2.52
   3   5 -13   -0.04    1.31
   2   5 -13    1.00    1.52
   2  -5 -13    1.47    1.59
  -2   5  13    3.16    1.94
  -2  -5  13    2.04    2.34
   2  -5 -13    2.00    1.63
   1  -5 -13    1.82    1.53
  -1   5  13    0.25    1.68
   1  -5 -13    1.70    1.67
  -1  -5  13    1.59    2.50
   1   5 -13    0.32    1.79
   0  -5 -13   47.19    4.26
   0  -5  13   45.28    6.63
   0  -5 -13   48.79    4.67
   0   5  13   46.49    5.22
   0   5 -13   40.47    4.71
   1   5  13    1.32    1.43
   1   5  13   -0.20    1.53
  -1  -5 -13    0.18    1.23
   1  -5  13    1.04    2.33
  -1   5 -13    0.30    1.15
  -1   5 -13   -0.39    1.56
  -1  -5 -13    1.80    1.64
  -2   5 -13   49.48    4.12
   2  -5  13   66.75    7.79
   2   5  13   45.96    4.80
  -2   5 -13   48.90    5.06
   2   5  13   51.06    4.62
  -2  -5 -13   49.56    4.53
  -2  -5 -13   46.54    4.12
  -3  -5 -13    0.68    1.15
  -3   5 -13    0.29    1.54
   3   5  13    0.73    1.55
   3  -5  13    1.78    2.60
   3   5  13   -0.14    1.53
  -3   5 -13    0.15    1.27
  -4   5 -13   15.62    2.90
   4  -5  13   16.34    4.65
   4   5  13   15.65    3.23
  -4   5 -13   14.69    3.05
  -4  -5 -13   16.16    2.78
  -5   5 -13    2.92    2.01
   5  -5  13    3.46    3.29
   5   5  13    0.89    2.22
  -5  -5 -13    2.82    1.60
   6  -5  13    3.82    2.49
   6   5  13    3.36    2.37
  -6  -5 -13    2.11    1.49
   6  -5  13    2.01    3.05
  -6   5 -13    0.31    1.70
   7   5  13    2.26    2.28
  -7   5 -13    3.22    2.07
  -7  -5 -13    0.74    1.29
   7  -5  13   -2.11    1.87
   7  -5  13    3.31    3.72
   8  -5  13   21.74    4.79
   8   5  13   17.69    4.08
  -8  -5 -13   11.46    2.66
  -8   5 -13   11.92    2.98
  -9  -5 -13   -0.51    1.48
   9  -5  13    0.63    3.04
   9   5  13   -1.34    2.49
  -9   5 -13    0.15    1.57
   9   6 -13    0.39    2.42
   9  -6 -13    2.21    2.61
  -9   6  13    3.23    2.56
  -9  -6  13    3.94    2.66
   8  -6 -13    7.19    3.21
  -8   6  13    1.49    1.88
   8   6 -13    6.26    2.88
  -8  -6  13    8.83    3.41
   7  -6 -13    3.97    2.64
   7   6 -13    4.57    2.69
  -7   6  13    5.01    2.70
  -7  -6  13    9.33    3.64
   6   6 -13    0.08    1.60
  -6  -6  13    0.66    2.23
   6  -6 -13    0.29    1.84
  -6   6  13    0.43    1.57
   5  -6 -13    0.60    1.75
  -5  -6  13    1.46    2.53
  -5   6  13   -0.59    1.67
   5   6 -13    0.41    1.70
  -4  -6  13   22.80    4.86
   4  -6 -13   17.71    3.46
   4   6 -13   20.48    4.07
  -4   6  13   16.66    3.58
   3   6 -13   -0.49    1.73
   3  -6 -13    0.36    1.73
  -3  -6  13    1.31    2.38
  -3   6  13   -0.44    1.48
  -2   6  13   50.23    5.24
   2  -6 -13   54.46    5.35
   2   6 -13   52.83    5.58
  -1  -6  13    2.28    2.63
   1  -6 -13   -0.61    1.64
   1   6 -13    2.93    2.28
  -1   6  13    2.77    1.94
   1  -6 -13    2.20    1.67
   0  -6 -13   29.74    3.97
   0  -6 -13   26.06    3.36
   0  -6  13   30.41    5.67
   0   6  13   25.14    4.07
   0   6 -13   26.18    4.07
  -1   6 -13   10.41    2.94
   1   6  13   12.75    2.55
   1   6  13   15.69    3.21
  -1  -6 -13   17.06    3.27
  -1   6 -13   15.01    2.59
   1  -6  13   22.18    5.05
  -1  -6 -13   15.02    2.65
   2  -6  13    1.05    2.49
  -2  -6 -13    1.36    1.22
   2   6  13    0.29    1.71
  -2  -6 -13   -0.88    1.65
  -2   6 -13    1.18    1.33
  -2   6 -13    0.57    1.66
   2   6  13    1.99    1.70
  -3  -6 -13    3.50    2.16
  -3  -6 -13    1.06    1.37
   3   6  13    3.79    2.00
  -3   6 -13    2.31    1.83
   3  -6  13    1.21    2.70
  -3   6 -13    2.65    1.56
   4   6  13   11.37    3.02
  -4   6 -13   13.15    2.60
   4  -6  13   12.43    4.46
  -4  -6 -13   10.21    2.31
  -4   6 -13    7.12    2.52
  -5   6 -13    0.97    1.42
  -5   6 -13    0.37    1.59
   5  -6  13    1.18    3.28
  -5  -6 -13    0.11    1.30
   5   6  13   -1.43    1.77
  -6  -6 -13   26.20    3.58
   6  -6  13   51.19    7.95
   6   6  13   26.66    4.62
  -6   6 -13   24.64    3.72
  -6   6 -13   24.22    3.76
   7   6  13   -1.04    1.98
  -7  -6 -13    1.88    1.50
   7  -6  13    0.69    3.26
   7  -6  13   -0.59    2.60
  -7   6 -13    1.48    2.00
   8  -6  13   18.69    4.83
  -8   6 -13   15.63    3.35
   8   6  13   10.65    3.59
  -8  -6 -13   16.17    3.09
   8  -6  13   24.74    6.24
  -9   6 -13    1.45    1.87
   9   6  13    2.02    2.76
  -9  -6 -13    1.42    1.62
   9  -6  13    2.48    3.22
   9   7 -13    2.86    2.10
   9  -7 -13    1.40    2.79
  -9   7  13    0.51    2.02
   8  -7 -13    3.62    3.09
  -8  -7  13    5.85    3.28
  -8   7  13    7.85    3.06
   8   7 -13   -0.37    1.99
   7  -7 -13   -0.51    2.30
  -7   7  13   -0.94    1.88
  -7  -7  13    1.96    2.66
   7   7 -13    0.98    2.17
   6   7 -13   13.56    3.49
   6  -7 -13   11.51    3.29
  -6   7  13   11.53    3.25
  -6  -7  13   20.54    4.69
   5  -7 -13    2.36    2.06
   5   7 -13    2.36    2.34
  -5   7  13    1.67    1.89
  -5  -7  13    1.24    2.68
  -4  -7  13   10.90    3.85
   4   7 -13    7.48    2.84
   4  -7 -13    8.38    2.84
  -4   7  13    8.57    2.78
   3   7 -13   16.66    3.67
  -3  -7  13   18.51    4.55
   3  -7 -13   10.57    2.92
  -3   7  13   14.08    3.41
  -2  -7  13    0.91    2.33
   2   7 -13    0.82    1.80
   2  -7 -13    1.96    2.08
  -2   7  13    1.18    1.72
  -1   7  13   10.16    2.80
   1  -7 -13    7.75    2.61
   1   7 -13   10.01    3.07
  -1  -7  13    9.26    3.45
   0  -7 -13   12.78    3.22
   0  -7  13   17.74    4.60
   0   7 -13    9.24    2.72
   0   7  13    7.12    2.44
  -1   7 -13    5.50    2.43
   1   7  13    3.10    1.99
   1  -7  13    4.66    2.97
   1   7  13    6.80    2.27
  -1  -7 -13    4.61    2.25
  -1   7 -13    4.07    1.70
   2  -7  13   26.14    5.50
   2   7  13   23.23    3.47
  -2  -7 -13   25.85    3.97
  -2   7 -13   21.56    3.68
  -2   7 -13   25.80    3.32
  -3   7 -13    0.65    1.33
  -3   7 -13    1.36    1.85
  -3  -7 -13    0.13    1.30
   3   7  13    0.25    1.75
   3  -7  13   -3.26    2.11
  -3  -7 -13    0.88    2.06
  -4  -7 -13   18.86    3.05
   4   7  13   18.33    3.68
  -4   7 -13   20.04    3.27
  -4   7 -13   23.57    3.70
   4  -7  13   38.70    6.81
   5  -7  13    4.79    3.93
   5   7  13    7.58    2.77
  -5  -7 -13    4.49    1.82
  -5   7 -13    5.01    2.13
  -5   7 -13    6.06    2.36
   6   7  13    0.68    2.09
  -6  -7 -13    0.63    1.40
  -6   7 -13    2.72    1.57
  -6   7 -13   -1.20    1.64
   6  -7  13   -1.10    2.98
  -7   7 -13   12.41    3.13
  -7  -7 -13   12.67    2.70
   7   7  13   16.45    3.75
   7  -7  13   19.84    5.92
  -7   7 -13   10.87    2.77
   8   7  13    0.18    2.33
  -8   7 -13    3.57    2.29
  -8  -7 -13    6.48    2.04
   8  -7  13   17.36    5.59
   8  -7  13    6.31    3.33
  -8   8  13    2.99    2.55
   8  -8 -13    2.04    2.57
   8   8 -13    3.86    2.94
   7  -8 -13    6.70    2.97
  -7   8  13   13.77    3.43
  -7  -8  13   18.67    4.64
   7   8 -13   14.28    3.91
   6  -8 -13    0.08    1.96
  -6   8  13   -0.19    1.68
  -6  -8  13    1.84    2.83
   6   8 -13    0.53    2.10
   5  -8 -13   11.38    3.54
   5   8 -13   21.09    4.20
  -5  -8  13   24.02    5.29
  -5   8  13   18.82    3.99
   4   8 -13    7.57    2.89
  -4   8  13    5.01    2.29
  -4  -8  13    8.66    3.62
   4  -8 -13    3.10    2.30
  -3   8  13    3.63    2.15
   3   8 -13    5.82    2.63
   3  -8 -13    3.05    2.52
  -3  -8  13    3.87    2.86
  -2  -8  13   13.70    4.16
   2   8 -13   13.76    3.35
  -2   8  13    8.75    2.77
   2  -8 -13   12.53    3.23
  -1   8  13    2.46    1.84
  -1  -8  13   -0.84    2.20
   1   8 -13    3.68    2.40
   1  -8 -13    3.64    2.17
   0   8  13    7.91    2.61
   0   8 -13    6.74    2.51
   0  -8  13   12.03    4.18
   0  -8 -13    8.67    2.92
  -1   8 -13   15.53    3.31
   1  -8  13   22.88    5.03
   1   8  13   16.09    3.31
  -1   8 -13   16.11    2.80
   1   8  13   16.89    3.27
  -1  -8 -13   14.48    3.56
   2  -8  13    1.40    2.37
  -2   8 -13   -0.23    1.25
  -2  -8 -13   -0.32    1.86
  -2   8 -13    2.78    2.05
   2   8  13    0.93    1.73
  -3   8 -13   13.98    2.74
  -3   8 -13   14.25    3.13
   3  -8  13   24.56    5.67
   3   8  13   12.62    3.10
  -3  -8 -13   16.73    3.58
   4  -8  13    8.40    4.01
  -4   8 -13    1.98    1.74
   4   8  13    2.09    2.10
  -4  -8 -13   -0.11    2.00
  -4   8 -13    2.79    2.12
   5   8  13    6.76    2.83
  -5   8 -13    4.59    1.96
  -5   8 -13    5.40    2.52
   5  -8  13    8.77    4.18
   6  -8  13    8.93    4.73
  -6   8 -13    6.29    2.33
   6   8  13    8.56    2.86
  -6   8 -13    6.76    2.63
   7   8  13    2.86    2.51
   7  -8  13    5.36    4.40
  -7   8 -13    0.01    1.85
  -7   8 -13    0.29    1.65
  -8  -8 -13    1.84    1.54
  -8   8 -13    2.79    2.33
   8   8  13    1.22    2.45
  -8   8 -13    1.70    1.69
   8  -8  13    6.45    4.17
   8  -9 -13    0.05    2.14
  -8   9  13    1.07    2.36
   8   9 -13    3.68    3.12
  -7  -9  13    8.43    3.84
  -7   9  13    5.84    2.66
   7  -9 -13    4.21    2.85
   7   9 -13    4.48    2.90
  -6   9  13    2.32    2.11
   6   9 -13    2.27    2.47
   6  -9 -13    2.26    2.31
  -6  -9  13    6.58    3.54
  -5  -9  13    5.77    3.56
  -5   9  13    4.82    2.30
   5   9 -13    6.15    2.92
   5  -9 -13    2.77    2.56
  -4   9  13    1.18    1.85
   4  -9 -13   -1.79    1.71
  -4  -9  13    1.30    2.59
   4   9 -13    2.56    2.51
   3  -9 -13   28.03    4.68
  -3  -9  13   34.10    5.90
   3   9 -13   29.63    4.69
  -3   9  13   18.43    3.91
   2  -9 -13    0.43    2.05
   2   9 -13   -1.03    1.91
  -2   9  13    1.79    1.80
  -2  -9  13    1.08    2.67
  -1   9  13   21.29    3.93
   1   9 -13   26.05    4.16
   1  -9 -13   23.52    4.30
  -1  -9  13   37.97    6.31
   0   9  13    1.99    1.88
   0   9 -13    1.29    2.11
   0  -9 -13    4.54    2.39
   0  -9  13    2.87    2.92
  -1  -9 -13    4.58    2.44
  -1   9 -13    6.82    2.12
  -1   9 -13    5.61    2.35
   1  -9  13   10.82    3.96
   1   9  13    7.47    2.46
   2   9  13    2.99    2.28
  -2   9 -13    6.41    2.06
   2  -9  13    7.07    3.44
  -2  -9 -13    6.85    2.82
  -2   9 -13    4.27    2.46
   3   9  13    4.23    2.55
   3  -9  13    3.12    3.50
  -3   9 -13    2.30    1.50
  -3  -9 -13    3.67    2.54
  -3   9 -13    4.48    2.25
   4  -9  13    3.96    3.53
   4   9  13   -0.47    2.16
  -4  -9 -13    2.43    2.49
  -4   9 -13   -0.40    1.45
  -4   9 -13    2.73    2.08
  -5   9 -13   26.87    3.82
   5   9  13   25.14    4.44
  -5  -9 -13   25.43    4.74
   5  -9  13   35.71    7.24
  -5   9 -13   24.20    3.90
  -6   9 -13    0.09    1.55
   6   9  13    1.26    2.21
   6  -9  13    1.00    3.42
  -6   9 -13   -0.88    1.84
   7  -9  13   23.43    6.16
  -7   9 -13   13.80    2.99
  -7   9 -13   10.67    3.14
   7   9  13   13.93    3.87
   7 -10 -13    0.01    2.21
   7  10 -13   15.05    4.05
  -7  10  13   13.31    3.40
   6  10 -13   -0.47    2.43
  -6 -10  13    4.94    3.09
  -6  10  13   -0.48    1.77
   6 -10 -13    0.70    2.38
  -5  10  13   23.00    4.50
   5  10 -13   23.97    4.47
  -5 -10  13   26.89    5.32
   5 -10 -13   17.62    4.20
  -4 -10  13    2.19    2.90
  -4  10  13    1.20    1.90
   4  10 -13    1.20    2.29
   4 -10 -13    1.96    2.32
   3  10 -13    1.34    2.36
  -3 -10  13    3.67    3.27
  -3  10  13    3.65    2.10
   3 -10 -13    1.57    2.26
   2 -10 -13    1.39    2.30
   2  10 -13   -1.26    2.16
  -2  10  13    1.76    1.91
  -2 -10  13    0.77    2.75
  -1 -10  13    2.02    3.03
   1 -10 -13    3.33    2.46
   1  10 -13    5.67    2.74
  -1  10  13    1.39    1.96
   0  10 -13    0.05    2.04
   0  10  13   -0.77    1.45
   0 -10 -13    2.37    2.34
   0 -10  13   -0.84    1.98
  -1  10 -13   16.51    3.50
  -1  10 -13   15.40    2.78
   1 -10  13   23.66    5.42
  -1 -10 -13   12.81    3.96
   2 -10  13    2.68    2.97
  -2 -10 -13    0.99    2.40
  -2  10 -13    0.07    1.49
  -2  10 -13   -0.94    1.93
   2  10  13    0.28    2.08
  -3 -10 -13   27.48    4.88
  -3  10 -13   23.44    3.95
   3  10  13   36.02    4.94
   3 -10  13   25.65    5.67
  -3  10 -13   21.35    3.37
   4  10  13    3.13    2.57
  -4  10 -13    0.43    1.87
  -4 -10 -13   -1.13    2.22
  -4  10 -13    0.12    1.47
   4 -10  13    1.28    3.45
   5 -10  13    7.60    4.22
  -5  10 -13    1.47    2.15
   5  10  13    6.19    2.86
  -5  10 -13    2.45    1.84
   6  10  13   -1.14    2.15
   6 -10  13   -0.53    3.44
  -6  10 -13    0.65    1.78
   5  11 -13    1.47    2.60
  -5  11  13    0.95    1.98
  -5 -11  13    4.51    3.07
   5 -11 -13    0.22    2.50
   4  11 -13    1.02    2.37
   4 -11 -13   -1.10    1.95
  -4 -11  13    1.48    2.89
  -4  11  13    1.70    2.01
  -3  11  13   11.59    3.25
  -3 -11  13   15.04    4.48
   3  11 -13   16.80    3.83
   3 -11 -13   13.18    3.66
  -2 -11  13    3.11    3.12
   2  11 -13    0.70    2.10
  -2  11  13   -1.66    1.34
   2 -11 -13    1.88    2.60
   1 -11 -13   23.30    4.63
   1  11 -13   25.45    4.28
  -1 -11  13   26.43    5.70
  -1  11  13   24.28    4.13
   0  11 -13   -0.38    2.08
   0 -11 -13   -0.61    2.18
   0 -11  13    0.92    2.71
  -1  11 -13    6.30    2.70
  -1 -11 -13    1.15    2.33
  -1  11 -13    2.13    1.59
   1 -11  13    2.50    3.21
  -2 -11 -13    1.84    2.30
  -2  11 -13    0.70    1.48
   2 -11  13    3.85    3.39
   2  11  13    4.73    2.34
  -3 -11 -13    1.72    2.70
   3  11  13    1.98    2.36
   3 -11  13    6.41    3.40
  -3  11 -13    1.58    1.49
  -4 -11 -13    6.14    3.03
  -4  11 -13    3.68    1.99
   4  11  13    4.22    2.86
   4 -11  13    6.05    3.48
   5  11  13   17.55    4.03
   5 -11  13   15.61    5.08
  -5 -11 -13   12.98    3.88
  -5  11 -13    9.46    2.64
  -3  12  13    2.21    2.01
   3  12 -13    2.50    2.66
   3 -12 -13    1.29    2.48
  -3 -12  13    1.86    3.02
  -2  12  13    9.61    2.91
  -2 -12  13   12.97    4.54
   2 -12 -13    5.30    3.21
  -1  12  13    0.63    1.72
   1 -12 -13   -0.63    2.36
  -1 -12  13    3.07    3.31
   0 -12  13    8.35    3.90
   0 -12 -13    5.98    3.08
  -1 -12 -13   12.06    3.80
   1 -12  13    3.44    2.62
  -1  12 -13   13.92    2.77
  -2 -12 -13    1.15    2.69
   2 -12  13    0.30    3.18
   2  12  13    1.87    2.88
  -2  12 -13   -0.11    1.48
  -3  12 -13    7.27    2.29
   3  12  13   11.71    3.46
   3 -12  13   13.92    4.68
  -3 -12 -13   10.09    3.53
 -10   0  14    4.25    2.97
 -10   0  14    0.38    2.41
  10   0 -14    6.21    2.92
  -9   0  14    0.61    2.38
   9   0 -14    1.04    2.43
  -9   0  14    2.24    2.06
  -8   0  14   28.26    4.75
  -8   0  14   21.50    4.72
   8   0 -14   23.60    4.68
  -7   0  14    0.67    2.17
   7   0 -14    1.49    2.11
  -6   0  14   20.25    4.45
   6   0 -14   17.14    3.93
   6   0 -14   16.11    3.66
  -5   0  14   -0.58    1.37
   5   0 -14   -0.07    1.62
   5   0 -14    0.99    1.83
   4   0 -14    2.12    1.79
   4   0 -14    1.26    1.88
  -4   0  14    2.33    2.28
   3   0 -14    0.62    1.72
  -3   0  14   -0.07    1.90
   2   0 -14   18.41    3.72
  -2   0  14    9.57    3.39
   1   0 -14   -0.75    1.41
  -1   0  14    1.27    2.05
   0   0 -14   56.52    5.45
   0   0  14   82.97    7.54
   1   0  14    0.53    2.08
  -1   0 -14   -0.19    1.40
   2   0  14   65.37    7.35
  -2   0 -14   63.95    5.49
   2   0  14   70.54    5.44
   3   0  14    0.30    2.33
   3   0  14   -0.54    1.72
  -3   0 -14   -0.30    1.27
   4   0  14    0.80    2.43
   4   0  14   -0.92    1.69
  -4   0 -14    1.24    1.50
   5   0  14    1.47    2.70
  -5   0 -14    0.84    1.36
   5   0  14   -1.26    1.84
   6   0  14    0.93    2.43
  -6   0 -14    2.87    1.73
   7   0  14   -0.33    2.12
  -7   0 -14    0.74    1.28
  -8   0 -14   12.89    2.82
   8   0  14   15.63    4.06
   9   0  14    0.76    2.44
  -9   0 -14    0.15    1.22
 -10  -1  14   10.20    3.73
  10   1 -14    8.13    3.32
  10  -1 -14   10.72    3.70
 -10  -1  14    9.31    3.48
 -10   1  14    8.15    3.35
  -9   1  14    2.18    2.30
   9  -1 -14    3.70    2.68
   9   1 -14    0.36    2.14
   9  -1 -14    1.60    2.53
  -9  -1  14    0.54    2.44
  -9  -1  14    2.58    2.57
  -8   1  14    1.05    2.34
   8  -1 -14   -0.35    2.29
  -8  -1  14    0.13    2.24
  -8  -1  14    1.32    2.28
   8  -1 -14    2.95    2.41
   8   1 -14    1.52    1.96
  -7  -1  14    4.27    2.64
  -7   1  14    4.73    2.88
   7  -1 -14    4.96    2.55
   7  -1 -14    4.89    2.61
  -7  -1  14    3.32    2.75
   7   1 -14    5.62    2.61
   6   1 -14   11.15    3.22
  -6  -1  14    7.88    2.67
  -6   1  14    5.64    2.65
   6  -1 -14    7.91    2.79
  -6  -1  14    6.79    3.02
   6  -1 -14   10.44    3.15
  -5  -1  14    0.88    2.00
   5  -1 -14    5.40    2.52
   5  -1 -14    2.13    1.94
  -5   1  14    3.29    2.45
   5   1 -14    2.88    2.26
   5   1 -14    2.18    1.92
  -4  -1  14   58.42    6.97
   4  -1 -14   44.48    5.55
  -4   1  14   46.74    6.09
   4   1 -14   50.88    5.73
   4  -1 -14   48.00    4.72
   3  -1 -14   -0.48    1.39
  -3  -1  14    2.48    2.29
   3   1 -14   -1.49    1.46
  -3   1  14   -0.91    1.73
   3  -1 -14    1.54    1.94
  -2  -1  14   48.38    6.42
   2   1 -14   43.04    5.14
   2  -1 -14   38.33    4.97
   1  -1 -14    1.38    1.83
  -1   1  14    1.69    2.25
   0   1  14    1.39    2.19
   0   1 -14    1.76    1.47
   0  -1  14    3.26    2.58
   0  -1 -14    3.42    1.92
   1   1  14   13.53    3.74
   1  -1  14   14.28    3.90
  -1   1 -14    7.98    2.48
   2  -1  14   32.02    5.66
  -2   1 -14   21.96    3.70
  -2  -1 -14   24.46    3.70
   2  -1  14   30.62    4.16
   2   1  14   27.31    3.79
   2   1  14   26.69    4.89
   3   1  14    7.05    2.61
   3  -1  14    6.13    2.47
  -3  -1 -14    4.79    1.95
   3  -1  14    4.11    2.90
   3   1  14    7.31    3.02
  -3   1 -14    2.51    1.68
   4  -1  14   60.20    5.89
   4   1  14   50.43    5.42
  -4  -1 -14   43.18    4.66
   4   1  14   53.16    6.39
   4  -1  14   60.13    7.29
  -4   1 -14   46.33    4.89
   5   1  14    1.77    2.16
   5  -1  14   -0.03    2.03
  -5   1 -14    0.66    1.32
   5  -1  14    1.70    2.74
  -5  -1 -14    1.02    1.56
   6   1  14   23.54    4.37
   6  -1  14   24.82    4.58
  -6   1 -14   17.12    3.20
  -6  -1 -14   19.25    3.27
   7   1  14    2.86    2.38
   7  -1  14    1.50    2.47
  -7   1 -14    0.55    1.41
  -7  -1 -14   -0.59    1.19
   8  -1  14    3.51    3.07
  -8   1 -14   -0.42    1.78
  -8  -1 -14   -0.20    1.45
   8   1  14    1.83    2.51
  -9   1 -14    3.38    2.12
   9   1  14    3.41    2.82
   9  -1  14    6.98    3.25
  -9  -1 -14    1.23    1.47
  10  -2 -14    3.58    2.74
 -10  -2  14    5.20    3.04
  10   2 -14    5.36    2.90
 -10   2  14    4.53    2.98
  10  -2 -14    0.37    2.74
 -10  -2  14    8.78    3.29
  -9  -2  14    1.77    2.60
  -9  -2  14    5.72    3.01
   9  -2 -14    1.24    2.66
  -9   2  14    2.43    2.43
   9   2 -14    2.26    2.43
   9  -2 -14    2.78    2.94
  -8  -2  14   16.02    3.97
   8  -2 -14   13.12    3.58
  -8   2  14    9.61    3.42
  -8  -2  14   14.43    3.95
   8   2 -14   14.09    3.68
   8  -2 -14   12.39    3.58
   7   2 -14    0.86    2.01
  -7   2  14    0.48    2.22
   7  -2 -14    3.51    2.59
  -7  -2  14    2.39    2.35
  -7  -2  14    3.46    2.38
   7  -2 -14    2.51    2.36
  -6  -2  14   13.44    3.13
   6   2 -14   18.27    3.97
  -6  -2  14   20.06    4.57
   6  -2 -14   18.39    3.82
   6  -2 -14   15.19    3.80
  -6   2  14    5.66    2.72
   5  -2 -14   13.74    3.22
  -5   2  14   10.14    3.44
   5  -2 -14    9.61    3.09
   5   2 -14    7.99    2.85
  -5  -2  14   10.26    3.43
  -4  -2  14    0.45    2.00
  -4   2  14    0.41    1.75
   4   2 -14   -1.17    1.45
   4  -2 -14    0.15    1.97
   4  -2 -14    0.50    1.63
   3  -2 -14   13.44    2.81
  -3  -2  14   13.80    3.99
  -3   2  14   10.01    3.11
   3  -2 -14   15.05    3.43
   3   2 -14   17.06    3.71
   2  -2 -14   14.77    2.79
   2  -2 -14   11.29    2.93
  -2  -2  14   18.89    4.35
   2   2 -14   13.17    3.17
  -2   2  14   14.67    3.65
   1  -2 -14   11.07    2.86
  -1   2  14   10.31    3.13
  -1  -2  14   12.91    3.98
   1   2 -14    7.91    2.48
   0   2 -14   28.99    4.26
   0  -2  14   44.26    6.45
   0   2  14   34.64    5.28
   0  -2 -14   39.01    4.58
   1  -2  14    2.15    2.43
  -1   2 -14   -0.35    1.27
   1   2  14    0.34    1.86
  -1  -2 -14    0.88    1.61
   2   2  14   20.38    3.41
   2   2  14   18.29    4.07
  -2  -2 -14   22.41    3.59
   2  -2  14   30.09    5.59
  -2   2 -14   16.92    3.29
   2  -2  14   28.96    4.12
   3  -2  14   31.16    4.47
  -3  -2 -14   21.21    3.43
  -3   2 -14   20.84    3.59
   3  -2  14   31.70    5.81
   3   2  14   24.28    3.92
   3   2  14   21.12    4.29
  -4   2 -14    2.86    1.96
   4   2  14    3.84    2.43
   4  -2  14    4.21    3.05
   4   2  14   -0.37    2.20
   4  -2  14    3.69    2.37
  -4  -2 -14    2.64    1.68
   5  -2  14   26.54    4.39
  -5   2 -14   19.93    3.49
   5   2  14   20.49    3.91
   5  -2  14   25.96    5.55
  -5  -2 -14   16.93    3.11
   6  -2  14    2.95    2.34
  -6  -2 -14    4.34    1.90
  -6   2 -14    4.05    2.19
   6  -2  14    4.10    3.27
   6   2  14    3.27    2.42
  -7   2 -14    1.50    1.74
   7   2  14    5.65    2.74
  -7  -2 -14    2.89    1.64
   7  -2  14    5.04    2.78
   8  -2  14   20.06    4.55
  -8  -2 -14   10.74    2.68
  -8   2 -14   15.60    3.24
   8   2  14   22.30    4.73
  -9   2 -14   -0.95    1.63
  -9  -2 -14    0.09    1.35
   9   2  14    0.25    2.63
   9  -2  14   -1.00    2.53
 -10   3  14    1.75    2.64
  10   3 -14    2.95    2.50
  10  -3 -14    1.25    2.87
 -10  -3  14    3.87    3.33
 -10  -3  14    1.54    2.39
  -9   3  14    9.11    3.45
   9  -3 -14   11.80    3.82
  -9  -3  14    7.53    3.19
   9   3 -14    8.61    3.12
  -9  -3  14    7.99    3.12
   9  -3 -14    5.21    3.35
  -8  -3  14    0.80    2.42
   8  -3 -14   -2.86    2.01
   8   3 -14    0.53    1.89
   8  -3 -14    0.80    2.60
  -8  -3  14    1.10    2.46
  -8   3  14    0.36    2.04
   7  -3 -14   20.08    4.32
  -7  -3  14   16.56    4.19
  -7  -3  14   15.84    3.53
   7  -3 -14   14.42    3.68
   7   3 -14   16.82    3.90
   6   3 -14    4.61    2.33
   6  -3 -14    2.17    2.20
  -6   3  14    5.07    2.46
  -6  -3  14    3.63    2.66
   6  -3 -14    4.65    2.32
   5  -3 -14    7.26    2.71
  -5  -3  14    9.67    3.73
  -5   3  14    9.10    3.12
   5  -3 -14    8.61    3.02
   5   3 -14   11.95    3.20
   4  -3 -14    9.67    3.06
   4   3 -14    9.39    2.99
  -4   3  14    8.16    2.92
  -4  -3  14   13.06    3.97
   4  -3 -14   10.61    2.72
  -3  -3  14   -2.30    1.97
   3   3 -14   -1.04    1.53
  -3   3  14   -0.31    1.68
   3  -3 -14    0.28    1.42
   3  -3 -14    0.52    1.91
   2  -3 -14   13.57    2.87
  -2   3  14    8.66    2.90
   2   3 -14    9.06    2.63
  -2  -3  14   15.32    4.27
   2  -3 -14   14.25    3.30
   1   3 -14   18.62    3.65
   1  -3 -14   17.45    3.04
   1  -3 -14   14.86    3.18
  -1  -3  14   19.21    4.69
  -1   3  14   15.54    3.75
   0   3  14    0.25    1.86
   0   3 -14    0.31    1.58
   0  -3  14    0.54    2.50
   0  -3 -14    0.80    1.60
   1  -3  14   46.92    6.74
  -1  -3 -14   35.27    4.26
  -1   3 -14   32.47    4.50
   1   3  14   31.65    4.84
   2  -3  14    7.86    2.70
   2  -3  14    5.90    3.11
   2   3  14    3.99    2.20
   2   3  14    5.17    2.59
  -2   3 -14    5.90    2.31
  -2  -3 -14    4.78    2.00
   3  -3  14   18.62    3.73
  -3   3 -14   10.59    2.81
   3  -3  14   21.96    4.92
   3   3  14   12.80    3.39
  -3  -3 -14   17.36    3.08
   3   3  14   17.25    3.31
   4  -3  14   22.17    5.18
  -4   3 -14   10.44    2.85
   4   3  14   12.51    3.24
  -4  -3 -14   12.13    2.66
   4  -3  14   19.08    4.00
   5  -3  14   -0.98    2.87
  -5  -3 -14    1.43    1.60
   5  -3  14    0.72    2.00
  -5   3 -14    0.30    1.44
   5   3  14    1.98    2.35
   6  -3  14   26.34    6.02
   6  -3  14   17.26    4.07
   6   3  14   16.21    3.81
  -6  -3 -14   11.57    2.76
   7   3  14   11.67    3.53
   7  -3  14   12.76    3.69
  -7  -3 -14   12.02    2.77
  -8   3 -14   -0.01    1.73
   8   3  14    1.72    2.54
   8  -3  14    2.26    2.49
  -8  -3 -14    0.46    1.48
  -9   3 -14   12.77    3.18
   9   3  14   10.30    3.64
  -9  -3 -14   11.68    2.63
   9  -3  14   14.59    4.24
  -9   4  14    1.86    2.40
  -9  -4  14    4.82    2.82
   9   4 -14    3.65    2.47
   9  -4 -14    0.73    2.53
  -9  -4  14    4.94    2.97
  -8   4  14    1.29    2.30
  -8  -4  14    1.51    2.61
   8   4 -14   -0.29    1.94
   8  -4 -14    2.42    2.48
   7  -4 -14    2.12    2.39
  -7  -4  14    2.98    2.60
  -7   4  14    1.89    2.28
   7   4 -14    2.63    2.12
   7  -4 -14    4.15    2.63
   6   4 -14    6.60    2.73
   6  -4 -14    2.45    2.70
   6  -4 -14    2.70    2.41
  -6   4  14    4.30    2.89
  -6  -4  14    3.08    2.93
   5   4 -14   21.38    4.10
  -5   4  14   23.78    4.59
   5  -4 -14   18.60    3.81
  -5  -4  14   21.16    4.81
   5  -4 -14   25.24    4.41
   4  -4 -14    5.58    2.46
  -4   4  14    5.37    2.58
  -4  -4  14    2.47    2.80
   4  -4 -14    5.88    2.41
   4   4 -14    6.70    2.75
  -3   4  14   38.03    5.35
   3  -4 -14   45.23    5.12
   3  -4 -14   37.84    4.44
   3   4 -14   40.07    5.20
   2   4 -14    1.21    1.97
   2  -4 -14    2.85    1.96
  -2   4  14    2.34    2.16
  -2  -4  14    2.24    3.00
   2  -4 -14    2.50    2.00
  -1   4  14   19.36    4.02
   1  -4 -14   19.36    3.48
  -1  -4  14   19.91    4.83
   1   4 -14   16.67    3.63
   1  -4 -14   18.03    3.27
   0  -4  14    8.38    3.43
   0  -4 -14    5.94    2.19
   0   4 -14    3.18    2.03
   0  -4 -14    6.72    2.22
   0   4  14    5.29    2.34
  -1  -4 -14    3.56    1.85
  -1   4 -14   -0.70    1.25
   1   4  14    1.39    2.05
   1  -4  14    1.33    2.50
   2   4  14    0.94    1.75
  -2  -4 -14    2.41    1.62
   2  -4  14    5.21    3.07
   2  -4  14    0.69    2.05
   2   4  14   -1.04    1.73
  -2   4 -14    0.92    1.41
   3   4  14   21.17    3.71
   3  -4  14   22.67    5.28
   3   4  14   15.87    3.46
  -3  -4 -14   18.81    3.15
   3  -4  14   24.43    4.25
   4   4  14   -0.31    1.98
  -4  -4 -14    1.08    1.70
   4  -4  14    2.41    2.32
  -4   4 -14    1.69    1.76
   4  -4  14    2.59    2.94
   5  -4  14   44.03    5.65
   5   4  14   32.68    4.93
  -5  -4 -14   32.97    4.20
   5  -4  14   62.20    8.13
  -5   4 -14   34.99    4.49
   6  -4  14    3.23    3.51
  -6  -4 -14    1.12    1.49
  -6   4 -14   -0.77    1.70
   6  -4  14    1.59    2.58
   6   4  14    0.55    2.63
   7   4  14   13.20    3.65
  -7   4 -14    9.72    2.72
  -7  -4 -14   11.44    2.68
   7  -4  14   13.01    3.83
   7  -4  14   19.77    5.61
  -8  -4 -14    0.65    1.38
  -8   4 -14    1.97    1.93
   8   4  14    3.42    2.70
   8  -4  14    5.87    3.21
   9   4  14    0.61    2.85
  -9   4 -14    0.84    2.08
  -9  -4 -14    1.93    1.51
   9  -4  14    0.04    2.78
  -9  -5  14   16.19    4.15
   9  -5 -14   12.62    3.87
   9   5 -14   11.48    3.41
  -9   5  14   10.56    3.71
   8  -5 -14    0.77    2.59
   8   5 -14   -0.09    1.94
  -8   5  14    2.58    2.11
  -8  -5  14    1.99    2.93
   7  -5 -14   17.21    4.21
   7   5 -14   18.40    4.16
  -7   5  14   11.98    3.78
  -7  -5  14   24.24    4.99
   6  -5 -14    1.24    2.22
   6   5 -14   -0.91    1.87
  -6   5  14    0.35    1.69
  -6  -5  14   -0.44    2.54
   5  -5 -14   13.32    3.21
  -5  -5  14   20.85    4.80
   5   5 -14   15.64    3.76
  -5   5  14    9.28    3.04
  -4  -5  14    1.37    2.62
  -4   5  14    1.26    1.86
   4   5 -14    1.94    2.31
   4  -5 -14    0.38    1.94
   4  -5 -14    0.71    1.81
   3  -5 -14    0.31    1.79
   3   5 -14   -0.21    2.00
   3  -5 -14    0.33    1.72
  -3   5  14   -0.10    1.69
  -3  -5  14    1.89    2.64
  -2  -5  14   -0.49    2.39
   2   5 -14    0.20    1.28
   2  -5 -14    0.70    1.57
  -2   5  14    1.46    2.01
   2  -5 -14    0.29    1.77
  -1   5  14   41.23    5.52
   1  -5 -14   57.79    5.08
   1  -5 -14   47.92    4.66
  -1  -5  14   62.66    7.64
   0   5 -14    0.42    1.75
   0  -5  14   -0.97    1.79
   0  -5 -14   -0.29    1.50
   0   5  14    1.75    1.80
   0  -5 -14   -0.30    1.80
   1   5  14   33.44    4.81
   1  -5  14   48.74    7.13
  -1   5 -14   31.99    4.47
  -1  -5 -14   34.81    4.14
   2   5  14    1.31    1.85
   2  -5  14    1.30    2.72
  -2  -5 -14    2.92    1.67
  -2   5 -14    1.68    1.51
   2   5  14    1.91    1.89
  -2   5 -14   -0.41    1.72
   3   5  14    8.73    2.68
   3  -5  14   17.01    4.91
  -3  -5 -14    6.03    2.10
  -3   5 -14    6.95    2.71
  -4   5 -14    0.80    1.75
  -4  -5 -14   -0.56    1.24
   4  -5  14   -0.29    2.23
   4   5  14    2.11    2.35
   4  -5  14    2.30    3.22
   5   5  14    0.65    2.21
   5  -5  14   -1.58    2.39
  -5   5 -14   -1.17    1.60
   5  -5  14    2.13    2.44
  -5  -5 -14    1.66    1.61
  -6  -5 -14   -0.32    1.44
   6   5  14   -3.51    2.05
  -6   5 -14   -0.04    1.83
   6  -5  14   -1.44    2.69
   6  -5  14    0.98    2.39
   7  -5  14   29.79    6.70
  -7   5 -14   18.01    3.64
   7  -5  14   33.09    5.62
  -7  -5 -14   22.70    3.55
   8  -5  14    1.14    2.59
  -8   5 -14   -0.26    1.62
  -8  -5 -14    1.50    1.52
   8   5  14    2.64    2.40
  -9   6  14    2.60    2.61
   9   6 -14    2.48    2.77
   9  -6 -14    3.88    3.10
  -8   6  14    2.75    2.65
  -8  -6  14    2.77    2.88
   8  -6 -14    0.28    2.31
   8   6 -14    3.49    2.59
  -7  -6  14    3.55    3.00
   7  -6 -14    5.88    3.01
   7   6 -14    4.92    2.75
  -7   6  14    4.02    2.63
   6   6 -14    2.37    2.31
  -6  -6  14    4.52    3.27
   6  -6 -14    1.93    2.40
  -6   6  14    1.06    1.95
  -5   6  14   11.62    3.39
  -5  -6  14   19.36    4.93
   5  -6 -14   10.74    3.22
   4  -6 -14    2.17    2.01
   4   6 -14    0.95    2.02
  -4   6  14   -0.26    1.69
  -4  -6  14   -0.28    2.48
  -3   6  14   21.63    4.38
   3  -6 -14   23.88    4.09
  -3  -6  14   27.73    5.59
   3   6 -14   22.29    4.30
  -2   6  14    4.28    2.48
   2   6 -14    3.73    2.38
  -2  -6  14    1.68    2.21
   2  -6 -14    7.46    2.48
   1  -6 -14    9.53    2.83
  -1  -6  14    9.40    3.77
   1   6 -14    4.68    2.50
  -1   6  14    7.47    2.66
   0  -6  14   12.21    4.03
   0   6  14    7.12    2.61
   0  -6 -14    8.67    2.37
   0   6 -14    7.24    2.66
   0  -6 -14   11.89    2.91
  -1  -6 -14   -0.94    1.83
   1  -6  14   -1.75    2.25
   1   6  14   -0.37    1.68
  -1   6 -14    1.20    1.90
  -1  -6 -14    1.80    1.57
   2   6  14    3.32    2.15
  -2   6 -14    2.37    1.58
  -2  -6 -14    4.28    1.69
  -2   6 -14    2.34    2.11
   2  -6  14    6.59    3.37
   2   6  14    3.00    1.95
  -3  -6 -14   19.76    3.23
   3   6  14   20.98    3.80
  -3   6 -14   22.68    3.82
   3  -6  14   34.77    6.48
  -3   6 -14   23.98    3.42
  -4   6 -14    0.24    1.48
   4  -6  14   -4.12    2.15
   4   6  14    3.49    2.59
  -4  -6 -14    2.54    1.79
  -4   6 -14   -0.03    1.77
   5   6  14   24.78    4.46
  -5   6 -14   30.71    4.23
  -5  -6 -14   25.42    3.70
   5  -6  14   45.85    7.51
   6  -6  14    1.97    3.23
  -6  -6 -14    2.32    1.70
   6   6  14    0.76    2.31
  -6   6 -14    0.16    1.65
   6  -6  14    1.38    2.56
   7  -6  14    4.95    3.16
   7   6  14    6.82    3.22
  -7   6 -14    5.68    2.34
   7  -6  14   11.39    5.01
  -7  -6 -14    7.94    2.21
   8   6  14    3.31    2.74
   8  -6  14    7.91    3.75
  -8   6 -14    4.64    2.37
  -8  -6 -14    4.40    1.89
  -8  -7  14   -2.43    2.56
   8   7 -14    0.58    2.09
   8  -7 -14   -0.47    2.24
  -8   7  14    2.61    2.58
  -7   7  14   13.47    3.67
   7   7 -14   12.85    3.77
  -7  -7  14   20.97    4.86
   7  -7 -14   14.40    3.69
  -6  -7  14    1.82    2.79
   6   7 -14    1.31    2.35
   6  -7 -14    1.15    2.03
  -6   7  14    1.01    2.01
   5   7 -14    1.88    2.56
   5  -7 -14    4.32    2.57
  -5  -7  14    6.14    3.38
  -5   7  14    1.37    1.98
   4  -7 -14    7.75    2.92
  -4   7  14    9.12    3.03
  -4  -7  14   15.72    4.53
   4   7 -14   10.68    3.25
   3   7 -14    2.91    2.43
  -3  -7  14    2.73    2.92
  -3   7  14    1.40    1.76
   3  -7 -14    2.53    2.41
  -2   7  14    3.05    2.09
  -2  -7  14    1.72    2.46
   2   7 -14    3.39    2.41
   2  -7 -14    3.39    2.45
   1  -7 -14   11.10    3.10
  -1   7  14   11.65    3.11
  -1  -7  14   17.47    4.64
   1   7 -14   17.93    3.75
   0   7 -14   -0.30    1.87
   0   7  14   -1.58    1.54
   0  -7 -14   -0.07    1.88
   0  -7  14    0.14    2.44
  -1   7 -14   18.92    3.82
   1   7  14   16.57    3.45
   1  -7  14   21.55    5.16
  -1  -7 -14   19.62    3.80
   2   7  14    2.39    1.92
  -2   7 -14    1.31    1.92
  -2   7 -14    2.22    1.58
   2  -7  14    1.15    2.74
  -2  -7 -14    1.58    2.19
  -3   7 -14    6.32    2.23
  -3   7 -14    7.00    2.59
   3   7  14    5.95    2.61
   3  -7  14    9.74    4.05
  -4   7 -14    7.96    2.67
  -4   7 -14   10.07    2.47
   4   7  14   11.82    3.27
  -4  -7 -14   11.14    2.51
   4  -7  14   18.85    5.11
   5  -7  14    1.43    3.20
   5   7  14   -0.39    2.17
  -5   7 -14    0.67    2.05
  -5   7 -14    0.37    1.59
  -5  -7 -14   -0.38    1.48
  -6   7 -14    5.97    2.52
  -6   7 -14    8.07    2.46
  -6  -7 -14    6.88    2.05
   6   7  14    7.90    3.09
   6  -7  14   12.64    5.00
   7  -7  14    8.01    3.67
   7   7  14    5.11    2.94
  -7  -7 -14    7.05    2.34
   7  -7  14   10.75    4.82
  -7   7 -14    7.16    2.83
  -7   8  14   -0.26    2.17
   7   8 -14   -1.41    2.23
   7  -8 -14   -0.20    2.37
  -7  -8  14    0.79    2.96
   6  -8 -14    8.26    3.15
  -6   8  14   11.09    3.52
  -6  -8  14   12.56    4.26
   6   8 -14   10.07    3.33
  -5   8  14    8.67    2.94
   5   8 -14    8.88    3.34
   5  -8 -14    8.12    2.85
  -5  -8  14   10.12    4.05
  -4  -8  14    0.94    2.75
  -4   8  14    0.28    1.90
   4  -8 -14   -0.07    2.37
   4   8 -14    0.54    2.29
   3   8 -14   11.65    3.46
  -3   8  14    8.42    2.93
   3  -8 -14    6.67    3.16
  -3  -8  14   10.41    4.20
   2   8 -14    9.77    3.18
  -2  -8  14   10.17    4.14
  -2   8  14    9.68    2.95
   2  -8 -14    5.30    2.70
  -1  -8  14    2.74    2.40
   1   8 -14    1.23    2.21
   1  -8 -14    3.87    2.57
  -1   8  14    4.47    2.21
   0   8 -14   20.65    3.92
   0  -8  14   23.61    5.38
   0  -8 -14   19.84    3.95
   0   8  14   22.89    4.08
   1  -8  14    1.62    2.61
   1   8  14    2.81    2.15
  -1   8 -14    2.93    2.25
  -1  -8 -14    2.07    2.20
   2  -8  14   18.04    4.98
   2   8  14   15.87    3.29
  -2   8 -14   15.60    2.77
  -2   8 -14   13.25    3.36
  -2  -8 -14   16.21    3.64
   3  -8  14   13.73    4.48
  -3   8 -14   11.14    2.62
   3   8  14   13.83    3.30
  -3   8 -14   11.70    3.14
  -3  -8 -14   10.14    3.34
  -4   8 -14    1.56    1.65
  -4   8 -14    0.82    1.85
   4   8  14   -2.48    1.73
   4  -8  14    3.34    3.32
  -5   8 -14    5.24    2.48
   5   8  14    9.38    3.12
   5  -8  14    7.33    4.06
  -5   8 -14    6.08    2.20
   6  -8  14    8.91    4.00
   6   8  14    2.86    2.49
  -6   8 -14    3.36    1.95
  -6   8 -14    0.81    2.11
   7  -8  14    4.39    4.09
  -7   8 -14    2.29    2.28
  -7   8 -14    1.58    1.55
   7   8  14    0.89    2.63
   6  -9 -14    3.18    2.89
   6   9 -14    3.59    2.71
  -6  -9  14    3.19    3.32
  -6   9  14    4.01    2.36
  -5  -9  14    1.02    2.76
  -5   9  14    0.74    2.04
   5   9 -14   -0.10    2.26
   5  -9 -14    0.36    2.20
  -4   9  14   17.42    4.16
  -4  -9  14   29.28    5.84
   3  -9 -14    1.67    2.28
   3   9 -14    2.89    2.42
  -3  -9  14   -1.74    2.65
  -3   9  14   -0.04    1.60
   2  -9 -14   14.74    3.85
  -2  -9  14   18.20    4.90
   2   9 -14   11.58    3.47
  -2   9  14   10.60    3.15
   1  -9 -14    2.53    2.54
   1   9 -14    2.43    2.33
  -1   9  14    1.25    1.89
  -1  -9  14    1.77    2.41
   0   9 -14    3.22    2.63
   0  -9 -14    2.18    2.31
   0  -9  14    7.60    3.76
   0   9  14    3.51    2.23
  -1  -9 -14    2.94    2.42
  -1   9 -14    3.45    2.18
   1  -9  14    3.68    3.22
  -2  -9 -14    3.42    2.73
  -2   9 -14    3.93    1.90
  -2   9 -14    5.31    2.47
   2  -9  14    3.61    3.38
   3  -9  14   -0.93    2.63
   3   9  14    1.11    2.02
  -3   9 -14   -0.97    2.05
  -3   9 -14    2.35    1.58
  -3  -9 -14    1.02    2.33
   4  -9  14   32.18    6.65
  -4   9 -14   21.31    3.88
   4   9  14   27.78    4.52
  -4   9 -14   21.61    3.49
   5  -9  14    6.37    4.00
   5   9  14   -1.26    2.35
  -5   9 -14   -0.87    2.18
  -5   9 -14    4.41    1.92
  -6   9 -14    7.27    2.40
  -6   9 -14    8.89    2.88
   6  -9  14   18.25    5.86
   6   9  14   13.16    3.71
   5  10 -14    0.95    2.47
   5 -10 -14   -0.52    2.45
  -5  10  14    1.65    2.21
  -5 -10  14   -0.57    3.06
  -4 -10  14    0.34    2.76
   4 -10 -14    0.42    2.55
  -4  10  14   -0.84    1.75
   4  10 -14    1.41    2.42
   3 -10 -14    1.76    2.65
  -3 -10  14    1.05    3.20
   3  10 -14    0.98    2.31
  -3  10  14    1.21    1.93
   2 -10 -14    2.85    2.94
  -2 -10  14    6.49    3.47
  -2  10  14    6.69    2.71
   2  10 -14    8.21    3.06
   1 -10 -14   -1.14    2.21
  -1  10  14    2.21    1.85
   1  10 -14    0.60    2.14
   0 -10 -14   19.58    4.38
   0  10 -14   17.82    3.78
   0 -10  14   23.63    5.59
  -1 -10 -14    0.95    2.51
  -1  10 -14    1.13    2.28
   1 -10  14    1.51    3.23
  -2  10 -14   20.46    3.27
  -2 -10 -14   18.12    4.17
  -2  10 -14   24.10    4.18
   2 -10  14   26.77    5.89
   3 -10  14   -2.43    2.61
  -3  10 -14    0.21    2.15
   3  10  14    9.04    3.10
  -3  10 -14    1.21    1.75
  -3 -10 -14    0.05    2.31
   4 -10  14    1.47    3.04
   4  10  14    2.53    2.64
  -4  10 -14   -0.50    2.08
  -4 -10 -14    2.21    2.83
  -4  10 -14    2.18    1.65
  -5  10 -14    1.31    1.62
   5  10  14    0.44    2.36
  -5  10 -14    0.28    2.02
   5 -10  14    3.79    3.38
   3  11 -14   -1.62    2.38
  -3  11  14    0.36    1.90
  -3 -11  14   -1.40    2.73
   3 -11 -14   -1.05    2.74
   2 -11 -14   11.44    3.65
  -2  11  14   12.64    3.44
   2  11 -14   15.28    3.74
  -2 -11  14   14.06    4.64
   1 -11 -14    1.20    2.77
   1  11 -14   -0.80    2.13
  -1 -11  14    1.18    3.04
  -1  11  14    0.52    1.97
   0 -11  14    2.66    2.28
   0  11 -14    0.00    2.33
   0 -11 -14    1.29    2.72
   1 -11  14    1.34    3.47
  -1  11 -14    0.61    2.43
  -1 -11 -14    1.02    2.83
   2 -11  14    5.62    3.77
  -2 -11 -14    3.80    3.04
  -2  11 -14    4.51    2.65
  -2  11 -14    4.39    2.02
  -3 -11 -14    3.09    2.89
   3  11  14    1.81    2.55
  -3  11 -14    2.19    1.79
   3 -11  14    4.18    3.47
   9   0 -15   22.73    4.75
  -9   0  15   15.83    4.38
   8   0 -15   -0.84    2.11
  -8   0  15   -2.19    2.29
   8   0 -15    0.43    2.48
   7   0 -15   14.26    4.14
  -7   0  15    9.90    3.57
   7   0 -15    8.82    3.19
  -6   0  15   -0.36    2.19
   6   0 -15    2.08    2.03
   6   0 -15    1.29    2.26
  -5   0  15    2.42    2.40
   5   0 -15    4.35    2.25
   4   0 -15    0.62    1.94
  -4   0  15    0.02    2.21
  -3   0  15   15.54    4.29
   3   0 -15   25.23    4.45
  -2   0  15    0.62    2.08
   2   0 -15    0.81    1.90
  -1   0  15   48.86    6.88
   1   0 -15   52.18    5.63
   0   0  15   -0.66    2.13
   0   0 -15    0.33    1.36
  -1   0 -15   10.82    2.79
   1   0  15   17.32    4.55
   2   0  15    0.94    2.44
  -2   0 -15    1.56    1.58
  -3   0 -15    2.75    1.75
   3   0  15    1.59    2.17
   3   0  15    2.98    2.83
  -4   0 -15    0.65    1.54
   4   0  15    1.80    2.36
   4   0  15    1.68    2.66
  -5   0 -15    9.38    2.63
   5   0  15   11.47    3.56
  -6   0 -15   -0.93    1.31
   6   0  15    0.18    2.36
  -7   0 -15   25.47    4.01
   7   0  15   33.69    5.59
   8   0  15   -2.86    2.19
  -8   0 -15    2.83    1.75
  -9  -1  15    0.64    2.47
  -9  -1  15   -1.11    2.37
  -9   1  15   -1.57    2.59
   9  -1 -15    0.25    2.86
   9   1 -15    0.31    2.50
   9  -1 -15    3.83    2.71
   8   1 -15    2.14    2.41
  -8  -1  15    1.50    2.80
  -8   1  15    1.53    2.79
  -8  -1  15    1.86    2.43
   8  -1 -15    1.80    2.81
   8  -1 -15    0.08    2.30
   7   1 -15   10.74    3.35
  -7   1  15   10.62    3.78
  -7  -1  15   11.41    3.70
   7  -1 -15    9.82    3.21
   7  -1 -15   10.07    3.47
   6   1 -15   -0.50    1.91
   6  -1 -15    0.53    1.88
   6  -1 -15   -0.10    2.04
  -6  -1  15   -0.04    2.45
  -6   1  15    1.06    1.85
   5  -1 -15   20.07    4.25
   5  -1 -15   20.34    3.64
   5   1 -15   16.06    3.77
  -5   1  15   16.82    4.36
  -4  -1  15   -1.96    2.20
   4   1 -15    0.51    1.86
  -4   1  15    0.40    2.05
   4  -1 -15    0.75    1.81
   3   1 -15   21.66    4.12
   3  -1 -15   23.61    4.35
  -3   1  15   20.69    4.58
  -3  -1  15   28.02    5.53
  -2  -1  15    4.52    2.88
   2   1 -15    3.99    2.15
   2  -1 -15    2.58    1.95
  -2   1  15    3.17    2.34
   1   1 -15    0.03    1.60
  -1  -1  15    0.34    2.17
  -1   1  15    0.29    2.13
   1  -1 -15    1.22    1.84
   0   1 -15    6.11    2.38
   0  -1  15    7.81    3.58
   0   1  15    5.68    2.98
   0  -1 -15    5.40    2.26
  -1   1 -15   31.01    4.51
   1  -1  15   38.80    6.36
  -1  -1 -15   33.18    4.48
   1   1  15   36.98    5.87
   2  -1  15    1.35    2.50
   2   1  15   -0.29    2.10
  -2   1 -15    1.52    1.67
  -2  -1 -15    0.11    1.28
   3   1  15   37.50    6.08
   3  -1  15   62.50    7.73
  -3  -1 -15   42.99    4.93
   3   1  15   43.05    5.18
   3  -1  15   58.23    5.91
  -3   1 -15   41.72    4.97
   4  -1  15   -0.76    2.40
   4  -1  15    2.72    2.53
  -4  -1 -15   -0.36    1.44
   4   1  15    1.57    2.35
   4   1  15    0.63    2.38
  -4   1 -15   -0.01    1.38
   5  -1  15   15.20    4.77
  -5  -1 -15   13.07    3.05
  -5   1 -15    8.63    2.52
   5  -1  15   18.36    4.18
   5   1  15   16.51    3.90
  -6  -1 -15    1.37    1.57
   6  -1  15    7.20    3.34
   6   1  15    4.88    2.69
  -6   1 -15    2.51    1.72
  -7   1 -15    1.08    1.44
  -7  -1 -15    0.49    1.52
   7  -1  15    3.96    3.09
   7   1  15   -1.04    2.67
   8   1  15    4.58    3.01
   8  -1  15    8.20    3.52
  -8   1 -15    4.61    2.09
  -8  -1 -15    7.59    2.33
  -9  -2  15   12.18    4.27
   9  -2 -15   10.77    3.84
   9   2 -15   12.20    3.65
  -9   2  15   11.13    3.89
   9  -2 -15   12.57    3.96
  -9  -2  15   10.53    3.79
  -8  -2  15    1.07    2.62
   8  -2 -15    1.01    2.60
   8   2 -15    2.15    2.39
  -8  -2  15    1.63    2.35
   8  -2 -15    4.18    2.95
  -8   2  15   -0.99    2.19
   7  -2 -15    8.03    3.14
   7   2 -15    8.90    3.18
  -7  -2  15    7.14    3.54
  -7   2  15    3.68    2.89
   7  -2 -15    3.30    2.62
   6  -2 -15   10.16    3.09
   6  -2 -15   10.69    3.41
  -6  -2  15   11.38    3.86
   6   2 -15    9.92    3.12
  -6   2  15    7.89    3.45
   5  -2 -15    2.79    2.27
  -5   2  15    2.75    2.72
   5  -2 -15    0.15    1.93
  -5  -2  15   -0.09    2.24
   5   2 -15    0.79    1.72
  -4   2  15    9.54    3.24
   4   2 -15    8.41    2.89
   4  -2 -15    9.36    3.04
   4  -2 -15    7.82    2.55
  -4  -2  15    7.44    3.49
   3  -2 -15   14.67    3.63
   3   2 -15   19.76    4.10
  -3   2  15   20.75    4.57
  -3  -2  15   23.53    5.36
   2   2 -15    2.41    2.12
  -2   2  15    2.63    2.19
   2  -2 -15    2.55    2.06
  -2  -2  15    2.83    2.84
   1   2 -15   23.81    4.11
  -1  -2  15   33.90    6.12
  -1   2  15   29.84    5.29
   1  -2 -15   24.41    4.09
   0   2 -15    3.83    2.16
   0  -2 -15    2.55    1.92
   0   2  15    2.78    2.27
   0  -2  15    5.32    3.09
  -1  -2 -15   11.86    2.88
   1   2  15    7.68    3.08
   1  -2  15   15.26    4.52
  -1   2 -15    6.95    2.47
  -2  -2 -15   16.33    3.36
   2   2  15   17.81    4.18
   2  -2  15   24.84    5.55
  -2   2 -15   15.37    3.33
  -3  -2 -15    1.36    1.57
   3  -2  15    0.02    2.13
   3  -2  15    0.66    2.75
   3   2  15    2.41    2.25
  -3   2 -15   -0.99    1.29
   3   2  15   -0.89    2.00
  -4  -2 -15   12.37    2.79
   4  -2  15   12.89    3.49
   4   2  15   10.58    3.20
  -4   2 -15    8.53    2.62
   4  -2  15   14.46    4.76
   5  -2  15   31.24    6.21
   5   2  15   16.22    4.08
   5  -2  15   22.68    4.55
  -5   2 -15   11.41    3.01
  -5  -2 -15   10.98    2.83
   6   2  15    0.17    2.54
  -6  -2 -15    0.41    1.43
  -6   2 -15    1.31    2.01
   6  -2  15    1.57    2.53
   7  -2  15   18.21    4.19
  -7   2 -15   12.29    3.12
   7   2  15   23.32    4.79
  -7  -2 -15   11.48    2.80
   8  -2  15   -0.31    2.77
   8   2  15    2.25    2.92
  -8  -2 -15    0.77    1.54
  -8   2 -15    1.51    2.11
   9  -3 -15    2.88    2.74
  -9  -3  15    1.08    2.71
   9   3 -15   -0.17    2.45
  -9   3  15    0.46    2.20
   9  -3 -15    0.11    2.62
  -8   3  15    6.04    2.99
  -8  -3  15    6.05    3.31
   8  -3 -15   12.94    3.95
   8  -3 -15    9.24    3.32
   8   3 -15    9.82    3.32
   7   3 -15    7.98    3.01
   7  -3 -15    4.21    2.89
   7  -3 -15    6.07    2.94
  -7   3  15   -0.37    1.74
  -6  -3  15   -0.16    2.40
   6  -3 -15    0.04    2.12
  -6   3  15   -1.65    2.09
   6  -3 -15    2.12    2.26
   6   3 -15    1.19    2.02
   5  -3 -15   17.49    3.76
  -5   3  15   14.33    3.99
  -5  -3  15   14.32    4.35
   5   3 -15   17.91    3.86
   5  -3 -15   16.39    3.81
   4  -3 -15    5.85    2.60
  -4  -3  15   -0.21    1.80
   4  -3 -15    5.72    2.38
  -4   3  15    1.32    1.96
   4   3 -15    6.48    2.63
  -3   3  15    1.76    2.11
  -3  -3  15    0.38    2.74
   3  -3 -15    2.04    2.00
   3  -3 -15    3.15    2.05
   3   3 -15    2.28    2.04
   2  -3 -15   30.56    4.50
  -2  -3  15   32.08    6.02
   2   3 -15   24.18    4.36
  -2   3  15   27.83    5.08
  -1  -3  15   -1.55    2.21
  -1   3  15   -0.60    1.84
   1  -3 -15    0.41    1.76
   1   3 -15   -0.40    1.47
   0   3 -15   20.80    3.87
   0  -3  15   33.75    6.29
   0  -3 -15   24.18    3.98
   0   3  15   18.08    4.12
  -1  -3 -15    4.47    2.14
  -1   3 -15    2.50    2.24
   1  -3  15    4.47    3.22
   1   3  15    3.51    2.32
  -2   3 -15    3.42    2.29
  -2  -3 -15    1.66    1.58
   2   3  15    0.72    2.25
   2  -3  15    8.75    3.60
   3  -3  15   21.03    4.10
  -3  -3 -15    9.07    2.64
  -3   3 -15   14.21    3.47
   3   3  15   15.52    3.76
   3  -3  15   20.68    5.38
   3   3  15    9.91    3.10
   4   3  15   -0.93    2.27
   4  -3  15    1.74    3.01
  -4  -3 -15    1.74    1.61
  -4   3 -15    0.89    1.95
   4  -3  15   -0.44    2.08
  -5  -3 -15    8.49    2.55
  -5   3 -15   10.29    2.90
   5  -3  15   15.34    4.18
   5   3  15   11.29    3.45
   5  -3  15   21.64    5.60
  -6  -3 -15   15.65    3.11
   6   3  15   11.85    3.64
   6  -3  15   20.83    5.49
   6  -3  15   20.18    4.60
  -6   3 -15    8.65    2.65
   7   3  15    1.52    2.92
   7  -3  15    2.40    3.17
  -7   3 -15    1.01    1.40
  -7  -3 -15    1.35    1.44
   8   3  15   16.66    4.53
   8  -3  15    8.95    3.72
  -8   3 -15    1.53    1.58
  -8  -3 -15    9.72    2.61
  -8   4  15    2.66    2.39
   8   4 -15    2.52    2.20
  -8  -4  15    3.48    2.86
   8  -4 -15    2.87    2.70
  -7   4  15    0.15    2.17
  -7  -4  15    1.64    3.07
   7   4 -15    1.14    2.41
   7  -4 -15   -0.41    2.40
   6  -4 -15   19.46    4.20
  -6  -4  15   18.96    4.78
   6  -4 -15   19.85    4.13
  -6   4  15   14.29    4.12
   6   4 -15   20.60    4.27
  -5   4  15    1.58    2.01
   5   4 -15    0.30    1.93
   5  -4 -15   -0.99    1.89
   5  -4 -15    0.40    2.22
  -5  -4  15    0.84    2.52
   4   4 -15   22.83    4.33
  -4  -4  15   20.45    5.25
   4  -4 -15   17.89    3.67
  -4   4  15   15.89    4.08
   4  -4 -15   17.85    3.98
   3   4 -15    3.88    2.37
  -3   4  15    3.08    2.26
   3  -4 -15    1.41    1.99
   3  -4 -15    1.83    2.14
  -3  -4  15    3.10    3.04
   2  -4 -15    0.92    1.95
  -2  -4  15    1.63    2.84
  -2   4  15    2.84    2.17
   2  -4 -15   -0.27    1.90
   2   4 -15    1.78    2.38
   1   4 -15    1.70    2.33
  -1   4  15    2.32    2.22
   1  -4 -15    1.38    1.81
  -1  -4  15    1.61    2.83
   0  -4 -15    7.67    2.44
   0  -4  15    8.46    3.57
   0   4 -15    2.38    2.31
   0   4  15    3.97    2.74
  -1   4 -15    1.27    2.05
  -1  -4 -15    0.86    1.79
   1  -4  15   -0.39    2.40
   1   4  15    2.37    1.89
   2  -4  15   21.90    5.56
  -2   4 -15    8.92    2.78
   2   4  15   20.77    4.32
  -2  -4 -15   22.83    3.66
   3   4  15    0.61    2.12
   3  -4  15    4.96    3.39
  -3   4 -15    0.57    1.27
   3  -4  15    2.86    2.31
  -3  -4 -15    1.88    1.51
   4   4  15   28.67    4.63
  -4  -4 -15   24.85    3.82
   4  -4  15   43.75    7.37
   4  -4  15   40.75    5.61
  -5  -4 -15    2.23    1.78
   5  -4  15    7.42    3.52
   5   4  15    3.47    2.91
   5  -4  15    1.23    3.22
  -5   4 -15    1.39    1.91
   6   4  15    0.49    2.44
   6  -4  15    4.53    3.30
  -6   4 -15   -0.02    1.99
   6  -4  15    6.85    3.95
  -6  -4 -15    3.70    2.13
  -7  -4 -15    0.06    1.54
   7  -4  15    0.67    2.71
   7   4  15    0.69    2.92
  -7   4 -15    1.93    2.09
  -8   4 -15    1.49    1.96
  -8  -4 -15    3.46    1.84
   8   4  15    0.36    2.79
   8  -4  15    4.42    3.57
  -8  -5  15    5.63    3.33
  -8   5  15   -0.17    1.83
   8   5 -15    9.89    3.35
   8  -5 -15   10.76    3.74
   7   5 -15    1.19    2.17
  -7   5  15    0.04    2.38
   7  -5 -15   -0.06    2.76
  -7  -5  15    4.51    3.64
  -6  -5  15    7.00    3.28
   6   5 -15    3.60    2.71
   6  -5 -15    2.88    2.58
  -6   5  15    4.49    2.64
   5  -5 -15    3.06    2.47
   5   5 -15   -0.20    2.21
  -5  -5  15   -1.18    2.61
  -5   5  15   -0.01    2.09
  -4   5  15    9.17    3.32
  -4  -5  15   10.90    4.25
   4  -5 -15    7.30    2.76
   4   5 -15    6.27    2.93
  -3  -5  15    2.27    2.40
   3   5 -15    0.42    2.43
  -3   5  15    1.06    1.87
   3  -5 -15    1.06    1.73
   3  -5 -15    0.08    1.81
   2  -5 -15   34.28    4.55
   2  -5 -15   36.68    4.71
  -2   5  15   30.33    5.11
   2   5 -15   27.03    4.67
  -2  -5  15   55.24    7.63
  -1  -5  15    1.26    2.55
   1  -5 -15   -0.13    1.83
  -1   5  15   -1.40    1.81
   1   5 -15    1.04    1.45
   1  -5 -15   -0.16    1.65
   0   5  15   23.23    4.47
   0  -5 -15   26.71    4.08
   0  -5  15   37.04    6.56
  -1   5 -15   -0.10    1.83
   1   5  15   -0.24    1.73
   1  -5  15   -0.60    2.11
  -1  -5 -15   -0.49    1.65
  -2  -5 -15    5.86    2.16
  -2   5 -15    7.50    2.60
   2  -5  15    8.74    3.80
   2   5  15    7.89    2.92
   3  -5  15    0.96    2.68
  -3  -5 -15    0.28    1.47
   3  -5  15    2.36    2.49
  -3   5 -15   -0.20    1.89
   3   5  15   -0.16    2.06
   4  -5  15    0.90    3.26
   4   5  15    3.44    2.67
   4  -5  15    1.85    2.36
  -4   5 -15    3.19    2.41
  -4  -5 -15    2.41    1.72
  -5  -5 -15    6.52    2.36
   5  -5  15   -0.72    2.30
   5  -5  15    0.89    3.19
  -5   5 -15    0.34    1.81
   5   5  15    0.24    2.49
  -6   5 -15   16.74    3.69
   6   5  15   20.72    4.48
  -6  -5 -15   21.43    3.58
   6  -5  15   27.14    5.25
   6  -5  15   37.77    7.39
  -7   5 -15    0.53    1.99
   7  -5  15   -0.25    4.02
   7   5  15   -1.37    2.22
   7  -5  15   -0.73    2.56
  -7  -5 -15   -0.37    1.30
  -7   6  15   -0.48    2.11
   7  -6 -15    2.18    2.82
   7   6 -15    3.61    2.95
  -7  -6  15    0.45    2.81
  -6   6  15   14.30    3.97
  -6  -6  15   16.28    4.73
   6   6 -15   20.14    4.45
   6  -6 -15   17.22    4.07
  -5  -6  15    0.76    2.91
   5   6 -15    0.57    2.09
  -5   6  15    0.14    2.16
   5  -6 -15    1.66    2.25
   4  -6 -15   13.34    3.59
  -4  -6  15   14.51    4.74
   4   6 -15   -0.04    1.87
  -4   6  15    9.61    3.10
   3  -6 -15    2.66    2.35
  -3   6  15    3.64    2.62
   3   6 -15    2.77    2.41
  -3  -6  15    5.88    3.63
  -2   6  15    3.42    2.58
   2  -6 -15    3.71    2.28
  -2  -6  15    5.24    3.29
   2   6 -15    3.56    2.52
   1  -6 -15    2.26    2.08
  -1  -6  15   -0.53    2.64
  -1   6  15    0.65    2.01
   1   6 -15    1.93    2.21
   0   6 -15    2.41    2.10
   0  -6  15    3.58    3.04
   0  -6 -15    0.99    2.03
   0   6  15    2.00    1.94
  -1  -6 -15    1.71    1.67
   1   6  15   -0.64    1.97
  -1   6 -15    0.65    1.87
   1  -6  15    2.11    2.97
  -2   6 -15   15.89    3.71
  -2  -6 -15   20.83    3.38
   2  -6  15   23.06    5.82
  -3   6 -15   -0.58    1.88
   3   6  15    0.49    2.16
   3  -6  15    2.39    3.07
  -3  -6 -15    1.59    1.48
   4  -6  15   32.74    5.78
  -4  -6 -15   17.23    3.44
   4   6  15   17.39    3.80
  -4   6 -15   14.81    3.48
   4  -6  15   32.58    7.11
   5  -6  15    7.97    4.16
  -5   6 -15    1.47    2.19
   5  -6  15    3.62    3.27
  -5  -6 -15    3.93    1.98
   5   6  15    1.66    2.75
  -6  -6 -15    1.88    1.75
   6  -6  15    3.22    3.98
   6  -6  15    2.53    3.06
  -6   6 -15   -0.30    1.78
   6   6  15    1.26    2.73
   7  -6  15    8.68    4.58
  -7  -6 -15    2.64    1.93
   7  -6  15    6.36    3.68
   7   6  15   -0.36    2.56
  -7   6 -15    2.18    2.16
   7   7 -15    1.64    2.06
  -7   7  15    3.35    2.34
  -7  -7  15    4.59    3.42
   7  -7 -15    1.92    2.58
  -6   7  15    0.28    1.91
   6   7 -15    0.84    2.28
   6  -7 -15    1.52    2.49
  -6  -7  15    0.64    2.79
  -5   7  15    3.16    2.45
  -5  -7  15    5.65    3.82
   5  -7 -15    6.58    3.02
  -4   7  15    5.43    2.67
   4   7 -15    3.35    2.55
  -4  -7  15    8.09    4.15
   4  -7 -15    5.81    2.74
   3   7 -15    5.34    2.77
   3  -7 -15    6.71    2.85
  -3  -7  15    2.45    3.20
  -3   7  15    4.11    2.42
   2  -7 -15   16.89    3.75
  -2   7  15   19.91    4.29
   2   7 -15   19.90    4.13
  -1   7  15    1.63    2.11
  -1  -7  15   -1.19    2.55
   1  -7 -15   -0.71    1.92
   1   7 -15    0.52    2.12
   0  -7  15   30.88    6.32
   0   7 -15   12.23    3.55
   0  -7 -15   18.04    4.02
   0   7  15   13.74    3.62
  -1   7 -15    3.90    2.55
   1  -7  15    4.58    3.42
   1   7  15    5.00    2.35
   2  -7  15    1.76    2.97
  -2   7 -15    0.50    1.84
   3   7  15   10.00    3.01
  -3   7 -15    9.59    2.41
   3  -7  15   20.09    5.42
  -3   7 -15   10.11    3.18
   4   7  15    5.18    2.78
   4  -7  15    8.50    4.55
  -4   7 -15    4.78    2.09
   5  -7  15    3.32    3.63
   5   7  15    4.50    2.82
  -5   7 -15    3.58    2.31
  -6   7 -15    7.14    2.77
   6  -7  15   14.25    4.85
   6  -7  15    6.51    3.63
   6   7  15    6.57    2.96
  -6  -7 -15    7.28    2.36
  -6   8  15    7.22    2.97
  -6  -8  15    9.14    4.11
   6   8 -15    5.49    3.01
   6  -8 -15    2.57    2.80
   5   8 -15   -0.86    2.21
  -5  -8  15    0.67    3.23
   5  -8 -15    0.11    2.48
  -5   8  15    0.80    2.13
   4   8 -15   -0.20    2.24
  -4   8  15    2.26    2.31
   4  -8 -15    2.88    2.54
  -4  -8  15    5.19    3.41
   3  -8 -15    7.70    3.06
  -3   8  15    8.44    3.17
   3   8 -15    7.86    3.24
  -3  -8  15   10.93    4.32
  -2  -8  15    3.66    3.39
   2   8 -15    6.64    2.88
  -2   8  15    2.78    2.28
   2  -8 -15    2.08    2.52
   1  -8 -15   21.06    4.48
  -1  -8  15   23.42    5.66
  -1   8  15   12.27    3.35
   1   8 -15   16.33    3.90
   0  -8 -15    1.36    2.60
   0  -8  15    2.49    3.33
   0   8  15    1.69    2.01
   0   8 -15    1.33    2.16
  -1   8 -15   10.21    3.22
   1  -8  15   13.14    4.37
  -1  -8 -15    4.45    2.76
  -2   8 -15   10.22    3.27
   2  -8  15   17.90    5.45
  -3   8 -15   -0.29    1.53
  -3   8 -15   -1.43    1.70
   3  -8  15    4.29    3.59
   4  -8  15    4.00    3.77
   4   8  15    4.54    2.77
  -4   8 -15    2.55    1.89
  -4   8 -15    2.28    2.41
  -5   8 -15    5.25    2.61
  -5   8 -15    6.04    2.13
   5   8  15    5.57    2.96
   5  -8  15    9.03    4.55
   5   9 -15   10.79    3.67
  -5   9  15    7.24    2.90
   5  -9 -15   11.59    3.83
  -5  -9  15   11.21    4.37
  -4   9  15    1.52    2.09
   4   9 -15    0.23    2.41
  -4  -9  15   -0.03    3.10
   4  -9 -15    2.80    2.77
  -3  -9  15    7.76    3.73
   3   9 -15    4.69    3.04
  -3   9  15    5.72    2.74
   3  -9 -15    4.65    2.84
  -2  -9  15    3.16    3.27
   2   9 -15    0.53    2.22
  -2   9  15    2.42    2.44
   2  -9 -15    0.27    2.40
  -1  -9  15   -1.28    1.91
  -1   9  15   -0.67    1.99
   1   9 -15    1.73    2.41
   1  -9 -15   -0.49    2.37
   0   9  15   -0.11    1.66
   0   9 -15    3.01    2.47
   0  -9 -15    0.81    2.56
   0  -9  15    1.56    3.24
   1  -9  15   19.94    5.61
  -1  -9 -15   11.62    3.72
  -1   9 -15   14.19    3.60
   2  -9  15    4.15    3.16
  -2   9 -15    0.98    2.24
  -2  -9 -15   -0.74    2.47
  -3   9 -15   17.20    3.21
   3  -9  15   16.99    5.30
  -3   9 -15   20.00    4.09
   4  -9  15    3.87    3.30
   4   9  15    2.25    2.52
  -4   9 -15    0.29    1.52
  -4   9 -15    4.24    2.55
  -3  10  15    9.67    3.17
  -3 -10  15    4.65    3.57
   3  10 -15    7.97    3.43
   3 -10 -15    5.08    3.07
   2  10 -15   -0.54    2.11
   2 -10 -15   -0.61    2.39
  -2  10  15   -1.57    1.84
  -2 -10  15    3.28    3.59
  -1  10  15   13.34    3.69
   1 -10 -15   16.21    4.47
   1  10 -15   13.96    3.88
  -1 -10  15   17.66    5.21
   0  10 -15    2.04    2.56
   0 -10 -15    1.64    2.57
   0 -10  15    1.15    2.98
  -1 -10 -15   15.80    4.28
   1 -10  15   11.97    4.59
  -1  10 -15   12.05    3.61
  -2 -10 -15   -1.48    2.37
  -2  10 -15   -0.64    2.17
   2 -10  15    0.92    2.46
   8   0 -16    5.26    2.94
  -8   0  16   -0.44    2.64
   8   0 -16    2.10    2.67
   7   0 -16    1.56    2.72
  -7   0  16    0.62    2.59
   6   0 -16    3.35    2.63
  -6   0  16    0.61    2.10
   5   0 -16    0.96    2.04
  -5   0  16   -1.17    2.15
  -4   0  16   21.77    5.01
   4   0 -16   20.72    4.51
   3   0 -16    1.05    1.90
  -3   0  16    0.02    2.20
  -2   0  16   31.39    5.98
   2   0 -16   27.82    4.70
  -1   0  16   -0.32    2.73
   1   0 -16   -0.17    1.75
   0   0 -16    2.85    1.93
   0   0  16    2.13    2.74
   1   0  16    1.14    2.49
  -1   0 -16    0.01    1.56
  -2   0 -16    6.32    2.18
   2   0  16    9.64    3.85
   3   0  16    0.13    2.73
  -3   0 -16    1.62    1.73
  -4   0 -16   10.28    2.81
   4   0  16   18.19    4.68
   4   0  16   17.25    4.42
  -5   0 -16    1.56    1.85
   5   0  16   -2.81    2.39
  -6   0 -16   24.59    3.99
   6   0  16   24.87    4.98
   7   0  16    1.13    3.15
  -7   0 -16    1.42    1.47
   8  -1 -16   10.03    3.77
  -8   1  16   15.10    4.42
   8  -1 -16    8.82    3.51
  -8  -1  16   14.55    4.64
   8   1 -16   14.02    3.93
  -7  -1  16    0.55    2.57
   7  -1 -16    2.02    2.37
   7  -1 -16    2.74    2.57
  -7   1  16   -1.14    2.49
   7   1 -16    1.50    2.36
   6   1 -16   13.66    3.98
  -6   1  16   12.65    4.32
   6  -1 -16   12.87    3.68
  -6  -1  16   11.27    4.00
   5  -1 -16    0.70    2.37
   5   1 -16    2.96    2.37
  -5   1  16    1.78    2.72
  -5  -1  16    3.23    2.87
  -4   1  16    6.92    3.21
   4  -1 -16    6.78    2.97
   4   1 -16    7.78    2.96
  -4  -1  16    4.46    3.19
  -3  -1  16    3.82    3.07
   3  -1 -16    1.23    2.31
  -3   1  16    2.17    2.48
   3   1 -16    5.05    2.41
   2  -1 -16   -0.18    1.63
   2   1 -16    0.88    1.72
  -2   1  16    0.39    2.35
  -2  -1  16    1.08    2.68
   1  -1 -16    1.59    1.90
   1   1 -16    1.12    1.82
  -1  -1  16    3.66    3.13
  -1   1  16    1.47    2.50
   0  -1  16   32.14    6.12
   0   1  16   21.33    5.08
   0   1 -16   25.27    4.32
   0  -1 -16   22.33    4.13
   1   1  16    1.96    2.61
   1  -1  16    0.95    2.66
  -1   1 -16    0.77    1.61
  -1  -1 -16    2.05    1.75
   2  -1  16   34.20    6.51
  -2   1 -16   28.59    4.47
  -2  -1 -16   30.73    4.56
   2   1  16   31.78    5.84
   3  -1  16   -0.66    2.89
  -3  -1 -16    1.58    1.81
   3   1  16    1.80    2.59
  -3   1 -16    1.19    1.73
   4   1  16   10.63    3.83
   4   1  16    8.70    3.61
  -4  -1 -16    6.90    2.50
   4  -1  16   10.41    4.42
  -4   1 -16    7.32    2.44
   4  -1  16    4.77    3.40
   5  -1  16    1.48    3.12
  -5   1 -16    2.49    1.84
   5   1  16    3.90    3.15
   5  -1  16    5.47    3.62
  -5  -1 -16    1.27    1.77
  -6  -1 -16    1.09    1.66
   6  -1  16   -2.63    2.47
   6   1  16    2.80    2.92
  -6   1 -16   -0.12    1.62
  -7  -1 -16    4.34    2.02
   7   1  16    4.18    3.45
   7  -1  16    5.94    3.62
  -7   1 -16    2.69    1.78
   8  -2 -16    1.00    2.98
   8   2 -16    3.79    2.56
   8  -2 -16   -0.26    2.42
  -8   2  16    1.89    2.72
  -8  -2  16    7.59    3.61
  -7   2  16    1.36    2.08
  -7  -2  16   -0.80    2.61
   7   2 -16   -0.25    2.18
   7  -2 -16    4.38    2.79
   7  -2 -16    1.95    2.61
   6   2 -16    3.07    2.54
  -6   2  16   -0.36    2.55
   6  -2 -16    1.93    2.38
   6  -2 -16    2.59    2.47
  -6  -2  16    1.05    2.53
   5   2 -16    3.17    2.34
  -5   2  16    2.58    2.72
  -5  -2  16    2.85    2.37
   5  -2 -16    5.88    3.05
  -4  -2  16   19.45    5.10
  -4   2  16   15.68    4.13
   4   2 -16   16.88    3.89
   4  -2 -16   17.68    4.05
   3   2 -16   -2.49    1.72
  -3   2  16    2.99    2.49
   3  -2 -16    3.39    2.16
  -3  -2  16    3.49    2.92
  -2   2  16   13.34    3.81
   2   2 -16   12.93    3.42
   2  -2 -16   13.77    3.43
  -2  -2  16   18.42    4.99
  -1   2  16    9.44    3.61
   1  -2 -16   10.89    3.08
  -1  -2  16   11.31    4.08
   1   2 -16    6.83    2.49
   0   2  16    3.36    2.79
   0   2 -16    3.28    2.21
   0  -2 -16    6.78    2.36
   0  -2  16    4.85    3.48
  -1  -2 -16   10.28    2.85
  -1   2 -16   10.74    2.94
   1   2  16   11.86    3.89
   1  -2  16   18.49    5.14
   2   2  16    0.28    2.21
   2  -2  16    2.83    3.26
  -2  -2 -16    1.31    1.93
  -2   2 -16    1.51    1.76
  -3  -2 -16    3.88    2.00
  -3   2 -16    4.93    2.31
   3   2  16    6.18    3.18
   3  -2  16    3.65    3.52
   4   2  16   13.81    3.79
  -4  -2 -16   20.95    3.81
  -4   2 -16   14.36    3.26
   4  -2  16   30.56    6.29
   4  -2  16   28.40    5.07
   5  -2  16   -0.37    2.73
  -5   2 -16    0.36    1.65
   5   2  16    1.06    2.88
   5  -2  16    1.04    3.51
  -5  -2 -16    0.78    1.60
  -6  -2 -16   10.60    2.77
  -6   2 -16    8.69    3.06
   6   2  16    9.64    3.53
   6  -2  16   12.11    4.03
  -7   2 -16    1.60    2.04
   7   2  16    3.24    2.95
  -7  -2 -16    3.14    2.04
   7  -2  16    4.40    3.39
   7  -3 -16    0.17    2.75
  -7  -3  16    0.65    2.49
  -7   3  16    1.46    2.52
   7   3 -16    0.94    2.37
   7  -3 -16    0.30    2.46
   6   3 -16    2.42    2.40
   6  -3 -16    4.24    3.08
  -6  -3  16   10.14    3.86
   6  -3 -16    6.50    3.03
  -6   3  16    3.11    2.89
   5   3 -16    4.27    2.64
   5  -3 -16    5.43    2.75
  -5  -3  16   10.03    4.01
   5  -3 -16    9.21    3.52
  -5   3  16    6.81    3.20
  -4  -3  16    0.72    2.92
   4  -3 -16    2.21    2.36
   4   3 -16    1.73    2.12
  -4   3  16    1.12    2.39
  -3  -3  16   27.85    6.13
   3   3 -16   29.03    4.88
  -3   3  16   23.24    4.90
   3  -3 -16   25.80    4.57
   2   3 -16    1.29    1.98
  -2   3  16    0.18    1.99
  -2  -3  16    2.63    3.06
   2  -3 -16    2.67    2.23
   1  -3 -16   11.25    3.22
  -1  -3  16   12.38    4.53
  -1   3  16    9.53    3.54
   1   3 -16   10.84    3.07
   0   3  16    5.32    2.69
   0  -3 -16    5.26    2.38
   0   3 -16    6.78    2.72
   0  -3  16    8.27    4.02
  -1   3 -16   -0.42    1.54
   1   3  16    0.62    2.19
   1  -3  16    2.82    3.13
  -1  -3 -16    0.98    1.66
   2  -3  16   18.47    5.32
   2   3  16   13.12    3.75
  -2   3 -16    9.83    3.12
  -2  -3 -16   12.56    3.05
   3  -3  16    6.69    3.78
  -3  -3 -16    5.45    1.97
  -3   3 -16    4.04    2.39
   3   3  16    1.03    2.25
   4  -3  16    7.17    3.33
  -4   3 -16    2.23    2.24
  -4  -3 -16    0.79    1.74
   4  -3  16   10.84    4.45
   4   3  16    3.75    2.78
   5   3  16   11.29    3.88
  -5   3 -16   10.27    3.20
   5  -3  16   23.01    6.07
   5  -3  16   20.32    4.60
  -5  -3 -16   13.82    3.20
   6  -3  16    3.17    3.18
  -6  -3 -16    4.48    2.11
  -6   3 -16    2.18    2.19
   6   3  16    1.73    2.96
   7  -3  16    7.82    3.58
  -7  -3 -16    8.30    2.54
  -7   3 -16    6.62    2.65
   7   3  16   11.03    3.88
  -7  -4  16   21.77    5.18
   7  -4 -16    9.37    3.49
  -7   4  16    9.82    3.82
   7   4 -16   16.24    3.96
  -6   4  16    1.07    2.46
  -6  -4  16   -0.09    2.58
   6  -4 -16    0.81    2.38
   6   4 -16    1.91    1.97
  -5  -4  16   13.21    4.55
   5  -4 -16   10.44    3.35
   5   4 -16    9.19    3.21
  -5   4  16    8.67    3.39
   5  -4 -16    8.27    3.16
  -4   4  16    1.38    2.09
   4  -4 -16    1.70    2.28
   4  -4 -16    2.22    2.09
   4   4 -16    1.17    1.97
  -4  -4  16    2.10    2.57
  -3   4  16    0.44    2.07
   3  -4 -16    1.25    2.17
   3   4 -16   -0.98    1.83
  -3  -4  16   -1.98    2.40
  -2  -4  16    0.19    2.78
   2   4 -16    0.69    2.36
  -2   4  16    0.59    2.02
   2  -4 -16    1.44    1.89
  -1   4  16    8.35    3.29
   1   4 -16    7.83    2.93
   1  -4 -16    8.81    2.93
  -1  -4  16   12.24    4.28
   0   4  16    0.10    1.87
   0  -4 -16    1.03    1.93
   0  -4  16   -1.11    2.50
   0   4 -16    0.47    2.06
  -1  -4 -16   24.41    4.13
   1  -4  16   25.26    5.87
  -1   4 -16   23.04    4.41
   1   4  16   21.76    4.65
   2   4  16    1.44    1.89
  -2   4 -16    0.38    2.08
  -2  -4 -16    0.72    1.61
   2  -4  16    2.39    3.21
  -3   4 -16   10.52    3.19
   3  -4  16   31.53    6.83
  -3  -4 -16   16.77    3.43
  -4  -4 -16    3.23    1.93
   4  -4  16    1.70    3.15
   4  -4  16    3.29    3.44
  -4   4 -16    1.11    1.61
   4   4  16   -0.29    2.58
  -5  -4 -16    1.40    1.60
   5  -4  16    3.16    3.10
   5   4  16    3.40    2.99
   5  -4  16    0.92    3.24
  -5   4 -16   -1.20    1.56
   6  -4  16    3.27    3.19
  -6  -4 -16    2.44    1.77
   6  -4  16    3.31    3.81
  -6   4 -16    1.58    1.99
   6   4  16    1.12    3.01
  -7  -5  16   -1.23    2.60
   7   5 -16   -0.44    1.70
  -7   5  16    3.32    3.04
   7  -5 -16    1.58    2.42
  -6  -5  16   -0.10    2.82
   6  -5 -16   -0.07    2.29
  -6   5  16   -0.08    2.48
   6   5 -16    0.38    2.27
  -5  -5  16   13.54    4.62
   5   5 -16   10.30    3.49
  -5   5  16    8.64    3.50
   5  -5 -16   10.38    3.19
   4   5 -16    1.84    2.67
   4  -5 -16    1.31    2.28
  -4  -5  16   -1.80    2.94
  -4   5  16    0.55    2.12
   3   5 -16   15.82    4.12
   3  -5 -16   19.42    3.90
  -3  -5  16   25.45    5.82
  -3   5  16   16.22    4.31
  -2  -5  16    0.83    3.14
  -2   5  16    2.28    2.41
   2   5 -16    0.92    2.26
   2  -5 -16    0.17    1.91
   1   5 -16    9.10    3.11
  -1   5  16    7.34    3.07
   1  -5 -16    9.77    3.01
  -1  -5  16   11.90    4.47
   0  -5  16    4.35    3.51
   0   5 -16    0.68    1.61
   0   5  16    0.63    2.06
   0  -5 -16    1.10    1.70
   1   5  16    2.38    2.19
   1  -5  16    2.13    3.18
  -1  -5 -16    1.94    2.01
  -1   5 -16    0.72    1.67
   2   5  16   -1.50    1.95
   2  -5  16   -4.14    2.43
  -2   5 -16    1.65    2.25
  -2  -5 -16    1.91    1.91
  -3  -5 -16   18.38    3.47
  -3   5 -16    8.52    3.00
   3  -5  16   22.24    5.76
  -4   5 -16    2.79    2.32
  -4  -5 -16    1.20    2.07
   4  -5  16    3.09    3.59
   4   5  16    2.74    2.89
   4  -5  16   -0.09    2.48
   5  -5  16   34.91    6.02
   5   5  16   19.96    4.44
  -5  -5 -16   18.51    3.63
   5  -5  16   35.85    7.32
  -5   5 -16   18.07    3.83
   6  -5  16    1.46    3.80
   6  -5  16    2.72    3.20
  -6   5 -16    1.12    2.14
  -6  -5 -16    2.87    1.82
   6   5  16    0.37    2.92
  -6   6  16    2.29    2.23
  -6  -6  16    2.47    3.26
   6  -6 -16    0.14    2.53
   6   6 -16   -0.18    2.58
   5  -6 -16    8.75    3.16
  -5   6  16    7.22    3.05
  -5  -6  16   10.62    4.27
   5   6 -16    9.68    3.45
  -4   6  16   -1.35    2.23
   4   6 -16    1.83    2.35
   4  -6 -16    3.28    2.50
  -4  -6  16    2.23    3.37
   3  -6 -16    2.60    2.50
  -3  -6  16    3.82    2.85
   3   6 -16    0.72    2.14
  -3   6  16    1.86    2.37
  -2   6  16    2.02    2.35
   2   6 -16    2.18    2.27
   2  -6 -16    0.17    2.14
  -2  -6  16   -0.64    3.49
   1   6 -16    8.72    3.30
  -1  -6  16   15.20    4.99
  -1   6  16    9.49    3.30
   0   6 -16    2.42    2.37
   0   6  16    1.81    2.31
   0  -6  16    3.06    3.41
  -1   6 -16   15.97    3.79
   1   6  16   16.96    4.08
   1  -6  16   31.32    6.64
  -2   6 -16   -0.80    1.93
  -2  -6 -16    3.53    1.94
   2  -6  16    1.32    3.49
  -3  -6 -16   11.09    2.77
   3  -6  16   10.98    4.39
  -3   6 -16    9.32    3.14
   4  -6  16    9.24    4.81
   4  -6  16   10.08    3.78
  -4  -6 -16    3.48    2.03
  -4   6 -16    1.26    2.15
  -5   6 -16    0.92    2.02
   5  -6  16    0.03    3.67
   5   6  16    1.31    2.93
  -5  -6 -16    1.52    1.92
   5  -6  16    3.95    3.20
  -5  -7  16    7.60    3.91
   5  -7 -16    2.91    2.72
   5   7 -16    1.86    2.86
  -5   7  16    7.10    2.77
  -4   7  16    2.07    2.46
   4  -7 -16   -1.39    2.19
  -4  -7  16    1.07    3.49
   4   7 -16   -0.29    2.29
  -3  -7  16   23.72    5.83
  -3   7  16   12.67    3.64
   3  -7 -16   13.45    3.96
   3   7 -16   19.64    4.50
  -2  -7  16   -3.04    2.98
   2  -7 -16    0.35    2.17
  -2   7  16    1.23    2.21
   2   7 -16   -0.91    2.20
  -1   7  16   15.68    4.07
  -1  -7  16   21.08    5.50
   1  -7 -16   14.43    3.94
   1   7 -16   11.79    3.51
   0   7 -16    6.58    2.95
   0   7  16    5.75    2.90
   0  -7  16    4.96    3.43
   1  -7  16    4.72    3.64
  -1   7 -16   -0.67    2.00
  -2   7 -16   12.68    3.60
   2  -7  16   10.32    4.56
   3  -7  16   15.29    5.34
  -3   7 -16    4.11    2.58
   4  -7  16    3.78    3.42
  -4   7 -16    0.97    2.42
   4  -7  16    3.66    3.77
  -4   8  16    4.10    2.83
  -4  -8  16    9.41    4.53
   4  -8 -16    4.21    2.92
   4   8 -16    5.60    2.94
   3  -8 -16    1.39    2.80
  -3   8  16    2.41    2.38
   3   8 -16   -0.50    2.50
  -3  -8  16    1.85    3.36
   2  -8 -16    3.69    2.78
   2   8 -16    7.71    3.23
  -2  -8  16    1.46    2.65
  -1  -8  16    1.50    3.13
   1   8 -16    2.06    2.64
  -1   8  16    0.07    2.05
   1  -8 -16    3.54    2.57
   0   8 -16    1.87    2.28
   0   8  16    3.55    2.46
   0  -8  16    3.53    3.47
  -1   8 -16    5.42    2.97
   1  -8  16    5.06    3.59
  -2   8 -16    0.03    2.28
   2  -8  16    4.22    3.73
  -3   8 -16    1.49    2.27
   3  -8  16    4.25    3.92
   2   9 -16   -0.69    2.40
  -2   9  16    2.12    2.30
  -2  -9  16   -1.47    3.34
   2  -9 -16    2.98    3.25
  -1   9  16   -1.06    1.95
  -1  -9  16    4.82    3.98
   1  -9 -16   -1.11    2.80
   1   9 -16    1.11    2.45
   0   9 -16   13.24    3.65
   0  -9  16   18.33    5.55
   0  -9 -16    9.66    3.52
   1  -9  16    1.75    3.03
  -1   9 -16   -0.33    2.00
  -6   0  17    1.47    2.27
   6   0 -17    0.89    2.43
   5   0 -17   22.48    4.64
  -5   0  17   20.04    5.09
  -4   0  17    0.65    2.28
   4   0 -17    0.85    2.05
  -3   0  17   16.92    4.68
   3   0 -17   16.02    3.89
   2   0 -17   -0.63    2.00
  -2   0  17    0.65    2.45
   1   0 -17    2.50    2.27
  -1   0  17    1.23    2.86
   0   0 -17    0.16    1.80
   0   0  17    0.87    2.84
   1   0  17   11.31    4.28
  -1   0 -17    6.46    2.65
   2   0  17    3.75    3.27
  -2   0 -17   -1.00    1.61
   3   0  17   23.24    5.45
  -3   0 -17   21.63    4.07
  -4   0 -17    0.32    1.84
   4   0  17   -0.55    2.62
  -5   0 -17   16.73    3.67
   5   0  17   28.47    5.27
  -6   0 -17    0.90    1.78
   6   0  17    8.15    3.69
   6  -1 -17    1.77    2.45
  -6  -1  17    0.62    2.49
  -6   1  17    1.95    2.71
   6   1 -17    3.21    2.41
  -5  -1  17   -0.38    2.45
   5   1 -17    1.56    2.23
  -5   1  17    1.53    2.72
   5  -1 -17    1.18    2.61
  -4   1  17    2.45    2.73
   4   1 -17    6.16    2.92
  -4  -1  17    1.70    2.94
   4  -1 -17    1.70    2.76
  -3   1  17    1.40    2.94
  -3  -1  17    3.68    2.95
   3   1 -17    8.30    3.23
   3  -1 -17    4.61    3.01
  -2  -1  17    1.57    2.80
  -2   1  17    2.53    2.67
   2  -1 -17    0.83    2.41
   2   1 -17    0.27    1.97
  -1  -1  17   18.66    5.13
   1  -1 -17   14.15    3.61
  -1   1  17   14.74    4.52
   1   1 -17   13.30    3.40
   0  -1 -17    1.07    1.97
   0   1 -17    1.26    2.15
   0  -1  17    1.98    3.02
   0   1  17    3.27    3.05
   1  -1  17   11.87    4.51
  -1  -1 -17   14.22    3.52
   1   1  17    8.99    3.78
  -1   1 -17   11.79    3.01
  -2   1 -17    0.08    1.91
   2  -1  17    2.02    3.04
   2   1  17    2.63    3.11
  -2  -1 -17    0.17    1.92
  -3  -1 -17    3.32    2.23
  -3   1 -17    2.19    2.04
   3   1  17    3.00    2.84
   3  -1  17    3.70    3.36
   4  -1  17    7.47    4.27
  -4  -1 -17    2.35    1.99
  -4   1 -17    2.26    1.68
   5  -1  17    7.13    3.61
   5   1  17    4.26    3.35
  -5   1 -17    3.98    2.09
  -5  -1 -17    6.25    2.36
  -6  -1 -17    2.52    1.64
   6  -1  17    3.28    3.23
  -6   1 -17    0.03    1.36
   6   1  17    5.37    3.33
   6   2 -17    0.04    2.25
   6  -2 -17    3.74    2.76
  -6  -2  17   -0.25    2.78
  -6   2  17   -0.35    2.53
  -5  -2  17    2.25    2.45
   5   2 -17   12.87    3.69
  -5   2  17    8.03    3.63
   5  -2 -17    9.18    3.45
   4   2 -17   -1.00    2.26
  -4   2  17   -1.01    2.19
   4  -2 -17    1.54    2.40
  -4  -2  17    0.84    2.92
  -3   2  17    6.80    3.37
   3   2 -17    8.49    3.11
   3  -2 -17    6.38    3.02
  -3  -2  17    8.63    3.86
  -2  -2  17    2.98    3.35
  -2   2  17   10.51    4.04
   2   2 -17    7.39    2.82
   2  -2 -17   11.47    3.39
  -1   2  17   -0.36    2.35
   1   2 -17   -0.48    1.88
   1  -2 -17    0.87    1.77
  -1  -2  17   -1.20    2.61
   0   2  17    8.28    3.44
   0  -2  17   12.92    4.76
   0  -2 -17   12.95    3.41
   0   2 -17   10.03    3.05
  -1   2 -17    3.43    2.19
   1  -2  17    1.25    3.34
   1   2  17    4.82    3.22
  -1  -2 -17    4.64    2.49
   2   2  17    3.70    2.86
   2  -2  17    5.39    3.91
  -2   2 -17    2.83    2.10
  -2  -2 -17    6.25    2.57
  -3  -2 -17   12.71    3.20
   3   2  17   19.44    5.16
  -3   2 -17   13.18    3.37
   3  -2  17   21.51    5.78
   4  -2  17    2.69    3.50
  -4  -2 -17    1.00    1.88
  -4   2 -17   -0.34    1.49
   5  -2  17    6.81    3.78
   5   2  17    6.64    3.73
  -5  -2 -17    9.81    2.79
   5  -2  17    3.92    4.25
  -5   2 -17    7.55    2.52
   6  -3 -17    9.90    3.38
  -6   3  17    3.37    3.39
  -6  -3  17    7.19    3.98
   6   3 -17    6.85    2.98
   5   3 -17    1.70    2.14
   5  -3 -17   -2.05    2.32
  -5   3  17    0.70    2.45
  -5  -3  17    1.91    2.79
  -4   3  17    7.63    3.27
   4  -3 -17    3.90    2.50
   4   3 -17    8.20    3.08
  -4  -3  17    9.63    4.08
   3  -3 -17    1.58    2.36
  -3  -3  17   -0.68    3.11
   3   3 -17    4.18    2.32
  -3   3  17    2.04    2.61
  -2  -3  17    2.22    2.94
  -2   3  17    2.95    2.95
   2   3 -17    3.84    2.58
   2  -3 -17    3.07    2.63
   1   3 -17    6.78    2.92
  -1  -3  17   12.74    4.55
   1  -3 -17   12.28    3.38
  -1   3  17   10.63    3.90
   0   3 -17   -1.13    1.80
   0  -3  17    0.53    3.32
   0  -3 -17    1.37    2.09
   0   3  17    0.50    2.45
  -1  -3 -17   11.93    3.28
   1  -3  17   13.46    5.23
  -1   3 -17   10.23    3.04
   1   3  17   14.13    4.20
   2   3  17    7.85    3.30
   2  -3  17    9.14    4.36
  -2  -3 -17    9.67    2.88
  -2   3 -17    5.67    2.65
  -3   3 -17   -1.02    2.04
  -3  -3 -17    2.12    2.06
   3  -3  17    1.55    3.73
  -4  -3 -17    8.80    2.81
  -4   3 -17   10.30    3.25
   4  -3  17   17.89    5.94
   5  -3  17    1.18    2.77
   5  -3  17    4.99    3.87
  -5  -3 -17    2.76    1.94
   5   3  17   -1.83    2.76
  -5   3 -17    0.96    2.15
  -5  -4  17    0.96    3.18
   5   4 -17    1.04    2.12
  -5   4  17    5.62    3.00
  -4   4  17    0.55    2.40
   4   4 -17    1.51    2.18
  -4  -4  17    1.04    2.28
   4  -4 -17    1.31    2.43
   3  -4 -17    0.92    1.95
  -3  -4  17    1.97    3.30
   3   4 -17   -0.66    1.77
  -3   4  17    2.12    2.51
  -2  -4  17   16.90    5.10
   2  -4 -17   11.60    3.32
   2   4 -17   11.14    3.20
  -2   4  17   11.89    3.88
   1  -4 -17    1.48    2.19
  -1  -4  17    0.66    3.21
   1   4 -17    0.96    2.25
  -1   4  17    0.86    2.38
   0   4 -17   22.16    4.62
   0  -4  17   37.43    7.35
   0  -4 -17   24.89    4.41
   0   4  17   25.50    5.30
  -1  -4 -17    2.45    2.59
  -1   4 -17    1.01    2.32
   1   4  17    2.11    2.54
   1  -4  17    3.11    3.16
   2   4  17    6.60    2.85
   2  -4  17   13.44    5.08
  -2  -4 -17    9.33    2.98
  -2   4 -17    5.87    2.82
   3  -4  17    7.67    4.22
  -3   4 -17    2.62    2.32
  -3  -4 -17    2.26    1.99
  -4   4 -17    0.38    2.27
   4  -4  17    6.11    3.96
  -4  -4 -17    0.94    1.77
   5  -4  17    1.93    3.28
  -5   4 -17    1.50    1.85
   5  -4  17    2.15    3.25
  -5  -4 -17    2.56    2.15
  -5  -5  17   -0.33    2.99
   5   5 -17   -0.39    2.58
  -5   5  17   -0.39    2.36
   5  -5 -17    0.15    2.42
   4   5 -17    7.46    3.54
  -4   5  17    8.51    3.43
  -4  -5  17    8.92    4.25
   3   5 -17   -1.32    2.20
  -3  -5  17   -2.43    2.79
  -3   5  17    0.70    2.50
   2   5 -17    6.67    3.06
  -2  -5  17   10.04    4.83
  -2   5  17   13.90    4.04
  -1   5  17   -0.61    2.06
   1   5 -17   -0.11    2.30
  -1  -5  17    0.77    3.21
   0   5  17   -0.43    2.08
   0  -5  17    2.20    3.29
   0  -5 -17    0.11    1.92
   0   5 -17    2.21    2.63
  -1  -5 -17    1.79    2.02
   1   5  17    3.62    2.63
  -1   5 -17   -0.13    1.67
   1  -5  17   -0.30    3.01
  -2  -5 -17   18.64    3.76
   2  -5  17   22.54    6.11
   3  -5  17    4.98    4.26
  -3   5 -17    0.16    2.25
  -3  -5 -17    0.44    1.67
  -4  -5 -17   14.10    3.16
   4  -5  17   21.97    5.95
  -4   5 -17   12.44    3.61
  -4  -6  17   -2.11    3.20
   4   6 -17   -1.19    2.62
   4  -6 -17    2.17    2.87
  -4   6  17    1.17    2.39
   3   6 -17    0.85    2.23
  -3   6  17    3.07    2.68
  -3  -6  17    1.39    2.99
  -2  -6  17   19.44    5.93
   2   6 -17    0.62    1.93
  -2   6  17    9.68    3.62
   1   6 -17   -0.09    2.27
  -1  -6  17    0.35    2.73
  -1   6  17    6.00    3.14
   0   6 -17   14.11    3.94
   0  -6  17   25.12    6.05
   0   6  17   16.46    4.18
  -1   6 -17   -0.78    2.36
   1   6  17    0.50    2.34
   1  -6  17    5.28    4.08
  -2   6 -17    1.95    2.39
   2  -6  17    4.95    4.11
  -3   6 -17    0.78    2.46
   3  -6  17    5.39    4.06
  -3  -7  17    3.68    3.64
   3   7 -17    2.62    2.70
  -3   7  17   -0.29    2.27
   3  -7 -17    2.15    2.59
  -2   7  17    6.29    3.12
  -2  -7  17    0.45    3.61
   2   7 -17    2.60    2.82
  -1   7  17    4.26    2.98
   1   7 -17    5.57    2.93
  -1  -7  17    4.51    4.12
   0  -7  17   -0.51    2.82
   0   7 -17    0.22    2.25
   0   7  17    0.73    2.31
  -1   7 -17   -0.01    2.56
   1  -7  17    6.40    3.93
  -2   7 -17    3.16    2.78
   2  -7  17    7.79    3.81
   4   0 -18   10.24    3.86
  -4   0  18    6.43    3.50
  -3   0  18    0.14    2.66
   3   0 -18    1.71    2.24
  -2   0  18    0.18    2.70
   2   0 -18   -1.46    1.81
   1   0 -18    0.96    2.21
  -1   0  18    2.54    3.17
   0   0 -18    9.56    3.11
   0   0  18    9.26    3.98
   1   0  18    1.05    3.02
  -1   0 -18    1.35    2.29
   2   0  18   22.92    5.69
  -2   0 -18   18.18    3.95
  -3   0 -18    1.65    2.22
   3   0  18   -1.37    3.09
  -4   0 -18    6.49    2.46
  -4  -1  18    8.14    4.03
   4  -1 -18    5.53    3.25
  -4   1  18    7.75    3.33
   4   1 -18    5.11    2.93
  -3   1  18   -0.67    2.47
   3   1 -18    1.01    1.93
  -3  -1  18    0.81    2.91
   3  -1 -18   -1.49    2.06
  -2  -1  18   12.67    4.62
  -2   1  18   13.93    4.37
   2   1 -18   12.18    3.53
   2  -1 -18   10.93    3.41
  -1  -1  18    3.79    3.47
   1  -1 -18    0.14    2.22
   1   1 -18    2.74    2.33
  -1   1  18    0.97    2.74
   0  -1 -18    4.92    2.61
   0  -1  18   11.74    4.86
   0   1 -18    4.66    2.46
   0   1  18   10.04    4.45
   1   1  18    6.69    3.50
   1  -1  18    3.16    3.39
  -1  -1 -18    0.76    2.10
  -1   1 -18    1.64    1.98
   2  -1  18   -0.28    3.00
  -2   1 -18    0.08    1.97
   2   1  18   -0.94    2.81
  -2  -1 -18    5.79    2.81
  -3   1 -18    2.47    2.08
  -3  -1 -18    2.63    2.29
   3  -1  18    3.50    3.63
   3   1  18    2.59    3.70
   4  -1  18    8.00    4.11
  -4   1 -18    8.94    2.71
  -4  -1 -18    5.20    2.22
   4   2 -18    7.06    2.94
   4  -2 -18    2.03    2.48
  -4   2  18    5.77    3.19
  -4  -2  18    6.17    4.25
   3   2 -18    5.43    2.67
  -3  -2  18    6.57    3.85
   3  -2 -18    2.69    2.71
  -3   2  18    2.93    2.70
   2   2 -18   -0.13    2.04
  -2  -2  18   -1.99    2.81
   2  -2 -18    7.19    2.92
  -2   2  18   -1.08    2.52
   1  -2 -18    3.43    2.46
  -1  -2  18    5.12    4.14
   1   2 -18   -0.53    2.13
  -1   2  18    1.12    2.73
   0   2  18    5.39    3.10
   0  -2  18   11.01    4.90
   0  -2 -18   13.63    3.59
   0   2 -18    5.32    2.61
   1  -2  18    1.65    3.18
  -1   2 -18   -0.68    1.61
  -1  -2 -18    1.91    2.19
   1   2  18    1.55    3.05
  -2   2 -18   14.13    3.49
  -2  -2 -18   12.14    3.33
   2  -2  18   12.57    4.89
   2   2  18    6.89    3.51
   3  -2  18    2.46    3.92
  -3   2 -18   -0.25    1.71
  -3  -2 -18    2.48    2.20
  -4   3  18    2.18    2.40
   4  -3 -18   -3.05    2.25
   4   3 -18    1.90    2.23
  -4  -3  18    1.37    3.40
  -3  -3  18    2.65    3.43
  -3   3  18    0.81    2.84
   3  -3 -18    0.57    2.25
   3   3 -18    1.18    2.18
   2   3 -18    3.43    2.34
  -2   3  18    1.29    2.64
  -2  -3  18   11.14    4.55
   2  -3 -18    9.69    3.24
   1  -3 -18    3.78    2.48
   1   3 -18    2.08    2.31
  -1   3  18    0.63    2.57
  -1  -3  18    5.71    3.95
   0   3  18    4.57    3.00
   0   3 -18    4.80    2.45
   0  -3  18    6.34    3.88
   0  -3 -18    2.22    2.10
  -1   3 -18    5.72    2.59
   1  -3  18   10.21    4.68
   1   3  18    8.91    3.87
  -1  -3 -18    7.82    3.05
   2   3  18    1.07    3.03
  -2  -3 -18    1.77    2.20
  -2   3 -18    0.55    1.95
   2  -3  18    4.58    3.85
  -3  -3 -18    1.45    2.06
  -3   3 -18    4.18    2.63
   3  -3  18    9.08    5.10
  -3  -4  18   11.22    5.11
   3   4 -18   11.09    3.49
   3  -4 -18    9.84    3.23
  -3   4  18    7.09    3.39
  -2   4  18    3.15    2.74
  -2  -4  18    5.03    3.67
   2  -4 -18    0.67    2.45
   2   4 -18    0.41    1.85
   1   4 -18   13.47    3.56
  -1  -4  18   16.04    5.28
   1  -4 -18   15.75    3.74
  -1   4  18   11.67    4.08
   0  -4  18    5.79    3.96
   0   4  18    2.33    2.63
   0   4 -18    5.18    3.25
   0  -4 -18    5.83    2.57
   1  -4  18    2.93    4.01
  -1   4 -18   -0.19    2.63
  -1  -4 -18    2.56    2.13
   1   4  18    4.45    3.21
   2  -4  18    4.26    3.77
  -2   4 -18    2.86    2.68
  -2  -4 -18    4.67    2.47
  -1   5  18    3.08    2.97
   1   5 -18    1.66    2.65
  -1  -5  18    4.88    3.90
   0  -5  18    2.94    3.28
   0   5  18   -2.99    2.16
   0   5 -18   -0.16    2.41
   1  -5  18   22.95    6.00
  -1  -5 -18   13.80    3.39
   1   5  18   13.81    4.00
  -1   5 -18   14.69    3.85
   0   0   0    0.00    0.00
;
_shelx_hkl_checksum              61931
loop_
_space_group_symop_operation_xyz
'x, y, z'
'-x+1/2, y+1/2, -z+1/2'
'-x, -y, -z'
'x-1/2, -y-1/2, z-1/2'
loop_
_atom_site_label
_atom_site_type_symbol
_atom_site_fract_x
_atom_site_fract_y
_atom_site_fract_z
_atom_site_U_iso_or_equiv
_atom_site_adp_type
_atom_site_occupancy
_atom_site_site_symmetry_order
_atom_site_calc_flag
_atom_site_refinement_flags_posn
_atom_site_refinement_flags_adp
Bi1 Bi 0.56135(2) 0.69977(2) 0.10469(2) 0.04003(9) Uani 1 1 d . .
C14 C 0.4752(5) 0.8095(4) 0.1848(4) 0.0435(14) Uani 1 1 d . .
C9 C 0.3844(5) 0.8545(4) 0.1443(4) 0.0449(14) Uani 1 1 d . .
C10 C 0.3351(5) 0.9299(4) 0.1862(4) 0.0584(17) Uani 1 1 d . .
H10 H 0.2739 0.9602 0.1601 0.070 Uiso 1 1 calc R U
C11 C 0.3769(6) 0.9602(5) 0.2670(5) 0.075(2) Uani 1 1 d . .
H11 H 0.3441 1.0119 0.2946 0.089 Uiso 1 1 calc R U
C12 C 0.4640(6) 0.9166(5) 0.3071(4) 0.071(2) Uani 1 1 d . .
H12 H 0.4895 0.9375 0.3624 0.086 Uiso 1 1 calc R U
C13 C 0.5158(5) 0.8410(4) 0.2666(4) 0.0597(17) Uani 1 1 d . .
H13 H 0.5769 0.8117 0.2937 0.072 Uiso 1 1 calc R U
C8 C 0.3385(4) 0.8143(4) 0.0571(4) 0.0493(15) Uani 1 1 d . .
H8A H 0.2881 0.7622 0.0690 0.059 Uiso 1 1 calc R U
H8B H 0.2972 0.8635 0.0254 0.059 Uiso 1 1 calc R U
C7 C 0.3904(5) 0.7022(4) -0.0584(4) 0.0526(15) Uani 1 1 d . .
H7A H 0.4450 0.6888 -0.1026 0.063 Uiso 1 1 calc R U
H7B H 0.3225 0.7225 -0.0887 0.063 Uiso 1 1 calc R U
C6 C 0.3688(4) 0.6138(4) -0.0060(4) 0.0445(14) Uani 1 1 d . .
C1 C 0.4268(4) 0.5946(4) 0.0725(3) 0.0399(12) Uani 1 1 d . .
C2 C 0.4069(5) 0.5119(4) 0.1168(4) 0.0521(15) Uani 1 1 d . .
H2 H 0.4474 0.4993 0.1687 0.062 Uiso 1 1 calc R U
C3 C 0.3298(5) 0.4467(4) 0.0879(5) 0.0619(18) Uani 1 1 d . .
H3 H 0.3169 0.3914 0.1200 0.074 Uiso 1 1 calc R U
C4 C 0.2721(5) 0.4647(5) 0.0107(5) 0.0625(18) Uani 1 1 d . .
H4 H 0.2207 0.4204 -0.0107 0.075 Uiso 1 1 calc R U
C5 C 0.2893(5) 0.5476(4) -0.0357(4) 0.0561(16) Uani 1 1 d . .
H5 H 0.2478 0.5598 -0.0872 0.067 Uiso 1 1 calc R U
C15 C 0.4749(5) 0.8627(4) -0.0476(4) 0.0522(15) Uani 1 1 d . .
H15A H 0.4814 0.9162 -0.0070 0.063 Uiso 1 1 calc R U
H15B H 0.4221 0.8802 -0.0943 0.063 Uiso 1 1 calc R U
C16 C 0.5858(5) 0.8451(4) -0.0875(4) 0.0429(14) Uani 1 1 d . .
C21 C 0.6815(6) 0.8635(5) -0.0383(4) 0.073(2) Uani 1 1 d . .
H21 H 0.6768 0.8862 0.0193 0.087 Uiso 1 1 calc R U
C20 C 0.7844(6) 0.8484(6) -0.0739(7) 0.101(3) Uani 1 1 d . .
H20 H 0.8484 0.8602 -0.0399 0.121 Uiso 1 1 calc R U
C19 C 0.7924(8) 0.8163(6) -0.1590(8) 0.106(4) Uani 1 1 d . .
H19 H 0.8614 0.8069 -0.1834 0.127 Uiso 1 1 calc R U
C18 C 0.6974(8) 0.7982(5) -0.2079(6) 0.088(3) Uani 1 1 d . .
H18 H 0.7015 0.7756 -0.2655 0.105 Uiso 1 1 calc R U
C17 C 0.5975(6) 0.8134(4) -0.1718(4) 0.0606(17) Uani 1 1 d . .
H17 H 0.5339 0.8017 -0.2062 0.073 Uiso 1 1 calc R U
C22 C 0.6243(4) 0.4706(4) 0.3303(4) 0.0432(14) Uani 1 1 d . .
C23 C 0.6785(4) 0.3910(4) 0.3017(4) 0.0498(14) Uani 1 1 d . .
H23 H 0.7416 0.3966 0.2681 0.060 Uiso 1 1 calc R U
C24 C 0.6370(6) 0.3006(5) 0.3240(5) 0.0636(18) Uani 1 1 d . .
H24 H 0.6717 0.2468 0.3018 0.076 Uiso 1 1 calc R U
C25 C 0.5525(6) 0.2889(4) 0.3741(4) 0.0583(17) Uani 1 1 d . .
C26 C 0.4948(6) 0.3698(5) 0.4026(4) 0.072(2) Uani 1 1 d . .
H26 H 0.4320 0.3629 0.4362 0.086 Uiso 1 1 calc R U
C27 C 0.5322(5) 0.4602(5) 0.3803(4) 0.0646(18) Uani 1 1 d . .
H27 H 0.4944 0.5139 0.3993 0.078 Uiso 1 1 calc R U
C28 C 0.5174(7) 0.1912(6) 0.3990(6) 0.094(3) Uani 1 1 d . .
H28 H 0.5469 0.1426 0.3650 0.113 Uiso 1 1 calc R U
C29 C 0.4576(7) 0.1649(7) 0.4556(7) 0.116(3) Uani 1 1 d . .
H29A H 0.4248 0.2091 0.4926 0.139 Uiso 1 1 calc R U
H29B H 0.4437 0.1001 0.4628 0.139 Uiso 1 1 calc R U
N1 N 0.4312(3) 0.7788(3) 0.0009(3) 0.0425(11) Uani 1 1 d . .
O1 O 0.5797(3) 0.6209(3) 0.2431(3) 0.0693(13) Uani 1 1 d . .
O2 O 0.7712(4) 0.5758(4) 0.2558(4) 0.1084(19) Uani 1 1 d . .
O3 O 0.6766(5) 0.6394(3) 0.3808(3) 0.1017(18) Uani 1 1 d . .
S1 S 0.66998(14) 0.58554(11) 0.30103(11) 0.0581(4) Uani 1 1 d . .
loop_
_atom_site_aniso_label
_atom_site_aniso_U_11
_atom_site_aniso_U_22
_atom_site_aniso_U_33
_atom_site_aniso_U_23
_atom_site_aniso_U_13
_atom_site_aniso_U_12
Bi1 0.03669(13) 0.03868(13) 0.04455(15) 0.00216(11) -0.00205(9) 0.00075(10)
C14 0.049(3) 0.037(3) 0.045(4) 0.001(3) 0.011(3) 0.001(3)
C9 0.052(4) 0.037(3) 0.046(4) 0.010(3) 0.015(3) 0.002(3)
C10 0.068(4) 0.050(4) 0.059(4) 0.014(3) 0.023(4) 0.008(3)
C11 0.105(6) 0.047(4) 0.073(6) -0.003(4) 0.028(5) 0.012(4)
C12 0.109(6) 0.057(5) 0.050(4) -0.013(4) 0.016(4) -0.008(4)
C13 0.076(4) 0.051(4) 0.052(4) 0.001(3) -0.002(4) -0.009(3)
C8 0.045(3) 0.046(4) 0.057(4) 0.010(3) 0.010(3) 0.016(3)
C7 0.054(4) 0.059(4) 0.045(4) -0.001(3) -0.003(3) 0.001(3)
C6 0.040(3) 0.051(4) 0.043(4) -0.007(3) 0.006(3) -0.001(3)
C1 0.039(3) 0.041(3) 0.040(3) -0.001(3) -0.001(3) -0.005(3)
C2 0.052(4) 0.046(4) 0.057(4) -0.002(3) 0.002(3) -0.004(3)
C3 0.060(4) 0.050(4) 0.077(5) 0.000(3) 0.018(4) -0.010(3)
C4 0.046(4) 0.059(4) 0.083(5) -0.024(4) 0.015(4) -0.012(3)
C5 0.047(4) 0.069(4) 0.053(4) -0.014(3) 0.002(3) 0.000(3)
C15 0.072(4) 0.049(4) 0.036(3) 0.009(3) 0.004(3) 0.006(3)
C16 0.052(3) 0.042(3) 0.034(3) 0.011(3) -0.008(3) -0.006(3)
C21 0.089(5) 0.084(5) 0.044(4) 0.027(4) -0.013(4) -0.036(4)
C20 0.046(5) 0.121(7) 0.135(8) 0.084(7) -0.015(5) -0.019(4)
C19 0.073(6) 0.095(7) 0.151(10) 0.057(7) 0.047(7) 0.031(5)
C18 0.109(7) 0.064(5) 0.093(7) 0.003(4) 0.052(6) 0.001(5)
C17 0.072(4) 0.064(4) 0.046(4) 0.001(3) 0.001(3) -0.011(3)
C22 0.045(3) 0.041(3) 0.042(4) 0.004(3) -0.012(3) 0.004(3)
C23 0.042(3) 0.065(4) 0.042(4) 0.005(3) -0.002(3) 0.003(3)
C24 0.064(4) 0.053(4) 0.074(5) 0.001(4) -0.006(4) 0.017(4)
C25 0.071(4) 0.042(4) 0.060(4) 0.011(3) -0.026(4) -0.005(3)
C26 0.062(4) 0.081(5) 0.072(5) 0.025(4) 0.002(4) -0.013(4)
C27 0.065(4) 0.055(4) 0.074(5) 0.008(4) 0.006(4) 0.014(3)
C28 0.101(7) 0.083(6) 0.096(7) 0.021(5) -0.037(5) -0.025(5)
C29 0.101(7) 0.118(8) 0.126(9) 0.051(7) -0.028(6) -0.035(6)
N1 0.044(3) 0.044(3) 0.040(3) 0.008(2) 0.005(2) 0.000(2)
O1 0.079(3) 0.060(3) 0.067(3) 0.025(2) -0.030(2) -0.006(2)
O2 0.068(3) 0.106(4) 0.152(5) 0.051(4) 0.020(3) -0.015(3)
O3 0.166(5) 0.068(3) 0.069(3) -0.008(3) -0.040(3) -0.036(3)
S1 0.0645(10) 0.0529(10) 0.0558(11) 0.0129(8) -0.0167(9) -0.0111(8)
loop_
_atom_type_symbol
_atom_type_description
_atom_type_scat_dispersion_real
_atom_type_scat_dispersion_imag
_atom_type_scat_source
C C 0.0033 0.0016 'International Tables Vol C Tables 4.2.6.8 and 6.1.1.4'
H H 0.0000 0.0000 'International Tables Vol C Tables 4.2.6.8 and 6.1.1.4'
N N 0.0061 0.0033 'International Tables Vol C Tables 4.2.6.8 and 6.1.1.4'
O O 0.0106 0.0060 'International Tables Vol C Tables 4.2.6.8 and 6.1.1.4'
S S 0.1246 0.1234 'International Tables Vol C Tables 4.2.6.8 and 6.1.1.4'
Bi Bi -4.1077 10.2566 'International Tables Vol C Tables 4.2.6.8 and 6.1.1.4'
loop_
_geom_angle_atom_site_label_1
_geom_angle_atom_site_label_2
_geom_angle_atom_site_label_3
_geom_angle
C14 Bi1 C1 103.06(19)
C14 Bi1 O1 82.89(18)
C1 Bi1 O1 86.24(17)
C14 Bi1 N1 74.71(18)
C1 Bi1 N1 73.13(17)
O1 Bi1 N1 144.79(14)
C13 C14 C9 120.1(5)
C13 C14 Bi1 123.0(4)
C9 C14 Bi1 116.5(4)
C10 C9 C14 119.4(6)
C10 C9 C8 122.0(5)
C14 C9 C8 118.4(5)
C9 C10 C11 119.5(6)
C9 C10 H10 120.2
C11 C10 H10 120.2
C12 C11 C10 121.5(6)
C12 C11 H11 119.3
C10 C11 H11 119.3
C11 C12 C13 120.4(7)
C11 C12 H12 119.8
C13 C12 H12 119.8
C12 C13 C14 119.1(6)
C12 C13 H13 120.5
C14 C13 H13 120.5
N1 C8 C9 110.6(4)
N1 C8 H8A 109.5
C9 C8 H8A 109.5
N1 C8 H8B 109.5
C9 C8 H8B 109.5
H8A C8 H8B 108.1
N1 C7 C6 110.0(5)
N1 C7 H7A 109.7
C6 C7 H7A 109.7
N1 C7 H7B 109.7
C6 C7 H7B 109.7
H7A C7 H7B 108.2
C1 C6 C5 118.1(5)
C1 C6 C7 121.5(5)
C5 C6 C7 120.4(5)
C2 C1 C6 119.6(5)
C2 C1 Bi1 126.1(4)
C6 C1 Bi1 113.8(4)
C1 C2 C3 122.6(6)
C1 C2 H2 118.7
C3 C2 H2 118.7
C4 C3 C2 118.4(6)
C4 C3 H3 120.8
C2 C3 H3 120.8
C3 C4 C5 120.7(6)
C3 C4 H4 119.6
C5 C4 H4 119.6
C4 C5 C6 120.5(6)
C4 C5 H5 119.7
C6 C5 H5 119.7
N1 C15 C16 113.5(4)
N1 C15 H15A 108.9
C16 C15 H15A 108.9
N1 C15 H15B 108.9
C16 C15 H15B 108.9
H15A C15 H15B 107.7
C17 C16 C21 117.3(6)
C17 C16 C15 123.1(5)
C21 C16 C15 119.6(6)
C16 C21 C20 120.5(7)
C16 C21 H21 119.7
C20 C21 H21 119.7
C19 C20 C21 120.2(8)
C19 C20 H20 119.9
C21 C20 H20 119.9
C20 C19 C18 119.2(8)
C20 C19 H19 120.4
C18 C19 H19 120.4
C17 C18 C19 119.7(8)
C17 C18 H18 120.2
C19 C18 H18 120.2
C18 C17 C16 123.1(7)
C18 C17 H17 118.5
C16 C17 H17 118.5
C27 C22 C23 119.3(5)
C27 C22 S1 120.0(5)
C23 C22 S1 120.6(5)
C22 C23 C24 118.8(6)
C22 C23 H23 120.6
C24 C23 H23 120.6
C25 C24 C23 123.0(6)
C25 C24 H24 118.5
C23 C24 H24 118.5
C24 C25 C26 118.7(6)
C24 C25 C28 120.0(7)
C26 C25 C28 121.3(7)
C27 C26 C25 119.7(6)
C27 C26 H26 120.2
C25 C26 H26 120.2
C22 C27 C26 120.3(6)
C22 C27 H27 119.8
C26 C27 H27 119.8
C29 C28 C25 130.5(10)
C29 C28 H28 114.7
C25 C28 H28 114.7
C28 C29 H29A 120.0
C28 C29 H29B 120.0
H29A C29 H29B 120.0
C7 N1 C15 113.2(4)
C7 N1 C8 110.0(4)
C15 N1 C8 107.1(4)
C7 N1 Bi1 104.9(3)
C15 N1 Bi1 116.2(3)
C8 N1 Bi1 105.1(3)
S1 O1 Bi1 137.3(3)
O2 S1 O3 115.4(4)
O2 S1 O1 112.3(3)
O3 S1 O1 110.5(3)
O2 S1 C22 108.2(3)
O3 S1 C22 106.4(3)
O1 S1 C22 103.1(2)
loop_
_geom_bond_atom_site_label_1
_geom_bond_atom_site_label_2
_geom_bond_distance
Bi1 C14 2.232(5)
Bi1 C1 2.237(5)
Bi1 O1 2.371(4)
Bi1 N1 2.454(4)
C14 C13 1.389(8)
C14 C9 1.391(7)
C9 C10 1.375(7)
C9 C8 1.523(8)
C10 C11 1.376(9)
C10 H10 0.9300
C11 C12 1.346(9)
C11 H11 0.9300
C12 C13 1.381(8)
C12 H12 0.9300
C13 H13 0.9300
C8 N1 1.508(6)
C8 H8A 0.9700
C8 H8B 0.9700
C7 N1 1.474(6)
C7 C6 1.496(7)
C7 H7A 0.9700
C7 H7B 0.9700
C6 C1 1.387(7)
C6 C5 1.400(7)
C1 C2 1.363(7)
C2 C3 1.367(8)
C2 H2 0.9300
C3 C4 1.365(8)
C3 H3 0.9300
C4 C5 1.377(8)
C4 H4 0.9300
C5 H5 0.9300
C15 N1 1.490(6)
C15 C16 1.503(7)
C15 H15A 0.9700
C15 H15B 0.9700
C16 C17 1.360(8)
C16 C21 1.381(8)
C21 C20 1.383(10)
C21 H21 0.9300
C20 C19 1.370(12)
C20 H20 0.9300
C19 C18 1.370(12)
C19 H19 0.9300
C18 C17 1.353(9)
C18 H18 0.9300
C17 H17 0.9300
C22 C27 1.368(8)
C22 C23 1.369(7)
C22 S1 1.763(5)
C23 C24 1.407(8)
C23 H23 0.9300
C24 C25 1.297(9)
C24 H24 0.9300
C25 C26 1.404(9)
C25 C28 1.484(9)
C26 C27 1.390(8)
C26 H26 0.9300
C27 H27 0.9300
C28 C29 1.193(10)
C28 H28 0.9300
C29 H29A 0.9300
C29 H29B 0.9300
O1 S1 1.465(4)
O2 S1 1.422(5)
O3 S1 1.423(5)
loop_
_geom_torsion_atom_site_label_1
_geom_torsion_atom_site_label_2
_geom_torsion_atom_site_label_3
_geom_torsion_atom_site_label_4
_geom_torsion
C13 C14 C9 C10 -0.3(8)
Bi1 C14 C9 C10 -173.0(4)
C13 C14 C9 C8 -176.6(5)
Bi1 C14 C9 C8 10.7(6)
C14 C9 C10 C11 0.6(8)
C8 C9 C10 C11 176.7(5)
C9 C10 C11 C12 -1.2(10)
C10 C11 C12 C13 1.6(11)
C11 C12 C13 C14 -1.3(10)
C9 C14 C13 C12 0.6(9)
Bi1 C14 C13 C12 172.8(4)
C10 C9 C8 N1 146.7(5)
C14 C9 C8 N1 -37.1(6)
N1 C7 C6 C1 -27.8(7)
N1 C7 C6 C5 152.5(5)
C5 C6 C1 C2 1.6(8)
C7 C6 C1 C2 -178.1(5)
C5 C6 C1 Bi1 174.7(4)
C7 C6 C1 Bi1 -5.0(6)
C6 C1 C2 C3 -1.3(9)
Bi1 C1 C2 C3 -173.4(4)
C1 C2 C3 C4 1.2(9)
C2 C3 C4 C5 -1.6(9)
C3 C4 C5 C6 2.0(9)
C1 C6 C5 C4 -1.9(8)
C7 C6 C5 C4 177.7(5)
N1 C15 C16 C17 92.4(6)
N1 C15 C16 C21 -89.2(6)
C17 C16 C21 C20 -1.0(9)
C15 C16 C21 C20 -179.5(6)
C16 C21 C20 C19 0.9(11)
C21 C20 C19 C18 -0.8(12)
C20 C19 C18 C17 0.8(12)
C19 C18 C17 C16 -1.0(11)
C21 C16 C17 C18 1.1(9)
C15 C16 C17 C18 179.5(6)
C27 C22 C23 C24 0.5(8)
S1 C22 C23 C24 -177.8(4)
C22 C23 C24 C25 -3.4(9)
C23 C24 C25 C26 4.5(10)
C23 C24 C25 C28 -176.5(6)
C24 C25 C26 C27 -3.0(10)
C28 C25 C26 C27 178.0(6)
C23 C22 C27 C26 0.8(9)
S1 C22 C27 C26 179.1(5)
C25 C26 C27 C22 0.4(10)
C24 C25 C28 C29 164.4(9)
C26 C25 C28 C29 -16.6(13)
C6 C7 N1 C15 169.0(4)
C6 C7 N1 C8 -71.2(5)
C6 C7 N1 Bi1 41.3(5)
C16 C15 N1 C7 -73.9(6)
C16 C15 N1 C8 164.7(5)
C16 C15 N1 Bi1 47.6(6)
C9 C8 N1 C7 152.8(4)
C9 C8 N1 C15 -83.8(5)
C9 C8 N1 Bi1 40.3(4)
Bi1 O1 S1 O2 -17.8(5)
Bi1 O1 S1 O3 112.7(4)
Bi1 O1 S1 C22 -134.0(4)
C27 C22 S1 O2 175.4(5)
C23 C22 S1 O2 -6.3(5)
C27 C22 S1 O3 50.8(5)
C23 C22 S1 O3 -130.9(5)
C27 C22 S1 O1 -65.5(5)
C23 C22 S1 O1 112.8(5)
