#------------------------------------------------------------------------------
#$Date: 2017-09-12 07:09:28 +0300 (Tue, 12 Sep 2017) $
#$Revision: 200762 $
#$URL: file:///home/coder/svn-repositories/cod/cif/1/54/65/1546594.cif $
#------------------------------------------------------------------------------
#
# This file is available in the Crystallography Open Database (COD),
# http://www.crystallography.net/
#
# All data on this site have been placed in the public domain by the
# contributors.
#
data_1546594
loop_
_publ_author_name
'Wang, Ya-Ni'
'Wang, Bao-Cheng'
'Zhang, Mao-Mao'
'Gao, Xiao-Wen'
'Li, Tian-Ren'
'Lu, Liang-Qiu'
'Xiao, Wen-Jing'
_publ_section_title
;
 Hydrogen Bond Direction Enables Palladium-Catalyzed Branch- and
 Enantioselective Allylic Aminations and Beyond.
;
_journal_issue                   15
_journal_name_full               'Organic letters'
_journal_page_first              4094
_journal_page_last               4097
_journal_paper_doi               10.1021/acs.orglett.7b01794
_journal_volume                  19
_journal_year                    2017
_chemical_formula_sum            'C25 H24 N2 O2 S'
_chemical_formula_weight         416.52
_space_group_crystal_system      orthorhombic
_space_group_IT_number           19
_space_group_name_Hall           'P 2ac 2ab'
_space_group_name_H-M_alt        'P 21 21 21'
_symmetry_space_group_name_Hall  'P 2ac 2ab'
_symmetry_space_group_name_H-M   'P 21 21 21'
_atom_sites_solution_hydrogens   geom
_audit_creation_method           SHELXL-2014/7
_cell_angle_alpha                90
_cell_angle_beta                 90
_cell_angle_gamma                90
_cell_formula_units_Z            4
_cell_length_a                   8.68430(10)
_cell_length_b                   14.2721(2)
_cell_length_c                   17.1469(3)
_cell_measurement_reflns_used    9975
_cell_measurement_temperature    100(2)
_cell_measurement_theta_max      69.22
_cell_measurement_theta_min      3.10
_cell_volume                     2125.24(5)
_computing_cell_refinement       'Bruker SAINT'
_computing_data_collection       'Bruker APEX2'
_computing_data_reduction        'Bruker SAINT'
_computing_molecular_graphics    'Bruker SHELXTL'
_computing_publication_material  'Bruker SHELXTL'
_computing_structure_refinement  'SHELXL-2014/7 (Sheldrick, 2014)'
_computing_structure_solution    'SHELXS-97 (Sheldrick, 2008)'
_diffrn_ambient_temperature      100(2)
_diffrn_measured_fraction_theta_full 0.991
_diffrn_measured_fraction_theta_max 0.991
_diffrn_measurement_device_type  'Bruker APEX-II CCD'
_diffrn_measurement_method       '\f and \w scans'
_diffrn_radiation_type           CuK\a
_diffrn_radiation_wavelength     1.54178
_diffrn_reflns_av_R_equivalents  0.0325
_diffrn_reflns_av_unetI/netI     0.0426
_diffrn_reflns_Laue_measured_fraction_full 0.991
_diffrn_reflns_Laue_measured_fraction_max 0.991
_diffrn_reflns_limit_h_max       9
_diffrn_reflns_limit_h_min       -10
_diffrn_reflns_limit_k_max       16
_diffrn_reflns_limit_k_min       -14
_diffrn_reflns_limit_l_max       20
_diffrn_reflns_limit_l_min       -20
_diffrn_reflns_number            10645
_diffrn_reflns_point_group_measured_fraction_full 0.969
_diffrn_reflns_point_group_measured_fraction_max 0.969
_diffrn_reflns_theta_full        64.990
_diffrn_reflns_theta_max         64.990
_diffrn_reflns_theta_min         4.030
_exptl_absorpt_coefficient_mu    1.541
_exptl_absorpt_correction_type   none
_exptl_crystal_colour            colorless
_exptl_crystal_density_diffrn    1.302
_exptl_crystal_description       block
_exptl_crystal_F_000             880
_exptl_crystal_size_max          0.120
_exptl_crystal_size_mid          0.100
_exptl_crystal_size_min          0.100
_refine_diff_density_max         0.168
_refine_diff_density_min         -0.416
_refine_diff_density_rms         0.058
_refine_ls_abs_structure_details
; 
 Flack x determined using 1428 quotients [(I+)-(I-)]/[(I+)+(I-)] 
 (Parsons, Flack and Wagner, Acta Cryst. B69 (2013) 249-259). 
;
_refine_ls_abs_structure_Flack   0.057(5)
_refine_ls_extinction_method     none
_refine_ls_goodness_of_fit_ref   1.084
_refine_ls_hydrogen_treatment    constr
_refine_ls_matrix_type           full
_refine_ls_number_parameters     272
_refine_ls_number_reflns         3514
_refine_ls_number_restraints     0
_refine_ls_restrained_S_all      1.084
_refine_ls_R_factor_all          0.0309
_refine_ls_R_factor_gt           0.0308
_refine_ls_shift/su_max          0.001
_refine_ls_shift/su_mean         0.000
_refine_ls_structure_factor_coef Fsqd
_refine_ls_weighting_details
'w=1/[\s^2^(Fo^2^)+(0.0439P)^2^+0.3253P] where P=(Fo^2^+2Fc^2^)/3'
_refine_ls_weighting_scheme      calc
_refine_ls_wR_factor_gt          0.0781
_refine_ls_wR_factor_ref         0.0782
_reflns_Friedel_coverage         0.701
_reflns_Friedel_fraction_full    0.939
_reflns_Friedel_fraction_max     0.939
_reflns_number_gt                3494
_reflns_number_total             3514
_reflns_threshold_expression     'I > 2\s(I)'
_cod_data_source_file            ol7b01794_si_003.cif
_cod_data_source_block           cu_170331g_0m
_cod_depositor_comments          'Adding full bibliography for 1546594.cif.'
_cod_database_code               1546594
_shelx_shelxl_version_number     2014/7
_shelx_space_group_comment
; 
The symmetry employed for this shelxl refinement is uniquely defined 
by the following loop, which should always be used as a source of 
symmetry information in preference to the above space-group names. 
They are only intended as comments. 
;
_shelx_estimated_absorpt_t_min   0.837
_shelx_estimated_absorpt_t_max   0.861
_shelx_res_file
; 
  
    cu_170331g_0m.res created by SHELXL-2014/7 
  
TITL cu_170331g_0m in P2(1)2(1)2(1) 
CELL 1.54178   8.6843  14.2721  17.1469  90.000  90.000  90.000 
ZERR   4.00   0.0001   0.0002   0.0003   0.000   0.000   0.000 
LATT -1 
SYMM 0.5-X, -Y, 0.5+Z 
SYMM -X, 0.5+Y, 0.5-Z 
SYMM 0.5+X, 0.5-Y, -Z 
SFAC C  H  N  O  S 
UNIT 100  96  8  8  4 
OMIT -3 130 
L.S. 4 
ACTA 
BOND $H 
FMAP 2 
PLAN 20 
HTAB C18 O1_$1 
HTAB C15 O1 
HTAB C9 O1_$2 
EQIV $2 x+1/2, -y+1/2, -z+1 
HTAB C4 S1_$1 
EQIV $1 x-1/2, -y+1/2, -z+1 
SIZE 0.12 0.10 0.10 
CONF 
HTAB 
TEMP -173.000 
WGHT    0.043900    0.325300 
FVAR       0.58313 
C1    1    0.547347    0.083430    0.774938    11.00000    0.02973    0.02654 = 
         0.04593    0.00530    0.01152   -0.00212 
AFIX 137 
H1A   2    0.453398    0.079521    0.743444    11.00000   -1.50000 
H1B   2    0.532001    0.128459    0.817381    11.00000   -1.50000 
H1C   2    0.570812    0.021650    0.796870    11.00000   -1.50000 
AFIX   0 
C2    1    0.678927    0.115105    0.724533    11.00000    0.02378    0.01206 = 
         0.03455    0.00088    0.00599   -0.00092 
C3    1    0.655231    0.138057    0.646478    11.00000    0.01836    0.01869 = 
         0.03515   -0.00089   -0.00152    0.00020 
AFIX  43 
H3    2    0.554620    0.134056    0.624985    11.00000   -1.20000 
AFIX   0 
C4    1    0.776219    0.166526    0.600056    11.00000    0.02589    0.01474 = 
         0.02304    0.00037   -0.00351    0.00214 
AFIX  43 
H4    2    0.758993    0.182932    0.547075    11.00000   -1.20000 
AFIX   0 
C5    1    0.922933    0.170974    0.631356    11.00000    0.01997    0.01070 = 
         0.02162   -0.00191    0.00227   -0.00092 
C6    1    0.950213    0.148849    0.709295    11.00000    0.01935    0.01304 = 
         0.02423   -0.00136   -0.00150    0.00137 
AFIX  43 
H6    2    1.051039    0.152825    0.730532    11.00000   -1.20000 
AFIX   0 
C7    1    0.827344    0.120976    0.755064    11.00000    0.02960    0.01333 = 
         0.02242    0.00221    0.00264    0.00330 
AFIX  43 
H7    2    0.844417    0.105557    0.808263    11.00000   -1.20000 
AFIX   0 
C8    1    1.180419    0.337122    0.673442    11.00000    0.02288    0.01212 = 
         0.02283    0.00007    0.00228   -0.00351 
C9    1    1.333867    0.311430    0.683486    11.00000    0.01999    0.01902 = 
         0.02887    0.00006    0.00383   -0.00101 
AFIX  43 
H9    2    1.390451    0.285342    0.641334    11.00000   -1.20000 
AFIX   0 
C10   1    1.403328    0.324226    0.755448    11.00000    0.02308    0.02267 = 
         0.03375    0.00237   -0.00237    0.00057 
AFIX  43 
H10   2    1.506810    0.304792    0.763261    11.00000   -1.20000 
AFIX   0 
C11   1    1.321984    0.365406    0.816181    11.00000    0.02700    0.02786 = 
         0.02674    0.00238   -0.00433   -0.00394 
AFIX  43 
H11   2    1.369935    0.374586    0.865389    11.00000   -1.20000 
AFIX   0 
C12   1    1.170666    0.393069    0.804801    11.00000    0.02754    0.01942 = 
         0.02251   -0.00112    0.00335   -0.00322 
AFIX  43 
H12   2    1.116246    0.421951    0.846419    11.00000   -1.20000 
AFIX   0 
C13   1    1.096724    0.379415    0.733636    11.00000    0.02164    0.01296 = 
         0.02421    0.00076    0.00325   -0.00349 
C14   1    0.933101    0.415066    0.722717    11.00000    0.02244    0.01424 = 
         0.02420   -0.00320    0.00318   -0.00141 
AFIX  13 
H14   2    0.934518    0.485072    0.725051    11.00000   -1.20000 
AFIX   0 
C15   1    0.981727    0.389048    0.582974    11.00000    0.02170    0.01513 = 
         0.02451   -0.00310   -0.00135    0.00168 
AFIX  13 
H15   2    0.928168    0.366926    0.534742    11.00000   -1.20000 
AFIX   0 
C16   1    0.828800    0.379155    0.786412    11.00000    0.02143    0.01902 = 
         0.03081   -0.00157    0.00281   -0.00217 
AFIX  43 
H16   2    0.806097    0.314045    0.787073    11.00000   -1.20000 
AFIX   0 
C17   1    0.767204    0.431717    0.841027    11.00000    0.02847    0.02882 = 
         0.03260   -0.00502    0.00889   -0.00447 
AFIX  93 
H17A  2    0.787439    0.497118    0.842135    11.00000   -1.20000 
H17B  2    0.702427    0.404325    0.879412    11.00000   -1.20000 
AFIX   0 
C18   1    0.736342    0.441786    0.622744    11.00000    0.02053    0.02298 = 
         0.03520   -0.00709   -0.00288    0.00175 
AFIX  23 
H18A  2    0.657733    0.438873    0.664488    11.00000   -1.20000 
H18B  2    0.691074    0.413588    0.575236    11.00000   -1.20000 
AFIX   0 
C19   1    0.774835    0.545812    0.606016    11.00000    0.03011    0.02156 = 
         0.04043   -0.00141   -0.00602    0.00763 
AFIX  23 
H19A  2    0.700328    0.570299    0.567362    11.00000   -1.20000 
H19B  2    0.761512    0.582192    0.654709    11.00000   -1.20000 
AFIX   0 
C20   1    0.936131    0.561645    0.575541    11.00000    0.03339    0.02011 = 
         0.02226   -0.00057   -0.00547    0.00289 
C21   1    0.984968    0.652864    0.559492    11.00000    0.04507    0.01869 = 
         0.02862    0.00269   -0.00447    0.00544 
AFIX  43 
H21   2    0.914882    0.703449    0.565562    11.00000   -1.20000 
AFIX   0 
C22   1    1.134328    0.670758    0.534809    11.00000    0.05503    0.01854 = 
         0.02887    0.00408    0.00195   -0.00460 
AFIX  43 
H22   2    1.165539    0.733077    0.523447    11.00000   -1.20000 
AFIX   0 
C23   1    1.237396    0.597742    0.526815    11.00000    0.04109    0.02871 = 
         0.02395    0.00292    0.00705   -0.00773 
AFIX  43 
H23   2    1.340004    0.609864    0.510470    11.00000   -1.20000 
AFIX   0 
C24   1    1.190936    0.506266    0.542720    11.00000    0.03374    0.02110 = 
         0.01961   -0.00184    0.00403   -0.00069 
AFIX  43 
H24   2    1.262037    0.456127    0.537132    11.00000   -1.20000 
AFIX   0 
C25   1    1.041241    0.488081    0.566691    11.00000    0.03143    0.01862 = 
         0.01673   -0.00124   -0.00338    0.00071 
N1    3    1.109185    0.323405    0.598484    11.00000    0.02052    0.01332 = 
         0.02222   -0.00236    0.00095    0.00053 
N2    3    0.869702    0.386276    0.646418    11.00000    0.01891    0.01619 = 
         0.02631   -0.00512    0.00049   -0.00031 
O1    4    1.020628    0.216121    0.493837    11.00000    0.03580    0.01912 = 
         0.02050   -0.00358    0.00674   -0.00351 
O2    4    1.210680    0.160549    0.590249    11.00000    0.02229    0.01743 = 
         0.03596   -0.00293    0.00652    0.00112 
S1    5    1.074318    0.212223    0.572577    11.00000    0.02190    0.01321 = 
         0.02069   -0.00296    0.00425   -0.00051 
HKLF 4 
  
REM  cu_170331g_0m in P2(1)2(1)2(1) 
REM R1 =  0.0308 for    3494 Fo > 4sig(Fo)  and  0.0309 for all    3514 data 
REM    272 parameters refined using      0 restraints 
  
END 
  
WGHT      0.0439      0.3254 
  
REM Instructions for potential hydrogen bonds 
HTAB C4 O1_$1 
HTAB C4 S1_$1 
HTAB C9 O1_$2 
HTAB C15 O1 
HTAB C18 O1_$1 
  
REM Highest difference peak  0.168,  deepest hole -0.416,  1-sigma level  0.058 
Q1    1   1.0813  0.2285  0.5165  11.00000  0.05    0.17 
Q2    1   0.9941  0.8018  0.6198  11.00000  0.05    0.15 
Q3    1   1.1409  0.5009  0.5779  11.00000  0.05    0.15 
Q4    1   0.9597  0.2752  0.7899  11.00000  0.05    0.15 
Q5    1   0.9751  0.2703  0.7303  11.00000  0.05    0.15 
Q6    1   1.3267  0.1733  0.5852  11.00000  0.05    0.15 
Q7    1   0.8665  0.7580  0.6323  11.00000  0.05    0.15 
Q8    1   1.4006  0.7420  0.5587  11.00000  0.05    0.15 
Q9    1   0.7475  0.4996  0.7369  11.00000  0.05    0.14 
Q10   1   1.1319  0.8080  0.4646  11.00000  0.05    0.14 
Q11   1   1.0236  0.8018  0.4763  11.00000  0.05    0.14 
Q12   1   1.4404  0.7202  0.5815  11.00000  0.05    0.14 
Q13   1   0.5575  0.2323  0.8419  11.00000  0.05    0.14 
Q14   1   0.5872  0.0065  0.8766  11.00000  0.05    0.13 
Q15   1   1.2475  0.2659  0.8788  11.00000  0.05    0.13 
Q16   1   0.5021  0.2056  0.8786  11.00000  0.05    0.13 
Q17   1   1.4733  0.6969  0.5661  11.00000  0.05    0.13 
Q18   1   0.9958  0.5097  0.8021  11.00000  0.05    0.13 
Q19   1   0.5012  0.0180  0.7386  11.00000  0.05    0.13 
Q20   1   0.8679  0.7641  0.5495  11.00000  0.05    0.13 
;
_shelx_res_checksum              67679
_shelx_hkl_file
; 
   1   0   0 0.67975 0.15969   5 
   2   0   0 209.984  12.157   5 
   3   0   0 0.66260 0.29999   5 
   4   0   0 0.64055 0.40649   5 
  -4   0   0 0.44459 0.43228   6 
  -5   0   0 0.12685 0.34880   6 
   5   0   0 0.03201 0.30892   5 
  -6   0   0 79.2093  5.1523   1 
  -6   0   0 75.6967  5.5301   6 
  -7   0   0 0.30469 0.39926   1 
  -7   0   0 -0.0925  0.4754   6 
   7   0   0 0.93732 0.45189   1 
  -8   0   0 460.336  25.338   2 
  -8   0   0 419.975  27.276   6 
   8   0   0 417.612  27.299   1 
  -8   0   0 490.651  27.436   1 
  -9   0   0 -0.0977  0.2736   2 
  -9   0   0 0.60389 0.38880   1 
   9   0   0 0.22821 0.33760   1 
 -10   0   0 15.9680  1.1980   2 
   1   1   0 682.932  42.896   5 
  -1   1   0 800.527  43.278   5 
   2   1   0 71.2613  4.4128   5 
   2  -1   0 74.4545  4.4462   5 
   3  -1   0 380.752  21.983   5 
   3   1   0 379.555  21.998   5 
   4  -1   0 441.859  26.904   5 
   4   1   0 455.446  26.966   5 
  -4  -1   0 494.692  27.454   9 
  -4  -1   0 466.624  27.559   6 
  -4   1   0 466.244  27.576   6 
  -5   1   0 666.369  38.398   6 
   5   1   0 634.280  37.508   5 
   5  -1   0 619.817  37.439   5 
  -5  -1   0 667.568  38.381   6 
  -6   1   0 167.128  10.927   6 
  -6  -1   0 171.418  10.941   6 
   6   1   0 154.092  10.563   1 
  -6  -1   0 186.565  10.730   1 
  -7  -1   0 184.603  12.248   6 
  -7  -1   0 215.767  12.006   1 
  -7   1   0 206.633  11.930   1 
   7  -1   0 166.144  11.755   1 
  -7   1   0 187.775  12.276   6 
   7   1   0 173.661  11.804   1 
  -8  -1   0 50.4970  3.4213   2 
  -8  -1   0 48.1704  4.1376   6 
  -8   1   0 54.9075  3.6145   1 
   8  -1   0 46.1507  3.5046   1 
  -8   1   0 45.8444  4.0793   6 
  -8   1   0 51.9412  3.4214   2 
   8   1   0 49.6466  3.5823   1 
  -8  -1   0 56.2726  3.6812   1 
  -9  -1   0 29.0500  2.1210   1 
   9   1   0 25.6115  2.0658   1 
  -9  -1   0 25.3075  1.9516   2 
  -9   1   0 27.7428  2.0017   2 
 -10  -1   0 26.1943  1.7105   2 
 -10   1   0 24.1900  1.6922   2 
   0   2   0 583.686  34.768   5 
   2   2   0 1381.46   81.27   5 
   2  -2   0 1419.34   81.12   5 
   3  -2   0 152.943   9.059   5 
   3   2   0 150.146   9.052   5 
  -3  -2   0 152.449   9.248   9 
   4   2   0 632.429  37.271   5 
  -4   2   0 635.351  38.021   6 
   4  -2   0 631.259  37.195   5 
  -4  -2   0 686.602  37.782   9 
  -4  -2   0 639.531  37.990   6 
  -5   2   0 132.779   8.430   6 
  -5  -2   0 129.265   8.377   6 
   5   2   0 122.320   8.075   5 
  -5  -2   0 138.365   8.588   9 
  -6   2   0 8.82939 1.29488   6 
   6   2   0 7.56634 0.91262   1 
  -6  -2   0 9.49904 1.03447   1 
  -6  -2   0 7.87851 1.23684   6 
   7   2   0 479.134  31.130   1 
  -7   2   0 515.505  31.020   6 
  -7  -2   0 560.513  31.299   1 
  -7  -2   0 489.366  30.934   6 
  -8  -2   0 29.3357  2.2902   2 
  -8   2   0 31.4458  2.3146   2 
   8   2   0 31.1210  2.4258   1 
  -8  -2   0 35.2688  2.5373   1 
  -8   2   0 29.2397  2.9152   6 
  -8  -2   0 29.8719  2.9275   6 
  -9   2   0 18.9465  1.4785   2 
   9   2   0 16.9348  1.5239   1 
  -9  -2   0 18.9018  1.5775   1 
  -9  -2   0 15.6827  1.3859   2 
 -10  -2   0 37.5427  2.3844   2 
 -10   2   0 38.7007  2.4076   2 
   0   3   0 -1.4337  0.1856   5 
  -1   3   0 3912.40  236.37   5 
   1   3   0 3890.44  238.91   5 
  -3  -3   0 2.48026 0.56341   9 
   3  -3   0 3.30256 0.60674   5 
   3   3   0 1.77014 0.47516   5 
  -4  -3   0 350.519  20.823   9 
   4  -3   0 333.143  20.377   5 
  -4   3   0 361.712  20.925   6 
   4   3   0 351.501  20.501   5 
  -4  -3   0 349.030  20.842   6 
  -5  -3   0 424.360  26.470   9 
  -5   3   0 469.541  26.662   6 
  -5  -3   0 435.987  26.538   6 
  -6  -3   0 10.9746  1.4031   6 
   6   3   0 8.48623 0.96632   1 
  -6   3   0 8.95141 1.33580   6 
  -6  -3   0 9.70300 1.05297   1 
  -7   3   0 70.2712  4.3205   2 
  -7   3   0 68.8146  5.1827   6 
  -7  -3   0 64.8884  4.3070   2 
   7   3   0 68.4698  4.6178   1 
  -7  -3   0 64.5170  5.0782   6 
  -8  -3   0 4.43079 0.72414   2 
  -8  -3   0 5.07548 0.83950   1 
  -8   3   0 5.23577 1.25324   6 
   8   3   0 4.86076 0.81826   1 
  -8   3   0 5.49620 0.80436   2 
  -9  -3   0 0.72440 0.33615   2 
   9   3   0 0.65405 0.40460   1 
  -9   3   0 1.63245 0.44701   2 
 -10   3   0 8.70977 0.73054   2 
 -10  -3   0 7.96661 0.68667   2 
   0   4   0 9999.99  587.34   5 
   1   4   0 5962.97  351.99   5 
  -1   4   0 5605.22  348.80   5 
  -2   4   0 997.017  57.016   5 
   2   4   0 987.615  57.659   5 
  -3   4   0 218.226  13.040   6 
   3   4   0 216.340  12.856   5 
  -3   4   0 223.999  15.022   3 
  -3  -4   0 212.796  14.518   3 
   3  -4   0 204.221  12.870   5 
   4   4   0 368.052  22.314   5 
  -4   4   0 401.759  22.760   6 
  -4  -4   0 370.185  22.601   9 
  -5   4   0 9.94680 1.26010   6 
  -5  -4   0 9.11882 1.31029   9 
  -6   4   0 474.461  27.568   6 
   6   4   0 430.155  27.700   1 
  -6  -4   0 450.529  27.561   9 
  -6  -4   0 463.860  27.821   1 
  -7  -4   0 189.417  11.372   1 
  -7   4   0 175.777  11.601   6 
   7   4   0 170.704  11.232   1 
  -7   4   0 176.632  10.392   2 
   8   4   0 1.94825 0.58143   1 
  -8  -4   0 1.29287 0.53789   1 
  -8   4   0 1.17559 0.44026   2 
   9   4   0 54.1234  3.7477   1 
  -9   4   0 54.7501  3.4369   2 
 -10   4   0 0.94914 0.25848   2 
   0   5   0 -0.4585  0.2569   3 
   0   5   0 -0.0596  0.3258   5 
  -1   5   0 41.5266  2.7602   5 
   1   5   0 41.6312  2.7826   5 
  -1   5   0 38.9215  3.5756   3 
   1   5   0 41.3967  3.5372   3 
  -2   5   0 673.954  44.073   3 
  -2   5   0 661.920  38.622   5 
   2   5   0 652.730  38.648   5 
  -2  -5   0 686.978  43.584   3 
  -3   5   0 2.00027 1.00890   3 
   3  -5   0 1.28649 0.55236   5 
  -3  -5   0 1.40484 0.56765   3 
   3   5   0 1.29403 0.47296   5 
  -4   5   0 524.611  30.566   6 
   4   5   0 500.253  30.095   5 
  -4  -5   0 519.341  30.449   9 
  -5  -5   0 110.316   7.468   9 
  -5  -5   0 107.278   7.043   1 
   5   5   0 102.881   6.967   1 
  -5   5   0 119.394   7.327   6 
  -6  -5   0 76.1285  5.8722   9 
  -6   5   0 77.3458  5.5851   6 
   6   5   0 77.2239  5.1785   1 
  -6  -5   0 79.9193  5.2628   1 
  -7  -5   0 23.2283  2.0374   1 
  -7   5   0 22.1205  2.3814   6 
   7   5   0 24.8579  2.0182   1 
  -7   5   0 23.6306  1.8228   2 
   8   5   0 2.45735 0.64125   1 
   9   5   0 66.5042  4.2579   1 
  -9   5   0 59.4154  3.8203   2 
   0   6   0 1011.23   57.66   5 
   0   6   0 973.867  64.828   3 
   1   6   0 3563.62  198.02   5 
  -1   6   0 3400.40  197.91   5 
  -1   6   0 3306.71  222.97   3 
   2   6   0 21.5305  1.8826   5 
  -2  -6   0 23.1475  2.2046   3 
  -2   6   0 27.4907  2.8497   3 
  -2   6   0 24.3250  1.8987   5 
  -3  -6   0 125.723   8.682   3 
   3   6   0 114.724   7.623   5 
  -3   6   0 125.941   9.244   3 
  -4  -6   0 139.975   9.038   9 
  -5  -6   0 65.9966  4.5358   1 
  -5  -6   0 74.0661  5.1648   9 
   5   6   0 63.2116  4.4544   1 
  -6   6   0 51.4069  3.9867   6 
  -6  -6   0 56.2527  4.4474   9 
   6   6   0 48.4198  3.6041   1 
   7   6   0 37.7021  2.7982   1 
  -7   6   0 34.2999  3.1049   6 
   8   6   0 8.07057 1.02236   1 
   9   6   0 20.0372  1.6495   1 
  -1   7   0 2425.15  137.35   5 
   1   7   0 2392.87  139.18   5 
  -1   7   0 2362.85  155.15   3 
  -2   7   0 11.8633  1.9422   3 
  -2   7   0 9.40059 1.11671   5 
  -2  -7   0 10.5803  1.3867   3 
   2   7   0 7.80084 1.07082   5 
  -3   7   0 798.327  53.902   3 
  -3  -7   0 830.683  53.340   3 
  -4  -7   0 11.2618  1.4957   9 
   5   7   0 421.112  26.689   1 
  -5  -7   0 455.190  26.549   9 
  -6  -7   0 35.4609  3.4056   9 
   6   7   0 35.1265  2.6888   1 
   7   7   0 28.8544  2.3175   1 
   8   7   0 0.62485 0.42999   1 
   0   8   0 23.2008  2.0013   5 
   0   8   0 24.2261  2.8610   3 
   1   8   0 44.1549  3.3297   5 
  -1   8   0 49.7895  4.5864   3 
  -1  -8   0 46.0852  3.9799   3 
  -1   8   0 44.3496  3.2794   5 
  -2   8   0 1.77779 1.16362   3 
  -2  -8   0 1.05751 0.64727   3 
  -3  -8   0 129.705   9.396   3 
  -3   8   0 126.711   9.970   3 
  -4  -8   0 78.1863  5.5202   9 
   4   8   0 71.1698  4.8936   1 
  -5  -8   0 200.779  12.771   9 
   5   8   0 192.986  12.306   1 
   6   8   0 899.452  49.510   4 
   6   8   0 1015.47   57.60   1 
  -6  -8   0 937.905  56.265   9 
   7   8   0 1.73548 0.58494   1 
   8   8   0 14.8379  1.3978   1 
   0   9   0 0.17289 0.83645   3 
  -1   9   0 40.9721  4.3002   3 
  -1  -9   0 39.8695  3.7477   3 
  -2  -9   0 25.8472  2.7899   3 
  -2   9   0 26.3769  3.3769   3 
  -3   9   0 1709.93  108.99   3 
  -3  -9   0 1746.48  108.35   3 
   3   9   0 1539.20  100.10   1 
   4   9   0 87.4757  5.9063   1 
  -4  -9   0 93.5175  6.5722   9 
   5   9   0 4.98207 0.78638   4 
   5   9   0 5.34194 0.85736   1 
   6   9   0 12.2234  1.2993   1 
   6   9   0 10.7298  1.0996   4 
   7   9   0 23.1472  1.9397   1 
   8   9   0 4.28242 0.69048   1 
   0 -10   0 261.908  18.389   3 
  -1 -10   0 4.85248 1.39345   3 
  -1  10   0 6.48571 1.99120   3 
  -2  10   0 274.929  20.116   3 
  -2 -10   0 284.085  19.522   3 
  -3 -10   0 167.685  12.319   3 
  -3  10   0 167.199  12.893   3 
  -4 -10   0 130.479   8.771   9 
   4  10   0 128.247   8.069   1 
   4  10   0 118.519   7.020   4 
  -5 -10   0 4.75013 1.31425   9 
   5  10   0 5.65311 0.81185   4 
   5  10   0 4.44525 0.84523   1 
   6  10   0 0.47915 0.39023   4 
   6  10   0 0.65976 0.46404   1 
   7  10   0 60.7275  4.1353   1 
   0 -11   0 0.26973 0.73216   3 
  -1 -11   0 431.898  29.543   3 
   2  11   0 37.1304  2.6643   4 
  -2 -11   0 42.4545  4.1976   3 
  -2  11   0 46.6758  4.9093   3 
  -3 -11   0 73.6514  6.3164   3 
   3  11   0 70.4270  4.2197   7 
  -3  11   0 79.3015  6.9312   3 
  -3  11   0 70.9210  4.3770   7 
   3  11   0 68.6448  4.2987   4 
  -3  11   0 72.7234  4.6412   8 
   4  11   0 609.076  32.704   4 
   4  11   0 644.454  37.887   1 
  -4 -11   0 614.230  37.399   9 
   5  11   0 151.216   8.504   4 
   5  11   0 155.239   9.752   1 
   6  11   0 6.94752 0.83267   4 
   6  11   0 6.69070 0.90213   1 
   7  11   0 21.1958  1.6915   1 
   0  12   0 23.4010  1.9018   7 
   0  12   0 22.0202  1.7225   4 
   0  12   0 19.6426  1.8876   8 
   0 -12   0 18.8607  2.7571   3 
  -1  12   0 558.661  28.713   4 
   1  12   0 544.861  30.238   8 
  -1 -12   0 537.229  37.000   3 
   1  12   0 577.308  27.839   7 
   1 -12   0 511.546  36.922   3 
  -1  12   0 542.375  30.287   8 
  -1  12   0 536.525  27.829   7 
   1  12   0 553.044  28.749   4 
  -2  12   0 44.2605  3.2835   8 
  -2  12   0 45.1120  3.1249   7 
  -2 -12   0 48.0089  4.7071   3 
   2  12   0 46.9128  3.0450   4 
   2 -12   0 45.2331  4.6242   3 
   2  12   0 50.0183  3.1104   7 
  -3  12   0 75.8226  4.6517   7 
   3  12   0 77.7032  4.5439   7 
  -3  12   0 78.3377  4.9867   8 
   3  12   0 76.1397  4.6860   4 
  -3 -12   0 84.3108  6.9210   3 
  -4  12   0 66.0850  4.2068   8 
   4  12   0 63.6768  3.9753   4 
   5  12   0 9.37546 1.03195   4 
   6  12   0 17.9338  1.5189   1 
   6  12   0 18.1192  1.4034   4 
   0  13   0 0.09275 0.48319   7 
   0  13   0 0.10212 0.54859   8 
   0 -13   0 1.40656 1.03316   3 
   0  13   0 -0.1230  0.3737   4 
   1 -13   0 17.8066  2.7411   3 
  -1  13   0 22.4203  1.6934   4 
  -1 -13   0 18.0055  2.7494   3 
   1  13   0 21.6937  1.8199   7 
  -1  13   0 21.4952  1.8494   7 
   1  13   0 20.9789  1.8764   8 
  -1  13   0 22.0047  1.9451   8 
   1  13   0 21.1604  1.7231   4 
   2  13   0 303.554  15.322   7 
  -2  13   0 286.700  16.684   8 
   2  13   0 289.990  15.819   4 
  -2  13   0 296.557  15.399   7 
  -3  13   0 3.43229 0.80616   7 
   3  13   0 2.27689 0.61243   4 
  -3  13   0 2.61001 0.77050   8 
  -4  13   0 396.213  21.962   8 
   4  13   0 392.716  20.926   4 
   5  13   0 5.45044 0.74852   4 
   6  13   0 15.7021  1.2051   4 
   0  14   0 30.1775  2.4128   8 
   0  14   0 32.1427  2.3204   7 
   0  14   0 30.9114  2.1974   4 
   1  14   0 0.24611 0.51367   8 
  -1  14   0 0.42915 0.54063   8 
   1  14   0 0.12321 0.45723   7 
  -1  14   0 1.01342 0.57142   7 
   1  14   0 0.21299 0.42558   4 
  -1  14   0 0.62841 0.42490   4 
  -2  14   0 261.890  13.885   7 
   2  14   0 272.407  14.335   4 
  -2  14   0 258.364  15.086   8 
   2  14   0 269.290  13.838   7 
  -3  14   0 8.72684 1.05294   7 
  -3  14   0 8.57648 1.14768   8 
   3  14   0 9.22234 1.02205   4 
   3  14   0 9.01801 0.99415   7 
  -4  14   0 87.2475  5.3050   8 
   4  14   0 88.5458  5.0718   4 
   5  14   0 3.53814 0.59034   4 
   0  15   0 0.20186 0.36599   4 
   0  15   0 0.33357 0.51559   8 
   0  15   0 0.09388 0.43837   7 
  -1  15   0 81.7711  4.6724   7 
  -1  15   0 78.0989  4.6055   4 
  -1  15   0 78.0103  5.0010   8 
   1  15   0 80.7502  4.9430   8 
   1  15   0 81.1417  4.6986   4 
   1  15   0 81.8494  4.6308   7 
   2  15   0 180.792   9.582   4 
  -2  15   0 166.749  10.079   8 
   2  15   0 173.698   9.232   7 
  -2  15   0 178.881   9.312   7 
   3  15   0 33.3751  2.1618   4 
   3  15   0 31.4740  2.0291   7 
  -3  15   0 29.6685  2.0820   7 
  -3  15   0 32.9185  2.3115   8 
   4  15   0 58.2782  3.3522   4 
  -4  15   0 54.6654  3.4669   8 
   5  15   0 70.1444  3.9288   4 
   0  16   0 14.4114  1.3059   8 
   0  16   0 15.3883  1.2635   7 
   0  16   0 14.2003  1.1533   4 
  -1  16   0 44.6531  2.7204   7 
   1  16   0 43.6549  2.7168   4 
  -1  16   0 43.4791  2.9291   8 
   1  16   0 45.8630  2.7186   7 
  -2  16   0 147.545   7.787   7 
  -2  16   0 146.923   8.492   8 
   2  16   0 149.279   7.742   7 
   2  16   0 148.030   8.045   4 
   3  16   0 2.14051 0.44894   4 
  -3  16   0 2.61118 0.49111   7 
  -3  16   0 2.08089 0.50594   8 
   0  17   0 2.92316 0.50290   7 
   1  17   0 77.4602  4.1853   7 
  -1  17   0 78.4896  4.5649   8 
   2   0  -1 1963.75  110.66   5 
   2   0   1 1865.10  110.22   5 
   3   0   1 166.412   9.796   5 
   3   0  -1 167.000   9.839   5 
  -4   0   1 107.939   6.989   6 
   4   0  -1 108.985   6.763   5 
  -4   0  -1 114.459   7.052   6 
   4   0   1 111.507   6.727   5 
   5   0   1 16.4509  1.4051   5 
  -5   0  -1 15.8260  1.6174   6 
  -5   0   1 15.0087  1.5696   6 
   5   0  -1 15.5714  1.4321   5 
  -6   0  -1 91.8059  6.4272   6 
  -6   0   1 95.8741  6.0918   1 
  -6   0   1 90.1326  6.4123   6 
  -7   0  -1 396.043  21.300   1 
  -7   0  -1 336.404  21.314   6 
   7   0  -1 320.295  21.157   1 
  -7   0   1 382.552  21.338   1 
  -7   0   1 329.168  21.305   6 
   7   0   1 305.585  21.099   1 
   8   0  -1 45.0361  3.4026   1 
  -8   0  -1 49.9685  3.2915   2 
  -8   0  -1 45.0623  3.9609   6 
  -8   0   1 51.5793  3.5143   1 
  -8   0  -1 53.3469  3.4666   1 
  -8   0   1 48.2234  3.2838   2 
   8   0   1 44.6983  3.3716   1 
  -8   0   1 46.0575  4.0190   6 
  -9   0   1 0.87942 0.40507   2 
   9   0  -1 1.43606 0.46741   1 
  -9   0   1 2.55329 0.57922   1 
  -9   0  -1 1.10425 0.41271   2 
 -10   0  -1 35.6779  2.2536   2 
 -10   0   1 34.1220  2.2336   2 
   0   1  -1 4060.55  221.03   5 
   0  -1   1 3561.66  220.57   5 
   1  -1   1 1071.33   72.54   5 
   1   1  -1 1279.47   72.87   5 
  -1   1   1 1295.55   73.19   5 
   1  -1   1 1296.63   76.19   5 
   1   1   1 1377.26   72.90   5 
   2  -1   1 977.021  58.585   5 
   2   1  -1 957.099  58.716   5 
   2   1   1 1042.36   58.94   5 
   2  -1  -1 1079.46   59.05   5 
   3  -1   1 124.134   7.570   5 
  -3  -1  -1 127.230   7.886   9 
   3   1  -1 137.663   7.682   5 
   3  -1  -1 131.068   7.695   5 
   3   1   1 121.020   7.608   5 
  -4   1   1 4.62131 0.70411   6 
  -4  -1  -1 5.53777 0.76113   6 
   4  -1   1 5.17811 0.61592   5 
   4   1  -1 6.08860 0.71205   5 
   4  -1  -1 3.71294 0.60059   5 
   4   1   1 5.02558 0.64269   5 
  -4   1  -1 3.77509 0.70040   6 
  -4  -1   1 3.05803 0.61717   6 
  -4  -1   1 4.86278 0.82948   9 
  -5  -1  -1 28.0320  2.1994   6 
   5   1  -1 25.8796  1.9699   5 
  -5   1   1 26.6524  2.1697   6 
   5  -1  -1 20.4445  1.8201   5 
   5   1   1 19.7554  1.8109   5 
  -5  -1   1 22.4164  2.0593   6 
  -5   1  -1 23.0576  2.0960   6 
  -6   1   1 226.292  13.790   6 
   6   1  -1 219.235  13.525   1 
  -6  -1  -1 231.729  13.800   6 
  -6   1   1 245.407  13.621   1 
  -6   1  -1 210.575  13.714   6 
   6   1   1 183.653  13.410   1 
  -6  -1   1 208.208  13.695   6 
  -6  -1   1 220.713  13.593   1 
  -7   1   1 132.469   7.727   1 
  -7   1   1 118.981   8.164   6 
   7   1  -1 115.065   7.612   1 
  -7  -1  -1 134.341   7.726   1 
  -7  -1  -1 111.494   8.056   6 
   7   1   1 102.994   7.531   1 
  -7  -1   1 107.507   8.046   6 
  -7   1  -1 112.833   8.088   6 
  -7  -1   1 126.436   7.751   1 
  -8  -1  -1 80.9822  4.8919   2 
   8   1  -1 77.3633  5.1702   1 
  -8  -1  -1 75.4224  5.7179   6 
  -8   1   1 73.6143  5.7196   6 
  -8  -1  -1 88.3734  5.2567   1 
  -8   1   1 88.0734  5.2656   1 
  -8   1   1 81.0465  4.8962   2 
  -8  -1   1 85.0776  5.2799   1 
   8   1   1 68.7300  5.0803   1 
  -8  -1   1 71.0311  4.8228   2 
  -8   1  -1 69.5930  5.6304   6 
   8  -1  -1 65.5189  5.0468   1 
  -8   1  -1 76.4270  4.8558   2 
  -8  -1   1 71.4376  5.6930   6 
  -9   1   1 134.390   7.935   1 
  -9   1   1 131.141   7.419   2 
  -9  -1  -1 123.517   7.356   2 
   9   1  -1 125.862   7.941   1 
   9   1   1 117.039   7.883   1 
   9  -1  -1 115.088   7.870   1 
  -9  -1   1 119.391   7.356   2 
  -9  -1   1 128.457   7.970   1 
  -9   1  -1 123.653   7.351   2 
 -10   1   1 7.39378 0.72134   2 
 -10  -1  -1 7.54740 0.71668   2 
 -10   1  -1 9.07312 0.75995   2 
 -10  -1   1 7.28836 0.71006   2 
   0   2  -1 470.594  32.042   5 
  -1   2   1 108.088   7.254   5 
   1   2  -1 134.972   7.233   5 
  -1   2  -1 126.191   7.199   5 
   1   2   1 124.394   7.234   5 
   2  -2   1 953.629  56.082   5 
   2  -2  -1 972.813  55.593   5 
   2   2   1 967.542  56.298   5 
   3  -2   1 34.8406  2.6252   5 
   3   2  -1 38.8449  2.7317   5 
  -3  -2  -1 35.5158  2.8634   9 
   3   2   1 48.1908  2.7822   5 
  -3  -2   1 48.5667  2.9355   9 
   3  -2  -1 43.8222  2.8276   5 
  -4  -2  -1 1182.28   65.75   6 
   4  -2   1 1090.30   64.71   5 
  -4   2   1 1132.84   65.75   6 
  -4  -2  -1 1206.05   65.23   9 
   4   2  -1 1166.52   64.58   5 
  -4   2  -1 1078.61   65.74   6 
   4   2   1 1128.21   68.18   5 
  -4  -2   1 1125.37   65.10   9 
  -4  -2   1 1052.32   65.66   6 
   4  -2  -1 1061.78   64.50   5 
  -5   2   1 30.7222  2.3988   6 
   5   2  -1 28.4307  2.1824   5 
  -5  -2  -1 31.3109  2.3813   6 
  -5   2  -1 25.7770  2.2937   6 
   5  -2  -1 23.9352  2.0274   5 
   5   2   1 23.7697  2.0889   5 
  -5  -2   1 27.5654  2.4500   9 
  -5  -2   1 25.8171  2.2769   6 
  -6  -2  -1 22.9699  2.3163   6 
  -6   2   1 24.4661  1.9633   1 
  -6  -2  -1 25.3278  2.0053   1 
  -6   2   1 21.5206  2.2972   6 
   6   2  -1 21.3910  1.9189   1 
  -6  -2   1 29.6244  2.5114   6 
  -6  -2   1 29.1233  2.0941   1 
   6   2   1 25.9586  1.9646   1 
  -6   2  -1 28.5007  2.4907   6 
  -7   2   1 47.5484  4.0878   6 
   7   2  -1 47.2932  3.5727   1 
  -7   2   1 59.3431  3.6735   1 
  -7   2   1 49.4822  3.3940   2 
  -7  -2  -1 57.1581  3.6928   1 
  -7  -2  -1 48.3862  4.0733   6 
   7   2   1 48.9623  3.5710   1 
  -7  -2   1 47.9125  4.0881   6 
  -7   2  -1 47.8615  4.0847   6 
  -7  -2   1 52.8761  3.7035   1 
  -8   2   1 105.513   6.077   1 
  -8   2   1 99.6798  5.6860   2 
  -8   2   1 89.5797  6.5761   6 
  -8  -2  -1 95.1293  5.6375   2 
   8   2  -1 101.384   6.103   1 
  -8  -2   1 84.6452  5.6094   2 
   8  -2  -1 80.6865  5.9141   1 
  -8  -2   1 93.4789  6.0876   1 
  -8   2  -1 92.6188  5.6291   2 
  -8   2  -1 81.3510  6.4449   6 
  -8  -2   1 79.6810  6.4286   6 
   8   2   1 84.9742  5.9698   1 
   9   2  -1 0.91276 0.43752   1 
  -9  -2  -1 0.63220 0.34339   2 
  -9   2   1 0.74679 0.37589   2 
  -9  -2   1 2.10662 0.48136   2 
   9   2   1 1.41972 0.47373   1 
  -9   2  -1 2.07371 0.47879   2 
 -10  -2  -1 65.2924  3.7241   2 
 -10   2   1 70.0792  3.7759   2 
 -10  -2   1 54.8871  3.6859   2 
 -10   2  -1 59.1125  3.7211   2 
   0   3   1 2626.74  151.24   5 
   1   3  -1 2090.45  115.85   5 
  -1   3   1 1917.35  115.60   5 
   2   3  -1 211.270  13.108   5 
  -2   3   1 222.680  13.203   5 
   2   3   1 238.675  13.149   5 
   3   3  -1 276.539  16.498   5 
  -3  -3  -1 270.563  16.716   9 
   3  -3   1 272.160  16.423   5 
  -3   3  -1 281.373  19.291   3 
  -3   3  -1 297.727  16.844   6 
   3   3   1 289.283  16.515   5 
   3  -3  -1 285.138  16.614   5 
  -4   3   1 229.089  13.526   6 
  -4  -3  -1 225.672  13.468   6 
  -4  -3  -1 222.847  13.553   9 
   4   3  -1 217.393  13.218   5 
  -4  -3   1 221.345  13.452   9 
   4  -3  -1 212.146  13.178   5 
   4   3   1 217.432  13.202   5 
  -4  -3   1 215.059  13.437   6 
  -4   3  -1 235.387  13.568   6 
  -5   3   1 139.265   8.925   6 
  -5  -3  -1 126.697   9.002   9 
  -5  -3  -1 126.121   8.789   6 
  -5  -3   1 147.417   9.043   9 
  -5  -3   1 142.364   8.892   6 
   5  -3  -1 132.173   8.485   5 
  -5   3  -1 158.811   9.035   6 
  -6  -3  -1 164.711  10.723   6 
  -6   3   1 167.840  10.808   6 
  -6   3   1 170.991  10.476   1 
  -6  -3  -1 178.205  10.553   1 
   6   3  -1 149.974  10.420   1 
   6   3   1 158.276  10.437   1 
  -6  -3   1 160.010  10.533   1 
  -6  -3   1 170.002  10.788   6 
  -6   3  -1 183.575  10.901   6 
   7   3  -1 638.336  38.648   1 
  -7  -3  -1 623.330  35.657   2 
  -7   3   1 619.263  38.200   6 
  -7   3   1 655.338  35.686   2 
   7   3   1 642.929  38.640   1 
  -7  -3   1 605.864  38.144   6 
  -7  -3   1 586.056  35.627   2 
  -7   3  -1 666.060  35.665   2 
  -7  -3   1 685.227  38.787   1 
  -7   3  -1 633.591  38.198   6 
  -8   3   1 124.541   6.935   2 
   8   3  -1 127.193   7.482   1 
  -8   3   1 110.600   7.876   6 
  -8  -3  -1 108.965   6.829   2 
   8   3   1 103.318   7.351   1 
  -8   3  -1 113.773   6.867   2 
  -8  -3   1 109.361   7.441   1 
   9   3  -1 27.7974  2.2706   1 
  -9   3   1 28.0476  2.1131   2 
  -9  -3   1 28.3232  2.0635   2 
  -9   3  -1 33.3131  2.1298   2 
   9   3   1 33.1669  2.3189   1 
 -10  -3  -1 6.29226 0.60090   2 
 -10   3   1 6.95756 0.64499   2 
 -10   3  -1 6.91534 0.63790   2 
   0   4   1 280.485  16.692   5 
   0   4  -1 292.636  16.653   5 
  -1   4   1 652.819  36.366   5 
   1   4  -1 652.710  36.334   5 
  -1   4  -1 601.417  36.268   5 
   1   4   1 613.039  36.343   5 
   2   4  -1 239.994  14.581   5 
  -2   4   1 242.154  14.638   5 
  -2   4  -1 268.414  14.582   5 
   2   4   1 242.314  14.591   5 
  -3  -4  -1 254.766  17.312   3 
  -3  -4  -1 242.569  15.435   9 
  -3   4   1 247.694  15.449   6 
   3   4  -1 232.599  15.205   5 
   3  -4   1 229.243  15.157   5 
  -3   4  -1 283.118  17.999   3 
  -3   4  -1 284.309  15.525   6 
   3  -4  -1 269.015  15.391   5 
   3   4   1 285.719  15.309   5 
  -4   4   1 1056.45   58.81   6 
   4   4  -1 1017.83   57.82   5 
  -4  -4  -1 974.846  58.299   9 
   4   4   1 968.180  57.780   5 
   4  -4  -1 942.418  57.747   5 
  -4  -4   1 1028.57   58.28   9 
  -4   4  -1 1024.84   58.80   6 
  -5  -4  -1 181.118  12.575   9 
  -5   4   1 208.505  12.576   6 
  -5  -4   1 193.098  12.567   9 
  -5   4  -1 219.881  12.632   6 
  -6  -4  -1 328.880  18.931   1 
   6   4  -1 293.140  18.807   1 
  -6   4   1 337.207  19.011   6 
  -6  -4   1 293.904  18.937   9 
   6   4   1 283.569  18.788   1 
  -6  -4   1 285.581  18.876   1 
  -6   4  -1 322.215  18.949   6 
  -7  -4  -1 23.2764  1.9542   1 
   7   4  -1 19.8584  1.8483   1 
  -7   4   1 20.1000  1.7318   2 
  -7   4   1 18.9436  2.2514   6 
  -7  -4   1 22.4553  1.9609   1 
  -7   4  -1 22.8007  2.3470   6 
  -7   4  -1 23.8216  1.7657   2 
   7   4   1 23.4213  1.9149   1 
  -8  -4  -1 10.8437  1.0492   2 
   8   4  -1 13.0006  1.2711   1 
   8   4   1 9.37083 1.14473   1 
  -8   4  -1 10.0144  1.0595   2 
  -8  -4   1 8.35615 1.14120   1 
   9   4  -1 44.4004  3.1931   1 
  -9   4   1 46.5333  2.9543   2 
  -9   4  -1 43.5015  2.8867   2 
   9   4   1 46.7701  3.2042   1 
 -10   4   1 19.1043  1.1644   2 
 -10   4  -1 13.4183  1.0846   2 
   0   5   1 697.553  38.001   5 
   0   5   1 621.280  43.116   3 
   0   5  -1 622.757  43.207   3 
   0   5  -1 692.405  38.165   5 
   1   5  -1 999.426  67.354   3 
  -1   5   1 1079.97   59.76   5 
   1   5  -1 1081.41   59.71   5 
  -1   5   1 1001.95   67.38   3 
  -1  -5  -1 1015.48   67.08   3 
   1   5   1 1114.51   71.78   5 
  -1   5  -1 1026.02   60.08   5 
  -1   5  -1 984.550  67.537   3 
   2   5  -1 820.865  46.594   5 
  -2   5   1 819.952  46.616   5 
  -2  -5  -1 807.251  52.539   3 
  -2   5   1 826.675  52.900   3 
   2   5   1 784.293  46.597   5 
  -2   5  -1 782.626  53.092   3 
  -2   5  -1 807.114  46.513   5 
  -2  -5   1 814.447  52.472   3 
  -3  -5  -1 344.493  22.125   3 
   3   5  -1 317.851  19.490   5 
  -3   5  -1 348.992  22.764   3 
  -3   5  -1 324.519  19.721   6 
   3   5   1 322.897  19.504   5 
   4   5  -1 3.52478 0.76179   5 
  -4   5   1 3.66672 0.68363   6 
   4   5   1 1.91570 0.61059   5 
   4  -5  -1 1.83761 0.67390   5 
  -4   5  -1 2.34801 0.63248   6 
   5   5  -1 13.6771  1.1743   1 
  -5   5   1 13.5934  1.4820   6 
  -5  -5  -1 12.0677  1.6084   9 
   5   5   1 10.6152  1.1018   1 
  -5  -5   1 10.4394  1.1444   1 
  -5  -5   1 14.1137  1.6555   9 
  -5   5  -1 12.0368  1.4193   6 
  -6   5   1 51.3075  4.0763   6 
  -6  -5  -1 52.0506  4.4184   9 
   6   5  -1 50.2605  3.6463   1 
  -6  -5  -1 52.4706  3.7315   1 
  -6   5  -1 56.1218  4.1376   6 
  -6  -5   1 54.0846  4.3632   9 
  -6  -5   1 50.8077  3.7118   1 
   6   5   1 54.1402  3.6849   1 
  -7   5   1 113.659   8.568   6 
  -7   5   1 120.526   7.621   2 
   7   5  -1 123.777   8.281   1 
  -7   5  -1 131.496   8.702   6 
   7   5   1 136.813   8.349   1 
  -7  -5   1 128.724   8.367   1 
  -7   5  -1 144.199   7.690   2 
  -8   5   1 47.6259  3.3797   2 
   8   5  -1 50.0490  3.7123   1 
   8   5   1 56.2901  3.7687   1 
  -8   5  -1 56.3830  3.4224   2 
  -9   5   1 11.1397  1.0744   2 
   9   5  -1 11.5537  1.2135   1 
  -9   5  -1 15.0469  1.1059   2 
   9   5   1 16.4919  1.3288   1 
   0   6   1 46.0074  4.1192   3 
   0   6  -1 50.5061  3.2577   5 
   0   6   1 52.0224  3.3178   5 
   0   6  -1 47.1731  4.2253   3 
   1   6  -1 117.337   8.626   3 
  -1  -6  -1 123.363   8.319   3 
  -1   6   1 121.881   8.705   3 
  -1   6   1 123.650   7.264   5 
   1   6  -1 118.848   7.224   5 
  -1   6  -1 108.720   7.135   5 
   1   6   1 110.546   7.225   5 
  -1   6  -1 112.435   8.787   3 
  -2  -6  -1 691.365  42.985   3 
  -2   6   1 653.901  38.040   5 
   2   6  -1 646.097  38.032   5 
  -2   6   1 662.112  43.348   3 
   2   6   1 612.191  38.020   5 
  -2   6  -1 661.380  43.593   3 
  -2  -6   1 668.036  42.891   3 
   3   6  -1 359.869  21.324   5 
  -3   6   1 383.473  21.378   5 
  -3  -6  -1 374.139  24.170   3 
  -3   6   1 376.636  24.517   3 
   3   6   1 329.154  21.291   5 
  -3   6  -1 343.222  24.704   3 
  -4  -6  -1 151.494   9.872   9 
  -4  -6   1 160.874   9.904   9 
  -4   6  -1 151.351  11.579   3 
  -5  -6  -1 166.055   9.758   9 
   5   6  -1 157.307   9.125   1 
  -5   6  -1 144.152   9.248   6 
  -5  -6   1 121.437   9.068   1 
  -5  -6   1 147.490   9.497   9 
   5   6   1 132.955   9.071   1 
   6   6  -1 61.1063  4.1671   1 
  -6   6   1 62.5546  4.5766   6 
  -6  -6  -1 61.8257  4.9869   9 
  -6   6  -1 60.6185  4.5254   6 
  -6  -6   1 57.5893  4.7960   9 
   6   6   1 58.9003  4.1674   1 
  -7   6   1 43.0614  3.6167   6 
   7   6  -1 45.1886  3.2470   1 
   7   6   1 43.2691  3.2264   1 
  -8   6   1 20.1739  1.6569   2 
   8   6  -1 22.0673  1.8941   1 
   8   6   1 25.3773  1.9534   1 
  -9   6   1 43.7864  2.9554   2 
   9   6  -1 48.8874  3.3316   1 
   9   6   1 52.3919  3.3699   1 
   0   7   1 323.950  22.056   3 
   0   7   1 325.483  19.065   5 
   0   7  -1 317.894  18.982   5 
   0   7  -1 323.916  22.142   3 
  -1   7   1 2310.59  136.89   5 
   1   7  -1 2266.02  137.61   5 
  -1  -7  -1 2406.73  155.35   3 
  -1   7   1 2494.29  154.60   3 
   1   7  -1 2351.79  154.51   3 
  -1   7  -1 2476.91  137.43   5 
  -1   7  -1 2408.96  154.72   3 
   1   7   1 2367.67  138.73   5 
  -2   7   1 624.103  36.423   5 
  -2   7   1 672.346  41.727   3 
   2   7  -1 617.393  36.448   5 
  -2  -7  -1 661.318  41.238   3 
  -2  -7   1 633.674  41.132   3 
  -2   7  -1 616.011  41.843   3 
   2   7   1 561.369  36.403   5 
  -3   7   1 85.5936  7.1234   3 
  -3  -7  -1 87.9459  6.7980   3 
  -3  -7   1 91.6189  6.6958   3 
  -3   7  -1 95.3209  7.5451   3 
  -4  -7  -1 630.286  38.129   9 
  -4   7  -1 659.432  43.339   3 
   5   7  -1 66.3230  5.0090   1 
  -5  -7  -1 66.3936  5.5835   9 
   5   7   1 84.0671  5.1325   1 
  -5  -7   1 90.8113  5.8196   9 
   6   7  -1 169.726   9.758   4 
   6   7  -1 188.939  11.354   1 
  -6  -7  -1 175.819  11.940   9 
   6   7   1 180.457  11.352   1 
  -6  -7   1 182.641  11.893   9 
   7   7   1 58.0536  4.0901   1 
   8   7  -1 56.3967  4.0565   1 
   8   7   1 62.0879  4.1380   1 
   0   8   1 161.718  10.309   5 
   0   8   1 173.096  12.362   3 
   0   8  -1 165.416  10.248   5 
   0   8  -1 170.340  12.403   3 
   1   8  -1 487.827  32.747   3 
   1   8  -1 448.044  28.351   5 
  -1   8   1 454.894  28.362   5 
  -1  -8  -1 503.288  32.304   3 
  -1   8   1 501.837  32.780   3 
  -1   8  -1 519.310  33.013   3 
   1   8   1 482.407  28.455   5 
  -2   8   1 6.89484 1.10533   5 
  -2  -8  -1 9.98122 1.50292   3 
  -2   8   1 6.62557 1.78114   3 
  -2  -8   1 11.0115  1.5083   3 
  -2   8  -1 11.5573  2.1916   3 
  -3  -8  -1 624.087  41.035   3 
  -3   8   1 625.095  41.439   3 
  -3   8  -1 600.261  41.665   3 
  -3  -8   1 625.728  40.869   3 
   4   8  -1 79.0196  5.3090   1 
  -4  -8  -1 83.9361  5.9335   9 
  -4   8  -1 84.1981  7.1863   3 
   4   8   1 79.7907  5.3614   1 
  -5  -8  -1 422.525  25.367   9 
   5   8  -1 412.600  25.321   1 
  -5  -8   1 406.197  25.176   9 
   5   8   1 414.955  25.370   1 
   6   8  -1 66.5665  3.9099   4 
  -6  -8  -1 66.1092  5.3197   9 
   6   8  -1 70.7276  4.4994   1 
   6   8   1 62.6854  4.4883   1 
  -6  -8   1 55.9962  5.0480   9 
   7   8  -1 74.6692  4.8888   1 
   7   8   1 68.5561  4.8785   1 
   8   8  -1 27.7105  2.1151   1 
   8   8   1 25.9997  2.1104   1 
   0  -9  -1 73.7538  5.9843   3 
  -1   9   1 277.381  19.532   3 
  -1  -9  -1 264.640  18.965   3 
  -1   9  -1 281.787  19.706   3 
  -1  -9   1 277.889  19.006   3 
  -2  -9  -1 234.896  15.439   3 
  -2   9   1 216.735  15.830   3 
  -2   9  -1 205.021  15.926   3 
  -2  -9   1 214.400  15.259   3 
  -3  -9  -1 165.571  11.601   3 
  -3   9   1 166.622  12.018   3 
  -3   9  -1 153.964  12.153   3 
   3   9   1 143.214   9.849   1 
  -3  -9   1 159.215  11.379   3 
  -4  -9  -1 28.1816  2.8040   9 
   4   9  -1 27.9404  2.1842   1 
  -4   9  -1 29.8259  3.7292   3 
   4   9   1 27.1718  2.2038   1 
  -5  -9  -1 335.188  21.798   9 
   5   9  -1 350.466  21.646   1 
   5   9  -1 321.566  18.664   4 
  -5  -9   1 363.761  21.794   9 
   5   9   1 394.872  21.759   1 
   5   9   1 345.894  18.684   4 
   6   9  -1 3.91480 0.71727   4 
   6   9  -1 4.42411 0.81682   1 
   6   9   1 3.99461 0.80841   1 
   7   9  -1 13.6516  1.1855   4 
   7   9  -1 14.3722  1.3833   1 
   8   9  -1 18.5219  1.6510   1 
   8   9   1 23.5310  1.7371   1 
   0  10  -1 35.7315  4.0973   3 
   0 -10  -1 33.9303  3.5396   3 
  -1 -10  -1 145.132  11.208   3 
  -1 -10   1 150.835  11.232   3 
  -1  10  -1 159.629  12.004   3 
  -2 -10  -1 105.840   7.712   3 
  -2  10   1 105.095   8.214   3 
  -2  10  -1 85.1150  8.0351   3 
  -2 -10   1 82.1197  7.3097   3 
  -3 -10  -1 253.245  18.763   3 
  -3  10   1 269.901  19.238   3 
  -3 -10   1 282.002  18.734   3 
   3  10   1 261.694  16.527   1 
  -3  10  -1 269.891  19.499   3 
   4  10  -1 309.960  17.327   4 
  -4 -10  -1 327.981  20.249   9 
   4  10   1 308.949  17.310   4 
  -4  10  -1 342.014  23.294   3 
   4  10   1 339.454  20.075   1 
   5  10  -1 129.272   8.301   1 
  -5 -10  -1 124.260   9.044   9 
   5  10  -1 125.896   7.256   4 
   5  10   1 126.999   7.238   4 
   5  10   1 136.196   8.365   1 
  -5 -10   1 131.446   8.985   9 
   6  10  -1 94.9444  6.5756   1 
   6  10  -1 95.8323  5.7511   4 
   6  10   1 104.367   5.772   4 
   6  10   1 108.964   6.679   1 
   7  10  -1 7.42197 0.82017   4 
   7  10  -1 7.44431 0.91255   1 
   7  10   1 7.59970 0.95142   1 
   0 -11   1 253.706  18.789   3 
   0 -11  -1 277.720  18.932   3 
  -1 -11  -1 143.326  11.102   3 
  -1  11  -1 157.451  11.927   3 
  -1 -11   1 134.852  10.978   3 
   1 -11  -1 150.484  11.155   3 
  -2 -11  -1 878.486  56.575   3 
   2  11  -1 768.113  44.372   4 
  -2 -11   1 918.490  56.529   3 
   2  11   1 842.997  44.456   4 
   3  11  -1 88.4846  5.2735   4 
  -3 -11  -1 94.3306  7.6504   3 
  -3  11   1 95.6326  5.6527   8 
   3  11   1 93.1112  6.0088   1 
  -3  11  -1 88.1412  5.3475   7 
   3  11   1 90.4273  5.1683   7 
   3  11   1 86.9260  5.2717   4 
  -3  11  -1 85.9813  8.0078   3 
  -3  11  -1 92.5189  5.6817   8 
  -4 -11  -1 74.0688  5.7486   9 
   4  11  -1 78.6146  4.4474   4 
  -4  11  -1 72.9056  4.6965   8 
   4  11   1 71.0745  4.3939   4 
  -4 -11   1 74.4656  5.7608   9 
   4  11   1 71.1715  4.9839   1 
   5  11  -1 300.926  15.773   4 
   5  11   1 288.767  15.741   4 
   5  11   1 292.055  18.197   1 
   6  11  -1 10.2891  1.0643   1 
   6  11  -1 10.6947  1.0169   4 
   6  11   1 7.85764 1.02970   1 
   6  11   1 8.54589 0.94264   4 
   7  11  -1 59.8506  3.5107   4 
   7  11  -1 54.9539  3.9690   1 
   7  11   1 65.3174  4.0615   1 
   0 -12   1 257.806  20.589   3 
   0  12   1 293.009  16.627   8 
   0  12  -1 297.598  15.396   7 
   0 -12  -1 282.658  20.756   3 
   0  12   1 311.692  15.780   4 
   0  12  -1 301.313  15.735   4 
   0  12  -1 298.175  16.687   8 
   0  12   1 300.235  15.362   7 
   1  12  -1 14.5303  1.5404   8 
  -1  12   1 17.8886  1.5968   7 
  -1 -12  -1 20.2666  2.6673   3 
  -1  12   1 14.4073  1.5559   8 
   1  12  -1 15.7050  1.3807   4 
  -1  12   1 17.9352  1.4029   4 
   1 -12   1 12.9446  2.2564   3 
   1  12  -1 16.0358  1.5175   7 
  -1 -12   1 11.3512  2.1355   3 
   1  12   1 11.2667  1.4647   8 
   1  12   1 15.1894  1.4874   7 
   1  12   1 11.9983  1.3118   4 
   1 -12  -1 13.6843  2.2729   3 
  -1  12  -1 14.3142  1.6351   8 
  -1  12  -1 12.5601  1.4782   7 
   2  12  -1 130.684   7.915   4 
  -2  12   1 123.756   8.343   8 
  -2  12   1 130.935   7.843   4 
  -2  12   1 126.496   7.744   7 
  -2 -12  -1 127.601  10.864   3 
   2  12  -1 130.728   7.723   7 
   2 -12  -1 158.395  11.106   3 
  -2  12  -1 156.218   7.980   7 
  -2  12  -1 151.970   8.547   8 
   2  12   1 162.918   7.875   7 
  -2 -12   1 156.373  11.060   3 
   2  12   1 150.106   7.975   4 
   3  12  -1 21.6758  1.7571   4 
  -3  12   1 23.7283  1.8733   7 
  -3 -12  -1 25.6951  3.1528   3 
  -3  12   1 24.4481  1.9771   8 
  -3 -12  -1 19.9130  2.4736   9 
  -3  12  -1 21.1019  1.9568   8 
   3  12   1 22.8456  1.7905   7 
  -3  12  -1 20.6469  1.8667   7 
  -3  12  -1 19.9935  3.2482   3 
   3  12   1 20.8862  1.7379   4 
   3 -12  -1 21.5960  2.8088   3 
   4  12  -1 365.940  19.183   4 
  -4  12   1 389.595  20.153   8 
  -4  12  -1 341.394  18.525   7 
   4  12   1 355.252  22.113   1 
   4  12   1 348.954  19.175   4 
  -4  12  -1 356.928  20.141   8 
   5  12  -1 88.9356  5.3782   4 
   5  12   1 94.4209  6.1445   1 
   5  12   1 97.0425  5.4284   4 
   6  12  -1 17.8618  1.4565   4 
   6  12   1 19.9375  1.4557   4 
   6  12   1 20.3073  1.6378   1 
   7  12  -1 3.41328 0.49221   4 
   0  13  -1 68.7049  4.1683   7 
   0  13  -1 72.7805  4.0965   4 
   0  13   1 70.9216  4.1006   4 
   0  13   1 66.9503  4.3781   8 
   0  13   1 69.9520  4.1498   7 
   0  13  -1 66.7249  4.4088   8 
   0 -13   1 54.5692  5.8392   3 
   0 -13  -1 56.0263  5.8813   3 
  -1  13   1 13.5458  1.2486   4 
   1  13  -1 14.0446  1.2859   4 
  -1  13   1 12.6855  1.3892   7 
  -1 -13  -1 10.4674  2.1134   3 
  -1  13   1 12.6575  1.4184   8 
   1  13  -1 13.8253  1.3799   7 
   1  13  -1 13.6547  1.4441   8 
  -1  13  -1 11.4729  1.3975   7 
   1  13   1 11.8945  1.2464   4 
   1  13   1 9.96465 1.30667   8 
   1 -13  -1 10.1235  2.0036   3 
   1  13   1 10.8511  1.2849   7 
  -1 -13   1 10.6351  2.0918   3 
  -1  13  -1 11.1839  1.3998   8 
  -2  13   1 40.9211  3.1313   8 
   2  13  -1 42.6804  2.9208   7 
  -2  13   1 42.7518  2.8332   4 
  -2  13   1 41.5122  2.9606   7 
   2  13  -1 40.5549  2.8899   4 
  -2  13  -1 49.9961  3.1350   7 
  -2  13  -1 45.7555  3.2459   8 
   2  13   1 48.3136  3.0028   4 
   2  13   1 51.4595  3.0366   7 
   3  13  -1 82.9661  4.8874   7 
   3  13  -1 84.7129  5.0802   4 
  -3  13   1 84.2888  4.9794   7 
  -3  13   1 90.4183  5.4177   8 
  -3  13  -1 84.6269  5.0582   7 
   3  13   1 82.7675  5.0709   4 
   3  13   1 88.2650  4.9499   7 
  -3  13  -1 92.7294  5.4775   8 
   4  13  -1 54.2887  3.4559   4 
  -4  13   1 53.9794  3.6040   8 
   4  13   1 58.0150  3.4717   4 
  -4  13  -1 53.5934  3.4137   7 
  -4  13  -1 57.0358  3.6708   8 
   5  13  -1 99.5580  5.6188   4 
   5  13   1 97.5198  5.5948   4 
   6  13  -1 15.2694  1.1720   4 
   6  13   1 14.9308  1.1607   4 
   0  14  -1 45.8685  3.0470   7 
   0  14  -1 44.0392  3.2018   8 
   0  14   1 47.1562  3.0496   7 
   0  14   1 43.9319  3.1866   8 
   0  14  -1 45.3230  2.9317   4 
   0  14   1 46.1740  2.9623   4 
  -1  14   1 14.2402  1.4605   7 
   1  14  -1 12.0325  1.4245   8 
   1  14  -1 13.6609  1.4218   7 
  -1  14   1 13.6968  1.5255   8 
  -1  14   1 13.4344  1.3087   4 
   1  14  -1 13.4860  1.3336   4 
  -1  14  -1 18.8282  1.6094   7 
   1  14   1 18.7505  1.5458   7 
   1  14   1 18.3989  1.4679   4 
   1  14   1 18.4192  1.5834   8 
  -1  14  -1 17.4512  1.6382   8 
  -2  14   1 157.824   8.613   7 
   2  14  -1 165.265   8.865   4 
  -2  14   1 159.765   9.361   8 
   2  14  -1 161.136   8.569   7 
   2  14   1 157.801   8.584   7 
   2  14   1 154.928   8.842   4 
  -2  14  -1 162.824   8.699   7 
  -2  14  -1 156.535   9.376   8 
   3  14  -1 97.6957  5.6471   4 
   3  14  -1 93.9993  5.3852   7 
  -3  14   1 90.5458  5.4410   7 
  -3  14   1 98.2939  5.9649   8 
   3  14   1 105.017   5.477   7 
  -3  14  -1 100.595   6.009   8 
   3  14   1 101.993   5.682   4 
  -3  14  -1 97.2505  5.5551   7 
  -4  14   1 32.8996  2.4908   8 
   4  14  -1 32.6197  2.3736   4 
  -4  14  -1 38.2995  2.4106   7 
  -4  14  -1 41.2277  2.6193   8 
   4  14   1 40.0555  2.4621   4 
   5  14  -1 24.2200  1.7094   4 
   5  14   1 25.8905  1.7265   4 
   0  15   1 110.959   6.276   4 
   0  15  -1 108.993   6.659   8 
   0  15   1 107.810   6.643   8 
   0  15  -1 115.800   6.222   7 
   0  15  -1 109.691   6.239   4 
   0  15   1 113.144   6.180   7 
   1  15  -1 21.8969  1.6403   7 
   1  15  -1 20.5978  1.5741   4 
  -1  15   1 20.7072  1.6595   7 
  -1  15   1 20.1384  1.7471   8 
   1  15  -1 19.2424  1.6724   8 
  -1  15   1 20.1355  1.5082   4 
   1  15   1 18.9870  1.5548   4 
   1  15   1 19.8713  1.6671   8 
   1  15   1 20.4239  1.6257   7 
  -1  15  -1 18.7144  1.6222   7 
  -1  15  -1 19.7905  1.7443   8 
  -2  15   1 105.428   6.748   8 
   2  15  -1 112.573   6.399   4 
   2  15  -1 112.771   6.191   7 
  -2  15   1 109.398   6.224   7 
  -2  15  -1 121.712   6.327   7 
   2  15   1 115.735   6.226   7 
   2  15   1 121.294   6.457   4 
  -2  15  -1 112.255   6.799   8 
   3  15  -1 29.4689  1.9953   4 
  -3  15   1 27.3262  2.0999   8 
  -3  15   1 26.1735  1.9019   7 
   3  15   1 30.5347  1.9180   7 
  -3  15  -1 28.3093  1.9809   7 
  -3  15  -1 29.5704  2.1556   8 
   3  15   1 31.6303  2.0225   4 
  -4  15   1 12.4822  1.2098   8 
   4  15  -1 13.5793  1.1611   4 
   4  15   1 16.6058  1.2160   4 
  -4  15  -1 16.3235  1.3065   8 
  -4  15  -1 16.2363  1.1888   7 
   0  16  -1 45.5030  2.7764   4 
   0  16  -1 47.2297  2.8268   7 
   0  16   1 45.7567  3.0036   8 
   0  16   1 49.3158  2.8463   7 
   0  16  -1 46.6065  3.0277   8 
   0  16   1 43.7271  2.7850   4 
  -1  16   1 27.3900  2.0255   8 
  -1  16   1 27.1778  1.8066   4 
   1  16  -1 27.4071  1.8494   4 
  -1  16   1 27.5612  1.8866   7 
   1  16  -1 27.1544  1.8596   7 
   1  16   1 28.8327  1.8957   7 
  -1  16  -1 29.5824  2.0696   8 
   1  16   1 27.1831  1.9339   8 
   1  16   1 28.1296  1.8851   4 
  -1  16  -1 28.5643  1.9211   7 
   2  16  -1 86.4182  4.5613   7 
  -2  16   1 83.7303  5.0091   8 
  -2  16   1 86.3748  4.6030   7 
   2  16  -1 91.4503  4.7568   4 
  -2  16  -1 79.8429  5.0126   8 
  -2  16  -1 80.0225  4.6163   7 
   2  16   1 79.7555  4.7269   4 
   2  16   1 82.4667  4.5715   7 
   3  16  -1 20.2266  1.3362   4 
  -3  16   1 19.1031  1.4207   8 
  -3  16   1 18.6254  1.2709   7 
  -3  16  -1 16.7764  1.2844   7 
  -3  16  -1 17.8633  1.4197   8 
   3  16   1 17.5560  1.3038   4 
   0  17   1 92.0551  5.3425   8 
   0  17  -1 93.9800  4.9620   7 
  -1  17   1 185.148   9.601   7 
   1  17  -1 185.598   9.581   7 
  -1  17   1 189.745  10.470   8 
   1  17   1 189.471   9.604   7 
   0   0   2 508.692  29.390   5 
   0   0  -2 510.237  29.409   5 
  -1   0  -2 14.5779  1.0215   5 
   1   0   2 13.6397  1.0226   5 
   2   0   2 421.595  24.191   5 
   3   0   2 27.8105  1.8086   5 
   3   0  -2 25.8317  1.8849   5 
   4   0  -2 1414.16   77.66   5 
   4   0   2 1369.11   77.06   5 
  -4   0  -2 1154.48   87.11   3 
  -4   0   2 1302.99   78.01   6 
  -4   0  -2 1436.99   78.81   6 
  -5   0   2 1.30911 0.53182   6 
  -5   0  -2 0.80551 0.46246   6 
   5   0  -2 0.77099 0.45059   5 
  -6   0   2 215.635  13.821   6 
  -6   0  -2 222.112  13.857   6 
  -6   0   2 221.587  13.702   1 
   7   0  -2 2.70058 0.65097   1 
  -7   0  -2 3.11438 0.99474   6 
  -7   0   2 4.01619 1.11059   6 
  -7   0   2 3.39757 0.72532   1 
   8   0  -2 134.127   8.994   1 
  -8   0   2 159.944   9.184   1 
  -8   0  -2 142.369   8.409   2 
  -8   0   2 137.061   8.423   2 
  -8   0   2 132.639   9.503   6 
  -9   0   2 181.546  11.384   1 
  -9   0   2 186.683  10.591   2 
  -9   0  -2 181.207  10.523   2 
   9   0  -2 177.907  11.371   1 
 -10   0  -2 12.8037  0.9986   2 
 -10   0   2 12.7636  1.0058   2 
   0  -1   2 1235.06   76.12   5 
   0   1   2 1453.31   76.68   5 
   0   1  -2 1297.12   76.07   5 
   1  -1   2 1765.97  102.58   5 
   1  -1   2 1548.65  100.94   5 
   1   1   2 1985.10  101.67   5 
   2  -1   2 1335.76   82.19   5 
   2   1  -2 1357.30   82.88   5 
   2   1   2 1484.28   82.61   5 
   2  -1  -2 1544.63   83.28   5 
  -3  -1  -2 516.832  28.441   9 
   3  -1   2 464.198  27.873   5 
   3   1  -2 482.806  28.012   5 
   3  -1  -2 477.521  28.067   5 
   3   1   2 482.835  27.952   5 
   4  -1   2 444.411  27.136   5 
  -4   1   2 451.485  27.818   6 
  -4  -1  -2 405.813  31.446   3 
   4   1  -2 482.300  27.326   5 
  -4  -1  -2 492.287  27.900   6 
  -4   1  -2 505.609  27.943   6 
   4  -1  -2 500.306  27.332   5 
  -4  -1   2 518.019  27.684   9 
  -4   1  -2 411.577  31.615   3 
  -4  -1   2 468.585  27.840   6 
   4   1   2 483.876  27.245   5 
   5   1  -2 249.071  14.854   5 
  -5   1   2 252.106  15.268   6 
  -5  -1  -2 263.705  15.312   6 
  -5  -1   2 241.144  15.223   6 
  -5   1  -2 256.835  15.316   6 
   5  -1  -2 230.190  14.766   5 
  -6   1   2 118.408   7.200   1 
  -6  -1  -2 118.514   7.565   6 
  -6  -1  -2 129.820   7.200   1 
  -6   1   2 115.973   7.560   6 
  -6   1  -2 107.054   7.489   6 
   6   1   2 93.1069  7.0105   1 
  -6  -1   2 105.362   7.462   6 
  -6  -1   2 102.895   7.160   1 
  -7  -1  -2 614.649  33.777   1 
   7   1  -2 523.137  33.703   1 
  -7   1   2 524.536  33.439   6 
  -7   1   2 580.138  33.804   1 
  -7  -1  -2 522.578  33.369   6 
  -7   1  -2 558.412  33.467   6 
  -7  -1   2 544.200  33.484   6 
  -7  -1   2 597.400  33.871   1 
   7   1   2 518.973  33.649   1 
  -8  -1  -2 74.4375  4.5043   1 
  -8   1   2 69.7508  4.2495   2 
  -8   1   2 65.9138  5.0807   6 
   8   1  -2 68.4240  4.5012   1 
  -8  -1  -2 68.1529  4.1921   2 
  -8   1   2 73.3003  4.5479   1 
  -8  -1   2 57.2023  4.9403   6 
   8   1   2 54.4874  4.3332   1 
  -8   1  -2 62.7904  4.1589   2 
  -8  -1   2 65.9447  4.5220   1 
   8  -1  -2 59.5459  4.4107   1 
  -8  -1   2 60.0164  4.1769   2 
  -9  -1  -2 29.6907  1.9952   2 
  -9   1   2 30.0828  2.0446   2 
  -9   1   2 30.5583  2.1342   1 
   9   1  -2 31.1823  2.1614   1 
  -9  -1   2 25.6497  2.1050   1 
   9  -1  -2 22.1623  1.9998   1 
  -9  -1   2 22.9441  1.9288   2 
  -9   1  -2 24.4289  1.9160   2 
 -10   1   2 42.1492  2.5879   2 
 -10  -1  -2 40.2121  2.5543   2 
 -10  -1   2 41.3198  2.5641   2 
 -10   1  -2 40.9230  2.5687   2 
   0   2  -2 570.013  32.792   5 
   0   2   2 566.613  33.029   5 
  -1   2   2 2491.37  149.33   5 
   1   2  -2 2511.58  160.03   5 
   1  -2   2 2481.09  152.25   5 
   1   2   2 2727.64  149.07   5 
  -1   2  -2 2723.59  151.48   5 
   2   2  -2 749.917  43.225   5 
   2  -2   2 718.388  43.714   5 
   2   2   2 741.999  42.738   5 
   2  -2  -2 758.774  42.806   5 
  -3  -2  -2 398.417  21.169   9 
   3   2  -2 378.043  20.805   5 
   3  -2   2 351.641  20.609   5 
  -3  -2   2 356.182  20.981   9 
   3  -2  -2 339.736  20.877   5 
   3   2   2 341.753  20.741   5 
  -3   2  -2 337.487  21.184   6 
  -4  -2  -2 80.0606  5.1415   6 
  -4   2   2 74.0485  5.1006   6 
  -4  -2  -2 80.8920  5.3500   9 
   4   2  -2 76.0173  4.9794   5 
  -4  -2  -2 74.7404  6.2578   3 
   4   2   2 79.6105  4.9488   5 
   4  -2  -2 83.3702  5.0450   5 
  -4   2  -2 79.3953  5.1859   6 
  -4  -2   2 74.3257  5.0748   6 
  -4  -2   2 85.2445  5.2264   9 
  -4   2  -2 70.4576  6.4845   3 
  -5  -2  -2 48.5942  4.1097   6 
  -5   2   2 48.6168  4.1370   6 
   5  -2  -2 58.0948  3.9794   5 
  -5  -2   2 69.5374  4.4854   9 
  -5   2  -2 66.6991  4.3739   6 
   5   2   2 59.3131  4.0171   5 
  -5  -2   2 67.9117  4.3351   6 
  -6   2   2 132.406   8.609   1 
   6   2  -2 118.142   8.528   1 
  -6   2   2 126.647   8.890   6 
  -6  -2  -2 128.392   8.846   6 
  -6  -2  -2 147.263   8.640   1 
  -6  -2   2 141.219   8.695   1 
  -6  -2   2 150.030   9.044   6 
  -6   2  -2 149.712   9.048   6 
   6   2   2 128.170   8.527   1 
  -7   2   2 107.211   6.347   2 
  -7   2   2 117.643   6.866   1 
  -7   2   2 101.297   7.285   6 
  -7  -2  -2 105.211   7.261   6 
  -7  -2  -2 109.241   6.348   2 
   7   2  -2 103.667   6.769   1 
  -7  -2   2 93.5954  6.2862   2 
  -7   2  -2 106.925   6.311   2 
   7   2   2 93.8487  6.6864   1 
  -7   2  -2 103.386   7.271   6 
  -7  -2   2 98.8553  7.2605   6 
  -8   2   2 70.3217  4.2558   1 
  -8  -2  -2 66.7607  3.9465   2 
  -8   2   2 67.5638  3.9980   2 
  -8   2   2 61.0799  4.7808   6 
   8   2  -2 66.0653  4.2325   1 
   8  -2  -2 49.8969  4.0465   1 
  -8   2  -2 57.5588  3.8784   2 
   8   2   2 51.9668  4.0768   1 
  -8  -2   2 51.9783  4.6144   6 
  -8  -2   2 59.1429  4.2360   1 
  -9   2   2 48.1501  3.1262   2 
  -9  -2  -2 44.8041  3.0653   2 
   9   2  -2 48.6210  3.3438   1 
  -9   2   2 50.1072  3.3037   1 
  -9  -2   2 43.8160  3.0565   2 
  -9   2  -2 49.7588  3.0892   2 
  -9  -2   2 50.9068  3.3913   1 
   9   2   2 46.2674  3.2848   1 
   9  -2  -2 44.5322  3.2515   1 
 -10   2   2 3.22764 0.45265   2 
 -10  -2  -2 2.84697 0.42276   2 
 -10   2  -2 3.60479 0.45213   2 
 -10  -2   2 3.09495 0.42542   2 
   1   3  -2 2077.75  113.40   5 
  -1   3   2 1886.42  113.64   5 
   1   3   2 2007.43  113.57   5 
  -1   3  -2 1884.00  112.85   5 
   2  -3   2 457.673  28.017   5 
   2   3  -2 470.513  28.093   5 
  -2   3   2 485.409  28.229   5 
   2   3   2 534.746  28.151   5 
  -3  -3  -2 672.149  40.770   3 
   3   3  -2 629.618  35.870   5 
  -3   3   2 622.945  36.473   6 
  -3  -3  -2 626.530  36.237   9 
   3   3   2 607.806  35.853   5 
  -3   3  -2 583.172  41.221   3 
  -3   3  -2 619.184  36.510   6 
   3  -3  -2 607.476  36.022   5 
  -4   3   2 438.911  24.861   6 
   4   3  -2 424.162  24.386   5 
  -4  -3  -2 439.351  24.828   6 
  -4  -3  -2 458.425  28.177   3 
  -4  -3  -2 448.463  24.871   9 
  -4  -3   2 365.183  24.708   6 
   4  -3  -2 385.972  24.365   5 
  -4   3  -2 431.292  24.899   6 
  -4  -3   2 415.694  24.644   9 
  -4   3  -2 375.114  28.305   3 
   4   3   2 406.486  24.342   5 
  -5   3   2 85.9974  6.1159   6 
  -5  -3  -2 79.1700  6.2673   9 
  -5  -3  -2 81.8415  6.0252   6 
  -5   3  -2 107.331   6.316   6 
   5   3   2 96.0035  5.9621   5 
  -5  -3   2 96.7849  6.2683   9 
  -5  -3   2 94.2087  6.1535   6 
  -6   3   2 267.561  16.084   1 
  -6   3   2 269.605  16.248   6 
   6   3  -2 241.128  16.007   1 
  -6  -3  -2 255.898  16.108   6 
  -6  -3  -2 295.183  16.152   1 
   6   3   2 234.813  15.980   1 
  -6   3  -2 277.302  16.263   6 
  -6  -3   2 246.686  16.121   1 
  -6  -3   2 252.206  16.155   6 
   7   3  -2 492.696  29.826   1 
  -7  -3  -2 461.592  27.468   2 
  -7   3   2 473.303  29.637   6 
  -7   3   2 515.463  29.831   1 
  -7   3   2 470.030  27.505   2 
  -7  -3   2 474.817  29.624   6 
   7   3   2 491.076  29.791   1 
  -7   3  -2 519.231  29.719   6 
  -7  -3   2 491.702  29.905   1 
  -7  -3   2 441.953  27.485   2 
  -7   3  -2 538.890  27.545   2 
  -8   3   2 258.374  16.780   6 
  -8   3   2 287.575  15.349   2 
  -8   3   2 289.030  16.535   1 
  -8  -3  -2 255.424  15.234   2 
   8   3  -2 282.207  16.583   1 
  -8  -3   2 273.773  16.641   1 
   8  -3  -2 244.405  16.431   1 
   8   3   2 266.441  16.528   1 
  -8   3  -2 281.129  15.292   2 
  -8  -3   2 225.871  15.202   2 
  -9   3   2 75.6629  4.3346   2 
   9   3  -2 76.9536  4.6795   1 
  -9  -3  -2 64.9398  4.2248   2 
  -9   3  -2 70.3710  4.2431   2 
   9   3   2 68.1968  4.5949   1 
  -9  -3   2 68.8586  4.6497   1 
  -9  -3   2 59.0469  4.1723   2 
 -10   3   2 19.5607  1.2310   2 
 -10   3  -2 14.2151  1.1401   2 
   0   4   2 6107.85  383.37   5 
   0   4  -2 6612.74  378.43   5 
   1   4  -2 711.850  39.866   5 
  -1   4   2 713.371  39.814   5 
  -1   4  -2 633.277  39.469   5 
  -2  -4  -2 76.6296  5.6332   3 
   2   4  -2 80.8401  4.8890   5 
  -2   4   2 78.7383  4.9767   5 
  -2   4  -2 68.6351  6.1386   3 
  -2   4  -2 86.6383  4.8226   5 
   2   4   2 72.3383  4.8783   5 
  -3  -4  -2 1024.36   64.43   3 
   3   4  -2 1014.11   56.99   5 
  -3   4   2 925.066  57.829   6 
  -3  -4  -2 981.761  57.411   9 
  -3   4  -2 972.001  57.883   6 
   3   4   2 1007.93   57.32   5 
  -3   4  -2 1015.83   65.09   3 
   3  -4  -2 977.574  57.129   5 
  -4   4   2 287.182  18.570   6 
  -4  -4  -2 293.023  21.035   3 
   4   4  -2 278.220  18.257   5 
  -4  -4  -2 276.708  18.583   9 
   4  -4  -2 311.768  18.371   5 
  -4   4  -2 338.730  18.700   6 
  -4   4  -2 331.816  21.700   3 
  -4  -4   2 349.979  18.648   9 
   4   4   2 318.348  18.316   5 
  -5   4   2 72.7279  5.0967   6 
  -5  -4  -2 61.3194  5.1999   9 
  -5   4  -2 83.0515  5.2082   6 
  -5  -4   2 75.2200  5.2362   9 
  -6   4   2 222.646  12.805   1 
  -6   4   2 221.822  13.105   6 
   6   4  -2 206.084  12.769   1 
  -6  -4   2 192.523  13.049   9 
  -6   4  -2 210.133  13.019   6 
   6   4   2 176.185  12.687   1 
  -7   4   2 83.9401  5.3950   2 
  -7  -4  -2 75.5091  5.3106   2 
   7   4  -2 86.6308  5.8386   1 
  -7   4   2 78.9991  6.2216   6 
  -7   4   2 90.0807  5.7951   1 
   7   4   2 95.7144  5.8771   1 
  -7   4  -2 100.066   5.440   2 
  -7  -4   2 89.4367  5.9089   1 
  -8   4   2 420.654  21.645   2 
  -8  -4  -2 336.206  21.478   2 
   8   4  -2 401.443  23.428   1 
   8   4   2 373.670  23.377   1 
  -8  -4   2 355.237  23.413   1 
  -8   4  -2 398.490  21.557   2 
  -9  -4  -2 11.5386  0.9750   2 
   9   4   2 11.4192  1.1070   1 
  -9   4  -2 9.66362 0.93691   2 
 -10   4  -2 3.23414 0.37770   2 
   0   5   2 153.957   8.954   5 
   0   5  -2 146.947   8.830   5 
   0   5  -2 143.257  10.577   3 
   1   5  -2 316.394  18.074   5 
   1   5  -2 298.038  20.765   3 
  -1   5   2 323.295  18.154   5 
  -1   5   2 314.793  20.759   3 
  -1  -5  -2 316.647  20.523   3 
  -1   5  -2 301.293  21.055   3 
   1   5   2 311.295  18.127   5 
  -1   5  -2 291.721  17.963   5 
  -2   5   2 473.452  31.805   3 
  -2  -5  -2 487.908  31.658   3 
   2   5  -2 480.874  27.965   5 
  -2   5   2 480.216  28.036   5 
   2   5   2 480.793  28.001   5 
  -2  -5   2 495.350  31.504   3 
  -2   5  -2 470.109  32.283   3 
  -3  -5  -2 393.398  27.543   3 
  -3  -5  -2 395.694  24.543   9 
   3   5  -2 397.527  24.274   5 
   3   5   2 437.004  24.349   5 
  -3   5  -2 415.000  24.599   6 
  -3   5  -2 456.358  28.424   3 
   4   5  -2 165.985   9.902   5 
  -4  -5  -2 179.246  11.647   3 
  -4   5   2 171.849  10.021   6 
  -4  -5  -2 165.268  10.178   9 
   4   5   2 147.989   9.822   5 
   4  -5  -2 136.904   9.833   5 
  -4  -5   2 165.393  10.084   9 
  -4   5  -2 150.450   9.933   6 
  -4   5  -2 158.695  12.030   3 
  -5   5   2 308.553  17.748   6 
   5   5  -2 294.808  17.739   1 
  -5  -5  -2 286.355  17.865   9 
  -5  -5   2 305.914  17.762   9 
  -5  -5   2 246.823  17.735   1 
  -5   5  -2 306.495  17.726   6 
   5   5   2 276.877  17.726   1 
  -6   5   2 465.854  27.489   6 
   6   5  -2 472.040  27.692   1 
  -6  -5   2 451.732  27.424   9 
   6   5   2 465.402  27.703   1 
  -6  -5   2 395.270  27.685   1 
  -6   5  -2 470.785  27.462   6 
  -7   5   2 308.929  16.834   2 
   7   5  -2 324.546  18.277   1 
  -7   5   2 288.575  18.340   6 
   7   5   2 287.904  18.220   1 
  -7  -5   2 261.760  18.226   1 
   8   5  -2 16.0573  1.6199   1 
  -8   5   2 15.4902  1.4602   2 
   8   5   2 20.1848  1.6905   1 
  -8  -5   2 19.7409  1.7272   1 
  -8   5  -2 20.7559  1.5002   2 
   9   5  -2 136.987   8.822   1 
  -9   5   2 132.927   8.098   2 
  -9   5  -2 135.763   8.030   2 
   9   5   2 153.595   8.882   1 
   0   6   2 297.124  17.779   5 
   0   6  -2 288.332  17.647   5 
   0   6  -2 322.839  20.730   3 
  -1  -6  -2 715.368  47.613   3 
  -1   6   2 723.843  42.179   5 
   1   6  -2 694.504  42.101   5 
  -1   6   2 731.513  47.922   3 
   1   6  -2 684.781  47.910   3 
  -1   6  -2 752.982  48.292   3 
  -1   6  -2 775.086  42.053   5 
   1   6   2 757.509  42.205   5 
  -2   6   2 38.3750  2.6525   5 
  -2   6   2 39.5440  3.3707   3 
  -2  -6  -2 38.0355  3.0808   3 
   2   6  -2 35.4151  2.5481   5 
  -2  -6   2 30.0424  2.8165   3 
  -2   6  -2 26.9611  3.4018   3 
  -3   6   2 496.606  29.388   5 
  -3  -6  -2 513.135  33.276   3 
   3   6  -2 490.852  29.317   5 
  -3  -6  -2 479.196  29.596   9 
  -3   6  -2 536.631  34.086   3 
   3   6   2 495.561  29.354   5 
  -4  -6  -2 184.277  12.159   9 
  -4  -6  -2 201.490  13.859   3 
  -4   6  -2 198.715  14.426   3 
   5   6  -2 100.181   6.651   1 
  -5  -6  -2 101.310   7.250   9 
   5   6   2 110.669   6.725   1 
  -5  -6   2 89.6385  6.6686   1 
  -5  -6   2 120.668   7.271   9 
  -6  -6  -2 5.76904 1.45717   9 
   6   6  -2 6.80213 0.91245   1 
   6   6  -2 6.35879 0.81437   4 
  -6  -6   2 9.03929 1.46953   9 
  -6  -6   2 6.64947 0.90650   1 
   7   6  -2 112.194   7.035   1 
  -7   6   2 110.685   6.469   2 
   7   6   2 98.5068  6.9831   1 
  -8   6   2 5.55824 0.74782   2 
   8   6  -2 5.97233 0.89875   1 
   8   6   2 8.31873 0.98767   1 
   9   6  -2 7.38702 0.86252   1 
  -9   6   2 7.14306 0.74163   2 
   9   6   2 9.23552 0.94070   1 
   0   7   2 71.3495  4.7895   5 
   0   7  -2 71.0649  4.6577   5 
   0   7  -2 75.0643  6.1138   3 
   0  -7  -2 73.6534  5.5439   3 
  -1   7   2 17.1889  2.1715   3 
  -1   7   2 16.0023  1.4983   5 
   1   7  -2 16.6202  2.2154   3 
  -1  -7  -2 17.6642  1.8740   3 
   1   7   2 13.7438  1.4543   5 
  -1   7  -2 12.6382  2.1772   3 
  -2   7   2 698.964  44.259   3 
  -2   7   2 643.966  38.823   5 
  -2  -7  -2 703.850  43.962   3 
   2   7  -2 632.826  38.784   5 
  -2  -7   2 703.426  43.817   3 
  -2   7  -2 681.986  44.703   3 
   2   7   2 611.858  38.800   5 
  -3  -7  -2 348.143  23.472   3 
  -3   7   2 330.759  20.608   5 
  -3   7  -2 363.524  24.288   3 
  -4  -7  -2 109.574   7.769   9 
  -4  -7  -2 120.900   8.946   3 
  -4   7  -2 127.955   9.641   3 
   4   7   2 111.528   7.414   1 
   5   7  -2 70.8742  4.6445   1 
  -5  -7  -2 70.9323  5.3732   9 
   5   7   2 64.8786  4.6387   1 
  -5  -7   2 71.4970  5.2208   9 
  -6  -7  -2 57.6263  5.1061   9 
   6   7  -2 62.8738  4.3427   1 
   6   7  -2 59.0541  3.7706   4 
   6   7   2 68.9035  4.4241   1 
  -6  -7   2 67.0883  5.1019   9 
   7   7  -2 87.4859  5.1173   4 
   7   7  -2 91.6687  5.9371   1 
   7   7   2 88.4348  5.9732   1 
   8   7  -2 24.2253  1.7943   1 
   8   7   2 16.9702  1.7050   1 
   0  -8  -2 452.700  28.984   3 
   0   8  -2 435.974  29.554   3 
   0   8   2 411.854  25.493   5 
   1   8  -2 1102.27   65.47   5 
   1   8  -2 1134.29   74.54   3 
  -1  -8  -2 1196.79   74.13   3 
  -1   8   2 1038.74   65.48   5 
  -1   8   2 1229.36   74.59   3 
  -1   8  -2 1166.29   74.83   3 
   1   8   2 1082.81   65.55   5 
  -2   8   2 842.359  51.025   5 
  -2  -8  -2 917.167  57.781   3 
  -2   8   2 899.465  58.098   3 
  -2  -8   2 891.493  57.599   3 
  -2   8  -2 849.667  58.454   3 
  -3  -8  -2 272.146  18.503   3 
  -3   8  -2 260.329  19.171   3 
  -4  -8  -2 464.723  29.041   3 
  -4  -8  -2 437.380  25.706   9 
   4   8  -2 421.813  25.856   1 
   4   8   2 384.318  25.886   1 
  -4   8  -2 417.446  29.463   3 
   5   8  -2 323.906  20.126   1 
   5   8  -2 303.672  17.379   4 
  -5  -8  -2 327.620  20.397   9 
   5   8   2 339.143  20.222   1 
  -5  -8   2 345.020  20.285   9 
   6   8  -2 54.6478  3.5672   4 
  -6  -8  -2 54.0214  4.8978   9 
   6   8  -2 58.9347  4.0948   1 
  -6  -8   2 62.4126  4.8944   9 
   6   8   2 64.9614  4.2253   1 
   7   8  -2 148.532   8.233   4 
   7   8  -2 150.942   9.505   1 
   7   8   2 148.446   9.570   1 
   8   8  -2 27.8652  2.2233   1 
   8   8   2 31.1368  2.3055   1 
   0   9  -2 58.3443  5.7201   3 
   0  -9  -2 66.5993  5.3190   3 
   1   9  -2 67.4188  6.0242   3 
  -1  -9  -2 65.8148  5.5277   3 
  -1   9  -2 64.1334  6.1045   3 
   1  -9  -2 69.4029  5.5384   3 
  -2  -9  -2 76.9835  5.7550   3 
  -2   9   2 73.7149  6.0694   3 
  -2   9  -2 57.8800  6.0877   3 
  -2  -9   2 57.8321  5.3110   3 
  -3  -9  -2 162.337  11.068   3 
   3   9   2 130.455   9.194   1 
  -3   9  -2 149.471  11.656   3 
  -4  -9  -2 166.500  11.830   3 
  -4  -9  -2 147.654  10.249   9 
   4   9   2 151.271   9.849   1 
  -4   9  -2 156.943  12.279   3 
   5   9  -2 69.7649  4.9653   1 
   5   9  -2 66.3291  4.3548   4 
  -5  -9  -2 66.6551  5.6852   9 
   5   9   2 86.3046  5.1559   1 
   5   9   2 76.4214  4.3791   4 
  -5  -9   2 80.8445  5.7653   9 
   6   9  -2 31.5893  2.4079   1 
   6   9  -2 29.9510  2.1420   4 
   7   9  -2 6.70812 0.82156   4 
   7   9  -2 6.37885 0.88970   1 
   7   9   2 7.58701 0.98395   1 
   8   9  -2 122.169   7.666   1 
   8   9   2 119.945   7.710   1 
   0  10  -2 12.9002  2.3868   3 
  -1 -10  -2 259.571  18.986   3 
  -1 -10   2 284.596  19.067   3 
  -1  10  -2 278.700  19.825   3 
   1  10   2 253.457  16.739   1 
   1 -10  -2 286.275  19.067   3 
  -2 -10  -2 492.103  32.377   3 
  -2  10  -2 500.262  33.184   3 
   2  10   2 429.343  29.042   1 
   2 -10  -2 490.280  32.196   3 
  -2 -10   2 478.249  32.130   3 
  -3 -10  -2 88.1053  7.5649   3 
   3  10   2 93.9831  6.1151   1 
  -3  10  -2 95.8771  8.3044   3 
  -4 -10  -2 113.133   8.698   9 
   4  10  -2 115.857   7.146   4 
  -4 -10  -2 129.671  10.139   3 
   4  10   2 145.080   8.342   1 
  -4  10  -2 127.844   7.229   7 
   4  10   2 127.071   7.172   4 
  -4  10  -2 139.602  10.753   3 
   5  10  -2 244.527  13.031   4 
  -5 -10  -2 225.614  15.450   9 
  -5 -10   2 251.523  15.447   9 
   5  10   2 249.019  15.061   1 
   5  10   2 232.205  12.958   4 
   6  10  -2 43.6569  3.1802   1 
   6  10  -2 44.4328  2.8635   4 
   6  10   2 45.3741  3.2800   1 
   7  10  -2 0.45270 0.33942   4 
   7  10  -2 0.42586 0.38421   1 
   0 -11  -2 216.211  16.141   3 
   0  11  -2 233.966  16.952   3 
  -1 -11  -2 327.718  24.879   3 
   1 -11  -2 375.590  25.036   3 
  -1  11  -2 384.353  25.898   3 
  -1 -11   2 359.701  24.950   3 
  -2 -11  -2 64.7313  6.0310   3 
  -2  11   2 62.9066  4.0340   4 
   2  11  -2 61.2594  4.0417   4 
   2 -11  -2 72.3405  5.9983   3 
  -2 -11   2 75.2595  6.0462   3 
   2  11   2 71.8915  4.6629   1 
   2  11   2 65.4022  4.0755   4 
  -2  11  -2 76.9102  6.9089   3 
  -3 -11  -2 252.058  16.219   9 
  -3 -11  -2 266.136  18.511   3 
   3  11  -2 247.637  13.781   4 
  -3  11   2 270.595  14.563   8 
  -3  11  -2 253.548  14.630   8 
   3  11   2 247.400  13.333   7 
   3  11   2 252.032  13.817   4 
   3  11   2 262.369  15.947   1 
  -3  11  -2 248.101  13.562   7 
  -3  11  -2 261.649  19.034   3 
  -4 -11  -2 136.511   9.458   9 
   4  11  -2 153.561   7.783   4 
   4  11   2 139.221   8.851   1 
  -4  11  -2 136.052   8.172   8 
   4  11   2 132.500   7.404   7 
   4  11   2 134.833   7.712   4 
  -4  11  -2 132.828  11.137   3 
  -4 -11   2 142.082   9.514   9 
  -4  11  -2 129.282   7.642   7 
   5  11  -2 212.241  11.477   4 
   5  11   2 213.570  13.240   1 
   5  11   2 206.420  11.460   4 
   6  11  -2 26.4185  1.9399   4 
   6  11   2 29.5703  2.2423   1 
   7  11  -2 2.84275 0.52394   4 
   0 -12   2 1.89547 1.13017   3 
   0  12  -2 2.58661 0.78245   7 
   0  12   2 2.98468 0.79467   7 
   0  12   2 2.25301 0.62622   4 
   0  12  -2 3.68932 0.71127   4 
   0  12   2 2.46600 0.76225   8 
   0 -12  -2 1.82689 1.10391   3 
  -1  12   2 162.480   8.448   7 
   1  12  -2 156.125   9.107   8 
  -1  12   2 158.896   9.100   8 
   1  12  -2 161.386   8.561   4 
  -1  12   2 166.730   8.586   4 
  -1 -12  -2 150.607  11.789   3 
   1  12  -2 166.068   8.495   7 
  -1  12  -2 145.094   8.471   7 
  -1  12  -2 166.134  12.614   3 
  -1 -12   2 142.582  11.587   3 
  -1  12  -2 137.241   9.078   8 
   1  12   2 143.619   8.524   4 
   1  12   2 151.089   8.402   7 
   1  12   2 144.773   9.000   8 
  -2  12   2 474.408  25.349   4 
   2  12  -2 476.372  25.411   4 
  -2  12   2 453.663  26.693   8 
  -2  12   2 454.007  24.496   7 
  -2 -12  -2 457.075  32.900   3 
   2  12  -2 473.290  24.512   7 
   2  12   2 492.533  24.548   7 
  -2  12  -2 465.436  24.668   7 
  -2  12  -2 551.419  33.942   3 
  -2  12  -2 452.396  26.783   8 
   2 -12  -2 516.297  32.858   3 
  -2 -12   2 511.177  32.787   3 
   2  12   2 481.797  25.423   4 
  -3 -12  -2 281.014  19.886   3 
   3  12  -2 285.738  14.862   4 
  -3  12   2 301.538  15.672   8 
  -3 -12  -2 246.982  17.276   9 
   3  12   2 280.597  14.349   7 
  -3  12  -2 264.207  14.499   7 
  -3  12  -2 275.649  20.254   3 
  -3  12  -2 278.486  15.722   8 
   3  12   2 263.894  14.811   4 
   3  12   2 276.076  17.100   1 
  -4  12   2 83.1035  5.1496   8 
   4  12  -2 79.0144  4.8954   4 
  -4  12  -2 84.3219  4.9579   7 
   4  12   2 83.3118  4.7301   7 
  -4  12  -2 87.8224  5.2756   8 
   4  12   2 83.6509  5.5955   1 
   4  12   2 83.5339  4.9120   4 
   5  12  -2 113.545   6.256   4 
   5  12   2 107.164   6.196   4 
   5  12   2 108.689   7.132   1 
   6  12  -2 228.828  11.646   4 
   6  12   2 203.286  13.386   1 
   0  13  -2 80.6690  4.9303   7 
   0  13   2 85.7452  4.9263   7 
   0  13  -2 87.7554  4.8889   4 
   0  13  -2 82.8418  5.2882   8 
   0 -13   2 70.8522  6.9425   3 
   0  13   2 83.0266  4.9055   4 
   0  13   2 83.3710  5.2392   8 
  -1 -13  -2 65.2095  6.0028   3 
   1  13  -2 75.2671  4.2897   8 
   1  13  -2 77.4900  4.0578   7 
  -1  13   2 74.7639  4.2888   8 
   1 -13   2 56.8727  5.7015   3 
   1  13   2 58.0617  4.0861   8 
  -1 -13   2 57.7391  5.6834   3 
   1  13   2 61.2442  3.8744   7 
   1  13   2 55.9746  3.8393   4 
   1 -13  -2 55.0624  5.6356   3 
  -1  13  -2 56.6632  4.1847   8 
  -1  13  -2 59.0222  3.9483   7 
  -2  13   2 148.298   7.931   4 
  -2  13   2 145.402   8.479   8 
   2  13  -2 151.447   8.013   4 
  -2  13   2 144.422   7.810   7 
   2  13  -2 150.770   7.826   7 
   2  13   2 134.068   7.974   4 
   2  13   2 142.640   7.808   7 
  -2  13  -2 127.282   8.467   8 
  -2  13  -2 137.997   7.906   7 
  -3  13   2 19.8625  1.7363   8 
   3  13  -2 18.9334  1.5895   4 
  -3  13  -2 20.4868  1.7557   7 
  -3  13  -2 19.3116  1.7745   8 
   3  13   2 17.3269  1.5495   4 
   3  13   2 17.6704  1.5405   7 
   4  13   2 3.14443 0.67650   1 
   4  13   2 2.92063 0.61314   7 
  -4  13  -2 3.49554 0.77183   7 
   4  13   2 3.15101 0.66419   4 
  -4  13  -2 2.53844 0.70062   8 
   5  13  -2 70.0884  3.8993   4 
   5  13   2 61.4925  3.8048   4 
   5  13   2 62.2087  4.3218   1 
   6  13  -2 102.984   5.708   4 
   0  14   2 230.135  13.310   8 
   0  14   2 234.882  12.283   7 
   0  14  -2 231.203  12.561   4 
   0  14   2 236.946  12.635   4 
   0  14  -2 230.019  12.304   7 
   0  14  -2 232.220  13.349   8 
   1  14  -2 33.7658  2.5159   8 
   1  14  -2 37.0128  2.3665   4 
  -1  14   2 35.4034  2.3415   4 
   1  14  -2 35.9609  2.4285   7 
  -1  14   2 33.9193  2.5549   8 
  -1  14   2 37.9272  2.4658   7 
  -1  14  -2 28.8456  2.5090   8 
   1  14   2 32.4673  2.3687   7 
  -1  14  -2 33.7382  2.4525   7 
   1  14   2 30.5136  2.4497   8 
   1  14   2 30.7728  2.3175   4 
   2  14  -2 54.1112  3.4512   7 
  -2  14   2 53.7800  3.4531   4 
   2  14  -2 57.2866  3.5576   4 
  -2  14   2 54.2834  3.4949   7 
  -2  14   2 57.3261  3.8152   8 
   2  14   2 60.5452  3.6139   4 
   2  14   2 59.2744  3.5460   7 
  -2  14  -2 58.2960  3.8824   8 
  -2  14  -2 63.2351  3.6969   7 
  -3  14   2 31.1107  2.4139   8 
   3  14  -2 31.0366  2.2521   4 
  -3  14   2 28.9672  2.1755   7 
   3  14   2 36.9079  2.2878   7 
  -3  14  -2 35.9907  2.4063   7 
   3  14   2 34.6873  2.3211   4 
  -3  14  -2 36.6443  2.5442   8 
  -4  14   2 46.2266  3.0343   8 
   4  14  -2 49.2442  2.9391   4 
  -4  14  -2 44.6711  2.8865   7 
   4  14   2 46.7994  2.9276   4 
  -4  14  -2 46.9627  3.0983   8 
   5  14  -2 191.751  10.029   4 
   5  14   2 180.556   9.990   4 
   0  15   2 14.4726  1.3419   7 
   0  15   2 14.9156  1.2881   4 
   0  15   2 14.2039  1.3934   8 
   0  15  -2 14.1888  1.4288   8 
   0  15  -2 14.0174  1.3407   7 
  -1  15   2 52.1389  3.4709   8 
  -1  15   2 54.9266  3.2350   7 
   1  15  -2 56.0204  3.2472   7 
   1  15  -2 54.3243  3.4347   8 
  -1  15   2 51.3264  3.1793   4 
   1  15  -2 52.6329  3.2132   4 
  -1  15  -2 50.1680  3.4821   8 
  -1  15  -2 51.2438  3.2581   7 
   1  15   2 51.2239  3.2470   4 
   1  15   2 50.3849  3.2074   7 
   1  15   2 50.9118  3.3839   8 
  -2  15   2 43.2958  2.7169   4 
   2  15  -2 44.7895  2.7358   7 
   2  15  -2 46.1169  2.8220   4 
  -2  15   2 44.4974  3.0144   8 
  -2  15   2 42.6540  2.7451   7 
  -2  15  -2 44.0180  3.0469   8 
   2  15   2 43.6592  2.8232   4 
   2  15   2 46.3603  2.7951   7 
  -2  15  -2 45.3391  2.8580   7 
  -3  15   2 38.4219  2.5161   8 
   3  15  -2 41.2288  2.3984   4 
   3  15   2 35.1542  2.3549   4 
   3  15   2 34.1308  2.2409   7 
  -3  15  -2 34.8999  2.3508   7 
  -3  15  -2 34.1336  2.5180   8 
  -4  15   2 228.292  13.160   8 
   4  15  -2 242.478  12.620   4 
  -4  15  -2 235.069  13.232   8 
   4  15   2 249.439  12.636   4 
  -4  15  -2 229.074  12.125   7 
   0  16  -2 240.981  13.536   8 
   0  16  -2 238.986  12.435   7 
   0  16   2 233.604  13.495   8 
   0  16   2 250.989  12.456   7 
   1  16  -2 43.0090  2.5662   4 
  -1  16   2 41.8271  2.5640   7 
  -1  16   2 43.9404  2.7888   8 
   1  16  -2 43.8832  2.5645   7 
  -1  16   2 39.2007  2.5245   4 
   1  16   2 43.1768  2.5797   7 
  -1  16  -2 41.8522  2.6060   7 
   1  16   2 38.7091  2.6587   8 
   1  16   2 42.0307  2.6095   4 
  -1  16  -2 42.4706  2.7993   8 
   2  16  -2 40.5383  2.6138   4 
  -2  16   2 39.5706  2.7888   8 
   2  16  -2 39.9760  2.5168   7 
  -2  16   2 36.5853  2.5217   7 
  -2  16  -2 50.2545  2.9197   8 
  -2  16  -2 51.0655  2.7207   7 
   2  16   2 50.0244  2.7236   4 
   3  16  -2 82.0665  4.9788   4 
   3  16   2 96.3559  5.0487   4 
  -3  16  -2 89.6705  4.8698   7 
  -3  16  -2 93.8880  5.3179   8 
   0  17  -2 204.155  10.512   7 
   0  17   2 207.397  10.513   7 
  -1  17   2 50.2082  2.8613   7 
   1  17   2 52.2660  2.8801   7 
  -1  17  -2 52.1422  2.8995   7 
  -1  17  -2 51.7273  3.1316   8 
   0   0   3 -4.6549  0.1599   5 
   1   0   3 6058.91  372.66   5 
   1   0  -3 6866.52  383.89   5 
   2   0   3 452.670  25.255   5 
   2   0  -3 421.276  25.226   5 
  -3   0  -3 68.3949  6.0522   3 
   3   0   3 77.9376  4.5764   5 
  -3   0   3 71.3750  4.8139   6 
   3   0  -3 79.5376  4.7411   5 
   4   0  -3 936.832  52.088   5 
  -4   0  -3 982.412  53.124   6 
  -4   0  -3 794.404  59.617   3 
  -4   0   3 898.772  53.035   6 
  -5   0  -3 1.45137 0.56976   6 
  -5   0   3 1.79138 0.58392   6 
  -6   0   3 23.9887  2.2934   6 
  -6   0  -3 24.8665  2.3080   6 
  -6   0   3 21.7549  1.8854   1 
  -7   0   3 505.707  30.230   1 
  -7   0  -3 508.860  27.853   2 
  -7   0   3 474.325  29.962   6 
  -7   0   3 486.099  27.865   2 
   8   0  -3 3.96276 0.76698   1 
  -8   0   3 3.68654 1.08750   6 
  -8   0   3 4.18204 0.79429   1 
  -8   0  -3 4.63823 0.72137   2 
  -8   0   3 3.93215 0.71634   2 
   9   0  -3 61.9157  4.2448   1 
  -9   0  -3 63.4049  3.9527   2 
  -9   0   3 64.5161  4.2873   1 
  -9   0   3 62.0810  3.9859   2 
 -10   0  -3 4.87213 0.52907   2 
 -10   0   3 4.39624 0.52229   2 
   0   1  -3 1162.18   69.02   5 
   0   1   3 1242.88   69.61   5 
   1   1  -3 267.835  15.007   5 
  -1   1   3 235.493  15.096   5 
   1   1   3 275.833  14.996   5 
   2  -1   3 248.828  13.777   5 
   2   1  -3 245.371  13.950   5 
   2   1   3 241.807  13.883   5 
   2  -1  -3 221.844  14.058   5 
  -3  -1  -3 542.147  34.979   3 
   3   1  -3 549.792  30.417   5 
   3  -1   3 527.425  30.209   5 
  -3   1   3 499.880  30.942   6 
   3  -1  -3 518.262  30.471   5 
  -3   1  -3 508.881  30.972   6 
   3   1   3 534.484  30.314   5 
  -4  -1  -3 432.365  23.661   6 
  -4  -1  -3 389.379  27.070   3 
   4   1  -3 409.215  23.139   5 
  -4   1   3 389.517  23.587   6 
   4   1   3 402.634  23.022   5 
  -4   1  -3 416.558  23.666   6 
   4  -1  -3 400.720  23.142   5 
  -4   1  -3 340.424  27.040   3 
  -4  -1   3 380.907  23.565   6 
  -5   1   3 292.566  18.015   6 
  -5  -1  -3 324.548  18.112   6 
  -5   1  -3 297.101  18.062   6 
  -5  -1   3 272.380  17.951   6 
  -6   1   3 4.17145 0.70061   1 
  -6  -1  -3 2.82827 0.83342   6 
  -6   1  -3 4.01145 0.99055   6 
  -6  -1   3 3.68322 0.93556   6 
  -6  -1   3 3.31753 0.64014   1 
   6   1   3 3.60299 0.60045   1 
   7   1  -3 134.353   8.536   1 
  -7   1   3 131.832   9.012   6 
  -7   1   3 134.058   7.957   2 
  -7  -1  -3 136.448   7.928   2 
  -7   1   3 142.165   8.619   1 
  -7   1  -3 134.338   7.918   2 
  -7  -1   3 125.803   7.938   2 
  -7  -1   3 129.397   8.588   1 
  -7  -1   3 127.339   8.972   6 
  -8   1   3 3.54718 0.70352   2 
  -8   1   3 2.84040 0.98139   6 
  -8  -1  -3 2.98938 0.63213   2 
   8   1  -3 3.16723 0.70356   1 
  -8   1   3 4.76968 0.80869   1 
  -8  -1   3 3.00160 1.01087   6 
  -8  -1   3 3.94111 0.79807   1 
  -8   1  -3 4.12027 0.66403   2 
  -8  -1   3 3.23859 0.67074   2 
   8  -1  -3 3.43826 0.71181   1 
   9   1  -3 128.745   8.106   1 
  -9   1   3 126.223   8.081   1 
  -9   1   3 128.777   7.532   2 
  -9  -1  -3 128.804   7.492   2 
  -9   1  -3 122.629   7.450   2 
  -9  -1   3 125.448   7.512   2 
  -9  -1   3 130.706   8.129   1 
   9  -1  -3 124.088   8.061   1 
 -10  -1  -3 7.35174 0.71156   2 
 -10   1  -3 9.24104 0.74279   2 
   0   2   3 3031.02  173.20   5 
   0   2  -3 2989.58  177.70   5 
  -1   2   3 1564.54   92.03   5 
   1   2  -3 1596.44  102.30   5 
   1   2   3 1595.08   91.46   5 
   2   2  -3 236.880  13.872   5 
   2  -2   3 215.980  13.654   5 
   2   2   3 260.653  13.882   5 
  -3  -2  -3 183.162  11.973   3 
   3   2  -3 176.534  10.083   5 
  -3  -2  -3 173.871  10.373   9 
  -3   2   3 161.413  10.250   6 
  -3   2  -3 164.378  10.288   6 
  -3   2  -3 145.921  12.211   3 
   3  -2  -3 175.069  10.235   5 
   3   2   3 172.110  10.023   5 
  -4  -2  -3 79.4466  5.1184   6 
  -4  -2  -3 77.0622  6.4298   3 
   4   2  -3 77.1638  4.9695   5 
  -4   2   3 78.2268  5.1265   6 
   4  -2  -3 81.6679  5.0617   5 
   4   2   3 79.3082  4.9129   5 
  -4   2  -3 82.1297  5.1879   6 
  -4   2  -3 64.2285  6.5365   3 
  -4  -2   3 71.6183  5.0631   6 
  -4  -2   3 83.8792  5.1676   9 
  -5   2   3 404.362  24.161   6 
  -5  -2  -3 408.544  24.153   6 
  -5   2  -3 418.923  24.233   6 
  -5  -2   3 375.925  24.090   6 
  -6  -2  -3 310.677  17.024   1 
  -6   2   3 268.600  17.083   6 
  -6   2   3 280.320  17.036   1 
  -6  -2  -3 279.965  17.058   6 
  -6  -2   3 249.997  17.013   1 
   6   2   3 249.303  16.882   1 
  -6   2  -3 290.169  17.153   6 
  -6  -2   3 275.956  17.100   6 
  -7  -2  -3 181.472  10.054   1 
  -7   2   3 151.578  10.411   6 
  -7   2   3 164.614  10.058   1 
  -7   2   3 150.666   9.282   2 
   7   2  -3 153.365   9.997   1 
  -7  -2  -3 156.051   9.251   2 
  -7  -2   3 157.907  10.457   6 
  -7  -2   3 158.086  10.093   1 
   7   2   3 143.885   9.897   1 
  -7   2  -3 167.526   9.287   2 
  -7  -2   3 147.167   9.276   2 
  -8  -2  -3 80.7271  4.8009   2 
  -8   2   3 80.5474  4.8632   2 
   8   2  -3 80.8374  5.1865   1 
  -8   2   3 72.6281  5.6647   6 
  -8   2   3 81.5595  5.1827   1 
  -8   2  -3 78.2883  4.7586   2 
  -8  -2   3 70.1319  5.6308   6 
  -8  -2   3 68.0071  4.7601   2 
   8   2   3 72.0788  5.0706   1 
   8  -2  -3 76.4128  5.1279   1 
  -8  -2   3 76.7636  5.2157   1 
   9   2  -3 4.86052 0.73894   1 
  -9  -2  -3 5.26499 0.66907   2 
  -9   2   3 5.15101 0.70231   1 
  -9   2   3 4.87374 0.69311   2 
  -9  -2   3 3.35748 0.65992   1 
  -9  -2   3 3.17356 0.59133   2 
  -9   2  -3 3.62136 0.58956   2 
   9  -2  -3 3.33910 0.63456   1 
 -10  -2  -3 13.6732  1.0228   2 
 -10   2   3 13.4438  1.0425   2 
 -10   2  -3 14.3596  1.0222   2 
 -10  -2   3 13.9643  1.0078   2 
   0   3  -3 235.831  13.515   5 
   0   3   3 231.817  13.667   5 
   1   3  -3 80.6143  5.5292   5 
  -1   3  -3 97.6010  5.4345   5 
   1   3   3 98.8768  5.6416   5 
   2   3  -3 529.667  29.634   5 
  -2  -3  -3 509.721  33.634   3 
  -2   3   3 521.594  29.794   5 
   2   3   3 492.901  29.634   5 
  -3  -3  -3 211.138  12.965   3 
  -3  -3  -3 210.603  11.370   9 
  -3   3   3 187.247  11.183   6 
   3   3  -3 201.194  11.040   5 
   3   3   3 161.626  10.928   5 
   3  -3  -3 163.558  11.133   5 
  -3   3  -3 162.337  11.162   6 
   4   3  -3 157.938   9.348   5 
  -4  -3  -3 157.483  11.294   3 
  -4   3   3 154.094   9.509   6 
  -4  -3  -3 157.807   9.497   6 
  -4  -3  -3 164.061   9.783   9 
  -4  -3   3 155.733   9.495   9 
  -4   3  -3 159.402   9.588   6 
  -4   3  -3 138.726  11.556   3 
  -4  -3   3 139.782   9.450   6 
   4   3   3 149.253   9.276   5 
   4  -3  -3 147.543   9.392   5 
  -5   3   3 38.2190  3.2725   6 
  -5  -3  -3 38.5464  3.2269   6 
  -5  -3   3 47.7661  3.3848   6 
  -5  -3   3 53.8252  3.5860   9 
  -6   3   3 328.831  19.437   6 
   6   3  -3 320.117  19.351   1 
  -6   3   3 333.156  19.405   1 
  -6   3  -3 346.282  19.488   6 
  -6  -3   3 307.578  19.364   6 
  -6  -3   3 275.272  19.350   1 
   6   3   3 294.056  19.270   1 
   7   3  -3 213.123  12.830   1 
  -7   3   3 199.054  13.152   6 
  -7  -3  -3 209.609  11.841   2 
  -7   3   3 200.396  11.861   2 
  -7   3   3 219.540  12.842   1 
  -7   3  -3 213.822  11.838   2 
  -7  -3   3 183.205  13.042   6 
   7   3   3 192.535  12.743   1 
  -8   3   3 36.3992  2.7381   1 
   8   3  -3 36.6470  2.7904   1 
  -8   3   3 36.1382  2.5984   2 
  -8  -3  -3 35.7206  2.5541   2 
  -8  -3   3 32.8164  2.5279   2 
   8   3   3 38.0521  2.7455   1 
  -8   3  -3 41.3894  2.5769   2 
  -8  -3   3 36.3454  2.8079   1 
  -9  -3  -3 3.72937 0.56312   2 
   9   3  -3 4.35199 0.70228   1 
  -9   3   3 3.90485 0.61950   2 
  -9   3   3 3.89891 0.61408   1 
  -9   3  -3 3.31373 0.54395   2 
  -9  -3   3 2.61349 0.59818   1 
   9  -3  -3 2.97945 0.58538   1 
 -10   3   3 8.10879 0.69128   2 
 -10  -3  -3 7.11642 0.63692   2 
  -2  -4  -3 286.688  17.194   9 
  -2   4   3 271.007  17.104   5 
   2   4  -3 293.414  17.005   5 
  -2  -4  -3 275.059  19.354   3 
   2   4   3 318.598  17.067   5 
  -2   4  -3 300.536  20.139   3 
  -3   4   3 1173.76   72.96   6 
   3   4  -3 1290.92   72.47   5 
  -3  -4  -3 1237.91   72.15   9 
  -3  -4  -3 1322.46   81.07   3 
  -3   4  -3 1222.57   81.70   3 
   3   4   3 1267.05   71.63   5 
   3  -4  -3 1208.00   71.81   5 
  -4   4   3 216.605  14.023   6 
  -4  -4  -3 229.504  16.240   3 
  -4  -4  -3 222.322  14.197   9 
   4   4  -3 226.519  13.841   5 
  -4  -4   3 248.248  14.101   9 
  -4   4  -3 247.648  14.150   6 
   4   4   3 235.639  13.846   5 
  -4   4  -3 232.259  16.795   3 
   4  -4  -3 221.215  13.940   5 
  -5  -4  -3 150.941   9.886   9 
  -5   4   3 157.088   9.617   6 
  -5   4  -3 152.299   9.592   6 
  -5  -4   3 137.869   9.542   9 
   6   4  -3 102.602   6.257   1 
  -6   4   3 103.339   6.269   1 
  -6   4   3 108.634   6.780   6 
   6   4   3 80.2662  6.1420   1 
  -6  -4   3 83.6129  6.6224   9 
  -7   4   3 180.885  10.625   2 
   7   4  -3 190.488  11.505   1 
  -7   4   3 179.021  11.437   1 
  -7   4   3 169.981  11.784   6 
  -7  -4  -3 170.443  10.552   2 
   7   4   3 188.799  11.481   1 
  -7  -4   3 176.093  11.539   1 
  -7   4  -3 198.406  10.608   2 
  -8   4   3 59.1122  3.4179   2 
   8   4  -3 57.9756  3.6440   1 
  -8  -4  -3 49.4823  3.2631   2 
  -8   4   3 56.7170  3.5600   1 
  -8   4  -3 43.4353  3.1757   2 
   8   4   3 44.6930  3.4973   1 
  -8  -4   3 40.6993  3.5037   1 
   9   4  -3 176.476  10.512   1 
  -9  -4  -3 143.461   9.554   2 
  -9   4   3 176.627   9.696   2 
   9   4   3 177.694  10.493   1 
  -9   4  -3 162.361   9.579   2 
   0   5  -3 2173.03  149.17   3 
   0  -5  -3 2330.52  150.35   3 
   0   5  -3 2334.58  132.89   5 
   0   5   3 2390.12  134.40   5 
   1   5  -3 73.3632  4.5054   5 
  -1  -5  -3 76.7362  5.3082   3 
  -1   5   3 72.5454  4.6041   5 
   1   5  -3 73.9114  5.5942   3 
  -1   5  -3 65.0842  5.7839   3 
   1   5   3 67.4145  4.5591   5 
  -2   5   3 209.394  12.023   5 
  -2  -5  -3 207.349  13.643   3 
  -2   5   3 196.847  13.625   3 
   2   5  -3 210.895  11.891   5 
   2   5   3 185.952  11.883   5 
  -2   5  -3 185.088  14.238   3 
  -3  -5  -3 1310.01   85.38   3 
  -3  -5  -3 1272.07   76.04   9 
   3   5  -3 1307.58   75.51   5 
  -3   5  -3 1354.74   86.19   3 
   3   5   3 1322.03   75.54   5 
  -4  -5  -3 67.0981  5.4873   3 
  -4  -5  -3 63.4649  4.6387   9 
  -4   5   3 67.5542  4.4047   6 
   4  -5  -3 57.1014  4.4188   5 
  -4   5  -3 64.6150  5.9837   3 
   4   5   3 62.8608  4.3615   5 
   5   5  -3 170.350  10.918   1 
  -5   5   3 175.218  11.095   6 
  -5   5   3 178.358  10.988   1 
  -5  -5  -3 175.573  11.424   9 
   5   5   3 171.753  10.942   1 
  -5  -5   3 182.322  11.178   9 
  -6   5   3 107.277   6.804   1 
   6   5  -3 107.937   6.823   1 
  -6   5   3 104.300   7.196   6 
  -6  -5   3 106.093   7.344   9 
   6   5   3 99.3633  6.7900   1 
  -7   5   3 46.1112  3.1135   2 
   7   5  -3 49.3134  3.3851   1 
  -7   5   3 46.9350  3.3019   1 
  -7   5   3 44.9737  3.8037   6 
   7   5  -3 46.1297  2.9090   4 
   7   5   3 44.5933  3.3488   1 
  -8   5   3 31.0463  2.2320   2 
   8   5  -3 32.3361  2.4346   1 
  -8   5  -3 31.8486  2.1401   2 
  -8  -5   3 27.3378  2.3886   1 
   8   5   3 32.6726  2.4402   1 
  -9   5   3 28.2617  1.9181   2 
   9   5  -3 30.4415  2.1239   1 
   9   5   3 27.5157  2.0952   1 
  -9   5  -3 24.6222  1.8052   2 
   0   6  -3 1044.33   58.49   5 
   0   6   3 993.084  58.655   5 
   0   6  -3 992.160  66.681   3 
   0  -6  -3 1042.37   66.15   3 
  -1  -6  -3 577.503  37.420   3 
   1   6  -3 592.312  33.028   5 
   1   6  -3 570.972  37.771   3 
  -1   6   3 584.057  33.123   5 
  -1   6  -3 559.008  38.080   3 
   1   6   3 535.072  33.069   5 
  -2   6   3 264.406  17.451   3 
   2   6  -3 237.137  15.109   5 
  -2  -6  -3 248.384  17.302   3 
  -2   6   3 257.208  15.265   5 
   2   6  -3 258.975  17.466   3 
   2   6   3 261.545  15.228   5 
  -2   6  -3 260.240  18.097   3 
  -3   6   3 470.796  28.633   5 
   3   6  -3 476.988  28.521   5 
  -3  -6  -3 510.008  32.539   3 
  -3  -6  -3 464.384  28.816   9 
  -3   6  -3 531.818  33.409   3 
   3   6   3 475.945  28.555   5 
  -4  -6  -3 15.7044  1.8375   9 
  -4  -6  -3 16.5447  2.2747   3 
  -4   6  -3 21.3976  3.0199   3 
  -5  -6  -3 16.5426  1.9797   9 
  -5   6   3 16.7633  1.4131   1 
   5   6  -3 16.8738  1.3829   1 
  -5  -6   3 14.7254  1.7615   9 
   5   6   3 12.5748  1.3255   1 
   6   6  -3 87.0109  5.1962   4 
   6   6  -3 92.4615  5.9845   1 
   6   6   3 92.3866  6.0256   1 
  -6  -6   3 92.8685  6.6048   9 
  -7   6   3 41.6225  2.7779   2 
   7   6  -3 38.8529  2.5976   4 
   7   6  -3 40.5515  2.9986   1 
   7   6   3 41.1079  3.0356   1 
   8   6  -3 183.946  11.041   1 
  -8   6   3 168.536  10.115   2 
   8   6   3 172.182  11.039   1 
   9   6  -3 74.8647  4.7915   1 
  -9   6   3 71.6169  4.3751   2 
   0   7  -3 409.914  28.457   3 
   0  -7  -3 432.862  27.893   3 
   0   7   3 415.614  24.641   5 
   1   7  -3 182.407  10.977   5 
  -1  -7  -3 184.155  12.662   3 
  -1   7   3 183.118  11.083   5 
   1   7  -3 183.157  13.066   3 
   1   7   3 169.931  11.046   5 
  -1   7  -3 181.386  13.362   3 
   1  -7  -3 189.504  12.599   3 
  -2   7   3 148.384   9.707   5 
  -2   7   3 164.281  11.354   3 
   2   7  -3 151.031   9.636   5 
  -2  -7  -3 159.470  11.172   3 
   2   7   3 149.854   9.685   5 
  -2   7  -3 172.146  12.089   3 
  -3  -7  -3 721.919  46.407   3 
  -3  -7  -3 677.595  41.199   9 
  -3   7  -3 705.355  47.165   3 
  -4  -7  -3 184.227  13.646   3 
  -4  -7  -3 187.160  11.995   9 
  -4   7  -3 202.247  14.439   3 
   4   7   3 180.973  11.714   1 
   5   7  -3 68.2551  4.4262   1 
  -5  -7  -3 66.1088  5.1688   9 
  -5  -7   3 64.1334  4.9367   9 
   5   7   3 64.3004  4.4785   1 
   6   7  -3 102.677   6.203   1 
   6   7  -3 94.3393  5.3770   4 
  -6  -7   3 86.6653  6.6926   9 
   6   7   3 89.6186  6.2126   1 
   7   7  -3 48.6694  3.5472   1 
   7   7  -3 48.1814  3.1067   4 
   7   7   3 53.7324  3.6612   1 
   8   7  -3 125.164   7.707   1 
   8   7   3 114.969   7.725   1 
   0  -8  -3 37.1027  3.3899   3 
   0   8  -3 38.5261  3.9981   3 
   0   8   3 36.0624  2.8760   5 
   1   8  -3 612.737  40.927   3 
  -1   8   3 574.415  35.651   5 
  -1  -8  -3 647.532  40.523   3 
  -1   8  -3 592.618  41.168   3 
   1  -8  -3 630.457  40.392   3 
  -2  -8  -3 549.545  36.237   3 
  -2  -8   3 558.213  36.000   3 
  -2   8  -3 522.639  36.959   3 
  -3  -8  -3 225.401  15.565   3 
  -3  -8  -3 212.973  13.644   9 
  -3   8  -3 240.389  16.482   3 
   3   8   3 201.367  13.528   1 
  -4  -8  -3 164.058  11.971   3 
  -4  -8  -3 168.899  10.483   9 
   4   8   3 145.805   9.982   1 
  -4   8  -3 157.758  12.496   3 
   5   8  -3 328.927  19.871   1 
   5   8  -3 319.470  17.214   4 
  -5  -8  -3 322.057  20.181   9 
  -5  -8   3 322.409  19.944   9 
   5   8   3 323.876  19.972   1 
   6   8  -3 296.059  18.157   1 
   6   8  -3 298.887  15.738   4 
  -6  -8  -3 277.005  18.631   9 
  -6  -8   3 286.872  18.387   9 
   6   8   3 308.925  18.290   1 
   7   8  -3 72.1995  5.0706   1 
   7   8  -3 76.0024  4.4717   4 
   7   8   3 81.0540  5.2251   1 
   8   8  -3 124.875   7.221   4 
   8   8  -3 128.588   8.379   1 
   8   8   3 144.221   8.479   1 
   0   9  -3 21.3877  2.9721   3 
   0  -9  -3 19.9490  2.3852   3 
  -1  -9  -3 389.319  25.222   3 
  -1   9  -3 351.712  25.825   3 
   1  -9  -3 368.071  25.043   3 
  -2  -9  -3 499.309  32.758   3 
  -2   9  -3 486.635  33.531   3 
   2   9   3 430.925  29.507   1 
   2  -9  -3 490.791  32.462   3 
  -2  -9   3 524.002  32.531   3 
  -3  -9  -3 408.595  25.553   9 
  -3  -9  -3 453.528  29.053   3 
  -3   9  -3 445.027  29.803   3 
   3   9   3 392.758  25.867   1 
  -4  -9  -3 412.185  27.122   3 
  -4  -9  -3 360.896  23.729   9 
   4   9   3 385.784  23.908   1 
  -4   9  -3 402.371  27.648   3 
   5   9  -3 49.0291  3.3149   4 
  -5  -9  -3 51.0194  4.5398   9 
  -5  -9   3 57.2299  4.4975   9 
   5   9   3 59.0434  3.9057   1 
   6   9  -3 146.979   8.154   4 
   6   9  -3 146.931   9.328   1 
   6   9   3 146.242   9.426   1 
   7   9  -3 16.7362  1.3600   4 
   7   9  -3 16.3131  1.4886   1 
   7   9   3 18.0596  1.6017   1 
   8   9  -3 89.1937  4.8913   4 
   8   9   3 86.1627  5.7007   1 
   0 -10  -3 48.1023  4.3939   3 
   0  10   3 42.8617  3.2383   1 
   0  10  -3 50.3542  5.0492   3 
  -1 -10  -3 241.290  15.396   3 
   1 -10  -3 210.356  15.063   3 
   1  10   3 193.469  13.135   1 
  -1  10  -3 203.610  15.845   3 
  -2 -10  -3 329.702  21.035   3 
   2  10   3 268.424  18.303   1 
   2 -10  -3 289.652  20.512   3 
  -2  10  -3 304.319  21.648   3 
  -2 -10   3 299.699  20.544   3 
  -3 -10  -3 62.3673  4.9924   9 
  -3 -10  -3 67.5048  5.9669   3 
   3  10   3 62.7548  4.4482   1 
  -3  10  -3 69.9990  6.6418   3 
  -4 -10  -3 136.790  10.142   3 
  -4 -10  -3 126.289   8.629   9 
   4  10  -3 126.864   6.952   4 
  -4  10  -3 119.493  10.320   3 
   4  10   3 117.511   6.908   4 
  -4  10  -3 115.563   6.993   7 
   4  10   3 116.115   6.680   7 
   4  10   3 129.395   8.032   1 
   5  10  -3 106.420   5.883   4 
  -5 -10  -3 96.8456  7.4450   9 
   5  10   3 101.514   6.747   1 
  -5 -10   3 102.291   7.314   9 
   6  10  -3 86.4217  5.3300   4 
   6  10   3 99.5490  6.2183   1 
   7  10   3 9.97511 1.10344   1 
   8  10  -3 15.5638  1.1060   4 
   0 -11  -3 261.451  18.599   3 
   0  11  -3 262.563  19.285   3 
  -1 -11  -3 189.637  13.968   3 
  -1  11  -3 202.911  14.803   3 
  -1 -11   3 186.593  13.795   3 
   1 -11  -3 189.477  13.827   3 
   1  11   3 179.268  11.860   1 
   2  11  -3 826.442  45.002   4 
  -2 -11  -3 859.173  57.437   3 
  -2  11   3 894.350  45.036   4 
  -2  11   3 824.032  47.287   8 
  -2  11  -3 776.847  47.391   8 
   2 -11  -3 889.179  57.121   3 
   2  11   3 878.254  52.266   1 
  -2 -11   3 934.058  57.167   3 
  -2  11  -3 911.941  58.263   3 
   2  11   3 838.644  45.025   4 
  -3  11   3 75.9684  5.2747   4 
  -3 -11  -3 79.2686  7.7307   3 
  -3  11   3 77.5495  5.6388   8 
  -3  11  -3 112.140   8.851   3 
   3  11   3 100.405   5.462   4 
   3  11   3 102.434   5.383   7 
  -3  11  -3 104.364   5.966   8 
  -3  11  -3 106.672   5.705   7 
  -4 -11  -3 276.272  19.711   3 
   4  11  -3 263.023  14.562   4 
  -4 -11  -3 243.288  17.071   9 
  -4  11  -3 277.534  19.997   3 
  -4  11  -3 281.555  15.440   8 
  -4  11  -3 272.744  14.326   7 
   4  11   3 272.380  14.031   7 
   4  11   3 284.051  16.886   1 
   4  11   3 267.082  14.553   4 
   5  11   3 28.2590  2.0555   4 
   5  11   3 31.5377  2.4246   1 
   6  11  -3 46.0042  3.0036   4 
   6  11   3 50.9758  3.4825   1 
   7  11  -3 4.07868 0.59070   4 
   7  11   3 5.12217 0.72607   1 
   0  12   3 106.453   6.087   4 
   0  12   3 102.108   6.433   8 
   0 -12   3 103.644   8.586   3 
   0  12  -3 103.047   6.540   8 
   0  12   3 104.758   6.011   7 
   0 -12  -3 111.015   8.719   3 
   0  12  -3 109.003   6.132   7 
  -1 -12  -3 5.67431 1.65214   3 
   1  12   3 1.44323 0.63738   8 
   1  12   3 2.38316 0.64134   4 
   1 -12  -3 2.60332 1.19938   3 
  -1 -12   3 1.72426 1.05467   3 
  -1  12  -3 2.62012 0.82234   7 
   1  12   3 1.90414 0.65351   7 
  -1  12  -3 1.32374 1.38936   3 
  -1  12  -3 2.15086 0.77224   8 
  -2  12   3 89.8246  5.7422   8 
  -2 -12  -3 88.0676  7.8947   3 
   2  12  -3 87.6626  5.2969   7 
  -2  12   3 87.9790  5.2894   7 
   2  12  -3 90.4735  5.4021   4 
  -2  12   3 91.7831  5.3699   4 
  -2  12  -3 94.0627  5.5655   7 
  -2  12  -3 89.7974  5.8802   8 
   2  12   3 94.7801  5.4480   4 
  -2  12  -3 99.1165  8.5798   3 
   2 -12  -3 99.5928  7.7290   3 
   2  12   3 97.8429  6.2092   1 
   2  12   3 100.818   5.412   7 
   3  12  -3 166.244   9.154   4 
  -3  12   3 174.110   9.664   8 
  -3 -12  -3 152.680  12.662   3 
  -3  12   3 164.359   9.066   4 
   3  12   3 167.554  10.532   1 
  -3  12  -3 165.336   9.113   7 
   3  12   3 164.509   8.881   7 
   3  12   3 164.004   9.152   4 
  -3  12  -3 168.457  13.195   3 
  -3  12  -3 164.150   9.768   8 
   4  12  -3 2.31197 0.60058   4 
  -4  12   3 2.96016 0.71925   8 
   4  12   3 2.89504 0.69490   1 
  -4  12  -3 3.08598 0.83039   7 
   4  12   3 2.44304 0.61064   4 
  -4  12  -3 2.59948 0.75972   8 
   4  12   3 2.23628 0.59638   7 
   5  12  -3 66.1212  3.8432   4 
   5  12   3 60.5063  3.7702   4 
   5  12   3 63.0186  4.3418   1 
   6  12  -3 9.49057 0.93311   4 
   6  12   3 9.57896 1.03894   1 
   7  12  -3 39.4710  2.3767   4 
   0 -13   3 261.389  20.139   3 
   0  13  -3 293.780  15.008   7 
   0 -13  -3 274.477  20.330   3 
   0  13   3 295.235  14.927   7 
   0  13  -3 285.135  16.262   8 
   0  13   3 289.794  16.192   8 
   0  13   3 293.703  15.367   4 
   1  13  -3 127.845   7.042   4 
  -1  13   3 131.762   7.087   4 
  -1  13   3 119.424   6.893   7 
  -1  13   3 120.527   7.465   8 
   1  13  -3 125.462   6.962   7 
   1  13  -3 118.187   7.470   8 
  -1  13  -3 120.454   7.027   7 
   1  13   3 125.986   7.076   4 
  -1  13  -3 124.088   7.589   8 
   1  13   3 129.882   7.475   8 
   1  13   3 123.929   6.926   7 
  -2  13   3 12.6761  1.3806   8 
   2  13  -3 10.6726  1.2278   7 
  -2  13   3 12.4766  1.1855   4 
  -2  13   3 11.5244  1.2564   7 
   2  13  -3 13.6399  1.2579   4 
  -2  13  -3 12.5769  1.4387   7 
   2  13   3 13.5332  1.2891   4 
   2  13   3 14.5018  1.3722   7 
  -2  13  -3 12.0376  1.4644   8 
  -3  13   3 149.959   8.652   8 
  -3  13   3 132.297   8.057   4 
   3  13  -3 149.021   8.235   4 
   3  13   3 146.246   9.404   1 
   3  13   3 148.290   7.962   7 
  -3  13  -3 151.989   8.789   8 
  -3  13  -3 157.164   8.193   7 
   3  13   3 145.127   8.213   4 
  -4  13   3 24.7126  1.8835   8 
   4  13  -3 24.5600  1.8226   4 
  -4  13  -3 23.6982  1.9639   8 
   4  13   3 25.3470  1.8276   4 
   4  13   3 24.0661  1.9958   1 
  -4  13  -3 24.5205  1.9361   7 
   5  13  -3 60.5860  3.4000   4 
   5  13   3 53.4330  3.3014   4 
   5  13   3 51.9126  3.7626   1 
   6  13  -3 3.82373 0.56468   4 
   0  14   3 22.4816  1.7532   7 
   0  14  -3 19.7767  1.7489   7 
   0  14   3 19.7488  1.6411   4 
   0  14  -3 20.2422  1.8507   8 
   0  14   3 20.4656  1.8008   8 
  -1  14   3 34.4888  2.4877   4 
  -1  14   3 33.7895  2.6997   8 
   1  14  -3 33.7565  2.4648   4 
   1  14  -3 32.6865  2.6673   8 
   1  14  -3 32.3201  2.5021   7 
  -1  14   3 35.5076  2.5278   7 
   1  14   3 45.8557  2.6690   4 
  -1  14  -3 46.3278  2.8002   7 
  -1  14  -3 43.5168  2.9204   8 
   1  14   3 44.4890  2.7825   8 
  -2  14   3 131.256   7.257   7 
   2  14  -3 140.577   7.515   4 
  -2  14   3 142.813   7.974   8 
  -2  14   3 133.033   7.443   4 
   2  14  -3 136.406   7.255   7 
  -2  14  -3 129.184   7.996   8 
  -2  14  -3 129.554   7.411   7 
   2  14   3 128.317   7.504   4 
   2  14   3 135.414   7.324   7 
  -3  14   3 24.2202  1.9264   8 
   3  14  -3 27.3900  1.8385   4 
  -3  14   3 24.6929  1.6980   4 
   3  14   3 23.5685  1.7970   4 
   3  14   3 23.7496  1.7680   7 
  -3  14  -3 22.8842  1.9751   8 
  -3  14  -3 25.4219  1.9323   7 
  -4  14   3 125.730   7.316   8 
   4  14  -3 133.884   7.049   4 
   4  14   3 125.815   7.026   4 
  -4  14  -3 120.627   6.857   7 
  -4  14  -3 128.053   7.423   8 
   5  14  -3 8.72333 0.83731   4 
   0  15  -3 41.5361  2.6975   7 
   0  15   3 39.2200  2.8159   8 
   0  15   3 41.8673  2.6791   4 
   0  15   3 42.1706  2.6749   7 
   0  15  -3 41.8565  2.8853   8 
  -1  15   3 25.8989  2.0717   8 
   1  15  -3 27.1999  1.9536   7 
   1  15  -3 26.2836  1.8757   4 
  -1  15   3 27.1506  1.9025   4 
  -1  15   3 26.2532  1.9281   7 
   1  15   3 28.2753  2.0404   8 
  -1  15  -3 29.8481  2.0589   7 
  -1  15  -3 27.9487  2.1552   8 
   1  15   3 28.5648  1.9775   7 
   1  15   3 27.9628  1.9610   4 
  -2  15   3 104.741   6.076   8 
   2  15  -3 100.347   5.511   7 
   2  15  -3 102.564   5.723   4 
  -2  15   3 98.8217  5.6540   4 
  -2  15   3 99.4274  5.5307   7 
   2  15   3 102.702   5.593   7 
   2  15   3 100.967   5.758   4 
  -2  15  -3 100.482   6.121   8 
  -2  15  -3 103.829   5.688   7 
  -3  15   3 434.611  23.689   8 
   3  15  -3 442.128  22.586   4 
   3  15   3 419.378  22.581   4 
  -3  15  -3 428.375  23.766   8 
  -3  15  -3 422.348  21.789   7 
   4  15  -3 140.923   7.336   4 
  -4  15   3 132.070   7.612   8 
  -4  15  -3 123.803   7.059   7 
   4  15   3 140.918   7.336   4 
  -4  15  -3 135.157   7.702   8 
   0  16   3 5.49658 0.68682   4 
   0  16  -3 5.43301 0.80736   8 
   0  16   3 5.51465 0.74166   7 
   0  16   3 5.11258 0.78617   8 
   0  16  -3 6.23545 0.77272   7 
  -1  16   3 28.9720  1.9456   7 
  -1  16   3 26.8372  1.9169   4 
   1  16  -3 27.9779  1.9248   7 
  -1  16   3 28.0382  2.0958   8 
  -1  16  -3 33.3826  2.1978   8 
  -1  16  -3 33.7991  2.0602   7 
   1  16   3 31.7011  2.0127   4 
   1  16   3 33.7247  2.0208   7 
   1  16   3 31.4710  2.0537   8 
  -2  16   3 41.7411  2.5296   4 
  -2  16   3 39.6590  2.4871   7 
   2  16  -3 43.1267  2.5811   4 
  -2  16   3 42.1116  2.7628   8 
  -2  16  -3 43.9183  2.6184   7 
  -2  16  -3 45.2488  2.8346   8 
   2  16   3 44.4187  2.5642   7 
   2  16   3 45.9246  2.6572   4 
   3  16  -3 4.22733 0.53723   4 
  -3  16   3 3.98682 0.61928   8 
  -3  16  -3 3.42379 0.56279   7 
   3  16   3 4.39243 0.56166   4 
  -3  16  -3 3.63452 0.62119   8 
   0   0   4 2.71561 0.42806   5 
   1   0  -4 1117.12   66.25   5 
   1   0   4 1170.52   65.84   5 
   2   0   4 1718.51   96.74   5 
   2   0  -4 1646.56   97.74   5 
  -3   0  -4 821.297  57.576   3 
  -3   0   4 842.412  51.176   6 
   3   0  -4 959.630  50.672   5 
  -4   0   4 6.33311 0.91420   6 
  -4   0  -4 6.34271 1.91621   3 
  -4   0  -4 7.66771 0.99433   6 
   4   0  -4 8.16800 0.90741   5 
  -5   0  -4 1.70999 1.44983   3 
  -5   0   4 2.17952 0.65641   6 
  -5   0  -4 2.12747 0.64584   6 
  -6   0   4 246.050  14.828   6 
  -6   0   4 226.429  14.647   1 
  -7   0   4 4.10586 0.79292   1 
  -7   0  -4 5.46144 0.76839   2 
  -7   0   4 4.07647 0.76156   2 
  -7   0   4 4.79377 1.18808   6 
  -8   0   4 92.5575  5.7112   2 
  -8   0   4 87.1482  6.6061   6 
  -8   0   4 96.4056  6.1623   1 
  -8   0  -4 91.1099  5.6208   2 
   8   0  -4 92.2226  6.0862   1 
  -9   0  -4 130.662   7.776   2 
  -9   0   4 133.616   7.838   2 
   9   0  -4 132.068   8.430   1 
  -9   0   4 135.182   8.459   1 
 -10   0  -4 2.52057 0.39364   2 
 -10   0   4 2.66763 0.39931   2 
   0   1   4 3497.18  213.81   5 
   0   1  -4 3437.25  205.71   5 
  -1   1   4 2447.54  155.36   5 
   1   1  -4 2649.82  154.82   5 
   1   1   4 2985.68  158.10   5 
   2  -1   4 504.659  28.532   5 
   2   1  -4 475.390  28.644   5 
   2   1   4 508.791  28.580   5 
   2  -1  -4 499.755  28.824   5 
   3   1  -4 819.138  45.265   5 
  -3   1   4 759.439  46.058   6 
  -3  -1  -4 814.184  51.887   3 
   3  -1  -4 820.052  45.373   5 
  -3   1  -4 675.178  51.901   3 
  -3  -1   4 748.217  46.045   6 
   3   1   4 863.062  45.289   5 
  -4  -1  -4 265.831  18.999   3 
   4   1  -4 285.207  15.817   5 
  -4   1   4 259.625  16.105   6 
  -4  -1   4 262.014  16.120   6 
  -4   1  -4 284.093  16.202   6 
  -4   1  -4 233.963  18.963   3 
   4  -1  -4 275.662  15.838   5 
  -5  -1  -4 62.6379  5.9207   3 
  -5   1  -4 48.2745  5.5689   3 
  -5   1  -4 59.3253  4.0939   6 
  -5  -1   4 52.9801  3.9956   6 
  -6   1   4 117.986   7.652   6 
  -6   1   4 112.796   7.290   1 
  -6  -1   4 114.897   7.624   6 
  -6  -1   4 105.619   7.267   1 
  -7   1   4 147.090   9.385   1 
  -7  -1  -4 143.665   8.613   2 
  -7   1   4 135.651   9.714   6 
  -7   1   4 140.441   8.670   2 
  -7  -1   4 150.069   8.709   2 
  -7  -1   4 153.982   9.860   6 
  -7   1  -4 152.944   8.625   2 
  -8   1   4 28.8419  2.1317   1 
  -8  -1  -4 26.1787  1.9127   2 
   8   1  -4 25.9281  2.0611   1 
  -8   1   4 25.1685  2.5769   6 
  -8   1   4 29.0201  2.0400   2 
  -8  -1   4 23.5822  2.0718   1 
  -8   1  -4 23.2912  1.8561   2 
   8  -1  -4 23.0737  2.0094   1 
  -8  -1   4 20.6660  2.4345   6 
  -8  -1   4 21.7718  1.8908   2 
   9   1  -4 15.4273  1.3331   1 
  -9  -1  -4 15.6138  1.2122   2 
  -9   1   4 16.1603  1.3241   1 
  -9   1   4 16.8556  1.3005   2 
  -9  -1   4 11.8840  1.2446   1 
  -9   1  -4 11.9452  1.1351   2 
   9  -1  -4 11.3913  1.2132   1 
  -9  -1   4 11.7182  1.1648   2 
 -10  -1  -4 29.6069  1.8490   2 
 -10  -1   4 27.8696  1.8263   2 
 -10   1  -4 28.3749  1.8385   2 
   0   2  -4 21.0382  1.3362   5 
   0   2   4 21.3177  1.5249   5 
   1   2  -4 62.1021  3.7299   5 
  -1   2   4 61.5041  3.9106   5 
  -2  -2  -4 62.6207  4.7016   3 
   2   2  -4 59.5210  3.7266   5 
   2  -2  -4 56.9584  3.9314   5 
   2   2   4 60.2786  3.7126   5 
   3   2  -4 494.419  27.892   5 
  -3   2   4 471.223  28.397   6 
  -3  -2  -4 515.778  32.219   3 
  -3  -2   4 451.957  28.362   6 
  -3   2  -4 417.690  32.416   3 
   3   2   4 519.706  27.844   5 
   3  -2  -4 493.171  28.084   5 
  -4   2   4 240.129  14.403   6 
  -4  -2  -4 252.308  17.068   3 
   4   2  -4 256.873  14.142   5 
   4  -2  -4 231.970  14.171   5 
  -4  -2   4 222.798  14.360   6 
  -4   2  -4 218.190  17.169   3 
  -5  -2  -4 226.052  17.680   3 
  -5   2   4 262.389  14.900   6 
  -5  -2   4 237.682  14.827   6 
  -5   2  -4 235.840  17.881   3 
  -6   2   4 193.535  11.759   1 
  -6   2   4 188.326  11.967   6 
  -6  -2   4 178.114  11.729   1 
  -6  -2   4 195.629  11.986   6 
   6   2   4 179.054  11.581   1 
  -7   2   4 579.793  32.525   1 
  -7   2   4 538.487  29.970   2 
  -7   2   4 520.335  32.195   6 
  -7  -2  -4 544.241  29.914   2 
   7   2  -4 556.967  32.464   1 
  -7  -2   4 522.124  32.203   6 
  -7  -2   4 477.261  29.912   2 
  -7   2  -4 545.524  29.887   2 
  -7  -2   4 502.813  32.483   1 
  -8   2   4 137.529   8.829   1 
   8   2  -4 140.868   8.835   1 
  -8   2   4 137.311   8.214   2 
  -8  -2  -4 138.555   8.155   2 
  -8   2  -4 148.099   8.146   2 
  -8  -2   4 135.627   8.860   1 
  -8  -2   4 124.945   8.131   2 
   9   2  -4 61.2193  3.9985   1 
  -9  -2  -4 59.1159  3.6572   2 
  -9   2   4 62.1533  3.7505   2 
  -9   2   4 62.4438  3.9872   1 
  -9   2  -4 60.1194  3.6596   2 
  -9  -2   4 57.0443  3.9926   1 
  -9  -2   4 52.3831  3.6330   2 
   9  -2  -4 54.3708  3.9102   1 
 -10   2   4 12.1194  0.9159   2 
 -10  -2  -4 11.3586  0.8717   2 
 -10   2  -4 10.7340  0.8577   2 
   0   3   4 366.380  21.657   5 
   0   3  -4 380.222  21.544   5 
  -1   3   4 896.010  50.861   5 
   1   3  -4 879.111  51.030   5 
   1   3   4 876.759  50.907   5 
  -2  -3  -4 551.179  34.852   3 
  -2  -3  -4 538.985  30.899   9 
   2   3  -4 552.073  30.579   5 
  -2   3   4 528.096  30.760   5 
  -2   3  -4 458.641  35.319   3 
   2   3   4 545.037  30.597   5 
   3   3  -4 259.338  14.695   5 
  -3  -3  -4 259.116  15.038   9 
  -3   3   4 240.294  14.925   6 
  -3  -3  -4 268.735  17.234   3 
  -3  -3   4 224.386  14.888   6 
   3  -3  -4 239.147  14.894   5 
   3   3   4 263.945  14.682   5 
  -3   3  -4 235.484  17.685   3 
  -4  -3  -4 117.084   7.788   9 
  -4   3   4 109.346   7.485   6 
  -4  -3  -4 117.451   9.212   3 
   4   3  -4 112.707   7.352   5 
  -4  -3   4 112.945   7.482   6 
  -4  -3   4 133.946   7.574   9 
   4  -3  -4 116.303   7.480   5 
   4   3   4 127.829   7.353   5 
  -4   3  -4 120.442   9.719   3 
  -5   3   4 464.054  26.517   6 
  -5  -3  -4 414.170  30.513   3 
  -5  -3   4 431.034  26.422   6 
  -5   3  -4 454.848  30.887   3 
  -6   3   4 344.435  18.582   6 
  -6   3   4 324.162  18.401   1 
   6   3   4 279.536  18.246   1 
  -6  -3   4 258.647  18.327   1 
  -6  -3   4 284.071  18.352   6 
   7   3  -4 375.675  21.295   1 
  -7   3   4 361.826  21.293   1 
  -7   3   4 334.853  21.342   6 
  -7  -3  -4 352.036  19.619   2 
  -7   3   4 338.170  19.647   2 
   7   3   4 324.452  21.173   1 
  -7  -3   4 324.919  21.304   1 
  -7   3  -4 359.776  19.576   2 
  -7  -3   4 335.082  21.330   6 
   8   3  -4 122.257   7.654   1 
  -8  -3  -4 115.349   7.029   2 
  -8   3   4 117.671   7.613   1 
  -8   3   4 118.709   7.113   2 
   8   3   4 113.475   7.552   1 
  -8  -3   4 113.560   7.667   1 
  -8   3  -4 124.184   7.015   2 
   9   3  -4 30.1625  2.2430   1 
  -9   3   4 30.3456  2.1058   2 
  -9   3   4 31.0929  2.2176   1 
  -9  -3  -4 28.3342  2.0250   2 
   9  -3  -4 28.8503  2.1707   1 
  -9   3  -4 30.4634  2.0263   2 
  -9  -3   4 28.7989  2.2346   1 
 -10   3   4 2.09417 0.35837   2 
 -10   3  -4 1.19603 0.26521   2 
   0   4   4 53.4820  3.1889   5 
   0   4  -4 42.6467  2.9232   5 
  -1   4   4 1057.42   60.33   5 
  -1  -4  -4 1047.00   67.04   3 
   1   4  -4 1018.93   59.88   5 
  -1   4  -4 1006.75   67.66   3 
   1   4   4 1037.16   60.26   5 
  -2  -4  -4 708.356  45.097   3 
   2   4  -4 714.474  39.707   5 
  -2   4   4 688.071  39.882   5 
  -2  -4  -4 687.134  40.027   9 
  -2   4  -4 634.227  45.692   3 
   2   4   4 696.349  39.747   5 
   3   4  -4 283.638  16.452   5 
  -3  -4  -4 287.142  19.098   3 
  -3   4   4 247.858  16.629   6 
  -3  -4  -4 279.066  16.781   9 
   3  -4  -4 273.926  16.710   5 
  -3   4  -4 282.721  19.810   3 
   3   4   4 300.508  16.494   5 
   4   4  -4 287.456  17.060   5 
  -4  -4  -4 287.129  17.520   9 
  -4  -4  -4 298.073  20.126   3 
  -4   4   4 291.296  17.338   6 
   4  -4  -4 259.528  17.151   5 
  -4   4  -4 283.049  20.594   3 
   4   4   4 285.545  17.036   5 
  -4  -4   4 305.106  17.298   9 
  -5  -4  -4 242.816  18.448   3 
  -5   4   4 260.643  15.657   6 
  -5  -4   4 255.765  15.595   9 
  -5   4  -4 254.796  18.758   3 
   6   4  -4 136.299   8.426   1 
  -6   4   4 137.024   8.836   6 
  -6   4   4 132.548   8.448   1 
   6   4   4 123.428   8.371   1 
  -7   4   4 40.5481  2.6883   2 
   7   4  -4 38.6257  2.4614   4 
   7   4  -4 41.8656  2.8669   1 
  -7   4   4 40.5440  2.8415   1 
  -7  -4  -4 42.6246  2.6607   2 
  -7   4   4 37.2876  3.3286   6 
  -7   4  -4 34.0820  2.5052   2 
   7   4   4 33.1548  2.7397   1 
  -7  -4   4 30.7911  2.7839   1 
   8   4  -4 100.200   6.410   1 
  -8   4   4 94.1560  6.3451   1 
  -8   4   4 103.531   5.986   2 
  -8  -4  -4 86.5952  5.8152   2 
  -8  -4   4 95.1469  6.4266   1 
  -8   4  -4 102.102   5.841   2 
   8   4   4 100.741   6.392   1 
  -9   4   4 18.7720  1.4634   1 
  -9  -4  -4 15.0771  1.2954   2 
   9   4  -4 18.4160  1.5195   1 
  -9   4   4 18.6121  1.4196   2 
  -9   4  -4 18.5157  1.3251   2 
   9  -4  -4 18.1951  1.4514   1 
 -10   4   4 129.893   7.390   2 
   0  -5  -4 1050.30   67.78   3 
   0   5   4 1065.94   60.80   5 
   0   5  -4 1019.65   68.33   3 
   1   5  -4 706.441  46.876   3 
  -1   5   4 704.031  41.282   5 
   1   5  -4 751.022  41.149   5 
  -1  -5  -4 744.473  46.645   3 
  -1   5  -4 699.686  47.289   3 
   1  -5  -4 708.504  46.448   3 
   1   5   4 684.647  41.232   5 
  -2  -5  -4 301.130  17.836   9 
  -2  -5  -4 293.718  20.182   3 
   2   5  -4 294.148  17.607   5 
  -2   5   4 293.109  17.780   5 
   2   5   4 311.856  17.700   5 
  -2   5  -4 307.378  21.008   3 
  -3  -5  -4 140.794   9.739   3 
  -3  -5  -4 133.701   8.415   9 
   3   5  -4 134.028   8.159   5 
   3   5   4 125.106   8.149   5 
  -3   5  -4 127.408  10.353   3 
  -4   5   4 37.8023  2.9521   6 
  -4  -5  -4 37.8268  3.2408   9 
  -4  -5  -4 41.4960  4.0653   3 
  -4   5  -4 48.0614  4.8280   3 
  -5  -5  -4 39.8993  4.6457   3 
  -5  -5  -4 44.2752  3.8292   9 
  -5   5   4 44.1421  3.1619   1 
  -5   5   4 43.1369  3.4356   6 
   5   5  -4 44.5916  3.0995   1 
   5   5   4 46.1950  3.1327   1 
  -5  -5   4 46.9732  3.5656   9 
  -5   5  -4 47.6944  5.1482   3 
  -6   5   4 2.97731 0.64963   1 
  -6   5   4 2.72124 0.86616   6 
   6   5  -4 3.29489 0.62813   4 
   6   5  -4 3.54141 0.68170   1 
  -7  -5  -4 3.16226 0.60284   2 
   7   5  -4 3.42292 0.65952   4 
  -7   5   4 3.05495 0.65018   2 
  -7   5   4 3.60840 0.68747   1 
   7   5  -4 3.59474 0.74307   1 
  -7   5   4 3.08516 0.98885   6 
  -7  -5   4 5.33311 0.84957   1 
   7   5   4 4.93426 0.80746   1 
  -8  -5  -4 181.452  11.989   2 
  -8   5   4 220.632  12.163   2 
  -8   5   4 214.708  13.083   1 
   8   5  -4 230.902  13.177   1 
   8   5  -4 214.536  11.315   4 
   8   5   4 199.745  13.117   1 
  -9   5   4 55.8804  3.5053   2 
   9   5  -4 57.2152  3.8058   1 
   0   6  -4 439.935  29.853   3 
   0  -6  -4 459.810  29.269   3 
   0   6   4 429.639  25.880   5 
  -1   6   4 54.9423  3.7311   5 
   1   6  -4 60.3445  3.6386   5 
  -1  -6  -4 55.7187  4.3414   3 
   1   6  -4 56.5354  4.6965   3 
   1  -6  -4 52.8021  4.1725   3 
  -1   6  -4 50.2884  4.9235   3 
   1   6   4 49.5026  3.6607   5 
  -2  -6  -4 47.3158  3.3949   9 
  -2  -6  -4 44.6497  3.9711   3 
  -2   6   4 48.1492  3.4313   5 
   2   6  -4 45.6292  3.2596   5 
   2   6   4 49.5950  3.3766   5 
  -2   6  -4 51.5301  4.8379   3 
  -3  -6  -4 129.270   8.628   9 
  -3  -6  -4 143.856  10.069   3 
   3   6  -4 128.004   8.414   5 
  -3   6   4 130.565   8.595   5 
   3   6   4 137.725   8.508   5 
  -3   6  -4 147.116  10.896   3 
  -4  -6  -4 83.5746  5.9685   9 
  -4  -6  -4 88.7588  7.1179   3 
  -4   6  -4 81.4452  7.5585   3 
  -5  -6  -4 59.1105  5.0159   9 
   5   6  -4 61.2789  4.3060   1 
  -5   6   4 65.5970  4.4051   1 
  -5  -6  -4 62.0228  6.1497   3 
   5   6   4 67.6509  4.4103   1 
  -5   6  -4 73.0003  6.6542   3 
  -5  -6   4 68.1613  4.8488   9 
   6   6  -4 19.3214  1.4593   4 
  -6   6   4 18.2689  1.5785   1 
   6   6  -4 18.1306  1.5663   1 
  -6   6   4 17.4943  1.4377   2 
  -6  -6   4 13.9215  1.4934   1 
   6   6   4 19.0566  1.6421   1 
   7   6  -4 8.67663 1.05121   1 
   7   6  -4 8.51535 0.91499   4 
  -7   6   4 9.27834 0.98422   2 
  -7   6   4 7.83513 0.96640   1 
  -7  -6   4 6.50030 0.96435   1 
   7   6   4 10.1108  1.1358   1 
   8   6  -4 91.7729  5.6855   1 
  -8   6   4 86.7379  5.2209   2 
   8   6  -4 86.3901  4.8932   4 
   8   6   4 78.3491  5.6471   1 
  -9   6   4 9.96491 0.86307   2 
   0   7   4 1330.68   78.10   5 
   0   7  -4 1341.70   88.72   3 
   0  -7  -4 1395.33   88.08   3 
  -1   7   4 101.745   6.422   5 
   1   7  -4 103.799   7.827   3 
  -1  -7  -4 103.380   7.427   3 
   1   7   4 92.3977  6.3704   5 
  -1   7  -4 97.0418  8.0734   3 
   1  -7  -4 99.0533  7.2587   3 
  -2  -7  -4 1174.00   77.69   3 
  -2   7   4 1183.01   68.79   5 
   2   7  -4 1155.18   68.61   5 
   2  -7  -4 1207.61   77.36   3 
  -2   7  -4 1263.98   78.66   3 
   2   7   4 1164.41   68.73   5 
  -3  -7  -4 68.1602  5.0230   9 
  -3  -7  -4 72.6033  5.9677   3 
  -3   7  -4 75.8384  6.7282   3 
  -4   7   4 75.6062  5.1070   1 
  -4  -7  -4 76.9415  5.6507   9 
  -4  -7  -4 82.4212  6.7609   3 
  -4   7  -4 85.2772  7.3961   3 
   4   7   4 71.8480  5.0872   1 
  -5  -7  -4 97.4751  7.2725   9 
   5   7  -4 102.798   6.532   1 
  -5   7   4 104.936   6.611   1 
  -5  -7  -4 101.112   8.719   3 
  -5  -7   4 100.672   7.014   9 
  -5   7  -4 102.078   8.958   3 
   5   7   4 99.1793  6.6168   1 
   6   7  -4 27.1592  1.9823   4 
   6   7  -4 28.9501  2.2240   1 
  -6   7   4 27.1854  2.1979   1 
  -6  -7   4 30.4369  2.2825   1 
   7   7  -4 69.6690  4.8085   1 
   7   7  -4 72.9437  4.2442   4 
   7   7   4 72.0858  4.9110   1 
   8   7  -4 248.574  15.453   1 
  -8   7   4 237.157  14.203   2 
   8   7  -4 250.653  13.344   4 
   8   7   4 265.160  15.551   1 
   0   8  -4 699.591  48.932   3 
   0  -8  -4 768.042  48.352   3 
   1   8  -4 417.015  29.440   3 
  -1  -8  -4 427.116  29.044   3 
   1  -8  -4 440.684  28.926   3 
  -1   8  -4 448.721  29.936   3 
  -2  -8  -4 352.417  27.105   3 
  -2   8  -4 430.291  28.237   3 
   2  -8  -4 427.502  26.961   3 
  -3  -8  -4 192.116  12.796   3 
  -3  -8  -4 168.483  10.929   9 
  -3   8   4 164.351  10.732   1 
  -3   8  -4 188.424  13.545   3 
   3   8   4 152.590  10.701   1 
  -4  -8  -4 633.161  40.340   3 
  -4   8   4 586.902  36.121   1 
  -4  -8  -4 583.027  35.520   9 
  -4   8  -4 606.893  40.855   3 
   4   8   4 567.096  36.134   1 
  -5  -8  -4 207.264  15.152   3 
   5   8  -4 197.435  10.692   4 
  -5  -8  -4 198.070  12.936   9 
   5   8   4 190.763  12.372   1 
  -5   8  -4 195.712  15.196   3 
  -5  -8   4 193.009  12.609   9 
   6   8  -4 45.5677  3.4067   1 
   6   8  -4 46.8309  3.0702   4 
   6   8   4 52.5920  3.6057   1 
  -6  -8   4 51.3737  4.1739   9 
   7   8  -4 116.024   7.485   1 
   7   8  -4 120.908   6.568   4 
   7   8   4 113.539   7.583   1 
   8   8  -4 76.0193  4.8710   1 
   8   8  -4 76.0635  4.2354   4 
   8   8   4 70.3284  4.9047   1 
   0   9  -4 9.00338 2.18880   3 
   0  -9  -4 10.7241  1.6713   3 
  -1  -9  -4 182.210  13.033   3 
   1   9  -4 188.941  13.541   3 
   1  -9  -4 181.128  12.868   3 
  -1   9  -4 169.808  13.681   3 
  -2   9   4 644.934  40.759   1 
  -2  -9  -4 692.458  44.901   3 
   2  -9  -4 690.289  44.470   3 
  -2   9  -4 705.300  45.776   3 
   2   9   4 635.223  40.768   1 
  -3   9   4 136.438   8.686   1 
  -3  -9  -4 145.479  10.645   3 
  -3  -9  -4 135.481   9.037   9 
  -3   9  -4 138.402  11.253   3 
   3   9   4 128.658   8.688   1 
  -4  -9  -4 207.092  13.415   9 
  -4   9   4 209.248  11.181   4 
   4   9  -4 204.063  11.223   4 
  -4  -9  -4 208.905  15.452   3 
  -4   9  -4 214.648  16.023   3 
   4   9   4 202.471  13.000   1 
  -5  -9  -4 75.1947  5.8379   9 
   5   9  -4 82.2765  4.4328   4 
  -5   9  -4 72.6442  7.1307   3 
  -5  -9   4 73.2637  5.5606   9 
   5   9   4 71.0481  5.0274   1 
  -5   9  -4 67.3944  4.5541   7 
   6   9  -4 662.644  35.408   4 
   6   9   4 689.684  41.149   1 
   7   9  -4 6.39198 0.81487   4 
   7   9  -4 6.95825 0.88120   1 
   7   9   4 8.48948 1.01142   1 
   8   9  -4 65.8049  3.7495   4 
   0 -10  -4 548.571  36.142   3 
   0  10   4 525.176  32.712   1 
   0  10  -4 539.519  36.854   3 
  -1  10   4 161.763  10.728   1 
   1  10  -4 186.620  13.221   3 
  -1 -10  -4 181.334  12.720   3 
   1 -10  -4 166.535  12.396   3 
  -1  10  -4 160.176  13.213   3 
  -2  10   4 348.205  21.409   1 
  -2 -10  -4 391.100  24.477   3 
   2  10   4 319.856  21.385   1 
   2 -10  -4 339.432  23.767   3 
  -2  10  -4 348.968  24.985   3 
  -3  10   4 136.524   6.927   4 
  -3 -10  -4 122.338   8.387   9 
   3  10  -4 128.912   6.923   4 
  -3 -10  -4 137.948  10.082   3 
  -3  10  -4 116.038  10.330   3 
   3  10   4 106.473   6.820   4 
   3  10   4 115.960   7.942   1 
  -4  10   4 257.527  14.490   4 
   4  10  -4 251.974  14.557   4 
  -4 -10  -4 259.330  19.673   3 
  -4 -10  -4 245.393  17.066   9 
  -4  10  -4 285.002  15.523   8 
   4  10   4 281.400  14.095   7 
  -4  10  -4 283.280  14.470   7 
  -4  10  -4 286.364  20.279   3 
   4  10   4 270.670  14.561   4 
   4  10   4 297.977  16.968   1 
   5  10  -4 233.994  12.293   4 
  -5  10  -4 217.548  12.088   7 
   5  10   4 227.703  14.226   1 
   6  10  -4 6.89149 0.84797   4 
   6  10   4 5.81801 0.94800   1 
   7  10  -4 6.74632 0.75889   4 
   7  10   4 5.42552 0.81210   1 
   8  10  -4 30.1808  1.8520   4 
   0  11   4 1.59382 0.57933   1 
   0  11  -4 0.71181 1.18221   3 
   0 -11  -4 1.10696 0.89541   3 
   0  11   4 3.07274 0.67648   4 
  -1  11   4 799.940  49.558   1 
  -1 -11  -4 847.805  54.598   3 
  -1  11   4 774.901  42.712   4 
  -1  11  -4 882.249  55.419   3 
   1  11   4 801.143  42.732   4 
   1  11   4 812.655  49.604   1 
  -1 -11   4 822.439  54.268   3 
   1 -11  -4 810.862  54.252   3 
  -2 -11  -4 114.162   8.866   3 
   2  11  -4 108.605   6.018   4 
  -2  11   4 115.501   6.051   4 
  -2  11   4 113.882   6.441   8 
   2 -11  -4 102.309   8.241   3 
   2  11   4 107.845   6.947   1 
   2  11   4 99.9905  6.0081   4 
  -2  11  -4 90.9261  6.4654   8 
   2  11   4 99.6207  5.9036   7 
  -2  11  -4 108.141   9.335   3 
  -2  11  -4 100.100   6.153   7 
   3  11  -4 43.7100  2.9190   4 
  -3  11   4 46.3544  3.1384   8 
  -3  11   4 44.5151  2.8924   4 
  -3 -11  -4 42.8884  4.7589   3 
  -3  11  -4 46.4575  3.3511   8 
   3  11   4 47.5403  3.3796   1 
  -3  11  -4 45.8001  3.2298   7 
   3  11   4 45.9621  2.9462   7 
   3  11   4 46.0620  2.9508   4 
  -3  11  -4 49.4284  5.4000   3 
  -4 -11  -4 20.7639  3.2961   3 
  -4  11   4 22.9390  1.7312   4 
  -4 -11  -4 18.6542  2.4972   9 
   4  11  -4 22.6000  1.8117   4 
  -4  11  -4 26.6022  2.1896   7 
   4  11   4 26.5628  1.8704   4 
   4  11   4 27.9389  2.1818   1 
   4  11   4 26.7097  1.8614   7 
  -4  11  -4 25.6434  3.7103   3 
  -4  11  -4 25.7771  2.1261   8 
   5  11   4 51.3974  3.6421   1 
  -5  11  -4 48.6267  3.2915   7 
   6  11  -4 88.1615  5.0045   4 
   6  11   4 85.7426  5.7639   1 
   7  11  -4 54.9321  3.2275   4 
   0  12   4 16.5292  1.4564   4 
   0  12   4 16.4686  1.6001   8 
   0 -12  -4 16.7523  2.5115   3 
   0  12  -4 15.4767  1.5787   7 
   0  12  -4 15.7397  1.6727   8 
   0  12   4 17.3200  1.5311   7 
   0  12   4 15.3989  1.5376   1 
  -1  12   4 3.62286 0.79074   7 
   1  12  -4 3.41005 0.69134   4 
  -1  12   4 2.60498 0.76060   8 
  -1  12   4 2.92803 0.67996   4 
   1  12  -4 3.00774 0.78833   7 
  -1 -12  -4 2.65065 1.28954   3 
   1  12  -4 2.64846 0.81399   8 
  -1  12  -4 3.17242 1.70662   3 
  -1 -12   4 2.03838 1.10409   3 
  -1  12  -4 1.85158 0.77823   8 
   1  12   4 4.40868 0.79482   4 
   1  12   4 2.17384 0.67964   1 
   1 -12  -4 2.25484 1.13769   3 
  -1  12  -4 2.40055 0.81141   7 
   1  12   4 3.01130 0.74773   7 
  -2  12   4 160.728   9.279   8 
   2  12  -4 159.604   8.759   4 
  -2 -12  -4 158.330  12.341   3 
  -2  12   4 161.389   8.744   4 
   2  12   4 156.281   8.782   4 
  -2  12  -4 146.605   9.377   8 
  -2  12  -4 156.049   8.785   7 
   2  12   4 158.374   8.574   7 
   2  12   4 158.544  10.116   1 
  -2  12  -4 167.417  12.886   3 
  -3  12   4 58.7073  3.2812   4 
   3  12  -4 60.4039  3.3660   4 
  -3  12   4 60.8700  3.5791   8 
   3  12   4 46.4696  3.2088   7 
  -3  12  -4 48.0171  3.4655   7 
  -3  12  -4 47.0068  3.5945   8 
   3  12   4 46.4151  3.2449   4 
   3  12   4 49.0509  3.7312   1 
  -4  12   4 14.1065  1.2651   4 
   4  12  -4 16.1497  1.4056   4 
  -4  12  -4 19.0267  1.7283   7 
  -4  12  -4 16.9383  1.6411   8 
   4  12   4 17.9626  1.4437   4 
   4  12   4 18.6106  1.6564   1 
   5  12   4 17.1450  1.5440   1 
  -5  12  -4 15.0688  1.4634   7 
   6  12  -4 41.5161  2.5868   4 
   6  12   4 41.3954  2.9541   1 
   7  12  -4 8.74202 0.77012   4 
   0  13  -4 1.90034 0.73407   8 
   0  13  -4 1.28540 0.63256   7 
   0  13   4 1.88883 0.68366   8 
   0  13   4 1.18454 0.57818   7 
   0  13   4 1.18615 0.51826   4 
   1  13  -4 81.7941  5.0581   4 
   1  13  -4 75.8988  5.0184   7 
  -1  13   4 77.0613  5.3951   8 
  -1  13   4 79.7110  4.9813   7 
   1  13  -4 76.0862  5.4183   8 
  -1  13   4 81.7103  5.0975   4 
   1  13   4 99.4134  5.1688   7 
   1  13   4 98.8687  5.2302   4 
  -1  13  -4 93.2882  5.6463   8 
   1  13   4 93.9398  5.4615   8 
   1  13   4 98.0340  5.9103   1 
  -1  13  -4 96.4646  5.2845   7 
  -2  13   4 49.8390  3.1766   4 
  -2  13   4 49.5461  3.4389   8 
   2  13  -4 51.6756  3.2268   4 
  -2  13   4 49.1497  3.1415   7 
   2  13   4 51.7661  3.2364   7 
   2  13   4 50.8807  3.2422   4 
   2  13   4 51.7302  3.6693   1 
  -2  13  -4 50.0022  3.5819   8 
  -2  13  -4 52.8500  3.4112   7 
  -3  13   4 16.8270  1.4797   4 
   3  13  -4 19.4952  1.6031   4 
  -3  13   4 19.7348  1.7233   8 
  -3  13  -4 22.1192  1.9146   8 
   3  13   4 22.3968  1.6710   7 
   3  13   4 20.5888  1.8145   1 
   3  13   4 20.4058  1.6261   4 
  -3  13  -4 23.1349  1.8861   7 
   4  13  -4 3.48817 0.64528   4 
  -4  13   4 3.48787 0.67756   8 
  -4  13  -4 2.69489 0.73167   7 
   4  13   4 2.66364 0.65112   1 
  -4  13  -4 2.30027 0.68873   8 
   4  13   4 3.03124 0.62176   4 
   5  13  -4 103.817   5.614   4 
  -5  13  -4 94.3023  5.4617   7 
   6  13  -4 21.0399  1.4579   4 
   0  14   4 0.99002 0.54114   7 
   0  14   4 0.54328 0.45521   4 
   0  14  -4 0.50963 0.51899   7 
   0  14   4 0.20626 0.47616   8 
   0  14  -4 0.21148 0.50741   8 
   1  14  -4 25.4467  2.0982   8 
  -1  14   4 26.7644  1.9325   4 
   1  14  -4 25.3081  1.9780   7 
  -1  14   4 26.6372  2.1139   8 
  -1  14   4 27.3246  1.9671   7 
   1  14   4 28.9248  2.0374   7 
   1  14   4 26.4037  2.0596   8 
   1  14   4 26.7431  1.9777   4 
  -1  14  -4 25.4836  2.1951   8 
  -1  14  -4 29.1641  2.1356   7 
  -2  14   4 86.6308  4.9687   7 
   2  14  -4 89.9532  5.1453   4 
  -2  14   4 89.9536  5.4657   8 
  -2  14   4 91.2306  5.1393   4 
   2  14   4 84.9605  5.1614   4 
  -2  14  -4 90.0226  5.5977   8 
  -2  14  -4 89.9092  5.1988   7 
   2  14   4 91.2330  5.0798   7 
  -3  14   4 84.6480  5.3209   4 
   3  14  -4 95.5800  5.4329   4 
  -3  14   4 91.6373  5.6989   8 
  -3  14  -4 97.6892  5.8665   8 
   3  14   4 99.1335  5.3152   7 
  -3  14  -4 102.783   5.494   7 
   3  14   4 96.6977  5.4721   4 
   3  14   4 97.3250  6.2393   1 
   4  14  -4 99.1820  5.4318   4 
  -4  14   4 94.8277  5.6244   8 
   4  14   4 97.3581  5.4263   4 
  -4  14  -4 95.2755  5.7540   8 
  -4  14  -4 95.7450  5.3617   7 
   4  14   4 95.1042  6.2180   1 
   5  14  -4 74.0157  4.0284   4 
  -5  14  -4 67.1624  3.9011   7 
   0  15  -4 2.80810 0.71777   8 
   0  15   4 2.89645 0.59594   4 
   0  15  -4 3.64790 0.71884   7 
   0  15   4 3.54128 0.67492   7 
   0  15   4 2.59714 0.64636   8 
   1  15   4 6.99713 0.87630   7 
  -1  15  -4 6.99776 1.00626   8 
  -1  15  -4 6.81953 0.93118   7 
   1  15   4 7.09506 0.86887   4 
   1  15   4 6.54827 0.88058   8 
  -2  15   4 79.0359  4.6989   4 
  -2  15   4 86.4250  5.0457   8 
  -2  15   4 78.6358  4.5574   7 
   2  15  -4 85.0766  4.7424   4 
   2  15   4 83.2142  4.6506   7 
  -2  15  -4 85.0065  4.7564   7 
   2  15   4 82.8355  4.7891   4 
  -2  15  -4 85.4926  5.1353   8 
  -3  15   4 9.24394 1.01529   8 
  -3  15   4 9.33240 0.81985   4 
   3  15  -4 9.63474 0.90761   4 
   3  15   4 9.43397 0.94040   4 
  -3  15  -4 10.6002  1.0409   7 
  -3  15  -4 10.8002  1.1148   8 
  -4  15   4 29.8735  1.9096   8 
   4  15  -4 30.9990  1.8735   4 
  -4  15  -4 27.7726  1.9790   8 
  -4  15  -4 27.7497  1.8607   7 
   4  15   4 29.1236  1.8565   4 
   0  16  -4 1.00366 0.45724   8 
   0  16   4 0.50789 0.36710   7 
   0  16  -4 0.47217 0.37119   7 
   0  16   4 0.77633 0.35619   4 
   0  16   4 0.15930 0.36268   8 
   1  16  -4 61.9227  3.4495   7 
  -1  16   4 58.6785  3.4317   7 
  -1  16   4 60.8208  3.5344   4 
  -1  16   4 61.8763  3.7608   8 
  -1  16  -4 61.9832  3.5331   7 
   1  16   4 61.3392  3.5656   4 
   1  16   4 63.7754  3.4996   7 
  -1  16  -4 62.3792  3.8178   8 
   1  16   4 61.6101  3.6923   8 
  -2  16   4 65.4412  3.6965   8 
  -2  16   4 64.4489  3.4484   4 
  -2  16  -4 57.2781  3.7135   8 
  -2  16  -4 55.6607  3.4203   7 
   2  16   4 60.1667  3.4984   4 
  -3  16   4 77.1890  4.4375   8 
  -3  16  -4 75.0947  4.1482   7 
   3  16   4 76.7491  4.2490   4 
   0   0   5 0.30764 0.27315   5 
   1   0  -5 2722.64  171.24   5 
   1   0   5 2833.15  160.73   5 
  -2   0  -5 37.0875  3.6565   3 
   2   0  -5 40.8694  2.6570   5 
  -3   0   5 9.22994 0.93658   6 
   3   0  -5 8.73331 0.93523   5 
  -3   0  -5 7.66538 1.92719   3 
   4   0  -5 670.657  37.937   5 
  -4   0   5 677.589  38.690   6 
  -4   0  -5 614.268  44.160   3 
  -5   0  -5 12.6391  2.9816   3 
  -5   0   5 14.6103  1.5318   6 
  -6   0   5 3.17355 0.65702   1 
  -6   0   5 2.33822 0.80818   6 
  -7   0   5 83.5255  6.0821   6 
  -7   0  -5 82.9342  5.0910   2 
  -7   0   5 82.7403  5.5873   1 
  -7   0   5 81.9541  5.1771   2 
  -8   0   5 31.6303  2.3136   2 
  -8   0   5 30.6045  2.4391   1 
  -8   0  -5 31.2805  2.2318   2 
   8   0  -5 30.4587  2.4054   1 
  -9   0   5 107.729   6.422   2 
   9   0  -5 107.969   6.913   1 
  -9   0   5 110.567   6.936   1 
  -9   0  -5 104.685   6.341   2 
 -10   0   5 31.0437  1.9309   2 
 -10   0  -5 29.8869  1.9182   2 
   0   1   5 2029.97  115.49   5 
   0   1  -5 1967.71  114.80   5 
  -1   1   5 398.672  23.735   5 
   1   1  -5 419.881  23.598   5 
  -2  -1  -5 666.056  46.004   3 
   2   1  -5 678.957  40.391   5 
   2   1   5 730.836  40.142   5 
   2  -1  -5 719.998  40.423   5 
  -3  -1  -5 1203.64   79.49   3 
  -3   1   5 1140.12   70.85   6 
   3   1  -5 1294.05   70.57   5 
  -3   1  -5 1076.29   79.56   3 
  -3  -1   5 1218.77   71.42   6 
   3  -1  -5 1348.19   70.46   5 
  -4   1   5 495.291  29.522   6 
   4   1  -5 507.729  28.941   5 
  -4  -1  -5 479.534  33.976   3 
   4  -1  -5 517.490  29.006   5 
  -4  -1   5 515.697  29.541   6 
  -4   1  -5 463.023  34.081   3 
  -5   1   5 270.767  15.195   6 
  -5  -1  -5 221.095  18.146   3 
  -5   1  -5 231.926  18.313   3 
  -5  -1   5 251.605  15.123   6 
  -6   1   5 218.862  14.167   1 
  -6   1   5 227.883  14.304   6 
  -6  -1   5 237.804  14.346   6 
  -6  -1   5 226.429  14.193   1 
  -7  -1  -5 300.739  16.546   2 
  -7   1   5 295.569  16.621   2 
  -7   1   5 279.067  18.110   6 
  -7   1   5 295.308  17.992   1 
  -7  -1   5 282.520  16.594   2 
  -7  -1   5 302.685  18.220   6 
  -7   1  -5 303.982  16.531   2 
  -7  -1   5 258.737  17.933   1 
  -8   1   5 10.9298  1.1947   1 
  -8   1   5 10.7358  1.1283   2 
  -8  -1  -5 12.7473  1.1234   2 
   8   1  -5 9.87183 1.17527   1 
  -8  -1   5 8.12246 1.03607   2 
  -9   1   5 52.2944  3.5034   2 
  -9  -1  -5 50.8387  3.4351   2 
   9   1  -5 50.6089  3.7310   1 
  -9   1   5 53.1757  3.7530   1 
  -9  -1   5 57.9029  3.5158   2 
   9  -1  -5 59.1572  3.7809   1 
  -9   1  -5 59.0083  3.4626   2 
  -9  -1   5 59.5689  3.8182   1 
 -10   1  -5 44.2189  2.6707   2 
   0   2   5 2836.68  161.51   5 
   0   2  -5 2749.98  166.00   5 
   1   2  -5 39.6632  2.5710   5 
  -1   2   5 42.2232  2.7974   5 
  -2  -2  -5 904.204  55.153   3 
   2   2  -5 825.118  48.477   5 
   2  -2  -5 801.739  48.567   5 
   2   2   5 833.662  52.002   5 
   3   2  -5 134.102   8.004   5 
  -3   2   5 128.145   8.188   6 
  -3  -2  -5 138.868   9.981   3 
  -3  -2   5 130.066   8.185   6 
  -3   2  -5 114.735  10.169   3 
   3  -2  -5 137.136   8.235   5 
   3   2   5 141.415   7.948   5 
  -4  -2  -5 26.7738  3.5961   3 
   4   2  -5 28.5355  2.3664   5 
  -4   2   5 27.0395  2.4354   6 
  -4   2  -5 39.0065  4.3680   3 
   4  -2  -5 38.8857  2.6204   5 
  -4  -2   5 38.9052  2.6327   6 
  -5  -2  -5 44.2086  5.4351   3 
  -5   2   5 50.1988  3.9224   6 
  -5   2  -5 60.3127  6.0742   3 
  -5  -2   5 61.5387  4.0660   6 
  -6   2   5 43.0151  3.2024   1 
  -6   2   5 46.0221  3.6240   6 
  -6  -2   5 42.5396  3.2033   1 
  -6  -2   5 48.0045  3.6520   6 
  -7   2   5 40.6851  3.5101   6 
  -7   2   5 43.2743  2.8460   2 
   7   2  -5 44.9485  3.0272   1 
  -7   2   5 44.1768  3.0423   1 
  -7  -2  -5 45.3501  2.8145   2 
  -7  -2   5 31.9897  3.3140   6 
  -7   2  -5 30.8746  2.6172   2 
   8   2  -5 90.4528  5.7170   1 
  -8   2   5 87.4978  5.3335   2 
  -8  -2  -5 84.8844  5.2377   2 
  -8   2   5 91.6386  5.7378   1 
  -8  -2   5 75.9513  5.2299   2 
  -8  -2   5 81.5979  5.7086   1 
  -8   2  -5 87.3550  5.2272   2 
  -9   2   5 6.96198 0.82360   2 
  -9   2   5 7.43730 0.87871   1 
   9   2  -5 6.87312 0.86581   1 
  -9  -2  -5 8.87462 0.84428   2 
  -9  -2   5 7.74265 0.90425   1 
  -9   2  -5 8.38619 0.79358   2 
   9  -2  -5 8.20882 0.88972   1 
  -9  -2   5 8.05957 0.81884   2 
 -10   2   5 45.6059  2.7772   2 
   0   3   5 262.190  15.351   5 
  -1  -3  -5 11.7731  1.3952   3 
  -1   3   5 11.0705  1.1243   5 
   1   3  -5 11.4017  0.9391   5 
  -2  -3  -5 211.865  14.145   3 
   2   3  -5 201.955  12.035   5 
  -2   3   5 182.671  12.229   6 
  -2  -3  -5 205.409  12.305   9 
  -2   3   5 209.372  12.296   5 
   2   3   5 226.904  12.106   5 
  -2   3  -5 194.212  14.696   3 
  -3  -3  -5 354.996  24.092   3 
  -3   3   5 322.815  21.005   6 
  -3  -3  -5 355.980  21.095   9 
   3   3  -5 352.755  20.657   5 
  -3  -3   5 338.646  21.012   6 
   3  -3  -5 353.652  20.940   5 
  -3   3  -5 348.686  24.686   3 
   3   3   5 399.889  20.685   5 
  -4  -3  -5 478.266  30.298   3 
   4   3  -5 471.566  25.736   5 
  -4   3   5 431.369  26.139   6 
  -4  -3   5 407.224  26.123   6 
  -4   3  -5 435.087  30.574   3 
   4  -3  -5 413.088  25.792   5 
  -5   3   5 65.8432  4.3393   6 
  -5  -3  -5 58.7214  6.0344   3 
  -5   3   5 62.0201  4.0451   1 
  -5  -3   5 54.5315  4.2206   6 
  -5   3  -5 50.6814  5.9793   3 
  -6   3   5 722.468  41.666   6 
   6   3  -5 757.626  42.304   1 
  -6   3   5 681.842  42.309   1 
  -6  -3   5 702.049  41.609   6 
  -6  -3   5 633.061  42.296   1 
   6   3   5 688.264  42.209   1 
   7   3  -5 506.642  27.742   1 
  -7   3   5 483.699  27.765   1 
  -7   3   5 447.634  25.583   2 
  -7  -3  -5 467.011  25.547   2 
  -7   3   5 441.392  27.596   6 
  -7  -3   5 399.988  27.705   1 
  -7  -3   5 422.685  27.519   6 
  -7   3  -5 452.801  25.466   2 
  -8   3   5 147.517   9.391   1 
  -8   3   5 148.484   8.721   2 
   8   3  -5 146.263   8.083   4 
  -8  -3  -5 144.236   8.631   2 
   8   3  -5 160.127   9.421   1 
  -8   3  -5 152.183   8.616   2 
  -8  -3   5 133.393   9.378   1 
   9   3  -5 108.109   6.740   1 
  -9   3   5 102.900   6.699   1 
  -9  -3  -5 96.2195  6.1524   2 
  -9   3   5 107.409   6.257   2 
  -9  -3   5 108.966   6.762   1 
   9  -3  -5 105.957   6.702   1 
  -9   3  -5 106.422   6.138   2 
 -10   3   5 47.5603  2.8671   2 
   0   4  -5 0.94114 0.87236   3 
   0   4   5 0.72276 0.42147   5 
  -1   4   5 242.018  14.491   5 
  -1  -4  -5 237.345  16.448   3 
   1   4  -5 234.003  14.254   5 
   1   4   5 262.804  14.445   5 
  -1   4  -5 245.658  17.166   3 
  -2   4   5 246.338  15.992   6 
  -2   4   5 269.625  16.011   5 
  -2  -4  -5 286.991  18.349   3 
  -2  -4  -5 278.342  16.063   9 
   2   4  -5 271.885  15.780   5 
   2   4   5 276.579  15.855   5 
  -2   4  -5 253.699  18.940   3 
  -3   4   5 31.9147  2.5031   6 
  -3  -4  -5 34.9054  2.7541   9 
  -3  -4  -5 34.9538  3.4537   3 
   3   4  -5 35.6959  2.5049   5 
  -3  -4   5 32.0761  2.4962   6 
   3  -4  -5 34.8045  2.7871   5 
   3   4   5 39.0034  2.5593   5 
  -3   4  -5 36.4285  4.1212   3 
  -4  -4  -5 37.1327  3.9685   3 
  -4   4   5 38.2266  2.7837   6 
  -4   4  -5 30.2419  4.1967   3 
  -5   4   5 136.749   8.828   6 
   5   4  -5 144.143   8.611   1 
  -5   4   5 135.409   8.682   1 
  -5  -4  -5 126.177  11.018   3 
   5   4   5 136.052   8.583   1 
  -5  -4   5 128.050   8.765   6 
  -5   4  -5 150.305  11.589   3 
  -6   4   5 21.8004  1.7715   1 
   6   4  -5 23.7529  1.7544   1 
  -6   4   5 20.5951  2.1456   6 
  -6  -4   5 16.3923  1.6812   1 
   6   4   5 19.1515  1.6647   1 
  -7  -4  -5 201.244  11.504   2 
  -7   4   5 198.896  11.576   2 
   7   4  -5 218.105  12.531   1 
  -7   4   5 208.293  12.534   1 
  -7   4   5 194.962  12.827   6 
   7   4  -5 202.068  10.800   4 
  -7   4  -5 186.357  11.411   2 
   7   4   5 182.990  12.425   1 
  -8  -4  -5 63.1536  4.1602   2 
  -8   4   5 71.2097  4.2850   2 
  -8   4   5 62.8860  4.5047   1 
   8   4  -5 66.0654  3.9328   4 
   8   4  -5 68.8003  4.5619   1 
  -8  -4   5 66.7917  4.5947   1 
  -8   4  -5 70.7521  4.1462   2 
  -9   4   5 93.3964  5.1712   2 
  -9  -4  -5 77.5511  5.0312   2 
   9   4  -5 89.1755  5.5527   1 
  -9   4   5 88.0195  5.5010   1 
   9  -4  -5 83.3504  5.4898   1 
  -9  -4   5 83.6365  5.5417   1 
  -9   4  -5 84.1287  5.0122   2 
   0   5   5 766.279  44.491   5 
   0   5  -5 745.000  50.735   3 
   0  -5  -5 798.192  50.192   3 
  -1  -5  -5 196.429  14.308   3 
  -1   5   5 192.559  12.571   5 
   1   5   5 226.393  12.599   5 
   1  -5  -5 222.668  14.160   3 
  -1   5  -5 213.142  15.080   3 
   2   5  -5 423.905  24.863   5 
  -2  -5  -5 434.328  28.526   3 
  -2   5   5 409.324  25.064   5 
  -2  -5  -5 412.526  25.121   9 
   2   5   5 441.145  24.970   5 
  -2   5  -5 441.923  29.354   3 
  -3  -5  -5 163.378  11.220   3 
  -3  -5  -5 144.761   9.545   9 
   3   5  -5 147.574   9.267   5 
  -3   5  -5 158.207  11.907   3 
   3   5   5 147.433   9.292   5 
  -4   5   5 103.324   7.035   6 
  -4  -5  -5 109.282   7.452   9 
  -4  -5  -5 111.792   8.887   3 
  -4   5  -5 118.032   9.553   3 
  -5  -5  -5 13.0489  2.5868   3 
  -5   5   5 13.6967  1.5236   6 
   5   5  -5 12.7939  1.1737   1 
  -5   5   5 14.1095  1.2805   1 
  -5   5  -5 12.2375  2.9462   3 
   5   5   5 10.6014  1.1526   1 
  -6   5   5 70.0019  5.2326   6 
  -6   5   5 71.9247  4.4962   2 
   6   5  -5 77.3089  4.8284   1 
  -6   5   5 74.3886  4.8798   1 
   6   5  -5 73.0804  4.2237   4 
   6   5   5 63.5570  4.7808   1 
  -7   5   5 112.722   7.211   1 
  -7  -5  -5 107.624   6.607   2 
   7   5  -5 114.068   6.277   4 
   7   5  -5 119.668   7.225   1 
  -7   5   5 108.838   7.650   6 
  -7   5   5 112.749   6.702   2 
   7   5   5 100.580   7.163   1 
  -8   5   5 158.862  10.018   1 
  -8  -5  -5 141.829   9.177   2 
  -8   5   5 166.509   9.337   2 
   8   5  -5 170.400   8.709   4 
   8   5  -5 173.083  10.086   1 
  -8  -5   5 142.340  10.021   1 
   8   5   5 162.584  10.075   1 
  -9   5   5 17.4266  1.3418   2 
   9   5  -5 18.1686  1.4533   1 
   0   6   5 138.555   8.662   5 
   0   6  -5 140.652  10.483   3 
   0  -6  -5 141.646   9.844   3 
  -1   6   5 57.1907  4.2250   5 
   1   6  -5 56.0359  5.1567   3 
  -1  -6  -5 57.5527  4.9122   3 
   1  -6  -5 73.3146  4.8795   3 
   1   6   5 65.7542  4.2765   5 
  -1   6  -5 69.8941  5.8050   3 
  -2  -6  -5 93.9581  6.1521   9 
  -2   6   5 91.9590  6.2000   5 
   2   6  -5 96.0409  6.0156   5 
  -2  -6  -5 93.7764  7.2314   3 
   2   6   5 95.0506  6.1096   5 
  -2   6  -5 101.409   8.068   3 
  -3  -6  -5 70.3811  5.8612   3 
   3   6  -5 69.7760  4.6461   5 
  -3  -6  -5 67.8148  4.8801   9 
  -4   6   5 12.7681  1.2525   1 
  -4  -6  -5 14.7708  1.7494   9 
  -4  -6  -5 17.2255  2.5028   3 
   4   6   5 12.3195  1.2085   1 
  -4   6  -5 12.6965  2.9506   3 
   5   6  -5 176.945  11.660   1 
  -5  -6  -5 172.295  14.380   3 
  -5   6   5 176.845  11.762   1 
   5   6   5 196.379  11.789   1 
  -5  -6   5 195.734  11.944   9 
  -5   6  -5 214.384  15.067   3 
  -6   6   5 238.737  14.240   2 
   6   6  -5 253.952  15.413   1 
  -6   6   5 249.944  15.471   1 
   6   6  -5 251.649  13.381   4 
   6   6   5 249.698  15.488   1 
  -7   6   5 95.4191  5.6355   2 
   7   6  -5 96.9305  5.2969   4 
   7   6  -5 95.2613  6.0496   1 
  -7   6   5 91.8888  6.0391   1 
  -7  -6   5 76.6860  5.9852   1 
   7   6   5 95.8511  6.1277   1 
  -8   6   5 33.2127  2.3841   2 
   8   6  -5 36.9729  2.2835   4 
  -8   6   5 36.4075  2.5384   1 
   8   6  -5 35.9694  2.5877   1 
   8   6   5 32.8872  2.5872   1 
  -9   6   5 29.8057  1.9569   2 
   0  -7  -5 0.45980 0.51347   3 
   0   7   5 0.34071 0.47931   5 
   0   7  -5 0.65922 0.91074   3 
  -1  -7  -5 111.088   7.610   3 
  -1   7   5 112.006   6.581   5 
   1   7  -5 110.966   7.963   3 
   1  -7  -5 90.4716  7.2069   3 
  -1   7  -5 84.8916  7.9720   3 
   1   7   5 88.7040  6.3933   5 
  -2  -7  -5 879.983  57.873   3 
  -3  -7  -5 147.056   9.714   9 
  -3  -7  -5 154.425  11.340   3 
  -3   7  -5 153.292  12.059   3 
  -4  -7  -5 278.162  19.155   3 
  -4  -7  -5 253.215  16.456   9 
  -4   7   5 250.687  16.336   1 
   4   7   5 256.023  16.330   1 
  -4   7  -5 291.523  19.831   3 
  -5  -7  -5 450.330  28.140   9 
  -5   7   5 458.567  28.218   1 
   5   7  -5 443.678  24.301   4 
  -5  -7  -5 445.165  32.234   3 
   5   7   5 473.257  28.244   1 
  -5   7  -5 484.140  32.579   3 
  -5  -7   5 479.298  27.785   9 
  -6   7   5 259.640  16.832   1 
   6   7  -5 272.688  14.583   4 
   6   7  -5 272.049  16.799   1 
   6   7   5 284.443  16.940   1 
  -7   7   5 47.5400  3.1736   2 
  -7   7   5 44.2742  3.3643   1 
   7   7  -5 47.1137  3.4042   1 
   7   7  -5 47.7342  3.0265   4 
   7   7   5 57.3328  3.5959   1 
   8   7  -5 10.0796  0.9217   4 
  -8   7   5 9.72424 0.92297   2 
   8   7  -5 9.39170 0.99575   1 
   0  -8  -5 262.563  17.976   3 
   0   8  -5 260.305  18.686   3 
   1   8  -5 142.013  10.624   3 
  -1  -8  -5 146.743  10.295   3 
   1  -8  -5 129.468   9.933   3 
  -2  -8  -5 195.574  14.068   3 
  -3  -8  -5 130.861   9.551   3 
  -3  -8  -5 111.602   7.922   9 
  -3   8   5 114.881   7.644   1 
  -3   8  -5 129.372  10.265   3 
   3   8   5 116.078   7.645   1 
  -4  -8  -5 111.337   9.251   3 
  -4  -8  -5 102.976   7.664   9 
  -4   8   5 106.137   7.183   1 
   4   8   5 115.109   7.235   1 
  -4   8  -5 124.316   9.950   3 
  -5  -8  -5 54.7415  4.5289   9 
  -5   8   5 54.4240  3.6456   1 
  -5  -8  -5 55.0523  5.7309   3 
  -5   8   5 52.9045  3.1031   4 
   5   8  -5 55.9509  3.2192   4 
   5   8   5 47.9818  3.6222   1 
  -5  -8   5 47.1787  4.0572   9 
  -5   8  -5 45.4535  5.5244   3 
  -5   8  -5 44.7596  3.4648   7 
   6   8  -5 260.510  13.791   4 
  -6   8   5 239.075  15.842   1 
   6   8   5 269.435  16.001   1 
   7   8  -5 85.5561  5.5868   1 
   7   8  -5 89.4706  4.9529   4 
   7   8   5 82.1627  5.6963   1 
   8   8  -5 23.9577  1.5924   4 
   8   8   5 22.3568  1.8330   1 
   0   9   5 39.1126  2.9083   1 
   0   9  -5 41.7343  4.4582   3 
   0  -9  -5 40.9959  3.8202   3 
  -1   9   5 7.53125 0.95521   1 
  -1  -9  -5 8.61152 1.60130   3 
   1   9  -5 7.81875 1.95108   3 
  -2  -9  -5 155.783  10.730   3 
  -2   9   5 144.593   8.795   1 
   2   9   5 120.304   8.711   1 
  -2   9  -5 133.262  11.188   3 
  -3  -9  -5 2.44620 1.22821   3 
  -3   9   5 1.97840 0.56789   1 
  -3   9  -5 3.92146 1.90814   3 
  -4   9   5 32.0993  2.4156   1 
  -4  -9  -5 30.7795  3.0435   9 
   4   9  -5 30.0889  2.1161   4 
  -4  -9  -5 32.1280  3.9581   3 
  -4   9   5 33.4574  2.1148   4 
  -4   9  -5 29.8756  4.2701   3 
   4   9   5 28.3105  2.4183   1 
  -5  -9  -5 330.486  21.728   9 
   5   9  -5 359.511  18.588   4 
  -5   9   5 352.255  18.463   4 
  -5  -9  -5 354.302  25.261   3 
  -5   9   5 349.847  21.469   1 
  -5   9  -5 354.184  25.213   3 
  -5   9  -5 343.054  18.248   7 
   5   9   5 352.050  21.565   1 
  -5  -9   5 346.963  21.425   9 
   6   9  -5 150.660   8.696   4 
   6   9   5 165.866  10.142   1 
   7   9  -5 63.9473  3.7522   4 
   7   9   5 62.4974  4.3345   1 
   8   9  -5 7.86649 0.74314   4 
   0 -10  -5 1.52815 0.89310   3 
   0  10   5 1.93888 0.58423   1 
   0  10  -5 1.87743 1.35439   3 
   1  10  -5 48.9208  4.8313   3 
  -1  10   5 47.1290  3.2567   1 
  -1 -10  -5 48.5884  4.5224   3 
  -1  10  -5 42.7876  4.9354   3 
   1 -10  -5 42.3412  4.1477   3 
   1  10   5 40.4066  3.2036   1 
  -2 -10  -5 136.919  10.875   3 
  -2  10   5 132.843   8.937   1 
  -2  10  -5 149.719  11.695   3 
   2  10   5 144.141   9.011   1 
  -3  10   5 448.257  24.475   8 
  -3  10   5 450.105  23.287   4 
  -3  10   5 440.330  27.007   1 
  -3 -10  -5 467.217  30.725   3 
   3  10  -5 429.854  23.279   4 
   3  10   5 426.877  23.269   4 
   3  10   5 446.344  27.066   1 
   3  10   5 431.898  22.477   7 
  -3  10  -5 423.338  22.788   7 
  -3  10  -5 426.323  24.670   8 
  -3  10  -5 470.192  31.317   3 
   4  10  -5 116.595   7.167   4 
  -4  10   5 118.237   7.105   4 
  -4 -10  -5 121.657  10.548   3 
  -4  10  -5 136.344   7.437   7 
  -4  10  -5 134.638   7.804   8 
  -4  10  -5 136.906  11.037   3 
   4  10   5 139.019   8.394   1 
   5  10  -5 49.0645  3.1852   4 
  -5  10   5 48.4451  3.0548   4 
   5  10   5 52.9786  3.7063   1 
  -5  10  -5 54.4576  3.5071   7 
   6  10  -5 45.1657  2.9930   4 
   6  10   5 51.6004  3.5238   1 
   7  10  -5 169.811   9.091   4 
   7  10   5 165.592  10.540   1 
   0  11  -5 40.3177  4.6156   3 
   0  11   5 39.2339  2.8260   8 
   0  11   5 40.2181  2.9932   1 
   0  11  -5 37.3028  2.9407   8 
   0 -11  -5 42.6278  4.1983   3 
   0  11   5 39.1943  2.6296   4 
  -1 -11  -5 20.8666  2.9779   3 
   1  11  -5 21.0688  2.0785   8 
  -1  11   5 21.4016  2.0044   1 
  -1  11   5 22.7163  2.0164   8 
  -1  11   5 22.0841  1.8125   4 
   1  11   5 25.2782  1.9047   7 
   1 -11  -5 27.5964  3.0834   3 
  -1  11  -5 24.4533  2.1202   7 
   1  11   5 28.3085  1.9083   4 
  -1  11  -5 29.0615  3.8619   3 
  -1  11  -5 27.4733  2.2470   8 
   1  11   5 25.7294  2.0095   8 
   1  11   5 27.0632  2.1509   1 
  -2  11   5 211.569  12.695   1 
  -2  11   5 216.594  11.007   4 
  -2 -11  -5 216.607  15.257   3 
  -2  11   5 218.154  11.636   8 
   2  11  -5 204.864  10.971   4 
  -2  11  -5 190.491  10.916   7 
   2  11   5 204.179  12.728   1 
  -2  11  -5 199.531  15.594   3 
   2  11   5 195.318  10.972   4 
  -2  11  -5 174.990  11.684   8 
   2  11   5 187.856  10.646   7 
  -3  11   5 397.575  21.490   8 
   3  11  -5 396.421  20.474   4 
  -3 -11  -5 397.455  27.256   3 
  -3  11   5 396.619  20.436   4 
  -3  11  -5 369.516  20.034   7 
   3  11   5 374.797  19.743   7 
   3  11   5 394.251  23.759   1 
   3  11   5 369.155  20.428   4 
  -3  11  -5 399.312  27.638   3 
  -3  11  -5 362.922  21.678   8 
   4  11  -5 20.7105  1.7447   4 
  -4  11   5 19.6573  1.6547   4 
  -4  11  -5 27.1860  2.1609   8 
   4  11   5 27.8036  2.1389   1 
  -4  11  -5 28.1779  2.2283   7 
   5  11  -5 45.1860  2.6169   4 
  -5  11  -5 33.4290  2.6668   7 
   5  11   5 36.3307  2.8911   1 
   6  11  -5 17.5746  1.3003   4 
   6  11   5 13.2355  1.3999   1 
   7  11  -5 32.4914  2.0424   4 
   0  12   5 90.3328  5.5878   8 
   0  12  -5 88.6767  5.3114   7 
   0  12  -5 87.0485  5.7252   8 
   0  12  -5 96.7023  8.2706   3 
   0  12   5 90.3126  6.0363   1 
   0  12   5 91.2113  5.2858   4 
   0  12   5 88.4462  5.1657   7 
   0 -12  -5 90.7069  7.6673   3 
  -1  12   5 175.138   9.445   7 
   1  12  -5 174.955  10.397   8 
   1  12  -5 181.272   9.592   7 
  -1 -12  -5 183.197  13.590   3 
  -1  12   5 180.429  10.327   8 
  -1  12   5 184.209   9.800   4 
  -1  12   5 178.252  11.246   1 
  -1 -12   5 187.519  13.171   3 
  -1  12  -5 176.682   9.718   7 
   1  12   5 176.900   9.776   4 
  -1  12  -5 170.170  10.474   8 
   1 -12  -5 172.289  13.155   3 
   1  12   5 176.147  11.281   1 
  -1  12  -5 189.269  14.118   3 
   1  12   5 173.347   9.506   7 
   1  12   5 165.043  10.237   8 
  -2 -12  -5 153.679  11.693   3 
   2  12  -5 167.402   8.150   4 
  -2  12   5 163.968   8.620   8 
  -2  12   5 165.923   8.157   4 
  -2  12  -5 142.838  11.870   3 
   2  12   5 131.508   7.852   7 
   2  12   5 137.944   9.330   1 
   2  12   5 132.028   8.049   4 
  -2  12  -5 132.044   8.083   7 
  -2  12  -5 125.806   8.646   8 
  -3  12   5 5.52410 0.75936   4 
   3  12  -5 5.47123 0.78820   4 
  -3  12   5 4.67247 0.83573   8 
   3  12   5 3.03908 0.70576   7 
   3  12   5 3.14293 0.76964   1 
   3  12   5 3.63383 0.71404   4 
  -3  12  -5 3.41867 0.92071   7 
  -3  12  -5 3.87939 0.93155   8 
  -4  12   5 85.2590  4.4879   4 
   4  12   5 76.1625  5.2394   1 
   4  12   5 73.3000  4.4999   4 
  -4  12  -5 74.4497  4.9054   8 
  -4  12  -5 76.3573  4.6938   7 
   5  12  -5 111.892   6.362   4 
   5  12   5 119.769   7.400   1 
  -5  12  -5 108.750   6.333   7 
   6  12  -5 108.988   6.244   4 
   6  12   5 117.339   7.262   1 
   0  13   5 76.9818  5.3970   1 
   0  13  -5 80.2945  4.7952   7 
   0  13   5 82.7371  4.7979   4 
   0  13  -5 79.4358  5.1670   8 
   0  13   5 80.0849  5.0377   8 
   0  13   5 82.7104  4.6982   7 
   1  13  -5 150.823   8.050   7 
  -1  13   5 143.473   7.933   7 
   1  13  -5 141.930   8.705   8 
  -1  13   5 142.979   8.645   8 
  -1  13   5 155.987   8.224   4 
   1  13   5 146.304   8.221   4 
   1  13   5 146.048   8.617   8 
  -1  13  -5 148.165   8.164   7 
  -1  13  -5 146.189   8.825   8 
   1  13   5 144.867   9.433   1 
   1  13   5 153.723   8.041   7 
   2  13  -5 41.4616  2.8876   4 
  -2  13   5 43.1273  2.8994   4 
  -2  13   5 42.2951  3.0927   8 
   2  13   5 48.3155  2.9768   7 
  -2  13  -5 47.7359  3.1442   7 
  -2  13  -5 49.3535  3.3558   8 
   2  13   5 47.8800  3.3870   1 
   2  13   5 47.2297  2.9703   4 
  -3  13   5 175.278   8.855   4 
  -3  13   5 182.971   9.372   8 
   3  13  -5 185.572   8.952   4 
   3  13   5 142.518   8.818   4 
  -3  13  -5 153.723   8.789   7 
  -3  13  -5 151.237   9.456   8 
   3  13   5 148.752   8.558   7 
   3  13   5 148.940  10.215   1 
  -4  13   5 40.3182  2.5129   4 
   4  13  -5 44.9169  2.6631   4 
  -4  13   5 41.7189  2.7028   8 
   4  13   5 38.4956  2.5831   4 
  -4  13  -5 41.3943  2.8836   8 
   4  13   5 40.3226  3.0043   1 
  -4  13  -5 39.6458  2.7399   7 
   5  13  -5 68.7863  4.2207   4 
   5  13   5 79.4980  4.9234   1 
  -5  13  -5 72.8551  4.2203   7 
   6  13  -5 6.62770 0.67797   4 
   0  14  -5 7.36231 1.00237   7 
   0  14  -5 6.33261 1.03708   8 
   0  14   5 6.16174 0.89158   7 
   0  14   5 6.07041 0.85503   4 
   0  14   5 6.01055 0.94698   8 
  -1  14   5 276.173  15.012   7 
  -1  14   5 283.146  15.593   4 
  -1  14   5 283.194  16.406   8 
   1  14  -5 289.666  15.085   7 
  -1  14  -5 298.451  15.234   7 
  -1  14  -5 294.380  16.569   8 
   1  14   5 312.717  15.147   7 
   1  14   5 291.896  15.649   4 
   1  14   5 299.948  16.393   8 
   2  14  -5 48.1779  2.9907   4 
  -2  14   5 45.5176  2.9684   4 
  -2  14   5 47.8873  3.2080   8 
  -2  14  -5 49.8479  3.1516   7 
   2  14   5 51.4390  3.0403   7 
   2  14   5 48.5178  3.0535   4 
   2  14   5 47.2741  3.4252   1 
  -2  14  -5 49.1012  3.3644   8 
  -3  14   5 36.1674  2.4607   4 
  -3  14   5 39.4762  2.6812   8 
   3  14  -5 38.6541  2.5223   4 
  -3  14  -5 43.6119  2.8838   8 
  -3  14  -5 41.4287  2.6872   7 
   3  14   5 42.4596  2.5954   4 
   3  14   5 40.4279  2.9175   1 
  -4  14   5 86.4713  5.0211   8 
  -4  14   5 80.8328  4.7228   4 
   4  14  -5 92.3226  4.8760   4 
   4  14   5 86.4887  4.8453   4 
   4  14   5 85.5494  5.5900   1 
  -4  14  -5 86.6607  4.8326   7 
  -4  14  -5 82.6093  5.1541   8 
   5  14  -5 65.7468  3.6459   4 
  -5 -14  -5 69.3941  4.0809   7 
  -5  14  -5 58.0716  3.5504   7 
   0  15  -5 0.89960 0.47971   7 
   0  15   5 0.40833 0.43866   8 
   0  15   5 0.43985 0.40032   7 
   0  15   5 1.08341 0.43369   4 
   0  15  -5 0.21416 0.46971   8 
  -1  15   5 12.0176  1.0653   4 
  -1  15   5 10.9555  1.1617   8 
  -1  15   5 10.3402  1.0334   7 
   1  15  -5 10.4971  1.0669   7 
   1  15   5 12.2308  1.0987   4 
  -1  15  -5 12.4803  1.1867   7 
  -1  15  -5 13.0480  1.2834   8 
   1  15   5 13.6935  1.1583   7 
   1  15   5 12.1046  1.1426   8 
  -2  15   5 50.7756  3.1324   4 
   2  15  -5 54.0338  3.1448   4 
  -2  15   5 53.8836  3.3707   8 
   2  15   5 54.7032  3.1426   7 
  -2  15  -5 53.8795  3.4741   8 
  -2  15  -5 52.5285  3.2156   7 
   2  15   5 51.9883  3.2036   4 
  -3  15  -5 6.24196 0.81979   7 
   3  15   5 6.07388 0.71300   4 
  -3  15  -5 5.73898 0.84461   8 
   4  15  -5 50.5608  2.9380   4 
  -4  15  -5 51.3054  2.9366   7 
   0  16   5 4.60020 0.59142   4 
   0  16   5 4.15970 0.64834   8 
   0  16  -5 4.03135 0.66407   8 
   0  16  -5 4.12895 0.63804   7 
   0  16   5 4.18384 0.60282   7 
   1  16  -5 18.7933  1.4093   7 
  -1  16   5 18.8890  1.4106   7 
  -1  16   5 20.5381  1.5782   8 
  -1  16   5 20.0105  1.4587   4 
  -1  16  -5 25.5982  1.7046   8 
   1  16   5 24.2718  1.5627   8 
  -1  16  -5 25.7829  1.5872   7 
   1  16   5 24.2794  1.5346   4 
   2  16   5 120.726   6.510   4 
  -2  16  -5 118.076   6.338   7 
  -2  16  -5 120.841   6.905   8 
   0   0  -6 3112.43  179.06   5 
   1   0   6 2104.84  119.62   5 
   1   0  -6 2023.71  119.49   5 
   2   0  -6 1294.98   70.28   5 
  -2   0   6 1180.57   71.02   6 
  -2   0  -6 1144.90   78.92   3 
  -3   0   6 3.85265 0.63866   6 
   3   0  -6 4.39360 0.67559   5 
  -3   0  -6 3.04722 1.42608   3 
   4   0  -6 17.8361  1.5386   5 
  -4   0  -6 18.2824  3.0898   3 
  -4   0   6 16.5519  1.6009   6 
  -5   0  -6 4.07596 1.98592   3 
  -5   0   6 4.38313 0.92258   6 
  -6   0   6 829.482  46.894   6 
  -6   0  -6 736.587  53.846   3 
  -6   0   6 794.468  47.770   1 
  -7   0   6 40.8059  3.5079   6 
  -7   0   6 39.3172  2.7872   2 
  -7   0  -6 41.6325  2.7337   2 
  -7   0   6 38.3304  2.9799   1 
  -8   0  -6 161.794   9.411   2 
  -8   0   6 160.113   9.512   2 
  -8   0   6 161.797  10.283   1 
   8   0  -6 163.287  10.241   1 
  -9   0  -6 3.06859 0.51004   2 
  -9   0   6 2.81536 0.54882   1 
  -9   0   6 2.35147 0.49246   2 
   9   0  -6 2.65693 0.55277   1 
   0   1   6 526.933  29.587   5 
   0   1  -6 497.291  29.407   5 
  -1  -1  -6 119.733   9.218   3 
   1   1  -6 118.222   7.605   5 
   1   1   6 149.107   7.648   5 
   1  -1  -6 144.750   7.867   5 
  -1   1  -6 109.039   9.383   3 
   2   1  -6 1083.61   59.28   5 
  -2  -1  -6 1058.57   66.92   3 
  -2   1   6 953.644  59.546   6 
  -2  -1   6 934.618  59.550   6 
   2  -1  -6 1072.06   58.75   5 
   3   1  -6 470.774  25.602   5 
  -3   1   6 449.150  26.113   6 
  -3  -1  -6 449.924  30.141   3 
   3  -1  -6 454.743  25.722   5 
  -3  -1   6 436.703  26.101   6 
  -3   1  -6 376.947  30.061   3 
  -4  -1  -6 206.759  15.758   3 
   4   1  -6 224.201  12.606   5 
  -4   1   6 217.131  12.920   6 
   4  -1  -6 204.377  12.609   5 
  -4  -1   6 208.627  12.902   6 
  -4   1  -6 194.036  15.789   3 
  -5   1   6 87.2174  5.7250   6 
  -5   1   6 79.0531  5.4208   1 
  -5  -1  -6 73.7133  7.7507   3 
  -5   1  -6 81.6619  8.0083   3 
  -5  -1   6 89.9400  5.7378   6 
  -6   1   6 18.4193  1.9928   6 
  -6  -1  -6 13.2844  3.5767   3 
  -6   1   6 17.7442  1.6473   1 
  -6   1  -6 21.4647  3.8544   3 
  -6  -1   6 20.9024  2.0589   6 
  -6  -1   6 20.2374  1.6977   1 
  -7   1   6 205.109  11.538   2 
  -7   1   6 204.357  12.480   1 
  -7   1   6 189.432  12.735   6 
  -7  -1  -6 211.029  11.473   2 
  -7  -1   6 188.159  12.438   1 
  -7   1  -6 206.535  11.438   2 
  -7  -1   6 183.722  11.475   2 
  -7  -1   6 191.407  12.749   6 
  -8  -1  -6 187.804  10.835   2 
   8   1  -6 199.987  11.813   1 
  -8   1   6 193.120  11.829   1 
  -8   1   6 185.511  10.928   2 
  -8  -1   6 177.822  10.893   2 
  -8   1  -6 190.802  10.832   2 
  -8  -1   6 177.245  11.793   1 
   9   1  -6 39.0248  2.7875   1 
  -9   1   6 41.0212  2.8175   1 
  -9   1   6 38.6600  2.6125   2 
  -9  -1  -6 39.6994  2.5691   2 
  -9   1  -6 41.2331  2.5669   2 
   9  -1  -6 36.6354  2.7565   1 
  -9  -1   6 39.8616  2.5946   2 
  -9  -1   6 40.5028  2.8177   1 
   0   2   6 14.3096  1.2007   5 
   1   2  -6 105.553   6.453   5 
  -1   2   6 111.852   6.711   5 
  -1  -2  -6 116.088   7.974   3 
   1   2   6 102.751   6.547   5 
  -2  -2  -6 161.403  10.586   3 
   2   2  -6 146.145   8.531   5 
  -2   2   6 145.067   8.775   6 
   2   2   6 153.935   8.541   5 
   2  -2  -6 136.444   8.788   5 
  -2   2  -6 121.315  10.691   3 
  -2  -2   6 137.328   8.744   6 
  -3   2   6 633.173  38.417   6 
   3   2  -6 671.067  37.723   5 
  -3  -2  -6 672.419  43.706   3 
  -3   2  -6 586.109  43.878   3 
  -3  -2   6 659.099  38.442   6 
   3  -2  -6 692.327  37.988   5 
  -4   2   6 159.094   9.584   6 
   4   2  -6 161.957   9.334   5 
  -4  -2  -6 153.834  11.987   3 
  -4   2  -6 137.729  12.046   3 
  -4  -2   6 144.593   9.529   6 
  -5   2   6 36.9072  2.7097   1 
  -5   2   6 38.4327  3.0192   6 
  -5  -2  -6 34.8483  4.6569   3 
  -5  -2   6 40.7710  3.0487   6 
  -5  -2   6 34.0916  2.6562   1 
  -5   2  -6 40.8480  5.0316   3 
  -6  -2  -6 336.698  27.841   3 
  -6   2   6 384.869  23.722   1 
  -6   2   6 426.101  23.678   6 
  -6   2  -6 402.408  28.207   3 
  -6  -2   6 398.464  23.584   6 
  -6  -2   6 368.270  23.701   1 
  -7   2   6 94.7683  5.5669   4 
  -7   2   6 101.794   6.151   2 
  -7   2   6 102.481   6.630   1 
  -7  -2  -6 103.445   6.078   2 
  -7   2   6 101.442   7.123   6 
   7   2  -6 112.302   6.637   1 
  -7  -2   6 100.561   7.098   6 
  -7  -2   6 90.5949  6.0800   2 
  -7   2  -6 106.200   6.065   2 
  -7  -2   6 92.2292  6.5971   1 
  -8   2   6 104.293   6.029   2 
  -8   2   6 103.159   6.467   1 
   8   2  -6 109.947   6.477   1 
  -8  -2  -6 104.585   5.948   2 
  -8   2  -6 88.5481  5.8360   2 
  -8  -2   6 79.8862  6.3633   1 
  -9   2   6 37.8482  2.5507   2 
   9   2  -6 37.4285  2.7123   1 
  -9   2   6 38.4312  2.7251   1 
  -9  -2  -6 35.4176  2.4734   2 
  -9   2  -6 41.7881  2.4960   2 
   9  -2  -6 38.3791  2.7052   1 
  -9  -2   6 40.2539  2.7569   1 
   0   3  -6 1.85872 0.97458   3 
   0   3   6 2.27424 0.51848   5 
   0  -3  -6 1.23139 0.54433   3 
  -1   3   6 319.266  19.244   5 
   1   3  -6 321.392  18.985   5 
  -1  -3  -6 339.587  21.995   3 
  -1   3  -6 317.656  22.543   3 
   1   3   6 357.694  19.171   5 
  -1  -3   6 311.957  19.406   6 
   2   3  -6 77.3133  4.8601   5 
  -2   3   6 77.5582  5.1275   5 
  -2  -3  -6 85.0343  6.2887   3 
  -2   3   6 71.5621  4.9654   6 
  -2   3  -6 78.9688  6.8272   3 
  -2  -3   6 81.4798  5.0330   6 
  -3   3   6 196.641  12.926   6 
   3   3  -6 200.228  12.656   5 
  -3  -3  -6 212.163  15.322   3 
   3  -3  -6 236.380  13.082   5 
  -3  -3   6 222.380  12.991   6 
  -3   3  -6 214.648  15.883   3 
  -4  -3  -6 83.6776  7.0874   3 
  -4   3   6 85.4382  5.2319   6 
  -4   3  -6 69.7025  7.1052   3 
  -4  -3   6 67.7005  5.0934   6 
  -5  -3  -6 18.0596  3.0994   3 
  -5  -3   6 10.2264  1.0791   1 
  -5   3  -6 12.2303  3.1063   3 
  -5  -3   6 10.8951  1.3452   6 
  -6   3   6 15.2124  1.7513   6 
  -6  -3  -6 10.5219  3.1783   3 
  -6   3   6 14.5142  1.3643   1 
  -6   3  -6 16.2446  3.3499   3 
  -6  -3   6 14.9642  1.7251   6 
  -6  -3   6 12.4378  1.3218   1 
  -7   3   6 285.194  17.898   6 
  -7   3   6 280.038  15.133   4 
   7   3  -6 312.531  17.705   1 
  -7   3   6 298.584  17.745   1 
  -7   3   6 282.107  16.354   2 
  -7  -3  -6 297.386  16.308   2 
  -7   3  -6 280.564  16.229   2 
  -7  -3   6 270.281  17.832   6 
  -7  -3   6 264.580  17.706   1 
   8   3  -6 98.9512  5.7784   4 
  -8   3   6 101.180   6.708   1 
  -8  -3  -6 98.9468  6.1661   2 
   8   3  -6 101.653   6.689   1 
  -8   3   6 102.668   6.249   2 
  -8  -3   6 107.968   6.770   1 
  -8   3  -6 110.540   6.139   2 
  -9   3   6 33.4011  2.2618   1 
   9   3  -6 33.2305  2.2735   1 
  -9   3   6 35.3118  2.1698   2 
  -9  -3  -6 32.4691  2.0701   2 
   9  -3  -6 28.2623  2.2124   1 
  -9   3  -6 26.7158  1.9800   2 
  -9  -3   6 28.0736  2.2270   1 
   0   4  -6 13.3002  2.0578   3 
   0   4   6 14.2357  1.3046   5 
   0  -4  -6 16.3115  1.6524   3 
  -1   4   6 210.239  12.064   5 
  -1  -4  -6 210.841  13.833   3 
   1   4   6 211.167  11.969   5 
  -1  -4   6 178.710  11.987   6 
  -1   4  -6 191.035  14.397   3 
  -2   4   6 180.013  11.573   6 
  -2  -4  -6 200.715  11.705   9 
   2   4  -6 198.126  11.394   5 
  -2   4   6 198.576  11.681   5 
  -2  -4  -6 215.059  13.652   3 
  -2   4  -6 167.955  14.014   3 
   2   4   6 180.110  11.434   5 
  -3   4   6 15.6794  1.4364   6 
  -3  -4  -6 21.0696  2.5132   3 
   3   4  -6 17.4472  1.4308   5 
   3   4   6 13.9313  1.3710   5 
  -3   4  -6 13.7816  2.6960   3 
  -3  -4   6 17.5752  1.4711   6 
   3  -4  -6 12.2474  1.5509   5 
  -4  -4  -6 415.387  27.846   3 
  -4   4   6 398.310  23.841   6 
  -4  -4   6 371.657  23.814   6 
  -4   4  -6 410.442  28.300   3 
  -5   4   6 105.163   6.465   1 
  -5  -4  -6 95.9268  8.8683   3 
   5   4  -6 111.245   6.364   1 
  -5   4   6 104.205   6.667   6 
  -5   4  -6 97.5345  9.0562   3 
   5   4   6 90.5576  6.2990   1 
  -5  -4   6 83.3672  6.5102   6 
  -6   4   6 107.007   6.467   2 
  -6   4   6 108.605   7.387   6 
  -6   4   6 104.508   5.939   4 
  -6   4   6 113.903   7.039   1 
   6   4  -6 118.843   6.966   1 
   6   4   6 97.4799  6.8824   1 
  -6   4  -6 98.1446  9.6080   3 
  -7  -4  -6 293.252  16.046   2 
  -7   4   6 276.702  17.591   6 
   7   4  -6 308.192  17.418   1 
  -7   4   6 289.302  17.434   1 
  -7   4   6 277.747  16.079   2 
  -7  -4   6 240.881  17.345   1 
  -8  -4  -6 23.6699  1.8132   2 
  -8   4   6 25.7003  1.9124   2 
   8   4  -6 25.1821  2.0099   1 
   8   4  -6 25.2032  1.7689   4 
  -8   4   6 25.2992  2.0024   1 
  -8  -4   6 26.3649  2.0540   1 
  -8   4  -6 25.1050  1.7558   2 
  -9   4   6 35.8014  2.4085   2 
   9   4  -6 36.9361  2.5827   1 
  -9  -4   6 38.0273  2.5980   1 
  -9   4  -6 36.5524  2.2934   2 
   0  -5  -6 158.864  11.058   3 
   0   5  -6 157.658  11.640   3 
   0   5   6 161.770   9.712   5 
  -1   5   6 364.845  20.762   5 
  -1  -5  -6 367.896  23.618   3 
   1   5   6 344.815  20.648   5 
  -1   5  -6 339.212  24.229   3 
   1  -5  -6 338.023  23.245   3 
  -2  -5  -6 320.389  21.712   3 
  -2   5   6 303.306  18.909   5 
  -2   5  -6 326.989  22.510   3 
   2   5   6 323.833  18.790   5 
  -3  -5  -6 107.292   8.729   3 
  -3  -5  -6 99.7954  7.2824   9 
   3   5  -6 102.336   6.989   5 
  -3   5  -6 132.702   9.768   3 
   3   5   6 124.750   7.140   5 
  -4  -5  -6 32.5457  3.8257   3 
  -4   5   6 29.0409  2.3076   1 
  -4   5   6 29.4123  2.4709   6 
  -4   5  -6 39.3683  4.5014   3 
  -5  -5  -6 14.0868  2.8577   3 
  -5   5   6 15.6576  1.3925   1 
  -5   5   6 15.5745  1.6374   6 
  -5   5  -6 12.9414  3.1970   3 
   5   5   6 12.3595  1.2697   1 
  -6   5   6 493.744  28.604   1 
  -6   5   6 473.383  28.319   6 
  -6  -5  -6 466.448  26.246   2 
   6   5  -6 501.057  28.505   1 
  -6   5   6 465.114  26.320   2 
  -6   5   6 441.401  24.472   4 
   6   5   6 478.838  28.537   1 
  -6   5  -6 492.103  33.197   3 
  -6  -5   6 397.700  28.460   1 
   7   5  -6 46.8064  3.2622   1 
  -7   5   6 46.5280  3.0775   2 
  -7  -5  -6 44.4309  2.9815   2 
  -7   5   6 43.4076  3.7322   6 
  -7   5   6 46.6654  3.2995   1 
   7   5  -6 48.0092  2.9107   4 
  -7  -5   6 42.1008  3.2587   1 
   7   5   6 46.0574  3.2839   1 
  -8   5   6 4.09607 0.64552   2 
   8   5  -6 3.91207 0.62518   4 
  -8   5   6 3.51319 0.62190   1 
   8   5  -6 3.62227 0.67741   1 
  -8  -5   6 2.19781 0.56478   1 
  -9   5   6 117.991   7.382   2 
   9   5   6 137.854   7.341   2 
   0  -6  -6 194.395  13.175   3 
   0   6  -6 189.883  13.787   3 
   0   6   6 185.918  11.543   5 
   1   6  -6 161.573  10.615   3 
  -1   6   6 160.636   8.973   5 
  -1   6  -6 130.650  10.796   3 
   1   6   6 129.734   8.757   5 
   1  -6  -6 127.868   9.855   3 
  -2  -6  -6 595.257  39.451   3 
  -2   6  -6 597.901  40.241   3 
   2   6   6 585.593  34.550   5 
  -3  -6  -6 60.2683  5.3004   3 
  -3  -6  -6 56.1216  4.2066   9 
  -3   6  -6 55.0502  5.7529   3 
  -4  -6  -6 85.4467  5.7902   9 
  -4  -6  -6 84.9817  7.1697   3 
  -4   6   6 77.1853  5.1349   1 
  -4   6  -6 79.9576  7.5287   3 
   4   6   6 65.6399  5.0186   1 
  -5  -6  -6 214.119  16.854   3 
  -5   6   6 230.915  13.764   1 
   5   6   6 219.140  13.689   1 
  -5   6  -6 212.187  16.921   3 
  -6   6   6 67.5329  4.2465   2 
  -6   6   6 64.5757  3.8684   4 
  -6   6   6 70.3227  4.6143   1 
   6   6  -6 67.6788  4.0080   4 
   6   6  -6 68.7376  4.5166   1 
   6   6   6 74.2812  4.6453   1 
  -6  -6   6 57.1120  4.4740   1 
  -7   6   6 487.899  26.484   2 
  -7   6   6 458.133  28.678   1 
   7   6  -6 483.604  24.762   4 
   7   6  -6 474.418  28.643   1 
   7   6   6 492.310  28.736   1 
  -7  -6   6 423.675  28.626   1 
  -8   6   6 131.499   8.967   1 
  -8   6   6 143.021   8.362   2 
   8   6  -6 148.217   7.838   4 
   8   6  -6 143.192   9.013   1 
   8   6   6 150.546   9.072   1 
  -9   6   6 33.0213  2.1523   2 
   9   6  -6 34.5557  2.0212   4 
   0  -7  -6 134.419   9.909   3 
   0   7  -6 141.995  10.633   3 
  -1  -7  -6 71.4050  5.3646   3 
   1   7  -6 66.3571  5.5421   3 
   1  -7  -6 57.2624  4.8991   3 
  -1   7  -6 58.0152  5.7978   3 
  -2  -7  -6 56.4542  5.2310   3 
  -2   7  -6 68.8634  6.1920   3 
  -3   7   6 645.100  39.760   1 
  -3  -7  -6 707.126  44.145   3 
  -3   7  -6 666.783  44.733   3 
   3   7   6 608.370  39.699   1 
  -4   7   6 3.80561 0.70066   1 
  -4  -7  -6 3.01809 0.99390   9 
  -4  -7  -6 3.30458 1.52291   3 
   4   7   6 3.00601 0.65505   1 
  -4   7  -6 4.46320 2.07019   3 
   5   7  -6 196.662  10.915   4 
  -5  -7  -6 179.264  15.502   3 
  -5   7   6 197.887  12.653   1 
  -5   7   6 198.375  10.853   4 
   5   7   6 216.351  12.679   1 
  -5   7  -6 222.719  16.066   3 
  -6   7   6 64.6768  4.3896   1 
   6   7  -6 65.2804  3.8500   4 
  -6   7   6 65.8364  4.0565   2 
  -6   7   6 64.6653  3.7183   4 
   6   7   6 59.0623  4.3717   1 
   7   7  -6 71.2096  4.1033   4 
  -7   7   6 69.2790  4.3191   2 
  -7   7   6 65.2499  4.6257   1 
   7   7  -6 71.8324  4.6372   1 
   7   7   6 69.3165  4.7221   1 
  -8   7   6 30.0952  2.0203   2 
   8   7  -6 31.4332  1.9426   4 
   8   7  -6 29.9596  2.1474   1 
   8   7   6 26.1425  2.1755   1 
   0  -8  -6 67.8337  5.5665   3 
   0   8  -6 68.9698  6.2229   3 
  -1   8  -6 12.0878  2.4650   3 
   1  -8  -6 12.5415  1.7075   3 
  -2   8   6 33.8524  2.5421   1 
  -2  -8  -6 32.7007  3.5772   3 
  -2   8  -6 40.9646  4.5010   3 
   2   8   6 32.8414  2.5174   1 
  -3  -8  -6 44.8075  4.6025   3 
  -3   8   6 42.1735  3.1729   1 
  -3   8  -6 52.9162  5.4440   3 
   3   8   6 43.2660  3.1638   1 
  -4   8   6 78.0046  5.3443   1 
  -4  -8  -6 80.9423  7.4076   3 
  -4  -8  -6 72.9553  5.8759   9 
   4   8  -6 74.5275  4.5986   4 
  -4   8  -6 91.1741  8.0014   3 
   4   8   6 86.4436  5.4060   1 
   5   8  -6 533.174  28.376   4 
  -5   8   6 548.467  28.314   4 
  -5  -8  -6 516.125  37.587   3 
  -5   8   6 539.253  32.935   1 
   5   8   6 549.938  32.971   1 
  -5   8  -6 553.193  27.796   7 
  -5   8  -6 538.758  37.628   3 
  -6   8   6 174.838   9.643   4 
   6   8  -6 185.034   9.821   4 
  -6   8   6 169.928  11.256   1 
   6   8   6 181.796  11.365   1 
  -6   8  -6 186.214   9.873   7 
   7   8  -6 29.6013  1.9368   4 
  -7   8   6 25.7864  2.0680   1 
   8   8  -6 17.3265  1.2595   4 
   0   9  -6 149.176  11.309   3 
   0  -9  -6 144.499  10.580   3 
   0   9   6 134.395   9.006   1 
   1   9  -6 22.0475  3.0160   3 
  -1  -9  -6 23.9025  2.8710   3 
  -1   9   6 24.9535  1.9835   1 
   1   9   6 22.5097  1.9392   1 
  -1   9  -6 27.2411  3.6062   3 
   1  -9  -6 24.8332  2.6769   3 
  -2   9   6 60.8983  4.3042   1 
  -2  -9  -6 62.7223  5.7340   3 
   2   9   6 61.3224  4.3005   1 
  -2   9  -6 70.4192  6.5708   3 
  -3  -9  -6 97.7161  8.5772   3 
  -3   9   6 97.2400  6.7037   1 
   3   9   6 105.001   6.754   1 
  -3   9  -6 114.200   9.401   3 
   4   9  -6 120.515   7.242   4 
  -4   9   6 122.640   8.372   1 
  -4  -9  -6 120.480  10.704   3 
  -4   9   6 123.333   7.208   4 
  -4   9  -6 140.935   7.935   8 
  -4   9  -6 144.502  11.377   3 
   4   9   6 137.206   8.462   1 
  -4   9  -6 139.867   7.573   7 
  -5   9   6 71.7620  4.1724   4 
  -5  -9  -6 65.4494  7.0857   3 
  -5   9   6 66.8439  4.8305   1 
   5   9  -6 69.1752  4.2518   4 
   5   9   6 74.6103  4.9480   1 
  -5   9  -6 79.6857  4.6521   7 
  -5   9  -6 76.9415  7.2698   3 
   6   9  -6 31.8657  2.1346   4 
  -6   9   6 30.3756  2.3330   1 
   6   9   6 30.5495  2.4493   1 
  -6   9  -6 31.6221  2.4304   7 
   7   9  -6 130.692   7.157   4 
   7   9   6 128.662   8.282   1 
   0  10   6 44.5730  3.2093   1 
   0 -10  -6 44.1597  4.2850   3 
   0  10  -6 41.1393  4.7012   3 
   1  10  -6 4.49405 1.62111   3 
   1  10   6 1.15937 0.54555   1 
   1 -10  -6 1.64930 0.90464   3 
  -1  10  -6 0.93302 1.25525   3 
  -2  10   6 287.302  16.856   1 
  -2 -10  -6 284.316  19.614   3 
  -2  10   6 281.400  14.529   4 
   2  10  -6 272.297  14.489   4 
   2  10   6 254.367  16.811   1 
   2  10   6 253.587  14.472   4 
  -2  10  -6 264.622  20.036   3 
   3  10  -6 107.915   6.105   4 
  -3 -10  -6 120.179   9.384   3 
  -3  10   6 118.250   7.108   1 
  -3  10   6 113.852   6.131   4 
  -3  10   6 111.438   6.434   8 
   3  10   6 101.720   5.967   7 
  -3  10  -6 98.5984  6.6353   8 
  -3  10  -6 100.514   6.295   7 
   3  10   6 99.9440  7.0336   1 
  -3  10  -6 107.834   9.553   3 
  -4  10   6 55.9723  3.5151   4 
  -4  10   6 52.0389  4.0373   1 
   4  10  -6 54.2019  3.5561   4 
  -4 -10  -6 54.3838  6.0181   3 
   4  10   6 64.7930  4.2261   1 
  -4  10  -6 61.3018  4.0318   8 
  -4  10  -6 64.0115  4.0044   7 
  -4  10  -6 69.4523  6.5632   3 
  -5  10   6 268.781  14.263   4 
  -5  10   6 246.500  16.532   1 
   5  10  -6 278.855  14.397   4 
  -5  10  -6 273.547  14.225   7 
   5  10   6 272.240  16.702   1 
   6  10  -6 44.9983  2.5633   4 
   6  10   6 37.5163  2.8788   1 
  -6  10  -6 32.5773  2.5833   7 
   7  10  -6 18.1897  1.4838   4 
   7  10   6 26.2957  1.8398   1 
   0  11   6 522.318  30.320   1 
   0  11  -6 463.796  27.574   8 
   0  11   6 491.040  25.132   7 
   0  11  -6 519.222  34.385   3 
   0  11   6 493.561  26.104   4 
   0 -11  -6 492.556  33.713   3 
   0  11   6 492.558  27.434   8 
   0  11  -6 487.588  25.345   7 
  -1  11   6 51.9034  3.1155   4 
   1  11  -6 48.0194  3.4294   8 
  -1  11   6 51.6266  3.3210   8 
  -1  11   6 52.8454  3.5505   1 
  -1 -11  -6 53.3105  5.0547   3 
  -1  11  -6 49.9813  5.3882   3 
  -1  11  -6 45.6630  3.2833   7 
   1  11   6 46.2526  3.0492   4 
  -1  11  -6 44.1306  3.4334   8 
   1  11   6 44.7850  3.0285   7 
   1  11   6 49.0832  3.5643   1 
   1  11   6 44.9796  3.2212   8 
   1 -11  -6 46.6225  4.5622   3 
   2  11  -6 110.479   6.559   4 
  -2 -11  -6 107.935   9.550   3 
  -2  11   6 109.207   6.944   8 
  -2  11   6 109.579   6.584   4 
  -2  11   6 109.660   7.589   1 
  -2  11  -6 127.670  10.278   3 
  -2  11  -6 121.811   6.817   7 
   2  11   6 132.752   7.759   1 
  -2  11  -6 117.703   7.250   8 
   2  11   6 120.935   6.509   7 
   2  11   6 123.622   6.643   4 
  -3  11   6 219.394  12.887   8 
   3  11  -6 223.265  12.298   4 
  -3 -11  -6 221.451  17.076   3 
  -3  11   6 228.319  12.300   4 
  -3  11   6 206.474  14.170   1 
   3  11   6 232.854  11.957   7 
   3  11   6 229.733  12.302   4 
  -3  11  -6 233.658  12.296   7 
   3  11   6 236.764  14.326   1 
  -3  11  -6 242.522  17.505   3 
  -3  11  -6 233.288  13.214   8 
   4  11  -6 96.9481  5.0250   4 
  -4  11   6 94.5514  4.9284   4 
  -4  11   6 84.6180  5.6391   1 
   4  11   6 75.6059  5.6767   1 
  -4  11  -6 78.5225  5.3587   8 
  -4  11  -6 79.1359  5.1188   7 
  -5  11   6 116.262   6.651   4 
   5  11  -6 126.008   6.809   4 
  -5  11  -6 119.621   6.849   7 
   5  11   6 123.009   7.870   1 
   6  11  -6 72.4856  4.3138   4 
  -6  11  -6 73.6894  4.3545   7 
   6  11   6 78.7484  5.0333   1 
   0  12  -6 22.1204  1.8454   7 
   0 -12  -6 19.2731  2.7854   3 
   0  12   6 19.7019  1.6478   4 
   0  12  -6 20.7888  3.2052   3 
   0  12   6 21.3971  1.6973   7 
   0  12   6 19.8963  1.7837   8 
   0  12   6 20.8288  1.8722   1 
   0  12  -6 19.5272  1.9357   8 
  -1  12   6 146.282   8.072   7 
  -1  12   6 150.091   8.837   8 
  -1 -12  -6 145.604  11.783   3 
  -1  12   6 147.897   9.656   1 
  -1  12   6 145.630   8.344   4 
   1  12  -6 145.660   8.935   8 
   1  12   6 155.715   8.404   4 
   1 -12  -6 146.321  11.427   3 
   1  12   6 153.065   8.174   7 
  -1  12  -6 154.062   8.406   7 
   1  12   6 161.759   9.737   1 
   1  12   6 150.635   8.806   8 
  -1  12  -6 156.205  12.258   3 
  -1  12  -6 151.666   9.060   8 
   2  12  -6 80.4809  4.1862   4 
  -2  12   6 80.8045  4.2232   4 
  -2  12   6 74.5735  4.7803   1 
  -2  12   6 79.7134  4.4752   8 
   2  12   6 60.7784  4.0423   7 
   2  12   6 61.1315  4.0882   4 
  -2  12  -6 57.6663  4.5119   8 
   2  12   6 63.1706  4.7537   1 
  -2  12  -6 61.6533  4.2678   7 
  -3  12   6 34.8319  2.4415   8 
  -3  12   6 35.0377  2.2804   4 
   3  12  -6 33.9965  2.2899   4 
  -3  12  -6 32.5867  2.5478   7 
  -3  12  -6 33.9866  2.6690   8 
   3  12   6 32.7028  2.2783   4 
   3  12   6 32.5945  2.2938   7 
   3  12   6 34.0034  2.6660   1 
  -4  12   6 43.3512  2.7242   4 
   4  12  -6 43.1210  2.7889   4 
  -4  12  -6 46.4227  3.0826   7 
  -4  12  -6 43.0275  3.1141   8 
   4  12   6 45.2010  3.2594   1 
   5  12  -6 7.93604 0.87802   4 
  -5  12   6 7.71620 0.77173   4 
   5  12   6 11.2048  1.1256   1 
  -5  12  -6 10.9635  1.2068   7 
   6  12  -6 44.0553  2.7996   4 
  -6  12  -6 50.8297  2.8732   7 
   0  13   6 329.241  16.319   7 
   0  13   6 301.182  19.521   1 
   0  13  -6 317.652  16.426   7 
   0  13  -6 318.389  17.918   8 
   0  13   6 320.079  16.913   4 
   0  13   6 310.878  17.739   8 
   1  13  -6 131.056   7.664   8 
  -1  13   6 131.105   6.942   7 
  -1  13   6 125.985   8.231   1 
  -1  13   6 133.878   7.594   8 
  -1  13   6 134.295   7.195   4 
   1  13  -6 123.230   6.996   7 
   1  13   6 125.420   7.180   4 
   1  13   6 122.207   8.256   1 
  -1  13  -6 122.871   7.134   7 
   1  13   6 135.030   7.033   7 
  -1  13  -6 125.843   7.742   8 
   1  13   6 122.175   7.507   8 
  -2  13   6 139.775   7.006   4 
  -2  13   6 138.829   7.385   8 
  -2  13  -6 115.809   6.934   7 
   2  13   6 116.335   6.931   4 
  -2  13  -6 116.698   7.491   8 
   2  13   6 118.122   8.019   1 
   2  13   6 120.972   6.776   7 
  -3  13   6 143.743   7.809   4 
  -3  13   6 142.296   8.210   8 
   3  13  -6 145.466   7.846   4 
   3  13   6 141.787   9.095   1 
  -3  13  -6 143.072   8.445   8 
   3  13   6 135.402   7.813   4 
  -3  13  -6 140.496   7.836   7 
  -4  13   6 76.6655  4.8263   4 
   4  13  -6 88.0783  4.9590   4 
  -4  13  -6 94.1777  5.0794   7 
   4  13   6 90.0913  5.7650   1 
  -4  13  -6 86.4941  5.3329   8 
  -5 -13  -6 50.8282  3.4417   7 
   5  13  -6 49.9735  2.8274   4 
  -5  13  -6 39.7486  2.7933   7 
   6  13  -6 50.7616  2.9288   4 
   0  14  -6 3.38731 0.72609   7 
   0  14   6 3.10686 0.63405   4 
   0  14   6 3.56525 0.71069   1 
   0  14  -6 3.61563 0.81152   8 
   0  14   6 3.12305 0.64900   7 
   0  14   6 2.64439 0.66094   8 
  -1  14   6 15.3884  1.3911   8 
  -1  14   6 15.1063  1.2427   4 
  -1  14   6 14.6977  1.2190   7 
   1  14  -6 15.0980  1.2886   7 
   1  14   6 12.0703  1.1949   4 
  -1  14  -6 13.4902  1.3432   7 
   1  14   6 12.7744  1.2402   7 
   1  14   6 11.7706  1.2996   1 
   1  14   6 12.5687  1.2658   8 
  -1  14  -6 13.6659  1.4465   8 
  -2  14   6 74.2127  4.4498   4 
  -2  14   6 73.7052  4.6967   8 
   2  14   6 81.5914  4.4206   7 
   2  14   6 78.2520  4.5075   4 
   2  14   6 76.2449  5.1466   1 
  -2  14  -6 78.4870  4.5366   7 
  -2  14  -6 77.6109  4.8863   8 
   3  14  -6 40.9187  2.4132   4 
  -3  14   6 41.5527  2.4011   4 
  -3  14   6 42.9523  2.5705   8 
  -3  14  -6 35.5454  2.6701   8 
   3  14   6 35.7739  2.4014   4 
  -3  14  -6 35.4834  2.5044   7 
   3  14   6 34.1967  2.7350   1 
  -4  14   6 30.6557  1.9140   4 
   4  14  -6 32.3321  1.9985   4 
  -4  14  -6 31.6596  2.0970   7 
  -4  14  -6 30.3711  2.1804   8 
  -5 -14  -6 60.9956  3.8827   7 
   0  15   6 16.5069  1.3155   4 
   0  15   6 17.0278  1.3074   7 
   0  15  -6 17.2726  1.3707   7 
   0  15  -6 16.8057  1.4726   8 
   0  15   6 16.1180  1.3988   8 
  -1  15   6 210.210  11.463   8 
  -1  15   6 197.631  10.445   7 
  -1  15   6 212.106  10.911   4 
   1  15   6 199.844  10.894   4 
   1  15   6 204.193  10.524   7 
   1  15   6 195.352  11.381   8 
  -1  15  -6 203.648  10.605   7 
  -1  15  -6 200.504  11.546   8 
  -2  15   6 6.06314 0.79256   8 
  -2  15   6 6.09799 0.66253   4 
  -2  15  -6 4.88792 0.78449   7 
  -2  15  -6 4.77581 0.83187   8 
   2  15   6 5.63737 0.69103   4 
  -3  15   6 93.1749  5.6541   4 
  -3  15   6 99.7621  5.9781   8 
  -3  15  -6 107.284   5.669   7 
   3  15   6 110.712   5.745   4 
  -3  15  -6 111.959   6.156   8 
  -4  15  -6 78.9487  4.2838   7 
   0  16  -6 11.4763  0.9820   8 
   0  16  -6 9.81431 0.88612   7 
   0  16   6 10.6949  0.9513   8 
  -1  16   6 26.0466  1.5012   4 
  -1  16   6 25.8621  1.6015   8 
   1  16   6 18.6897  1.4693   8 
  -1  16  -6 19.9796  1.5867   8 
  -1  16  -6 20.8626  1.4768   7 
  -2  16   6 28.6833  2.0701   8 
  -2  16  -6 35.6834  2.1995   8 
  -2  16  -6 35.3906  2.0314   7 
   0   0  -7 -0.2415  0.2932   5 
  -1   0   7 38.2469  2.7129   6 
  -1   0  -7 33.4395  3.7453   3 
   1   0  -7 39.3699  2.6683   5 
  -2   0  -7 516.732  37.264   3 
   2   0  -7 570.952  32.106   5 
  -2   0   7 573.898  32.679   6 
  -3   0  -7 9.24113 2.33948   3 
  -3   0   7 10.4302  1.1049   6 
   3   0  -7 10.8635  1.0957   5 
  -4   0   7 5.20041 0.84484   6 
  -4   0  -7 5.06852 2.07263   3 
  -5   0   7 2.89606 0.58704   1 
  -5   0   7 2.42038 0.71962   6 
  -5   0  -7 2.90755 1.91446   3 
  -6   0   7 120.961   7.762   1 
  -6   0  -7 107.454  10.779   3 
  -6   0   7 127.953   8.137   6 
  -7   0   7 13.8056  1.3062   2 
  -7   0  -7 14.4106  1.2395   2 
  -7   0   7 13.8011  1.7929   6 
  -7   0   7 14.4592  1.4139   1 
   8   0  -7 234.676  13.805   1 
  -8   0   7 209.773  12.735   2 
  -8   0  -7 223.342  12.678   2 
  -8   0   7 217.254  13.805   1 
  -9   0   7 13.3477  1.1078   2 
   9   0  -7 12.4051  1.1638   1 
  -9   0   7 12.9379  1.1669   1 
  -9   0  -7 14.1353  1.0813   2 
   0   1   7 48.6230  3.1574   5 
  -1   1   7 207.151  12.768   6 
   1   1  -7 219.730  12.458   5 
  -1  -1  -7 209.202  14.917   3 
   1  -1  -7 213.842  12.667   5 
  -1  -1   7 214.515  12.797   6 
  -2  -1  -7 27.5455  3.2362   3 
  -2   1   7 27.2004  2.1013   6 
   2   1  -7 26.5664  1.9856   5 
  -2   1  -7 37.3929  3.7278   3 
  -3   1   7 550.449  31.853   6 
  -3  -1  -7 520.085  36.614   3 
   3   1  -7 547.701  31.192   5 
   3  -1  -7 577.641  31.368   5 
  -3   1  -7 479.406  36.638   3 
  -3  -1   7 547.877  31.840   6 
  -4   1   7 5.08616 0.83091   6 
  -4  -1  -7 4.78116 1.97147   3 
  -4   1  -7 6.01968 2.16804   3 
  -5   1   7 33.6684  2.8221   6 
  -5  -1  -7 28.9125  4.5558   3 
  -5  -1   7 33.9675  2.5315   1 
  -5  -1   7 39.0870  2.9354   6 
  -5   1  -7 34.9049  4.8718   3 
  -6   1   7 567.448  28.744   4 
  -6   1   7 588.330  33.091   6 
  -6   1   7 580.217  33.519   1 
  -6  -1  -7 487.347  38.598   3 
  -6  -1   7 560.561  33.045   6 
  -6   1  -7 522.071  38.723   3 
  -6  -1   7 529.615  33.455   1 
  -7   1   7 364.758  21.842   1 
  -7   1   7 363.688  21.918   6 
  -7  -1  -7 362.636  20.045   2 
  -7   1   7 358.337  20.141   2 
  -7  -1   7 348.277  21.851   6 
  -7   1  -7 364.045  20.025   2 
  -7  -1   7 341.180  21.800   1 
  -7  -1   7 330.572  20.093   2 
  -8   1   7 111.383   6.794   2 
  -8  -1  -7 117.514   6.745   2 
   8   1  -7 121.141   7.340   1 
  -8   1  -7 114.580   6.700   2 
  -8  -1   7 107.320   7.310   1 
  -8  -1   7 107.389   6.764   2 
   9   1  -7 15.3836  1.3601   1 
  -9  -1  -7 16.5889  1.2620   2 
  -9   1   7 16.4682  1.3044   2 
  -9   1   7 16.0148  1.3770   1 
  -9  -1   7 17.6996  1.2927   2 
   9  -1  -7 16.4953  1.3732   1 
  -9   1  -7 17.0633  1.2466   2 
  -9  -1   7 17.6374  1.4050   1 
   0   2   7 348.871  18.306   5 
   0  -2  -7 316.354  20.968   3 
   0   2  -7 274.808  21.184   3 
   0   2   7 306.846  18.492   6 
  -1  -2  -7 46.2503  4.1056   3 
  -1   2   7 46.4711  3.2232   5 
  -1   2   7 41.2658  3.1193   6 
  -1  -2   7 49.7701  3.2029   6 
  -1   2  -7 45.2829  4.5077   3 
   1   2   7 54.1626  3.1131   5 
  -2   2   7 1117.24   68.81   6 
  -2  -2  -7 1244.61   77.31   3 
   2   2  -7 1148.11   68.02   5 
  -2  -2   7 1160.18   68.83   6 
  -2   2  -7 1089.03   77.50   3 
   2  -2  -7 1310.83   67.99   5 
  -3  -2  -7 57.9901  5.1767   3 
  -3   2   7 58.2406  3.5986   6 
   3  -2  -7 45.3937  3.5148   5 
  -3   2  -7 42.9147  5.1166   3 
  -3  -2   7 47.2118  3.4780   6 
  -4   2   7 338.151  18.679   6 
  -4  -2  -7 301.898  22.240   3 
  -4   2  -7 279.609  22.291   3 
  -4  -2   7 303.340  18.586   6 
  -5   2   7 111.950   7.361   6 
  -5   2   7 107.536   7.123   1 
  -5  -2  -7 94.6128  9.7097   3 
  -5  -2   7 123.209   7.435   6 
  -5   2  -7 121.828  10.377   3 
  -5  -2   7 105.068   7.072   1 
  -6   2   7 221.112  11.445   4 
  -6   2   7 221.364  13.397   1 
  -6  -2  -7 184.458  16.858   3 
  -6   2   7 235.773  13.648   6 
  -6  -2   7 217.167  13.542   6 
  -6   2  -7 199.784  16.949   3 
  -6  -2   7 206.773  13.353   1 
  -7  -2  -7 11.5050  1.1014   2 
   7   2  -7 11.5634  1.2345   1 
  -7   2   7 11.3686  1.6032   6 
  -7   2   7 11.7818  1.2312   1 
  -7   2   7 12.8709  1.1913   2 
  -7   2   7 10.3749  0.9482   4 
  -7  -2   7 11.9104  1.6333   6 
  -7   2  -7 10.9669  1.0531   2 
  -7  -2   7 11.2966  1.2347   1 
  -8   2   7 414.804  23.526   2 
  -8   2   7 431.703  25.505   1 
  -8  -2  -7 426.934  23.456   2 
   8   2  -7 433.778  25.465   1 
  -8  -2   7 382.334  25.446   1 
  -8   2  -7 409.513  23.387   2 
  -9   2   7 55.5471  3.6308   1 
  -9   2   7 57.5487  3.3991   2 
   9   2  -7 52.9790  3.6035   1 
  -9  -2  -7 52.6103  3.3052   2 
   9   2  -7 55.4266  3.1143   4 
  -9  -2   7 54.4699  3.6301   1 
   9  -2  -7 51.1731  3.5883   1 
  -9   2  -7 51.9710  3.2692   2 
   0   3   7 146.083   8.656   5 
   0   3  -7 131.057  10.388   3 
   0  -3  -7 147.753  10.047   3 
   0   3   7 142.381   8.680   6 
  -1   3   7 215.764  12.085   5 
  -1  -3  -7 213.743  14.071   3 
  -1   3   7 199.835  12.090   6 
   1   3   7 209.318  11.929   5 
  -1  -3   7 186.326  12.068   6 
  -1   3  -7 177.784  14.367   3 
  -2   3   7 103.470   6.095   6 
   2   3  -7 110.685   5.905   5 
  -2  -3   7 86.8704  6.0060   6 
  -2   3  -7 85.0785  7.9008   3 
   2  -3  -7 87.4974  6.1533   5 
  -3  -3  -7 341.300  23.010   3 
   3   3  -7 340.938  19.199   5 
  -3   3   7 334.655  19.612   6 
  -3   3  -7 305.248  23.243   3 
  -3  -3   7 308.320  19.563   6 
   3  -3  -7 329.247  19.520   5 
  -4   3   7 357.965  20.817   6 
  -4  -3  -7 333.926  24.574   3 
  -4  -3   7 341.619  20.776   6 
  -4   3  -7 342.198  24.934   3 
  -5  -3  -7 22.8118  3.6944   3 
  -5   3  -7 17.9319  3.5847   3 
  -5  -3   7 18.2439  1.8147   6 
  -5  -3   7 15.5573  1.4553   1 
  -6   3   7 27.3849  2.2132   1 
  -6   3   7 28.0452  2.0800   2 
  -6  -3  -7 21.8329  4.2293   3 
   6   3  -7 31.7822  2.2212   1 
  -6   3   7 29.2075  2.6523   6 
  -6  -3  -7 29.6998  2.0329   2 
  -6   3   7 27.5260  1.8406   4 
  -6   3  -7 24.4897  4.2818   3 
  -6  -3   7 25.9231  2.1760   1 
  -6  -3   7 27.3139  2.5730   6 
  -7   3   7 198.127  11.391   4 
  -7   3   7 201.322  13.350   1 
  -7   3   7 203.016  12.335   2 
  -7   3   7 203.463  13.639   6 
  -7  -3  -7 215.660  12.302   2 
   7   3  -7 220.418  13.327   1 
  -7   3  -7 232.539  12.244   2 
  -7  -3   7 226.627  13.427   1 
  -7  -3   7 220.620  13.704   6 
   8   3  -7 72.2406  4.7172   1 
  -8  -3  -7 70.0369  4.3445   2 
  -8   3   7 72.4409  4.7518   1 
   8   3  -7 71.6156  4.1065   4 
  -8   3   7 72.9043  4.4432   2 
  -8  -3   7 68.4297  4.7293   1 
  -8   3  -7 66.2241  4.2582   2 
  -9   3   7 76.1610  4.3930   2 
   9   3  -7 73.6934  4.0425   4 
  -9   3  -7 67.2750  4.2376   2 
   0   4   7 7.26064 0.88656   5 
   0   4  -7 5.45153 1.52766   3 
   0  -4  -7 5.85579 1.08483   3 
  -1  -4  -7 200.747  12.991   3 
  -1   4   7 194.484  11.169   5 
  -1  -4   7 161.655  11.058   6 
  -1   4  -7 171.725  13.399   3 
   1   4   7 189.237  11.033   5 
  -2   4   7 242.390  14.302   5 
  -2   4   7 218.750  14.209   6 
  -2  -4  -7 246.533  16.698   3 
  -2   4  -7 244.464  17.334   3 
  -2  -4   7 233.188  14.253   6 
  -3  -4  -7 183.286  13.184   3 
  -3   4   7 165.738  10.776   6 
   3   4  -7 171.117  10.548   5 
  -3   4  -7 188.102  13.814   3 
  -3  -4   7 171.754  10.805   6 
  -4   4   7 565.899  34.720   1 
  -4  -4  -7 590.377  39.337   3 
  -4   4   7 556.783  33.941   6 
  -4  -4   7 559.827  33.988   6 
  -4   4  -7 588.883  39.698   3 
  -5  -4  -7 17.7187  3.2966   3 
  -5   4  -7 14.9133  3.4817   3 
  -5  -4   7 12.2197  1.2431   1 
  -5  -4   7 14.6443  1.5920   6 
   6   4  -7 166.857   9.617   1 
  -6   4   7 152.772   8.254   4 
  -6   4   7 150.485   9.960   6 
  -6  -4  -7 123.294  12.628   3 
  -6   4   7 149.398   8.920   2 
  -6  -4  -7 162.097   8.888   2 
  -6   4   7 156.923   9.701   1 
  -6   4  -7 154.273  12.925   3 
  -6   4  -7 152.886   8.767   7 
  -6  -4   7 140.993   9.617   1 
  -7   4   7 48.7497  2.9587   4 
   7   4  -7 52.6198  3.5166   1 
  -7  -4  -7 50.3436  3.2412   2 
  -7   4   7 50.5373  3.5519   1 
  -7   4   7 49.7880  4.0374   6 
  -7   4   7 49.0698  3.2957   2 
  -7  -4   7 47.3353  3.5068   1 
  -8  -4  -7 48.2892  3.0780   2 
   8   4  -7 50.5271  2.9639   4 
  -8   4   7 48.8819  3.1675   2 
  -8   4   7 48.8901  3.3699   1 
   8   4  -7 49.3818  3.3515   1 
  -8  -4   7 43.1895  3.3271   1 
   9   4  -7 126.205   6.821   4 
  -9   4   7 123.745   7.334   2 
   9   4   7 129.763   7.276   2 
   0  -5   7 12.5299  1.1780   6 
   0   5  -7 14.6155  2.2079   3 
   0   5   7 14.1759  1.3703   5 
   0  -5  -7 14.0325  1.6957   3 
  -1   5  -7 64.3720  5.8689   3 
  -2  -5  -7 26.9720  3.0008   3 
  -2   5   7 24.2531  2.2415   5 
  -2   5  -7 28.9535  3.5905   3 
   2   5   7 29.3475  2.2188   5 
  -3  -5  -7 253.939  18.013   3 
  -3   5  -7 246.015  18.525   3 
  -4   5   7 117.385   7.945   1 
  -4  -5  -7 129.433  10.439   3 
  -4   5   7 119.441   8.006   6 
   4   5   7 124.416   7.871   1 
  -4   5  -7 139.241  10.990   3 
  -5   5   7 76.4672  5.1458   1 
  -5  -5  -7 71.5783  7.5412   3 
  -5   5   7 78.8726  5.4048   6 
   5   5   7 75.3197  5.0595   1 
  -5   5  -7 80.4919  7.8556   3 
  -6  -5  -7 3.27874 0.60222   2 
  -6   5   7 2.56041 0.86839   6 
  -6   5   7 3.65537 0.71552   1 
  -6   5   7 2.83299 0.53193   4 
  -6  -5  -7 2.65106 1.95891   3 
   6   5  -7 3.11900 0.65169   1 
  -6  -5  -7 4.82580 1.48461   7 
  -6   5   7 2.65733 0.58430   2 
   6   5   7 3.47054 0.69022   1 
  -6  -5   7 3.61479 0.65812   1 
  -6   5  -7 3.72011 1.12243   7 
  -6   5  -7 5.02776 2.34050   3 
   7   5  -7 373.816  22.949   1 
  -7   5   7 346.973  19.683   4 
   7   5  -7 379.894  19.873   4 
  -7   5   7 380.905  23.041   1 
  -7   5   7 383.793  21.256   2 
  -7  -5   7 385.680  23.023   1 
  -8   5   7 15.0378  1.3756   1 
  -8   5   7 15.1427  1.3227   2 
   8   5  -7 15.7196  1.2511   4 
   8   5  -7 14.5368  1.3662   1 
  -8  -5   7 17.2692  1.4133   1 
   8   5   7 19.2240  1.3024   2 
  -9   5   7 11.6897  0.9328   2 
   9   5  -7 11.7194  0.8683   4 
   9   5   7 10.0922  0.8627   2 
   0   6  -7 0.83139 1.03196   3 
   0   6   7 1.26344 0.58620   5 
  -1  -6  -7 130.622   9.846   3 
   1   6   7 133.964   8.420   5 
  -1   6  -7 139.125  10.595   3 
  -2  -6  -7 194.313  13.583   3 
  -2   6  -7 177.618  14.098   3 
  -3   6   7 324.402  21.321   1 
  -3  -6  -7 358.885  24.449   3 
  -3   6  -7 365.932  25.094   3 
  -4  -6  -7 160.275  12.255   3 
  -4   6   7 145.609   9.532   1 
  -4   6  -7 156.778  12.551   3 
   4   6   7 144.116   9.458   1 
  -5   6   7 30.6407  1.9098   4 
  -5   6   7 29.7969  2.2516   1 
  -5  -6  -7 23.9409  3.9896   3 
   5   6  -7 29.6294  1.9487   4 
   5   6   7 23.2298  2.1091   1 
  -5   6  -7 24.2746  4.0508   3 
   6   6  -7 150.984   8.157   4 
  -6  -6  -7 151.276   9.017   7 
  -6   6   7 145.769   8.028   4 
  -6  -6  -7 124.346  12.370   3 
  -6   6   7 143.028   8.658   2 
  -6   6  -7 154.227  12.470   3 
  -6   6  -7 153.415   8.444   7 
   6   6   7 152.595   9.398   1 
  -7   6   7 78.2254  5.0940   1 
   7   6  -7 78.6839  5.0223   1 
  -7   6   7 70.8291  4.2550   4 
  -7   6   7 80.7150  4.7418   2 
   7   6  -7 80.8542  4.4627   4 
  -7  -6   7 68.0364  4.9844   1 
   7   6   7 75.0258  5.0691   1 
   8   6  -7 46.9436  3.1583   1 
  -8   6   7 46.7244  2.9773   2 
  -8   6   7 43.1877  3.1412   1 
   8   6  -7 47.7994  2.8042   4 
   0   7  -7 8.33493 2.02939   3 
   0  -7  -7 6.52441 1.28620   3 
  -1  -7  -7 85.0314  6.8145   3 
  -2   7   7 68.4174  4.6721   1 
  -2  -7  -7 76.4566  6.1993   3 
   2   7   7 66.9205  4.6253   1 
  -2   7  -7 71.4731  6.7331   3 
  -3   7   7 93.0622  6.4549   1 
  -3  -7  -7 104.536   8.461   3 
   3   7   7 98.3896  6.4256   1 
  -3   7  -7 106.068   9.020   3 
  -4   7   7 89.4481  6.1313   1 
  -4  -7  -7 94.8951  8.4432   3 
  -4   7  -7 100.167   8.833   3 
   4   7   7 92.1210  6.1085   1 
  -5   7   7 159.580  10.088   1 
  -5   7   7 152.888   8.624   4 
  -5  -7  -7 133.994  12.797   3 
  -5  -7  -7 176.379   9.485   7 
   5   7  -7 150.973   8.677   4 
  -5   7   7 140.008   9.199   2 
  -5   7  -7 174.564   9.049   7 
   5   7   7 166.891  10.087   1 
  -5   7  -7 176.677  13.377   3 
  -6  -7  -7 49.4071  3.8948   7 
  -6   7   7 44.5124  3.0235   2 
   6   7  -7 46.0356  2.8887   4 
  -6   7   7 45.6701  2.7690   4 
  -6   7   7 45.4771  3.2883   1 
  -6   7  -7 45.3604  3.2874   7 
   6   7   7 44.4418  3.2926   1 
  -7   7   7 70.7686  4.2552   4 
  -7   7   7 78.2749  4.7133   2 
  -7   7   7 74.9947  5.0622   1 
   7   7  -7 81.1916  4.4681   4 
   7   7   7 77.8801  5.1275   1 
  -8   7   7 1.81715 0.41384   2 
   8   7  -7 2.21329 0.45579   4 
   0   8  -7 37.8831  4.2168   3 
   0   8   7 37.0241  2.7712   1 
   0  -8  -7 40.2153  3.7354   3 
  -1   8   7 2.21379 0.54809   1 
  -1  -8  -7 2.35621 1.05935   3 
   1   8   7 1.53785 0.50688   1 
  -1   8  -7 5.86663 1.93342   3 
  -2   8   7 292.222  18.798   1 
  -2  -8  -7 305.973  21.499   3 
  -2   8  -7 324.313  22.284   3 
   2   8   7 302.015  18.781   1 
  -3  -8  -7 461.876  30.830   3 
  -3   8   7 429.523  27.066   1 
  -3   8  -7 459.543  31.328   3 
   3   8   7 423.986  27.032   1 
  -4   8   7 177.673  10.767   1 
   4   8  -7 170.587   9.249   4 
  -4   8   7 175.094   9.233   4 
  -4  -8  -7 171.145  13.564   3 
  -4   8  -7 157.352   9.393   7 
  -4   8  -7 172.931  13.782   3 
   4   8   7 161.146  10.691   1 
  -5   8   7 361.132  21.870   1 
  -5   8   7 370.224  18.791   4 
  -5  -8  -7 329.880  25.824   3 
   5   8  -7 356.196  18.841   4 
  -5   8  -7 358.413  18.659   7 
   5   8   7 349.896  21.851   1 
  -6   8   7 32.1782  2.5669   1 
   6   8  -7 35.3070  2.3204   4 
  -6   8   7 33.7126  2.1760   4 
  -6  -8  -7 35.1721  3.1949   7 
   6   8   7 36.9824  2.6829   1 
  -6   8  -7 35.0418  2.6895   7 
   7   8  -7 12.4700  1.0769   4 
  -7   8   7 11.3700  1.1071   1 
   7   8   7 11.6381  1.2101   1 
   8   8  -7 12.5746  0.9915   4 
   0   9   7 83.5305  5.7091   1 
   0  -9  -7 89.0161  7.0648   3 
   0   9  -7 87.1833  7.6121   3 
  -1  -9  -7 83.1965  7.0579   3 
  -1   9   7 81.8437  5.5859   1 
  -1   9  -7 87.6189  7.7272   3 
   1   9   7 84.8778  5.6096   1 
  -2  -9  -7 39.3676  4.2672   3 
  -2   9   7 38.2447  2.9148   1 
   2   9   7 39.6907  2.9339   1 
  -2   9  -7 41.5419  4.8522   3 
  -3   9   7 37.6457  2.4536   4 
  -3   9   7 39.8621  2.8721   1 
  -3  -9  -7 36.4436  4.3713   3 
   3   9  -7 35.5323  2.4106   4 
   3   9   7 37.2979  2.8258   1 
  -3   9  -7 38.1995  2.9347   8 
  -3   9  -7 37.9510  4.7817   3 
  -4  -9  -7 37.8692  4.7737   3 
  -4   9   7 40.0737  2.9601   1 
   4   9  -7 39.5486  2.5646   4 
  -4   9   7 40.2892  2.5345   4 
   4   9   7 39.1927  2.9766   1 
  -4   9  -7 36.6291  2.9486   7 
  -4   9  -7 41.0572  5.0734   3 
  -4   9  -7 39.3181  2.9649   8 
  -5   9   7 327.036  21.506   1 
   5   9  -7 354.608  18.600   4 
  -5   9   7 356.778  18.519   4 
  -5   9  -7 356.986  18.367   7 
   5   9   7 355.361  21.604   1 
  -6   9   7 12.5379  1.0317   4 
   6   9  -7 13.9374  1.1828   4 
  -6  -9  -7 14.8478  2.0636   7 
  -6   9   7 13.1507  1.2529   1 
   7   9  -7 91.0648  5.1908   4 
   7   9   7 93.6028  6.0205   1 
   8   9  -7 1.12911 0.30287   4 
   0  10  -7 19.1481  2.9984   3 
   0  10   7 17.1608  1.6587   1 
   0  10   7 18.0743  1.4839   4 
   0 -10  -7 18.6437  2.5495   3 
  -1  10   7 30.9623  2.3104   1 
  -1 -10  -7 30.5936  3.4787   3 
  -1  10   7 30.6560  1.9977   4 
   1  10   7 25.4367  1.9187   4 
   1  10   7 25.9376  2.2509   1 
  -1  10  -7 26.4195  3.7307   3 
  -1  10  -7 23.4799  2.3009   8 
  -2 -10  -7 267.870  19.236   3 
  -2  10   7 273.085  16.432   1 
  -2  10   7 264.291  14.147   4 
  -2  10   7 274.233  14.890   8 
   2  10   7 256.097  13.685   7 
  -2  10  -7 244.559  15.127   8 
  -2  10  -7 257.689  14.023   7 
   2  10   7 265.715  16.431   1 
  -2  10  -7 271.139  19.716   3 
   2  10   7 263.821  14.125   4 
   3  10  -7 75.5671  4.1295   4 
  -3  10   7 77.8420  4.8023   1 
  -3 -10  -7 74.2306  6.8733   3 
  -3  10   7 75.0757  4.3444   8 
  -3  10   7 75.4586  4.1350   4 
  -3  10  -7 56.3957  4.2920   7 
   3  10   7 57.7950  4.6760   1 
  -3  10  -7 54.0842  6.5118   3 
  -4  10   7 155.854   9.813   1 
   4  10  -7 167.280   8.529   4 
  -4  10   7 164.839   8.465   4 
   4  10   7 143.570   9.802   1 
  -4  10  -7 143.956   9.102   8 
  -4  10  -7 145.777   8.597   7 
   5  10  -7 30.1449  1.9999   4 
  -5  10   7 27.2697  1.8624   4 
  -5  10   7 26.3190  2.1607   1 
  -6 -10  -7 7.90407 1.56563   7 
  -6  10   7 6.05694 0.65030   4 
   6  10  -7 7.13969 0.80816   4 
  -6  10   7 6.28730 0.78973   1 
  -6  10  -7 8.18812 1.09707   7 
   6  10   7 8.69921 0.99611   1 
   7  10  -7 43.5749  2.6217   4 
   0  11   7 133.048   7.370   7 
   0  11   7 141.086   7.648   4 
   0 -11  -7 131.174  10.585   3 
   0  11  -7 128.677   8.210   8 
   0  11   7 147.279   8.882   1 
   0  11   7 135.555   8.032   8 
   0  11  -7 142.489  11.147   3 
   0  11  -7 132.485   7.596   7 
  -1  11   7 118.177   6.539   4 
   1  11  -7 114.231   7.064   8 
  -1  11   7 115.839   6.906   8 
  -1  11   7 123.942   7.603   1 
  -1 -11  -7 118.114   9.528   3 
   1  11   7 109.518   6.861   8 
  -1  11  -7 119.452   9.925   3 
  -1  11  -7 112.967   6.634   7 
   1  11   7 110.867   6.359   7 
   1  11   7 114.491   6.536   4 
  -1  11  -7 106.773   7.099   8 
   1  11   7 124.130   7.641   1 
  -2 -11  -7 296.181  22.146   3 
  -2  11   7 310.839  17.283   8 
  -2  11   7 305.724  19.081   1 
  -2  11   7 310.444  16.460   4 
   2  11   7 303.615  15.902   7 
  -2  11  -7 313.537  22.533   3 
   2  11   7 327.830  19.168   1 
  -2  11  -7 295.294  17.533   8 
  -2  11  -7 311.946  16.236   7 
   2  11   7 304.559  16.430   4 
  -3  11   7 1.46237 0.56361   8 
   3  11  -7 1.45309 0.48330   4 
  -3  11   7 2.45822 0.61571   1 
  -3  11   7 1.32120 0.47380   4 
  -3  11  -7 1.44840 0.73886   8 
   3  11   7 1.55989 0.60509   1 
  -3  11  -7 1.42524 0.77562   7 
  -4  11   7 4.42634 0.78164   1 
  -4  11   7 5.66068 0.72927   4 
   4  11  -7 4.85094 0.74977   4 
  -4  11  -7 7.79430 1.21670   7 
  -4  11  -7 5.82380 1.06635   8 
   4  11   7 6.88831 0.97568   1 
  -5  11   7 112.673   7.580   1 
   5  11  -7 127.068   6.680   4 
  -5  11   7 117.769   6.547   4 
  -5  11  -7 116.490   6.721   7 
   5  11   7 121.782   7.738   1 
  -6 -11  -7 118.393   7.105   7 
  -6  11   7 109.754   6.374   4 
   6  11  -7 129.423   6.577   4 
  -6  11  -7 113.178   6.472   7 
   6  11   7 122.601   7.614   1 
   7  11  -7 58.0818  3.2970   4 
   0  12   7 50.3630  3.6227   1 
   0  12   7 48.8870  3.3254   8 
   0  12   7 49.5271  3.0836   7 
   0  12  -7 48.7691  3.2447   7 
   0  12   7 50.1127  3.1417   4 
   0  12  -7 48.9298  3.5317   8 
  -1  12   7 120.820   6.661   4 
  -1  12   7 117.131   7.692   1 
  -1  12   7 119.536   7.023   8 
   1  12  -7 120.010   7.173   8 
   1  12   7 119.824   6.673   4 
   1  12   7 117.960   7.712   1 
  -1  12  -7 114.173   7.234   8 
   1  12   7 112.129   6.964   8 
  -1  12  -7 117.060   6.721   7 
   1  12   7 117.650   6.485   7 
  -2  12   7 193.964  12.650   1 
  -2  12   7 212.404  11.531   8 
  -2  12   7 203.521  10.942   4 
   2  12   7 205.713  12.740   1 
  -2  12  -7 200.200  10.888   7 
   2  12   7 196.645  10.931   4 
  -2  12  -7 198.736  11.768   8 
   2  12   7 198.555  10.616   7 
  -3  12   7 26.8726  2.0973   8 
  -3  12   7 28.7023  2.0144   4 
   3  12  -7 26.0786  1.9749   4 
  -3  12   7 25.2872  2.2369   1 
  -3  12  -7 34.1165  2.4336   7 
   3  12   7 32.4848  2.4436   1 
   3  12   7 30.4359  2.0312   4 
  -3  12  -7 33.8354  2.5133   8 
  -4  12   7 67.1392  4.0223   4 
   4  12  -7 68.8882  4.0828   4 
  -4  12  -7 71.8723  4.5120   8 
  -4  12  -7 70.3114  4.2933   7 
   4  12   7 70.7975  4.7848   1 
   5  12  -7 69.1699  3.9673   4 
  -5 -12  -7 74.2066  4.7235   7 
  -5  12   7 63.0081  3.8430   4 
   5  12   7 67.0301  4.6060   1 
  -5  12  -7 71.4410  4.1110   7 
   6  12  -7 37.7098  2.1694   4 
  -6  12  -7 31.6599  2.1689   7 
   0  13  -7 1.45123 0.61007   7 
   0  13   7 1.25117 0.55324   8 
   0  13  -7 0.70359 0.61632   8 
   0  13   7 1.15544 0.53177   1 
   0  13   7 0.93546 0.48077   7 
   0  13   7 1.17829 0.47317   4 
  -1  13   7 15.3667  1.4080   8 
  -1  13   7 13.5120  1.3841   1 
  -1  13   7 14.7569  1.2783   4 
   1  13   7 13.0963  1.3338   8 
   1  13   7 14.8403  1.3162   7 
   1  13   7 13.5001  1.2510   4 
   1  13   7 14.6544  1.4697   1 
  -1  13  -7 13.8720  1.4369   7 
  -1  13  -7 13.4253  1.5313   8 
  -2  13   7 118.671   7.365   1 
  -2  13   7 125.817   6.759   8 
  -2  13   7 124.317   6.427   4 
   2  13   7 107.976   6.366   4 
   2  13   7 107.177   7.374   1 
  -2  13  -7 102.252   6.358   7 
  -2  13  -7 106.723   6.902   8 
   3  13  -7 1.32191 0.44695   4 
  -3  13   7 0.74097 0.45872   8 
  -3  13   7 1.36830 0.42933   4 
  -3  13  -7 1.18089 0.62705   8 
  -3  13  -7 0.83618 0.58032   7 
   3  13   7 0.92873 0.41612   4 
   3  13   7 0.71334 0.48681   1 
  -4  13   7 67.4566  3.8914   4 
   4  13  -7 68.5116  3.9593   4 
  -4  13  -7 67.0641  4.2961   8 
   4  13   7 68.3712  4.6164   1 
  -4  13  -7 70.7299  4.0964   7 
   5  13  -7 13.2374  1.0050   4 
  -5 -13  -7 13.2962  1.6523   7 
  -5  13   7 11.2565  0.8683   4 
  -5  13  -7 12.0419  1.1289   7 
   0  14   7 14.0014  1.2217   7 
   0  14   7 15.1669  1.3649   8 
   0  14   7 13.9505  1.3736   1 
   0  14  -7 13.7903  1.3221   7 
   0  14   7 16.0837  1.2818   4 
   0  14  -7 15.4326  1.4683   8 
  -1  14   7 67.0685  4.1023   8 
  -1  14   7 63.9752  4.4190   1 
  -1  14   7 64.7024  3.8694   4 
  -1  14  -7 67.4439  4.2619   8 
  -1  14  -7 68.5666  3.9374   7 
   1  14   7 62.6219  4.4294   1 
   1  14   7 65.1860  4.0471   8 
   1  14   7 64.4958  3.8642   4 
   1  14   7 67.2203  3.7991   7 
  -2  14   7 6.29691 0.79928   4 
  -2  14   7 6.81309 0.92139   8 
  -2  14  -7 9.10085 1.13710   8 
   2  14   7 9.26007 1.01380   1 
   2  14   7 8.71901 0.86938   4 
  -2  14  -7 9.72828 1.07560   7 
   3  14  -7 7.71257 0.73793   4 
  -3  14   7 7.38188 0.71067   4 
  -3  14   7 6.58418 0.80244   8 
   3  14   7 5.46747 0.81665   1 
   3  14   7 5.65801 0.69722   4 
  -3  14  -7 5.90375 0.87884   7 
  -3  14  -7 6.45904 0.92912   8 
   4  14  -7 30.1933  1.8605   4 
  -4  14   7 29.0804  1.8084   4 
   0  15   7 186.395   9.952   4 
   0  15  -7 181.451   9.601   7 
   0  15   7 182.946  10.423   8 
   0  15  -7 189.096  10.511   8 
  -1  15   7 26.6884  1.6508   4 
  -1  15   7 25.2504  1.7381   8 
   1  15   7 22.3187  1.6686   8 
  -1  15  -7 21.3890  1.6482   7 
  -1  15  -7 22.0821  1.7914   8 
   1  15   7 23.4066  1.6164   4 
  -2  15   7 49.1465  2.6068   4 
  -2  15   7 49.2747  2.7628   8 
   2  15   7 37.8252  2.5402   4 
  -2  15  -7 38.8235  2.5867   7 
  -2  15  -7 39.8267  2.8122   8 
  -3  15   7 61.9916  3.8313   8 
  -3  15  -7 67.1995  3.6900   7 
  -3  15  -7 67.5154  3.9852   8 
   0  16   7 0.34966 0.31188   8 
   0  16   7 0.34315 0.24767   4 
  -1  16   7 77.1475  4.4491   8 
  -1  16   7 76.2305  4.2271   4 
   1  16   7 75.0499  4.2311   4 
  -1  16  -7 78.4614  4.5086   8 
   0   0  -8 153.050  11.142   3 
   1   0  -8 87.0356  5.0491   5 
  -1   0  -8 71.1148  6.6023   3 
   2   0  -8 62.5577  3.8764   5 
  -2   0  -8 51.7399  5.4342   3 
  -2   0   8 59.8354  3.9642   6 
   3   0  -8 775.101  43.546   5 
  -3   0  -8 687.795  50.688   3 
  -3   0   8 792.578  44.394   6 
  -4   0   8 1.26097 0.52570   6 
  -4   0  -8 1.07665 1.47769   3 
  -5   0   8 99.2037  6.6318   1 
  -5   0   8 109.313   6.996   6 
  -5   0  -8 98.9406  9.7325   3 
  -6   0   8 51.2295  3.7467   1 
  -6   0  -8 50.9525  6.5380   3 
  -6   0   8 53.6980  3.5070   2 
  -6   0   8 54.2608  4.2152   6 
  -6   0  -8 56.9556  3.4333   2 
  -7   0   8 20.7724  2.2817   6 
  -7   0   8 21.2330  1.7521   2 
  -7   0   8 22.1802  1.8968   1 
  -7   0  -8 24.6142  1.7358   2 
  -8   0   8 382.930  23.350   1 
  -8   0   8 374.185  21.528   2 
  -8   0  -8 388.172  21.455   2 
   8   0  -8 379.054  23.309   1 
  -9   0   8 16.5958  1.2522   2 
   0   1   8 31.1262  2.1112   6 
   0   1  -8 23.6052  3.0121   3 
   0  -1  -8 27.1635  2.9432   3 
  -1  -1  -8 1072.39   73.43   3 
  -1   1   8 1139.63   65.77   6 
   1  -1  -8 1213.77   64.50   5 
  -1   1  -8 987.878  73.483   3 
  -1  -1   8 1183.33   66.08   6 
   2   1  -8 768.825  43.573   5 
  -2  -1  -8 716.147  50.436   3 
  -2   1   8 739.042  44.434   6 
  -2  -1   8 786.505  44.465   6 
   2  -1  -8 831.568  43.823   5 
  -2   1  -8 692.110  50.538   3 
  -3  -1  -8 264.272  20.049   3 
   3   1  -8 282.407  16.299   5 
  -3   1   8 287.425  16.748   6 
  -3   1  -8 253.704  20.088   3 
   3  -1  -8 282.204  16.443   5 
  -3  -1   8 283.156  16.724   6 
  -4   1   8 259.525  15.455   6 
  -4  -1  -8 225.463  18.789   3 
  -4  -1   8 270.314  15.486   6 
  -4   1  -8 244.458  19.089   3 
  -5   1   8 33.9968  2.5348   1 
  -5  -1  -8 31.9197  4.8598   3 
  -5   1   8 36.9485  2.9246   6 
  -5  -1   8 35.0373  2.8989   6 
  -5   1  -8 35.1777  5.0483   3 
  -5  -1   8 32.0840  2.4947   1 
  -6  -1  -8 90.0680  9.9951   3 
  -6   1   8 115.453   6.546   2 
  -6   1   8 112.104   6.016   4 
  -6   1   8 113.513   7.455   6 
  -6  -1  -8 119.786   6.467   2 
  -6   1   8 113.685   7.071   1 
  -6  -1   8 100.482   6.990   1 
  -6  -1   8 105.317   7.383   6 
  -6   1  -8 107.639   6.386   2 
  -6   1  -8 96.4724 10.0878   3 
  -6  -1   8 101.146   6.481   2 
  -7   1   8 142.660   9.073   1 
  -7  -1  -8 147.088   8.319   2 
  -7   1   8 139.855   9.460   6 
  -7   1   8 143.974   8.392   2 
  -7  -1   8 134.623   8.352   2 
  -7   1  -8 146.361   8.288   2 
  -7  -1   8 140.628   9.453   6 
  -7  -1   8 136.815   9.044   1 
   8   1  -8 132.980   8.373   1 
  -8   1   8 134.952   8.414   1 
  -8   1   8 129.951   7.778   2 
  -8  -1  -8 133.351   7.708   2 
  -8  -1   8 129.351   8.392   1 
  -8   1  -8 133.657   7.680   2 
  -8  -1   8 127.372   7.748   2 
  -9   1   8 82.8346  4.6867   2 
   9   1  -8 76.7531  4.3239   4 
  -9  -1   8 74.7070  4.6121   2 
   0   2   8 11.8316  1.1247   5 
   0   2  -8 9.09929 1.90138   3 
   0  -2  -8 10.4126  1.7128   3 
   0   2   8 11.6106  1.0982   6 
  -1  -2  -8 577.960  36.987   3 
  -1   2   8 586.702  32.562   6 
  -1   2  -8 490.441  37.065   3 
  -1  -2   8 550.836  32.542   6 
  -2   2   8 439.336  25.109   6 
  -2  -2  -8 465.426  29.180   3 
  -2  -2   8 411.127  25.084   6 
   2  -2  -8 414.802  24.847   5 
  -2   2  -8 383.438  29.151   3 
  -3  -2  -8 3.09634 1.55325   3 
   3   2  -8 3.40487 0.62779   5 
  -3   2   8 4.03816 0.72846   6 
  -3   2  -8 6.74572 2.25445   3 
  -4   2   8 44.6395  3.4758   6 
  -4  -2  -8 38.8175  5.1453   3 
  -4  -2   8 51.7700  3.5620   6 
  -4   2  -8 48.9040  5.6832   3 
  -5   2   8 193.170  12.200   1 
  -5  -2  -8 183.863  15.740   3 
  -5   2   8 199.968  12.327   6 
  -5   2  -8 207.767  16.086   3 
  -5  -2   8 203.511  12.357   6 
  -5  -2   8 183.074  12.124   1 
  -6   2   8 232.924  12.609   2 
  -6  -2  -8 241.818  12.535   2 
  -6  -2  -8 224.785  12.691   7 
  -6  -2  -8 186.378  17.284   3 
  -6   2   8 234.120  11.681   4 
  -6   2   8 229.617  13.839   6 
  -6   2  -8 198.769  17.272   3 
  -6  -2   8 198.214  13.551   1 
  -6   2  -8 214.466  12.419   2 
  -6   2  -8 209.904  12.238   7 
  -6  -2   8 210.376  13.768   6 
  -7   2   8 17.9260  1.4917   2 
  -7   2   8 18.7491  2.0560   6 
   7   2  -8 19.1250  1.5756   1 
  -7   2   8 18.8920  1.5987   1 
  -7  -2  -8 19.4120  1.4459   2 
  -7  -2   8 13.8905  1.4783   1 
  -7  -2   8 14.7500  1.8880   6 
  -7   2  -8 14.7291  1.3287   2 
   8   2  -8 28.8561  2.1571   1 
  -8   2   8 27.3612  2.1575   1 
  -8   2   8 27.9367  2.0478   2 
  -8  -2  -8 28.9276  1.9852   2 
  -8  -2   8 28.9180  2.1737   1 
  -8   2  -8 26.7002  1.9161   2 
  -9   2   8 52.8629  3.2923   2 
   9   2  -8 52.8826  3.0467   4 
   9   2   8 53.8947  3.2424   2 
   0   3   8 1578.38   94.11   6 
   0   3   8 1715.97   92.43   5 
   0  -3  -8 1619.19  103.90   3 
   0   3  -8 1486.81  104.15   3 
  -1   3   8 235.128  13.218   5 
  -1  -3  -8 242.121  15.609   3 
  -1   3   8 233.426  13.287   6 
  -1  -3   8 199.353  13.209   6 
  -1   3  -8 185.803  15.671   3 
  -2   3   8 151.929  10.130   6 
  -2  -3  -8 158.687  12.279   3 
  -2  -3   8 176.842  10.201   6 
  -2   3  -8 166.547  12.777   3 
   2  -3  -8 171.196  10.290   5 
  -3  -3  -8 537.395  34.947   3 
  -3   3   8 542.271  30.113   6 
  -3  -3   8 466.095  30.005   6 
  -3   3  -8 479.374  35.050   3 
  -4   3   8 166.814   9.784   6 
  -4  -3  -8 154.162  12.578   3 
  -4   3   8 156.503   9.636   1 
  -4  -3   8 143.083   9.666   6 
  -4   3  -8 139.578  12.549   3 
  -5  -3  -8 220.983  19.246   3 
  -5   3   8 257.642  15.677   6 
  -5   3   8 251.356  15.648   1 
  -5   3  -8 273.939  19.840   3 
  -5  -3   8 241.356  15.562   1 
  -5  -3   8 267.719  15.696   6 
  -6   3   8 16.5217  1.8859   6 
  -6  -3  -8 18.5452  1.4122   2 
  -6  -3  -8 13.1761  3.7090   3 
  -6   3   8 16.4754  1.2621   4 
  -6   3   8 16.9353  1.5374   1 
  -6  -3  -8 18.2130  2.6156   7 
  -6   3   8 17.2473  1.4516   2 
  -6  -3   8 16.4699  1.8708   6 
  -6  -3   8 15.1243  1.4788   1 
  -6   3  -8 16.1978  3.8453   3 
  -6   3  -8 14.8707  2.1698   7 
  -7   3   8 91.7813  5.0655   4 
  -7   3   8 89.3829  5.5382   2 
   7   3  -8 90.7657  5.8936   1 
  -7  -3  -8 96.4087  5.4939   2 
  -7   3   8 92.1129  6.4714   6 
  -7   3   8 90.7757  5.9754   1 
  -7   3  -8 86.9006  5.3761   2 
  -7  -3   8 83.9519  5.9245   1 
  -8   3   8 134.466   7.907   2 
   8   3  -8 133.535   7.355   4 
   8   3  -8 136.567   8.477   1 
  -8   3   8 129.913   8.502   1 
  -8  -3   8 141.655   8.525   1 
  -8   3  -8 128.366   7.729   2 
   9   3  -8 45.3786  2.7711   4 
  -9   3   8 47.6626  3.0132   2 
   9   3   8 52.3902  2.9827   2 
   0   4  -8 150.787  11.468   3 
   0  -4  -8 164.513  11.127   3 
   0   4   8 160.642   9.529   5 
   0  -4   8 145.535   9.486   6 
  -1  -4  -8 108.051   8.602   3 
  -1   4   8 100.905   7.147   5 
   1   4   8 124.613   7.130   5 
  -1  -4   8 118.197   7.169   6 
  -1   4  -8 118.327   9.228   3 
  -2   4  -8 9.38630 2.41097   3 
  -2  -4   8 9.01636 1.02868   6 
  -3  -4  -8 67.3090  6.0203   3 
  -3   4   8 66.1227  4.2168   6 
  -3   4  -8 53.5313  5.9964   3 
  -3  -4   8 52.5998  4.0755   6 
  -4   4   8 195.753  12.607   1 
  -4  -4  -8 192.738  15.654   3 
  -4   4   8 191.962  12.562   6 
  -4  -4   8 212.573  12.651   6 
  -4   4  -8 221.921  16.246   3 
  -5   4   8 170.268  11.215   6 
  -5  -4  -8 151.623  14.233   3 
  -5   4   8 168.585  11.089   1 
  -5   4  -8 208.506  15.064   3 
  -5  -4   8 186.587  11.269   6 
   6   4  -8 342.927  19.956   1 
  -6   4   8 308.421  18.474   2 
  -6  -4  -8 312.229  17.900   7 
  -6   4   8 328.238  17.194   4 
  -6   4   8 326.719  20.068   1 
  -6   4   8 311.298  19.998   6 
  -6  -4  -8 332.649  18.416   2 
  -6   4  -8 328.095  24.314   3 
  -6  -4   8 322.310  20.010   1 
  -6   4  -8 337.620  17.420   7 
  -7   4   8 19.1658  1.5890   2 
  -7   4   8 18.7767  1.6764   1 
   7   4  -8 19.3841  1.6450   1 
  -7   4   8 20.3465  1.3970   4 
   8   4  -8 36.7348  2.2926   4 
  -8   4   8 36.4590  2.6050   1 
  -8   4   8 36.6708  2.4619   2 
   8   4  -8 35.7338  2.5618   1 
  -8  -4   8 33.9256  2.5573   1 
   8   4   8 36.1231  2.3616   2 
   9   4  -8 7.18501 0.65451   4 
  -9   4   8 7.43491 0.71251   2 
   0   5   8 437.951  24.823   5 
   0   5  -8 428.802  28.753   3 
   0  -5   8 381.658  24.936   6 
   0  -5  -8 439.295  28.287   3 
  -1  -5   8 20.7868  1.8288   6 
   1   5   8 25.5958  2.0017   5 
  -1   5  -8 25.3489  3.2703   3 
  -2  -5  -8 271.749  18.328   3 
  -2   5  -8 240.092  18.641   3 
  -3  -5  -8 195.391  14.232   3 
  -3   5   8 182.581  11.573   1 
  -3   5  -8 178.955  14.452   3 
  -4   5   8 117.905   7.749   6 
  -4  -5  -8 127.935  10.487   3 
   4   5   8 112.891   7.556   1 
  -4   5  -8 123.357  10.628   3 
  -5   5   8 22.0637  2.1789   6 
  -5   5   8 22.6104  1.6268   4 
  -5   5   8 22.7641  1.9518   1 
  -5  -5  -8 21.8056  3.9282   3 
  -5   5  -8 29.7386  4.3901   3 
   5   5   8 25.3333  1.9158   1 
  -6  -5  -8 35.1815  3.5082   7 
  -6  -5  -8 28.2372  4.8613   3 
  -6   5   8 37.4897  2.7764   1 
  -6   5   8 36.9842  2.3193   4 
  -6   5   8 35.1576  3.1427   6 
  -6   5   8 35.1285  2.5347   2 
  -6   5  -8 43.2479  5.3239   3 
  -6   5  -8 42.1181  3.1229   7 
   7   5  -8 143.373   7.911   4 
  -7   5   8 149.257   9.158   1 
  -7   5   8 138.895   7.763   4 
  -7   5   8 146.540   8.456   2 
   7   5   8 147.115   8.343   2 
  -7  -5   8 135.512   9.055   1 
  -8   5   8 74.7436  4.3154   2 
   8   5  -8 71.7224  4.5551   1 
  -8   5   8 69.7228  4.5896   1 
   8   5  -8 72.1677  4.0088   4 
   8   5   8 67.1831  4.1878   2 
  -8  -5   8 62.6797  4.5180   1 
  -9   5   8 163.501   9.298   2 
   0   6  -8 155.962  11.731   3 
   0  -6  -8 154.757  11.202   3 
  -1  -6  -8 33.9374  3.4763   3 
  -2  -6  -8 110.055   8.543   3 
  -2   6  -8 98.0011  8.8399   3 
  -3   6   8 47.1421  3.1776   1 
  -3  -6  -8 47.6272  4.9238   3 
  -3   6  -8 41.2215  5.0965   3 
   3   6   8 41.1914  3.0629   1 
  -4   6   8 182.450  12.330   1 
  -4  -6  -8 190.452  15.396   3 
  -4   6  -8 222.164  15.969   3 
   4   6   8 199.380  12.288   1 
   5   6  -8 105.375   5.824   4 
  -5   6   8 110.201   6.789   1 
  -5   6   8 103.830   6.197   2 
  -5  -6  -8 91.3000  9.4472   3 
  -5   6   8 107.579   5.773   4 
  -5  -6  -8 110.792   6.750   7 
  -5   6  -8 107.225   6.326   7 
   5   6   8 96.0324  6.6485   1 
   5   6   8 91.7167  6.0377   2 
  -5   6  -8 103.176   9.595   3 
  -6  -6  -8 160.236  10.050   7 
  -6   6   8 162.365   9.805   2 
   6   6  -8 165.755   9.204   4 
  -6   6   8 162.444  10.640   1 
  -6   6   8 165.972   9.096   4 
   6   6   8 177.498   9.727   2 
   6   6   8 174.212  10.637   1 
  -6   6  -8 176.477   9.509   7 
   7   6  -8 76.9618  4.3241   4 
  -7   6   8 68.2372  4.1378   4 
  -7   6   8 73.6471  4.9386   1 
  -7   6   8 77.2666  4.5982   2 
  -8   6   8 3.41784 0.54397   2 
   8   6  -8 2.60398 0.48274   4 
  -8   6   8 2.80722 0.51931   1 
   0   7  -8 236.750  16.410   3 
   0   7   8 193.167  13.832   1 
   0  -7  -8 247.874  15.910   3 
  -1   7   8 68.4155  4.4594   1 
  -1  -7  -8 76.3281  5.9458   3 
  -1   7  -8 61.0214  6.1606   3 
   1   7   8 60.9658  4.4017   1 
  -2   7   8 124.981   8.246   1 
  -2  -7  -8 142.196  10.370   3 
  -2   7  -8 133.057  10.779   3 
   2   7   8 122.219   8.201   1 
  -3  -7  -8 682.447  46.557   3 
  -3   7   8 626.757  41.614   1 
  -3   7  -8 742.114  47.162   3 
   3   7   8 699.262  41.614   1 
  -4  -7  -8 267.111  20.107   3 
  -4   7   8 261.969  16.589   1 
   4   7  -8 265.470  14.272   4 
  -4   7   8 257.354  14.230   4 
   4   7   8 267.977  16.542   1 
  -4   7  -8 289.080  20.404   3 
  -5   7   8 79.2256  5.0745   2 
   5   7  -8 85.7204  4.8239   4 
  -5  -7  -8 68.9076  7.9812   3 
  -5   7   8 86.3972  5.5911   1 
  -5  -7  -8 86.4077  5.7380   7 
  -5   7   8 85.4225  4.7621   4 
  -5   7  -8 84.7490  8.2138   3 
  -5   7  -8 85.1797  5.2763   7 
   5   7   8 81.0969  5.5112   1 
  -6   7   8 12.4708  1.2890   1 
  -6  -7  -8 14.6721  2.2325   7 
  -6   7   8 13.2308  1.2135   2 
   6   7  -8 12.9891  1.1739   4 
  -6   7   8 12.4047  1.0614   4 
  -6   7  -8 18.5680  1.8179   7 
  -7   7   8 19.0145  1.3549   4 
  -7   7   8 20.2838  1.6793   1 
  -7   7   8 19.6153  1.5606   2 
   7   7  -8 21.5734  1.5300   4 
   7   7   8 22.6879  1.7523   1 
   8   7  -8 42.0543  2.4986   4 
  -8   7   8 41.2719  2.6371   2 
   0   8   8 6.92293 0.91789   1 
   0  -8  -8 6.77854 1.59206   3 
   0   8  -8 7.57494 2.05830   3 
  -1  -8  -8 137.305   9.712   3 
  -1   8   8 133.779   7.862   1 
  -1   8  -8 110.739   9.874   3 
   1   8   8 105.477   7.740   1 
  -2   8   8 166.001  10.310   1 
  -2  -8  -8 171.341  12.607   3 
   2   8   8 158.788  10.268   1 
  -2   8  -8 154.323  12.872   3 
  -3  -8  -8 12.0201  2.5058   3 
  -3   8   8 12.3914  1.1485   4 
  -3   8   8 13.5831  1.3680   1 
  -3   8  -8 15.3595  3.0584   3 
   3   8   8 14.7107  1.3764   1 
  -4  -8  -8 208.200  16.642   3 
  -4   8   8 218.476  11.533   4 
  -4   8   8 236.347  13.484   1 
   4   8  -8 221.626  11.558   4 
  -4   8  -8 204.581  12.404   8 
   4   8   8 208.281  13.392   1 
  -4   8  -8 208.343  16.630   3 
  -4   8  -8 201.397  11.630   7 
  -5   8   8 305.547  19.735   1 
  -5   8   8 319.355  16.961   4 
  -5  -8  -8 344.668  17.562   7 
   5   8  -8 316.522  17.016   4 
   5   8   8 315.056  19.752   1 
  -5   8  -8 321.848  16.934   7 
   6   8  -8 6.12871 0.78044   4 
  -6   8   8 5.68203 0.72736   2 
  -6  -8  -8 6.62717 1.60378   7 
  -6   8   8 5.08212 0.78952   1 
  -6   8   8 5.59314 0.64724   4 
  -6   8  -8 8.13111 1.28732   7 
  -7   8   8 244.973  16.209   1 
   7   8  -8 289.906  14.091   4 
  -7   8   8 273.063  14.982   2 
  -7   8   8 246.308  13.880   4 
   7   8   8 267.037  16.287   1 
   0  -9  -8 123.443   9.575   3 
   0   9   8 123.492   7.977   1 
  -1  -9  -8 89.1257  7.4474   3 
  -1   9   8 86.7026  5.7965   1 
   1   9   8 83.0063  5.7785   1 
  -1   9  -8 91.5035  7.9700   3 
  -2   9   8 71.8631  4.8409   1 
  -2   9   8 74.6040  4.1902   4 
  -2  -9  -8 79.8313  6.8091   3 
  -2   9  -8 69.3419  6.9328   3 
   2   9   8 61.7084  4.7605   1 
   3   9  -8 5.71508 0.77527   4 
  -3   9   8 7.10441 0.84961   4 
  -3   9   8 6.38525 0.90362   8 
  -3   9   8 7.16018 0.98967   1 
  -3  -9  -8 7.48770 2.26175   3 
  -3   9  -8 9.93943 1.44987   7 
  -3   9  -8 8.44960 1.37366   8 
   3   9   8 8.46415 1.06144   1 
  -3   9  -8 7.92249 2.49931   3 
  -4   9   8 87.3419  4.8460   4 
   4   9  -8 91.9363  4.9007   4 
  -4   9   8 86.7423  5.6519   1 
  -4  -9  -8 78.3752  8.0026   3 
  -4   9  -8 81.5084  5.3954   8 
  -4   9  -8 80.8953  5.1929   7 
   4   9   8 80.1157  5.6084   1 
  -4   9  -8 79.1654  7.9643   3 
  -5  -9  -8 17.8771  2.2476   7 
  -5   9   8 13.1659  1.4047   1 
   5   9  -8 14.3406  1.2657   4 
  -5   9   8 13.4828  1.1841   4 
   5   9   8 18.0443  1.5486   1 
  -5   9  -8 20.2514  1.8807   7 
   6   9  -8 24.1869  1.6980   4 
  -6   9   8 22.8221  1.8717   1 
  -6  -9  -8 27.0818  2.6915   7 
  -6   9   8 23.7460  1.5837   4 
   6   9   8 23.8456  1.9523   1 
  -6   9  -8 23.1722  2.0006   7 
   7   9  -8 30.6539  1.9765   4 
   0  10   8 57.4250  3.4510   7 
   0  10  -8 53.4441  3.9922   8 
   0  10  -8 59.4198  5.7973   3 
   0 -10  -8 58.6536  5.4415   3 
   0  10   8 58.2841  3.7819   8 
   0  10   8 61.4073  3.5735   4 
   0  10   8 59.6430  4.1356   1 
  -1 -10  -8 18.6194  2.7319   3 
  -1  10   8 18.6978  1.6786   1 
  -1  10   8 17.4158  1.5625   8 
  -1  10   8 19.6386  1.4573   4 
   1  10   8 16.2192  1.4018   4 
  -1  10  -8 14.9894  1.7763   8 
   1  10   8 16.0935  1.4419   7 
   1  10   8 16.7401  1.5252   8 
   1  10   8 16.4175  1.6415   1 
  -1  10  -8 16.2707  2.9271   3 
  -1  10  -8 16.8878  1.7209   7 
  -2  10   8 25.5771  2.0121   1 
  -2 -10  -8 23.9106  3.3390   3 
  -2  10   8 25.9185  1.7421   4 
  -2  10   8 25.6314  1.8677   8 
   2  10   8 22.3309  1.9918   1 
   2  10   8 17.5153  1.6301   7 
   2  10   8 20.7330  1.7650   8 
  -2  10  -8 19.4462  2.0182   7 
  -2  10  -8 19.9699  3.3944   3 
  -3  10   8 129.223   7.832   8 
   3  10  -8 132.029   7.485   4 
  -3  10   8 131.218   8.708   1 
  -3 -10  -8 127.542  11.238   3 
  -3  10   8 129.830   7.492   4 
  -3  10  -8 142.109   8.285   8 
  -3  10  -8 142.608   7.779   7 
   3  10   8 145.355   8.786   1 
  -3  10  -8 138.356  11.418   3 
  -4  10   8 62.1008  4.4528   1 
   4  10  -8 65.9398  3.8822   4 
  -4  10   8 65.2453  3.8413   4 
  -4  10  -8 66.3348  4.3549   8 
  -4  10  -8 63.9270  4.2225   7 
   4  10   8 65.5623  4.5260   1 
  -5  10   8 212.789  11.503   4 
   5  10  -8 215.065  11.587   4 
  -5 -10  -8 242.843  12.341   7 
  -5  10   8 191.244  13.341   1 
  -5  10  -8 218.246  11.576   7 
   5  10   8 214.938  13.467   1 
  -6 -10  -8 49.8331  3.8296   7 
  -6  10   8 47.3739  2.8653   4 
   6  10  -8 55.3789  3.0415   4 
  -6  10   8 45.6211  3.3496   1 
   6  10   8 52.5534  3.5092   1 
  -6  10  -8 47.5226  3.1616   7 
   7  10  -8 165.322   8.856   4 
   0  11  -8 0.71016 0.60176   7 
   0  11   8 0.45992 0.50058   1 
   0  11   8 0.26393 0.42096   7 
   0  11  -8 0.69741 1.11496   3 
   0  11   8 0.17448 0.35612   4 
   0 -11  -8 0.49161 0.87463   3 
   0  11  -8 -0.0586  0.5860   8 
   0  11   8 0.28732 0.47208   8 
  -1 -11  -8 10.2047  2.2171   3 
  -1  11   8 10.0476  1.2982   1 
  -1  11   8 9.81538 1.12174   4 
  -1  11   8 9.23251 1.19952   8 
   1  11   8 14.6426  1.2426   4 
  -1  11  -8 12.1976  1.5462   8 
   1  11   8 14.3981  1.3393   8 
   1  11   8 15.1047  1.4631   1 
   1  11   8 15.9063  1.2958   7 
  -1  11  -8 14.6797  1.5108   7 
  -1  11  -8 14.7135  2.7209   3 
  -2 -11  -8 328.161  24.933   3 
  -2  11   8 340.756  19.501   8 
  -2  11   8 340.559  21.596   1 
  -2  11   8 339.241  18.582   4 
   2  11   8 379.112  21.694   1 
   2  11   8 360.448  18.591   4 
   2  11   8 344.613  19.478   8 
  -2  11  -8 358.597  18.297   7 
  -2  11  -8 356.790  19.862   8 
  -3  11   8 256.939  15.930   1 
  -3  11   8 265.277  13.739   4 
  -3  11   8 264.390  14.388   8 
   3  11  -8 272.288  13.743   4 
  -3  11  -8 232.784  13.547   7 
   3  11   8 244.093  15.960   1 
  -3  11  -8 254.317  14.716   8 
  -4  11   8 29.6280  2.3500   1 
   4  11  -8 32.8080  2.1005   4 
  -4  11   8 33.6721  2.0677   4 
  -4  11  -8 28.6236  2.4103   8 
   4  11   8 29.5579  2.4184   1 
  -4  11  -8 27.9981  2.3695   7 
  -5  11   8 50.4217  3.9219   1 
  -5  11   8 56.0205  3.4032   4 
  -5 -11  -8 57.8876  4.2874   7 
   5  11  -8 57.2310  3.4918   4 
  -5  11  -8 68.8607  3.8254   7 
   5  11   8 66.2428  4.1343   1 
  -6 -11  -8 18.9802  2.1068   7 
  -6  11   8 17.3407  1.1923   4 
   6  11  -8 20.4760  1.3489   4 
  -6  11  -8 16.8237  1.4649   7 
   0  12   8 6.84799 0.85879   4 
   0  12   8 6.60013 0.87713   7 
   0  12   8 6.96559 1.01417   8 
   0  12  -8 6.67733 1.15862   8 
   0  12  -8 6.03408 1.01579   7 
   0  12   8 6.39649 1.01773   1 
  -1  12   8 238.050  14.843   1 
  -1  12   8 234.080  13.422   8 
  -1  12   8 234.570  12.777   4 
   1  12   8 244.954  12.366   7 
  -1  12  -8 235.799  13.682   8 
   1  12   8 234.147  12.764   4 
  -1  12  -8 237.418  12.589   7 
   1  12   8 230.333  13.398   8 
   1  12   8 244.652  14.883   1 
  -2  12   8 83.2697  4.8243   8 
  -2  12   8 77.7448  5.2768   1 
  -2  12   8 82.5092  4.5891   4 
   2  12   8 72.3447  4.7243   8 
   2  12   8 78.3009  5.3207   1 
   2  12   8 74.3435  4.5266   4 
  -2  12  -8 76.6232  4.7227   7 
  -2  12  -8 78.5007  5.0886   8 
   3  12  -8 100.114   5.441   4 
  -3  12   8 97.7630  5.6930   8 
  -3  12   8 98.5246  5.4418   4 
  -3  12   8 91.2321  6.2647   1 
  -3  12  -8 91.2684  5.5740   7 
   3  12   8 94.1793  6.3541   1 
  -3  12  -8 96.8283  6.0105   8 
  -4  12   8 50.4253  3.5165   1 
   4  12  -8 53.9613  3.1008   4 
  -4  12   8 53.0318  3.0544   4 
  -4  12  -8 50.1084  3.3079   7 
   4  12   8 49.1698  3.6069   1 
  -4  12  -8 48.9365  3.4217   8 
  -5 -12  -8 3.65730 1.12749   7 
  -5  12   8 3.39169 0.46230   4 
   5  12  -8 3.80737 0.56530   4 
  -6 -12  -8 188.638  10.393   7 
  -6  12  -8 191.456   9.832   7 
   0  13   8 5.11015 0.76163   7 
   0  13   8 5.00327 0.87077   8 
   0  13  -8 5.21534 0.87364   7 
   0  13  -8 5.68139 1.00924   8 
   0  13   8 5.99356 0.90522   1 
   0  13   8 6.00993 0.78763   4 
  -1  13   8 1.89134 0.52464   4 
  -1  13   8 2.07030 0.61578   8 
  -1  13   8 1.53778 0.55101   1 
   1  13   8 1.62619 0.58890   1 
  -1  13  -8 2.09456 0.73791   8 
   1  13   8 1.68593 0.48814   4 
  -1  13  -8 2.12968 0.67160   7 
   1  13   8 1.28044 0.52905   8 
  -2  13   8 1.34009 0.52395   8 
  -2  13   8 1.90355 0.49363   4 
  -2  13   8 2.04340 0.54092   1 
  -2  13  -8 1.03356 0.60031   7 
   2  13   8 1.17597 0.52306   1 
   2  13   8 0.82713 0.39173   4 
  -2  13  -8 0.80605 0.60964   8 
  -3  13   8 18.4358  1.4717   8 
  -3  13   8 20.4294  1.4175   4 
  -3  13   8 18.5577  1.5863   1 
   3  13   8 19.0088  1.6774   1 
  -3  13  -8 20.3672  1.7468   8 
  -3  13  -8 17.3861  1.6088   7 
  -4  13   8 115.471   6.926   4 
   4  13  -8 120.143   6.972   4 
  -4  13  -8 141.777   7.046   7 
  -4  13  -8 130.326   7.504   8 
   4  13   8 135.227   8.191   1 
   5  13  -8 13.3856  1.0079   4 
  -5  13   8 12.4506  0.9115   4 
  -5  13  -8 15.5048  1.1876   7 
   0  14  -8 247.325  12.744   7 
   0  14   8 228.620  15.240   1 
   0  14   8 249.593  13.183   4 
   0  14  -8 257.039  13.974   8 
   0  14   8 251.316  13.835   8 
  -1  14   8 45.6770  3.0102   8 
  -1  14   8 44.2658  3.2643   1 
  -1  14   8 46.3970  2.8619   4 
   1  14   8 48.2779  2.8728   4 
  -1  14  -8 49.4833  2.9449   7 
   1  14   8 47.2883  3.3134   1 
   1  14   8 46.2077  2.9939   8 
  -1  14  -8 47.4521  3.1857   8 
  -2  14   8 66.5570  3.7737   8 
  -2  14   8 62.8341  4.0891   1 
  -2  14   8 67.0539  3.5894   4 
  -2  14  -8 58.1991  3.5933   7 
   2  14   8 56.2662  3.5154   4 
  -2  14  -8 58.4276  3.9030   8 
   2  14   8 57.4787  4.1153   1 
  -3  14   8 7.26838 0.78120   8 
  -3  14   8 7.48526 0.69000   4 
  -3  14  -8 4.81142 0.84910   8 
  -4  14   8 32.2036  1.9333   4 
  -4 -14  -8 27.5819  2.4985   7 
  -4  14  -8 34.4198  2.0895   7 
  -4  14  -8 34.5682  2.1944   8 
   0  15  -8 66.7323  3.7139   7 
   0  15   8 66.5274  4.0144   8 
   0  15   8 67.4021  3.8306   4 
   0  15  -8 68.0840  4.0857   8 
  -1  15   8 127.954   7.581   8 
  -1  15   8 128.641   7.218   4 
   1  15   8 135.050   7.226   4 
  -1  15  -8 140.959   7.721   8 
  -1  15  -8 137.208   7.049   7 
   1  15   8 131.502   7.550   8 
  -2  15   8 144.700   7.632   8 
   2  15   8 125.732   7.218   4 
  -2  15  -8 136.114   7.738   8 
  -2  15  -8 132.030   7.083   7 
  -3  15  -8 23.2968  1.6432   8 
  -3  15  -8 23.0903  1.5322   7 
   0   0   9 0.00268 0.23414   6 
  -1   0   9 1028.01   55.21   6 
  -1   0  -9 851.171  62.182   3 
  -2   0  -9 31.4043  4.1050   3 
  -2   0   9 37.3286  2.6770   6 
  -3   0   9 295.685  16.580   6 
  -3   0  -9 243.788  19.972   3 
  -4   0  -9 57.4778  6.8859   3 
  -4   0   9 74.6424  4.8843   6 
  -5   0   9 0.77408 0.38313   1 
  -5   0  -9 1.49532 1.93986   3 
  -5   0   9 1.15257 0.58447   6 
  -6   0  -9 241.550  13.020   2 
  -6   0  -9 241.753  13.126   7 
  -6   0  -9 191.959  17.966   3 
  -6   0   9 224.290  14.177   1 
  -6   0   9 228.752  13.109   2 
  -6   0   9 230.459  14.419   6 
  -7   0   9 165.179  10.626   1 
  -7   0  -9 177.006   9.755   2 
  -7   0  -9 167.813   9.810   7 
  -7   0   9 162.739   9.811   2 
  -8   0   9 14.7033  1.2418   2 
  -8   0   9 15.0513  1.3281   1 
   8   0  -9 13.9472  1.3079   1 
  -9   0   9 0.92131 0.28483   2 
   9   0   9 1.46611 0.31498   2 
   9   0  -9 0.27675 0.22585   4 
   0   1   9 277.426  16.350   6 
   0  -1   9 266.944  16.327   6 
  -1   1   9 1747.77   94.61   6 
  -1  -1  -9 1505.60  103.79   3 
  -1  -1   9 1660.03   93.99   6 
  -1   1  -9 1444.43  103.83   3 
  -2  -1  -9 87.1395  8.3410   3 
  -2   1   9 99.3841  6.4713   6 
  -2  -1   9 107.632   6.511   6 
   2  -1  -9 112.294   6.438   5 
  -2   1  -9 91.1119  8.5261   3 
  -3  -1  -9 129.637  11.320   3 
  -3   1   9 153.217   8.802   6 
  -3  -1   9 136.281   8.714   6 
  -3   1  -9 126.164  11.324   3 
  -4   1   9 143.605   9.333   1 
  -4   1   9 156.474   9.565   6 
  -4  -1  -9 128.863  12.308   3 
  -4  -1   9 166.179   9.600   6 
  -4   1  -9 140.192  12.544   3 
  -5  -1  -9 103.050   9.903   3 
  -5   1   9 112.700   6.512   1 
  -5  -1   9 99.2736  6.7903   6 
  -5   1  -9 88.8003  9.4894   3 
  -5  -1   9 89.4787  6.3838   1 
  -6  -1  -9 80.4995  5.4984   7 
  -6   1   9 78.3257  4.8531   1 
  -6   1   9 77.7756  4.5052   2 
  -6  -1  -9 77.9336  4.3930   2 
  -6  -1  -9 62.4775  7.7619   3 
  -6   1   9 77.5583  5.3320   6 
  -6   1   9 77.2106  4.1174   4 
  -6  -1   9 62.8302  4.7227   1 
  -6   1  -9 64.9272  5.0556   7 
  -6  -1   9 65.4416  5.1542   6 
  -6   1  -9 56.6493  7.4196   3 
  -6  -1   9 62.6921  4.3889   2 
  -6   1  -9 67.3522  4.3088   2 
  -7   1   9 29.3592  2.3507   1 
  -7  -1  -9 26.2083  2.9063   7 
  -7   1   9 28.4189  2.1773   2 
  -7  -1  -9 29.2979  2.1173   2 
  -7  -1   9 32.7692  2.3846   1 
  -7   1  -9 30.7592  2.8621   7 
  -7  -1   9 30.3506  2.1938   2 
  -7   1  -9 34.4965  2.1532   2 
  -8   1   9 86.5742  5.3186   2 
   8   1  -9 87.4625  5.6973   1 
  -8   1   9 86.6870  5.7274   1 
  -8   1  -9 88.2694  5.2150   2 
  -8  -1   9 90.7233  5.3115   2 
   9  -1   9 60.0539  3.5029   2 
   9   1  -9 61.2930  3.3121   4 
  -9   1   9 61.2610  3.5554   2 
   9   1   9 52.1898  3.4851   2 
   0  -2   9 36.3615  2.6503   6 
   0   2   9 36.7192  2.6580   6 
  -1  -2  -9 200.548  14.270   3 
  -1   2   9 213.969  11.920   6 
  -1  -2   9 194.031  11.869   6 
  -1   2  -9 169.879  14.233   3 
   1  -2  -9 190.768  11.793   5 
  -2  -2  -9 168.955  12.266   3 
  -2   2   9 173.450   9.755   6 
  -2   2  -9 130.648  11.998   3 
  -2  -2   9 157.034   9.699   6 
   2  -2  -9 147.592   9.633   5 
  -3   2   9 74.7216  4.6607   6 
  -3  -2  -9 64.6884  6.5610   3 
  -3   2  -9 59.4007  6.6123   3 
  -3  -2   9 62.6899  4.5249   6 
  -4   2   9 28.7578  2.0807   1 
  -4   2   9 30.2044  2.4209   6 
  -4  -2  -9 26.2967  4.1455   3 
  -4   2  -9 19.5646  3.7731   3 
  -4  -2   9 23.1415  2.2410   6 
  -5  -2  -9 82.6217  8.6702   3 
  -5   2   9 95.7999  5.9183   6 
  -5   2   9 90.9733  5.5149   1 
  -5   2  -9 75.5927  8.3730   3 
  -5  -2   9 77.8954  5.7463   6 
  -5  -2   9 69.9300  5.3372   1 
  -6   2   9 495.336  31.613   1 
  -6   2   9 508.125  29.162   2 
  -6   2   9 501.047  31.243   6 
  -6  -2  -9 520.725  29.064   2 
  -6  -2  -9 503.890  27.530   7 
  -6   2   9 501.803  27.144   4 
  -6   2  -9 563.610  27.329   7 
  -6  -2   9 543.490  31.344   6 
  -6  -2   9 524.126  31.602   1 
  -6   2  -9 500.782  37.038   3 
  -6   2  -9 541.381  29.025   2 
  -7   2   9 126.442   7.549   2 
   7   2  -9 133.091   8.102   1 
  -7  -2  -9 132.079   7.469   2 
  -7  -2  -9 129.777   7.913   7 
  -7   2   9 126.809   8.138   1 
  -7   2  -9 119.933   7.491   7 
  -7  -2   9 121.665   8.105   1 
  -7   2  -9 123.821   7.392   2 
  -8   2   9 13.2819  1.3097   1 
   8   2  -9 13.3518  1.3083   1 
  -8   2   9 14.4632  1.2771   2 
   8   2   9 17.9485  1.2645   2 
  -8  -2   9 18.7898  1.4063   1 
  -9   2   9 47.5706  2.7461   2 
   9  -2   9 42.5129  2.6440   2 
   9   2   9 41.3376  2.6811   2 
   0   3   9 148.674   9.037   6 
   0  -3   9 143.237   9.019   6 
  -1  -3  -9 289.977  21.105   3 
  -1   3   9 299.034  18.183   6 
  -1   3   9 324.745  18.083   5 
  -1  -3   9 312.431  18.206   6 
  -1   3  -9 285.952  21.383   3 
  -2   3   9 54.6686  4.0710   6 
  -2  -3  -9 61.9721  5.7918   3 
   2  -3  -9 61.2251  4.3060   5 
  -2   3  -9 58.8718  6.0197   3 
  -2  -3   9 63.0775  4.1335   6 
  -3  -3  -9 310.180  22.680   3 
  -3   3   9 320.285  18.920   6 
  -3   3  -9 313.753  22.952   3 
  -3  -3   9 305.539  18.874   6 
  -4  -3  -9 17.7177  3.4552   3 
  -4   3   9 17.5525  1.5706   1 
  -4   3   9 19.6307  1.8833   6 
  -4   3  -9 19.3966  3.7087   3 
  -4  -3   9 18.6390  1.8380   6 
  -5   3   9 314.254  15.642   4 
  -5   3   9 300.577  18.217   1 
  -5   3   9 314.449  18.225   6 
  -5  -3  -9 247.239  22.139   3 
  -5  -3   9 285.623  18.129   6 
  -5   3  -9 296.556  22.545   3 
  -6   3   9 241.890  15.806   1 
   6   3  -9 265.313  15.747   1 
  -6   3   9 250.944  15.932   6 
  -6   3   9 250.162  13.558   4 
  -6   3   9 255.067  14.635   2 
  -6  -3  -9 256.460  14.520   2 
  -6  -3  -9 248.612  14.522   7 
  -6   3  -9 269.401  14.123   7 
  -6   3  -9 247.491  19.872   3 
  -6  -3   9 255.571  15.965   6 
  -6  -3   9 260.810  15.799   1 
  -7   3   9 21.1241  1.6865   2 
  -7   3   9 21.2456  1.7867   1 
  -7  -3  -9 18.1918  2.4750   7 
   7   3  -9 21.5964  1.7358   1 
  -7   3   9 20.7706  1.4632   4 
  -7  -3   9 21.1923  1.7553   1 
  -7   3  -9 21.8716  2.2017   7 
  -7   3  -9 21.7547  1.5456   2 
   8   3  -9 54.0847  3.1086   4 
   8   3  -9 53.2762  3.5137   1 
  -8   3   9 52.9574  3.5596   1 
  -8   3   9 55.5050  3.3539   2 
  -8  -3   9 47.4184  3.4844   1 
   8   3   9 48.8073  3.2254   2 
   9   3  -9 33.9777  2.0371   4 
   9  -3   9 32.0439  2.1045   2 
   9   3   9 37.8569  2.2006   2 
   0  -4   9 33.5438  2.5832   6 
   0   4   9 37.6197  2.7317   5 
  -1   4   9 136.962   7.889   5 
  -1  -4  -9 136.292   9.695   3 
  -1   4   9 124.273   7.735   6 
  -1  -4   9 107.928   7.684   6 
  -1   4  -9 111.742   9.747   3 
  -2  -4  -9 256.861  18.264   3 
  -2   4   9 247.479  15.221   6 
  -2  -4   9 249.528  15.250   6 
  -2   4  -9 251.716  18.583   3 
  -3   4   9 210.929  13.185   6 
  -3  -4  -9 216.925  16.342   3 
  -3  -4   9 210.875  13.179   6 
  -3   4  -9 218.539  16.619   3 
  -4   4   9 113.761   7.461   6 
  -4  -4  -9 111.416  10.148   3 
  -4   4   9 118.606   7.293   1 
  -4   4  -9 114.561  10.314   3 
  -4  -4   9 103.987   7.381   6 
  -5   4   9 455.798  26.173   2 
  -5  -4  -9 394.677  33.150   3 
  -5   4   9 481.236  28.445   1 
  -5   4   9 460.320  28.051   6 
  -5   4   9 485.329  24.416   4 
   5   4   9 475.528  26.056   2 
  -5   4  -9 506.815  33.749   3 
  -5  -4   9 456.234  27.998   6 
  -6   4   9 35.5716  2.6763   1 
  -6   4   9 34.5867  2.4958   2 
  -6   4   9 34.2480  2.2312   4 
  -6   4   9 34.9036  3.0632   6 
  -6  -4  -9 33.7041  3.5116   7 
  -6  -4  -9 24.1574  4.7232   3 
  -6   4  -9 41.7929  3.1657   7 
   6   4   9 38.6100  2.4106   2 
  -6   4  -9 35.9065  5.1442   3 
  -7   4   9 79.0948  4.7818   2 
  -7   4   9 81.3861  5.1533   1 
  -7  -4  -9 78.6427  5.4694   7 
  -7   4   9 78.8255  4.3524   4 
   7   4   9 78.0001  4.6734   2 
  -7  -4   9 71.1843  5.0391   1 
  -7   4  -9 69.5640  4.7916   7 
   8   4  -9 34.5345  2.2321   4 
  -8   4   9 34.0927  2.3873   2 
  -8   4   9 32.3922  2.5139   1 
   8   4  -9 32.7623  2.4706   1 
   8   4   9 42.1008  2.3883   2 
  -8  -4   9 38.3398  2.5198   1 
  -9   4   9 5.05533 0.53023   2 
   9   4   9 4.28459 0.49011   2 
   0  -5  -9 140.899  10.120   3 
   0  -5   9 130.407   8.447   6 
  -1  -5  -9 80.8939  7.0055   3 
  -1  -5   9 84.6256  5.5526   6 
  -1   5  -9 90.1880  7.5555   3 
  -2  -5  -9 352.060  22.463   3 
  -2   5  -9 312.810  22.588   3 
  -2  -5   9 278.970  18.762   6 
  -3   5   9 38.6490  2.7206   1 
  -3  -5  -9 42.3296  4.7232   3 
  -3   5  -9 33.1431  4.6186   3 
   3   5   9 34.8858  2.6061   1 
  -4  -5  -9 7.08645 2.50736   3 
  -4   5   9 8.24784 0.98779   1 
  -5  -5  -9 463.302  25.105   7 
  -5   5   9 474.859  28.858   1 
  -5   5   9 450.776  26.545   2 
  -5  -5  -9 398.760  33.557   3 
  -5   5   9 472.189  24.757   4 
  -5   5  -9 502.869  24.708   7 
  -5   5  -9 522.494  34.126   3 
   5   5   9 488.448  26.455   2 
  -6   5   9 40.8490  2.6456   4 
  -6   5   9 46.3374  2.9793   2 
  -6   5   9 39.0268  3.1277   1 
  -6  -5  -9 38.8663  3.7934   7 
   6   5   9 49.0362  2.8887   2 
  -6   5  -9 46.4677  3.4149   7 
  -7  -5  -9 17.8471  2.4083   7 
  -7   5   9 20.0127  1.3857   4 
   7   5  -9 20.7606  1.5196   4 
  -7   5   9 19.9576  1.5859   2 
  -7   5   9 20.0908  1.6903   1 
  -8   5   9 5.36018 0.67415   2 
   8   5  -9 5.64382 0.64543   4 
  -8   5   9 5.32326 0.67461   1 
   0  -6  -9 944.532  62.174   3 
  -1  -6  -9 62.4821  5.5608   3 
  -1   6   9 56.4361  4.0717   1 
  -1   6  -9 67.1020  6.0567   3 
  -2   6   9 8.89280 0.98065   1 
  -2  -6  -9 8.64801 2.12613   3 
  -2   6  -9 5.05957 2.04589   3 
  -3   6   9 18.1162  1.6999   1 
  -3  -6  -9 18.2121  3.1566   3 
  -3   6  -9 24.3285  3.7363   3 
   3   6   9 22.7524  1.7148   1 
  -4   6   9 108.859   5.791   4 
   4   6  -9 105.180   5.780   4 
  -4   6   9 105.885   6.753   1 
  -4  -6  -9 102.822   9.548   3 
   4   6   9 95.6203  6.6194   1 
  -4   6  -9 95.1859  9.3665   3 
  -5   6   9 10.3198  1.1448   1 
   5   6  -9 9.95512 0.96739   4 
  -5  -6  -9 6.68716 2.68949   3 
  -5   6   9 9.16484 0.88381   4 
  -5  -6  -9 9.02228 1.86075   7 
  -5   6   9 9.01167 0.98677   2 
  -5   6  -9 8.24605 1.52251   7 
   5   6   9 8.53722 0.91149   2 
  -5   6  -9 7.90959 2.74574   3 
   5   6   9 9.19363 1.06197   1 
   6   6  -9 11.9475  1.1137   4 
  -6   6   9 12.4599  1.0265   4 
  -6   6   9 14.0004  1.2136   2 
  -6   6   9 11.5787  1.2453   1 
  -6  -6  -9 11.3766  2.1378   7 
  -7   6   9 34.7222  2.1588   4 
   7   6  -9 36.8107  2.2988   4 
  -7  -6  -9 31.4428  3.1550   7 
  -7   6   9 34.5106  2.4032   2 
  -7   6   9 35.4786  2.5945   1 
   7   6   9 37.6913  2.3676   2 
  -7   6  -9 35.0308  2.6169   7 
  -8   6   9 91.3036  5.4879   2 
   8   6  -9 89.1619  5.1322   4 
   8   6   9 98.5224  5.4364   2 
   0   7   9 18.9800  1.6570   1 
   0  -7  -9 21.1944  2.6054   3 
  -1  -7  -9 259.042  18.109   3 
  -1   7   9 245.037  15.580   1 
  -1   7  -9 250.323  18.457   3 
   1   7   9 253.654  15.584   1 
  -2  -7  -9 146.512  11.259   3 
  -2   7   9 138.449   8.901   1 
   2   7   9 136.430   8.854   1 
  -2   7  -9 139.536  11.485   3 
  -3  -7  -9 168.968  13.181   3 
  -3   7   9 152.733  10.270   1 
   3   7   9 158.151  10.235   1 
  -3   7  -9 176.427  13.443   3 
   4   7  -9 411.896  21.365   4 
  -4  -7  -9 370.486  29.052   3 
  -4   7   9 389.488  22.834   2 
  -4   7   9 411.647  24.862   1 
  -4   7   9 415.502  21.355   4 
  -4   7  -9 416.705  29.228   3 
  -4   7  -9 404.528  22.784   8 
   4   7   9 409.537  24.780   1 
  -4   7  -9 409.912  21.185   7 
  -5  -7  -9 35.1491  5.1765   3 
  -5   7   9 39.5471  2.6571   2 
  -5  -7  -9 42.0538  3.5910   7 
   5   7  -9 41.2616  2.5369   4 
  -5   7   9 40.8411  2.4685   4 
  -5   7   9 41.4853  2.9368   1 
  -5   7  -9 37.7608  5.0452   3 
  -5   7  -9 34.1850  2.9665   7 
   5   7   9 33.9054  2.8082   1 
  -6   7   9 12.3963  1.0292   4 
   6   7  -9 13.2791  1.1411   4 
  -6   7   9 12.4414  1.2605   1 
  -6  -7  -9 11.5027  2.1009   7 
  -6   7   9 12.3108  1.1633   2 
  -6   7  -9 15.0160  1.6839   7 
   6   7   9 12.6926  1.2838   1 
  -7   7   9 100.420   5.975   2 
  -7  -7  -9 97.7790  6.3806   7 
  -7   7   9 103.380   6.472   1 
  -7   7   9 94.1169  5.4700   4 
   7   7  -9 107.353   5.639   4 
  -7   7  -9 99.1673  5.7546   7 
   8   7  -9 32.2689  1.9531   4 
  -8   7   9 31.4805  2.0591   2 
   0   8   9 62.6405  4.3207   1 
   0  -8  -9 63.6984  5.6292   3 
  -1   8   9 53.0549  3.6337   1 
  -1  -8  -9 56.0231  5.1771   3 
   1   8   9 49.1332  3.6003   1 
  -1   8  -9 46.5609  5.2601   3 
  -2  -8  -9 259.514  18.402   3 
  -2   8   9 244.620  15.401   1 
  -2   8  -9 245.298  18.535   3 
   2   8   9 242.651  15.374   1 
  -3   8   9 31.1820  2.3118   4 
  -3   8   9 31.3748  2.7075   1 
  -3  -8  -9 29.0845  4.3056   3 
  -3   8  -9 40.7167  3.0054   8 
  -3   8  -9 44.1537  3.0312   7 
   3   8   9 41.6829  2.8162   1 
  -3   8  -9 43.3259  5.0273   3 
   4   8  -9 259.825  13.721   4 
  -4   8   9 258.001  13.700   4 
  -4   8   9 271.140  16.006   1 
  -4  -8  -9 240.987  19.559   3 
  -4   8  -9 252.870  19.427   3 
  -4   8  -9 256.969  14.758   8 
   4   8   9 254.215  15.921   1 
  -4   8  -9 251.442  13.779   7 
  -5  -8  -9 59.0294  4.5888   7 
  -5   8   9 57.1683  3.8316   2 
  -5   8   9 58.6016  3.5750   4 
  -5   8   9 55.4045  4.1820   1 
   5   8  -9 59.1072  3.6367   4 
   5   8   9 69.9563  4.2703   1 
  -5   8  -9 68.8829  4.2041   7 
  -6   8   9 39.7980  2.9181   1 
   6   8  -9 39.1651  2.5580   4 
  -6  -8  -9 43.4124  3.6556   7 
  -6   8   9 39.9053  2.4617   4 
  -6   8   9 38.8698  2.6762   2 
   6   8   9 42.7292  2.9612   1 
  -6   8  -9 42.5138  2.9865   7 
  -7   8   9 82.0523  5.5355   1 
  -7  -8  -9 85.6805  5.5613   7 
   7   8  -9 94.2851  4.8770   4 
  -7   8   9 81.4026  4.7050   4 
  -7   8   9 89.8574  5.1438   2 
  -7   8  -9 84.5663  4.9257   7 
   0   9   9 3.94170 0.79498   1 
   0   9   9 4.82281 0.72401   4 
   0   9   9 3.87200 0.77192   8 
   0  -9  -9 4.73455 1.51799   3 
  -1  -9  -9 46.8770  4.8902   3 
  -1   9   9 47.5497  3.1568   8 
  -1   9   9 50.2808  2.9811   4 
  -1   9   9 47.3694  3.4443   1 
  -1   9  -9 42.6189  3.4435   8 
   1   9   9 47.9639  3.4488   1 
   1   9   9 48.5117  3.1564   8 
  -1   9  -9 46.7003  5.1763   3 
  -2  -9  -9 38.3621  4.5789   3 
  -2   9   9 37.4733  2.5441   4 
  -2   9   9 37.2395  2.7131   8 
  -2   9   9 38.3323  2.9760   1 
   2   9   9 41.0928  2.7271   8 
  -2   9  -9 39.9787  4.8331   3 
  -2   9  -9 43.3493  3.0058   7 
  -2   9  -9 40.6983  3.1357   8 
   2   9   9 42.6668  3.0391   1 
  -3   9   9 60.3072  4.1662   1 
  -3   9   9 57.2678  3.6983   8 
  -3   9   9 58.6098  3.5500   4 
  -3  -9  -9 52.7697  6.1253   3 
  -3   9  -9 59.9254  3.9797   7 
  -3   9  -9 61.2496  4.1597   8 
   3   9   9 60.9003  4.1520   1 
  -4   9   9 66.7801  4.7038   1 
  -4   9   9 65.3618  3.9991   4 
   4   9  -9 67.5190  4.0386   4 
   4   9   9 71.7699  4.7353   1 
  -4   9  -9 67.3644  4.4344   7 
  -4   9  -9 73.1439  4.6434   8 
  -5   9   9 101.794   5.639   4 
  -5   9   9 98.5815  6.5848   1 
  -5  -9  -9 109.123   6.702   7 
   5   9  -9 101.668   5.702   4 
   5   9   9 93.5250  6.5816   1 
  -5   9  -9 103.857   6.021   7 
   6   9  -9 17.1750  1.3287   4 
  -6   9   9 15.3167  1.4407   1 
  -6  -9  -9 15.2881  2.2031   7 
  -6   9   9 16.1215  1.2146   4 
  -6   9  -9 21.4186  1.7599   7 
   6   9   9 20.8951  1.6062   1 
  -7   9   9 104.032   5.952   4 
   7   9  -9 114.982   6.100   4 
  -7   9  -9 115.623   6.064   7 
   0  10   9 2.24888 0.67048   1 
   0  10  -9 1.86017 0.80899   8 
   0  10   9 2.43222 0.67181   8 
   0  10   9 2.13033 0.53318   4 
  -1  10   9 202.533  11.420   4 
  -1 -10  -9 189.593  15.647   3 
  -1  10   9 203.840  13.298   1 
  -1  10   9 197.085  12.001   8 
  -1  10  -9 216.579  11.388   7 
  -1  10  -9 212.782  12.395   8 
   1  10   9 216.412  11.419   4 
   1  10   9 222.766  11.081   7 
   1  10   9 214.583  12.038   8 
  -1  10  -9 221.929  16.143   3 
   1  10   9 227.644  13.358   1 
  -2 -10  -9 155.484  13.161   3 
  -2  10   9 163.760   9.611   8 
  -2  10   9 166.770  10.666   1 
  -2  10   9 163.564   9.149   4 
  -2  10  -9 170.398  13.376   3 
   2  10   9 162.798   9.590   8 
  -2  10  -9 171.080   9.276   7 
   2  10   9 179.932  10.715   1 
  -2  10  -9 170.094  10.021   8 
  -3  10   9 106.256   5.961   8 
  -3  10   9 103.866   6.639   1 
  -3  10   9 105.034   5.705   4 
  -3  10  -9 96.6795  6.3249   8 
  -3  10  -9 91.5335  5.8970   7 
   3  10   9 96.1358  6.6244   1 
   4  10  -9 253.671  13.785   4 
  -4  10   9 258.243  16.035   1 
  -4  10   9 264.428  13.775   4 
  -4  10  -9 264.135  13.773   7 
  -4  10  -9 258.238  14.763   8 
   4  10   9 248.984  16.033   1 
   5  10  -9 58.7186  3.4953   4 
  -5  10   9 57.8088  3.4186   4 
  -5  10   9 54.2006  3.9838   1 
  -5 -10  -9 63.0834  4.4694   7 
  -5  10  -9 61.1520  3.8180   7 
   5  10   9 60.2034  4.0764   1 
  -6 -10  -9 117.241   7.279   7 
   6  10  -9 129.365   6.582   4 
  -6  10   9 110.052   7.505   1 
  -6  10   9 112.857   6.438   4 
   6  10   9 124.523   7.629   1 
  -6  10  -9 123.099   6.614   7 
   7  10  -9 14.1494  1.0192   4 
   0  11   9 274.990  15.348   8 
   0  11  -9 263.584  15.581   8 
   0  11   9 275.360  16.993   1 
   0  11   9 275.854  14.588   4 
  -1  11   9 19.1379  1.7127   8 
  -1  11   9 18.8459  1.8594   1 
  -1  11   9 17.9915  1.5619   4 
   1  11   9 23.0257  1.9425   1 
   1  11   9 22.6072  1.6167   4 
   1  11   9 22.6372  1.7827   8 
  -1  11  -9 24.9002  2.1183   8 
  -1  11  -9 23.5918  1.9412   7 
  -2  11   9 49.2908  3.3380   1 
  -2  11   9 48.5270  3.0105   8 
  -2  11   9 46.0819  2.8195   4 
   2  11   9 40.8484  3.2602   1 
  -2  11  -9 42.1247  3.0682   7 
  -2  11  -9 41.8013  3.2483   8 
   2  11   9 40.2094  2.8959   8 
  -3  11   9 53.5807  3.3221   4 
  -3  11   9 53.2747  3.8729   1 
  -3  11   9 51.6963  3.4558   8 
   3  11   9 58.5711  3.9658   1 
  -3  11  -9 56.1234  3.6523   7 
  -3  11  -9 58.7261  3.8915   8 
  -4  11   9 38.9931  3.1256   1 
   4  11  -9 43.2519  2.7404   4 
  -4  11   9 40.5452  2.6940   4 
  -4  11  -9 47.9093  3.2018   8 
  -4  11  -9 48.1263  3.1212   7 
   4  11   9 50.0118  3.3072   1 
   5  11  -9 1.02812 0.37837   4 
  -5  11   9 0.56283 0.27137   4 
  -5 -11  -9 0.86529 0.92112   7 
  -5  11   9 0.29897 0.31663   1 
  -5  11  -9 1.62893 0.66204   7 
   5  11   9 1.48615 0.51099   1 
  -6 -11  -9 83.1092  5.4813   7 
  -6  11   9 80.5209  4.7406   4 
   6  11  -9 94.1144  4.8790   4 
  -6  11  -9 93.1233  4.9078   7 
   0  12   9 394.326  20.997   4 
   0  12  -9 400.438  22.281   8 
   0  12   9 404.607  24.441   1 
   0  12   9 389.942  22.046   8 
  -1  12   9 108.599   5.830   8 
  -1  12   9 107.543   6.430   1 
  -1  12   9 108.594   5.533   4 
   1  12   9 84.7255  5.7020   8 
   1  12   9 87.8203  5.4073   4 
  -1  12  -9 89.2754  5.5009   7 
  -1  12  -9 87.8365  5.9633   8 
   1  12   9 93.3898  6.3726   1 
  -2  12   9 62.6818  4.1099   8 
  -2  12   9 66.1589  3.9397   4 
  -2  12   9 63.3750  4.5603   1 
   2  12   9 70.4802  4.6416   1 
  -2  12  -9 72.9581  4.4966   8 
   2  12   9 63.3565  4.0867   8 
  -2  12  -9 69.6845  4.1591   7 
  -3  12   9 47.3690  3.4543   1 
  -3  12   9 48.7743  3.1121   8 
  -3  12   9 49.4887  2.9824   4 
  -3  12  -9 49.0205  3.2415   7 
  -3  12  -9 51.4450  3.4613   8 
   3  12   9 48.9747  3.5229   1 
   4  12  -9 77.8349  4.8204   4 
  -4  12   9 79.7213  4.8128   4 
  -4 -12  -9 83.6413  5.6218   7 
  -4  12  -9 94.4622  5.0706   7 
  -4  12  -9 93.6895  5.3627   8 
   4  12   9 90.5642  5.7235   1 
  -5  12   9 32.9606  1.9933   4 
   5  12  -9 34.5915  2.0724   4 
  -5 -12  -9 31.9354  2.8097   7 
  -5  12  -9 33.3361  2.2459   7 
   0  13   9 14.8651  1.3436   8 
   0  13   9 14.9299  1.4237   1 
   0  13   9 14.1501  1.2034   4 
   0  13  -9 13.6606  1.4617   8 
  -1  13   9 102.117   5.975   4 
  -1  13   9 98.3212  6.9270   1 
  -1  13   9 97.8609  6.2673   8 
   1  13   9 108.620   6.300   8 
  -1  13  -9 114.357   6.574   8 
   1  13   9 109.926   5.992   4 
   1  13   9 111.507   6.998   1 
  -1  13  -9 115.192   6.012   7 
  -2  13   9 0.72554 0.40846   1 
  -2  13   9 0.76446 0.46358   8 
  -2  13   9 0.77215 0.36412   4 
   2  13   9 0.72817 0.46672   1 
   2  13   9 0.95304 0.37955   4 
  -2  13  -9 0.59297 0.57136   8 
  -2  13  -9 0.93408 0.55855   7 
   2  13   9 1.50486 0.47865   8 
  -3  13   9 44.3928  3.2052   1 
  -3  13   9 45.5073  2.9026   8 
  -3  13   9 50.4874  2.8091   4 
  -3  13  -9 45.8480  2.9505   7 
   3  13   9 44.4806  3.2662   1 
  -3  13  -9 48.4374  3.1747   8 
  -4  13   9 63.5561  3.5714   4 
  -4 -13  -9 59.1284  4.2337   7 
  -4  13  -9 62.5174  3.9179   8 
  -4  13  -9 66.7426  3.7256   7 
  -5 -13  -9 77.5321  4.8402   7 
   0  14   9 5.72723 0.78411   1 
   0  14   9 5.33270 0.66577   4 
   0  14  -9 5.97346 0.89036   8 
   0  14   9 5.21863 0.77062   8 
  -1  14   9 159.584  10.302   1 
  -1  14   9 177.959   9.371   8 
  -1  14   9 172.457   8.906   4 
   1  14   9 155.375   9.291   8 
  -1  14  -9 163.517   8.666   7 
   1  14   9 161.564   8.862   4 
   1  14   9 162.780  10.339   1 
  -1  14  -9 165.193   9.492   8 
  -2  14   9 187.602  10.585   8 
  -2  14   9 182.783  10.073   4 
  -2  14  -9 189.189   9.862   7 
   2  14   9 187.373  10.061   4 
  -2  14  -9 197.443  10.794   8 
  -3  14   9 34.6862  2.2778   8 
  -3  14   9 38.3759  2.2039   4 
  -3  14  -9 37.8402  2.4824   8 
  -3  14  -9 35.8229  2.2911   7 
  -4  14  -9 20.2848  1.3927   7 
   0  15   9 2.89624 0.50580   8 
   0  15   9 2.59776 0.43753   4 
   0  15  -9 2.38764 0.50875   8 
  -1  15   9 1.16974 0.31512   4 
  -1  15   9 1.26989 0.39122   8 
   1  15   9 1.61187 0.33553   4 
   1  15   9 1.71426 0.38457   8 
  -1  15  -9 1.85922 0.42565   7 
  -1  15  -9 1.53614 0.46953   8 
  -2  15   9 46.1252  2.9414   8 
  -2  15  -9 53.1621  3.0942   8 
   0   0  10 1.11505 0.45593   6 
  -1   0 -10 188.654  15.508   3 
  -1   0  10 231.327  12.995   6 
  -2   0 -10 17.9411  3.2326   3 
  -2   0  10 22.8490  1.9102   6 
  -3   0  10 182.310  10.935   6 
  -3   0 -10 162.421  13.998   3 
  -4   0 -10 165.912  14.825   3 
  -4   0  10 190.796  11.472   6 
  -5   0  10 233.005  12.339   4 
  -5   0  10 248.459  14.615   6 
  -5   0  10 229.962  14.358   1 
  -5   0 -10 207.962  18.416   3 
  -6   0  10 11.9324  1.5919   6 
  -6   0  10 12.2599  1.1654   2 
  -6   0 -10 11.9168  2.1303   7 
  -6   0  10 13.0041  1.2373   1 
  -6   0 -10 12.4462  1.0858   2 
  -6   0 -10 10.2386  3.3785   3 
  -7   0  10 4.71453 0.71839   1 
  -7   0  10 4.98614 0.69893   2 
  -7   0 -10 6.46724 1.49623   7 
   8   0 -10 1.76039 0.46352   1 
   8   0  10 1.79077 0.39447   2 
  -8   0  10 1.82646 0.42931   2 
  -8   0  10 2.72384 0.50074   1 
   9   0  10 85.2625  4.9495   2 
   0  -1  10 69.6208  4.8500   6 
   0   1  10 77.3510  4.9213   6 
  -1  -1 -10 115.497  10.761   3 
  -1   1  10 149.546   8.856   6 
  -1  -1  10 156.170   8.880   6 
  -1   1 -10 136.188  11.080   3 
  -2  -1 -10 278.991  22.414   3 
  -2   1  10 347.801  18.969   6 
  -2  -1  10 330.006  18.921   6 
  -2   1 -10 288.134  22.526   3 
  -3  -1 -10 94.0830  9.4766   3 
  -3   1  10 116.905   7.107   6 
  -3  -1  10 112.953   7.076   6 
  -3   1 -10 98.4855  9.6154   3 
  -4  -1 -10 9.37942 3.06942   3 
  -4   1  10 10.2120  1.2950   6 
  -4   1  10 9.55395 1.01020   1 
  -4   1 -10 11.4152  3.2884   3 
  -4  -1  10 8.83191 1.23894   6 
  -5   1  10 49.4041  2.8294   4 
  -5   1  10 45.3051  3.2708   1 
  -5   1  10 50.3516  3.7779   6 
  -5  -1 -10 41.8022  6.0511   3 
  -5  -1  10 42.6508  3.2181   1 
  -5  -1  10 47.5159  3.7287   6 
  -5   1 -10 45.8050  6.1648   3 
  -6   1  10 199.656  12.314   1 
  -6   1  10 200.030  11.392   2 
  -6  -1 -10 194.283  11.546   7 
  -6  -1 -10 165.205  16.024   3 
  -6   1  10 195.865  10.545   4 
  -6   1  10 204.727  12.637   6 
  -6  -1  10 195.048  12.565   6 
  -6  -1  10 199.895  12.292   1 
  -6  -1  10 193.031  11.352   2 
  -6   1 -10 187.677  16.285   3 
  -6   1 -10 206.448  11.452   7 
  -6   1 -10 203.006  11.244   2 
  -7   1  10 46.4862  3.1099   1 
  -7   1  10 47.2280  2.9126   2 
  -7  -1 -10 44.3746  3.6306   7 
  -7   1 -10 39.7011  3.3655   7 
  -7  -1  10 40.5195  3.0339   1 
  -7  -1  10 38.7139  2.8070   2 
  -8   1  10 47.4333  3.1550   1 
   8  -1  10 43.8730  2.8438   2 
  -8   1  10 48.6573  2.9597   2 
   8   1 -10 44.6899  3.1035   1 
  -8  -1  10 46.3863  3.1401   1 
   8  -1 -10 44.7161  3.1347   1 
   8   1  10 44.0997  2.8637   2 
   9  -1  10 10.5847  0.8152   2 
   0  -2  10 232.668  14.584   6 
   0   2  10 248.585  14.633   6 
  -1   2  10 144.303   8.427   6 
  -1  -2 -10 122.842  10.398   3 
  -1   2 -10 120.980  10.491   3 
  -1  -2  10 138.304   8.387   6 
  -2   2  10 16.0096  1.4437   6 
  -2  -2 -10 11.2284  2.6778   3 
  -2  -2  10 12.0511  1.3220   6 
  -2   2 -10 9.97698 2.70047   3 
  -3   2  10 315.621  18.463   6 
  -3  -2 -10 276.624  22.245   3 
  -3  -2  10 312.140  18.434   6 
  -3   2 -10 303.436  22.553   3 
  -4  -2 -10 198.853  17.653   3 
  -4   2  10 220.161  14.014   1 
  -4   2  10 245.372  14.173   6 
  -4   2 -10 222.205  17.928   3 
  -4  -2  10 236.631  14.113   6 
  -5   2  10 76.5517  4.7699   1 
  -5  -2 -10 74.1715  5.4226   7 
  -5   2  10 75.1154  4.0520   4 
  -5  -2 -10 63.9971  7.7898   3 
  -5   2  10 73.9465  5.1466   6 
  -5   2  10 77.3300  4.4365   2 
  -5  -2  10 64.2040  5.0305   6 
   5   2  10 60.4555  4.2032   2 
  -5   2 -10 64.5408  4.9740   7 
  -5   2 -10 61.6451  7.5804   3 
  -6   2  10 25.5365  2.1698   1 
  -6  -2 -10 20.0572  4.4390   3 
  -6   2  10 26.3982  1.8383   4 
  -6   2  10 27.4879  2.0659   2 
  -6  -2 -10 28.9744  3.1759   7 
  -6   2  10 26.5512  2.5977   6 
  -6   2 -10 28.8816  1.9272   2 
  -6  -2  10 30.2979  2.6877   6 
  -6  -2  10 30.6998  2.2003   1 
  -6   2 -10 28.8493  2.8494   7 
  -6   2 -10 31.3973  4.8951   3 
  -7   2  10 28.8451  2.1160   2 
  -7   2  10 29.0445  2.2467   1 
  -7  -2 -10 27.2591  2.8748   7 
   7   2 -10 30.8329  2.2324   1 
   7   2  10 29.3543  2.0346   2 
  -7  -2  10 29.7686  2.2327   1 
  -7   2 -10 29.5787  2.6484   7 
  -8   2  10 27.7975  2.1113   1 
   8   2 -10 28.1120  2.0795   1 
   8  -2  10 25.5881  1.8723   2 
  -8   2  10 29.2518  2.0074   2 
  -8  -2  10 31.1431  2.1171   1 
   8   2  10 30.9677  1.9669   2 
   9   2  10 158.758   8.994   2 
   0  -3  10 1.51961 0.48495   6 
   0   3  10 1.32862 0.48381   6 
  -1  -3 -10 468.536  32.786   3 
  -1   3  10 505.979  28.500   6 
   1   3  10 502.932  28.431   6 
  -1   3 -10 453.516  32.865   3 
  -1  -3  10 460.571  28.439   6 
  -2   3  10 101.091   6.418   6 
  -2  -3 -10 90.6317  8.4331   3 
  -2  -3  10 96.7581  6.3676   6 
  -2   3 -10 99.7469  8.7761   3 
  -3   3  10 165.058  10.342   6 
  -3   3  10 167.096  10.276   1 
  -3  -3 -10 151.471  13.221   3 
  -3  -3  10 163.959  10.321   6 
  -3   3 -10 168.477  13.572   3 
  -4   3  10 119.607   7.739   1 
  -4   3  10 122.792   8.003   6 
  -4  -3 -10 102.405  10.644   3 
  -4   3 -10 130.003  11.222   3 
  -4  -3  10 126.219   7.993   6 
  -5   3  10 391.461  22.238   2 
  -5   3  10 398.319  20.704   4 
  -5  -3 -10 378.487  21.390   7 
  -5   3  10 378.538  23.879   6 
  -5   3  10 398.387  24.126   1 
  -5   3 -10 406.456  29.160   3 
  -5   3 -10 405.725  21.025   7 
   5   3  10 384.962  22.106   2 
  -5  -3  10 399.388  23.947   6 
  -6  -3 -10 98.3669  6.9340   7 
  -6   3  10 97.1182  6.9885   6 
  -6   3  10 104.367   6.209   2 
  -6   3  10 100.131   5.679   4 
  -6   3  10 101.087   6.654   1 
   6   3  10 102.220   6.073   2 
  -6   3 -10 105.429   9.998   3 
  -6  -3  10 100.326   7.022   6 
  -6   3 -10 111.825   6.587   7 
  -7   3  10 162.372   9.422   2 
  -7   3  10 156.114  10.147   1 
  -7  -3 -10 143.591   9.422   7 
  -7  -3  10 168.713  10.127   1 
   7   3  10 173.013   9.348   2 
  -7   3 -10 159.722   9.105   7 
   8   3 -10 11.2687  0.9618   4 
  -8   3  10 11.8628  1.0710   1 
   8  -3  10 11.4240  0.9142   2 
  -8   3  10 11.8366  1.0347   2 
  -9   3  10 27.7622  1.8610   2 
   9   3  10 31.3423  1.8695   2 
   0  -4  10 2.77608 0.64817   6 
  -1   4  10 86.1689  5.7301   6 
  -1  -4 -10 89.3846  7.5556   3 
  -1   4 -10 87.0280  7.7003   3 
  -1  -4  10 88.2082  5.7733   6 
  -2   4  10 322.254  20.232   6 
  -2  -4 -10 324.660  24.018   3 
  -2   4 -10 356.809  24.413   3 
  -2  -4  10 344.078  20.302   6 
  -3   4  10 94.4432  6.3178   6 
  -3   4  10 99.9837  6.1875   1 
  -3  -4 -10 91.6472  8.7444   3 
  -3  -4  10 91.1805  6.2823   6 
  -3   4 -10 93.5728  8.8683   3 
  -4  -4 -10 322.527  25.984   3 
  -4   4  10 371.199  21.730   1 
  -4   4  10 363.120  21.523   6 
  -4   4 -10 365.151  26.227   3 
  -4  -4  10 340.614  21.457   6 
  -5  -4 -10 243.043  21.771   3 
  -5   4  10 287.249  16.288   2 
  -5   4  10 287.804  17.662   6 
  -5   4  10 296.042  17.680   1 
  -5  -4 -10 288.538  16.123   7 
  -5   4  10 305.576  15.171   4 
   5   4  10 278.676  16.156   2 
  -5   4 -10 292.851  15.558   7 
  -5   4 -10 290.760  21.969   3 
  -5  -4  10 273.887  17.580   6 
  -6   4  10 48.4195  3.1930   2 
  -6   4  10 49.1058  2.8872   4 
  -6   4  10 46.8168  3.8091   6 
  -6   4  10 47.7106  3.4011   1 
  -6  -4 -10 46.1803  4.1707   7 
   6   4  10 46.6815  3.0689   2 
  -6   4 -10 48.5607  3.6259   7 
  -7   4  10 4.70690 0.72305   1 
  -7  -4 -10 4.02854 1.38455   7 
  -7   4  10 4.58710 0.68170   2 
   7   4 -10 4.28474 0.64492   4 
  -7   4  10 4.62654 0.55315   4 
   7   4  10 6.10192 0.69644   2 
  -7   4 -10 4.14527 1.05078   7 
  -8   4  10 144.527   9.289   1 
   8   4 -10 149.009   8.046   4 
  -8   4  10 153.641   8.631   2 
   8   4  10 149.040   8.562   2 
   0  -5  10 9.47085 1.11147   6 
  -1   5  10 46.5267  3.3709   1 
  -1  -5 -10 44.9184  4.8364   3 
  -1   5 -10 54.7458  5.3100   3 
  -1  -5  10 51.7786  3.5566   6 
  -2  -5 -10 63.8583  6.3714   3 
  -2   5  10 66.9600  4.4147   1 
  -2   5 -10 69.1691  6.6959   3 
  -2  -5  10 62.5376  4.4933   6 
  -3   5  10 174.358  10.899   1 
  -3  -5 -10 164.802  13.885   3 
  -3   5 -10 179.993  14.149   3 
  -4   5  10 24.6552  1.6661   4 
  -4   5  10 22.5188  1.7854   2 
  -4   5  10 24.7905  1.9817   1 
  -4  -5 -10 20.4393  3.8760   3 
  -4   5 -10 22.7528  4.0221   3 
  -5  -5 -10 76.0525  9.1081   3 
  -5  -5 -10 95.5987  6.6140   7 
  -5   5  10 100.609   5.416   4 
  -5   5  10 100.666   6.356   1 
  -5   5  10 92.8832  5.8286   2 
  -5   5 -10 96.4539  6.0641   7 
   5   5  10 97.8409  5.7590   2 
  -5   5 -10 100.771   9.445   3 
  -6   5  10 59.6365  3.8606   2 
  -6  -5 -10 57.1256  4.7751   7 
   6   5 -10 60.9771  3.6184   4 
  -6   5  10 59.6423  4.1482   1 
  -6   5  10 62.3700  3.5277   4 
  -7  -5 -10 17.5837  2.3441   7 
   7   5 -10 19.6573  1.4153   4 
  -7   5  10 18.1105  1.2802   4 
  -7   5  10 17.9842  1.5452   1 
  -7   5  10 18.4555  1.4727   2 
  -7   5 -10 17.7894  1.7883   7 
   7   5  10 19.2961  1.4322   2 
   8   5 -10 31.4682  2.0067   4 
  -8   5  10 33.8117  2.1682   2 
   0   6  10 1.38294 0.47395   1 
  -1  -6 -10 74.2611  6.7084   3 
  -1   6  10 73.9735  4.9527   1 
  -1   6 -10 75.6983  6.9559   3 
   1   6  10 74.6084  4.9328   1 
  -2   6  10 273.464  17.748   1 
  -2  -6 -10 274.120  20.911   3 
   2   6  10 305.897  17.744   1 
  -2   6 -10 297.549  21.228   3 
  -3  -6 -10 38.0909  4.8943   3 
  -3   6  10 39.6870  2.8656   1 
   3   6  10 37.6387  2.7830   1 
  -3   6 -10 38.8836  4.9996   3 
   4   6 -10 12.9296  1.1197   4 
  -4   6  10 12.1813  1.1960   2 
  -4  -6 -10 8.85174 2.91214   3 
  -4   6  10 13.8072  1.1259   4 
  -4  -6 -10 15.1287  2.1407   7 
  -4   6  10 13.2841  1.3266   1 
  -5   6  10 256.389  15.046   2 
  -5   6  10 266.789  16.361   1 
  -5  -6 -10 265.184  14.926   7 
  -5   6  10 263.777  14.007   4 
   5   6 -10 266.720  14.079   4 
   5   6  10 261.258  14.952   2 
  -5   6 -10 261.448  14.246   7 
  -6   6  10 69.6687  4.1689   4 
  -6   6  10 71.5136  4.5526   2 
  -6  -6 -10 70.6438  5.4036   7 
  -6   6  10 68.0406  4.8969   1 
   6   6 -10 72.9830  4.2829   4 
  -6   6 -10 85.1060  4.8619   7 
   6   6  10 78.3525  4.5035   2 
   7   6 -10 47.1344  2.7231   4 
  -7   6  10 45.6824  2.8858   2 
  -7  -6 -10 43.8786  3.6200   7 
  -7   6  10 44.2799  2.5995   4 
  -7   6  10 43.5343  3.0752   1 
  -7   6 -10 40.2139  2.9658   7 
   7   6  10 44.0491  2.8060   2 
  -8   6  10 29.3564  2.0007   2 
   8   6 -10 28.9156  1.8814   4 
   8   6  10 34.1060  1.9870   2 
   0   7  10 850.350  51.451   1 
  -1   7  10 93.1739  6.1986   1 
  -1  -7 -10 94.3867  8.1118   3 
   1   7  10 97.7669  6.2025   1 
  -1   7 -10 92.2776  8.2797   3 
  -2   7  10 263.148  16.388   1 
  -2  -7 -10 248.796  19.420   3 
  -2   7 -10 272.392  19.708   3 
   2   7  10 270.975  16.359   1 
  -3  -7 -10 16.7749  3.2124   3 
  -3   7  10 17.2509  1.6124   1 
  -3   7  10 18.4828  1.3941   4 
  -3   7  10 17.7279  1.4690   2 
  -3   7 -10 18.5129  3.4062   3 
   3   7  10 18.0304  1.6041   1 
  -3   7 -10 18.1634  2.0154   8 
  -3   7 -10 17.5127  1.9495   7 
  -4   7  10 80.1068  4.8801   2 
  -4  -7 -10 87.4699  5.6470   7 
   4   7 -10 80.5690  4.5464   4 
  -4   7  10 85.5873  5.3531   1 
  -4  -7 -10 70.5933  7.8944   3 
  -4   7  10 84.8744  4.5625   4 
  -4   7 -10 79.6606  7.8891   3 
   4   7  10 76.3843  5.2310   1 
  -4   7 -10 74.6347  5.1424   8 
  -4   7 -10 74.7104  4.9882   7 
   4   7  10 68.4346  4.7229   2 
   5   7 -10 53.4097  3.2187   4 
  -5   7  10 51.3363  3.7172   1 
  -5   7  10 51.7472  3.4142   2 
  -5  -7 -10 48.5448  4.2411   7 
  -5   7  10 50.7196  3.1396   4 
   5   7  10 53.7302  3.6920   1 
  -5   7 -10 55.2701  3.7495   7 
   5   7  10 55.6737  3.3602   2 
  -6  -7 -10 171.055  10.562   7 
  -6   7  10 173.174   9.566   4 
  -6   7  10 171.532  10.312   2 
  -6   7  10 175.699  11.193   1 
   6   7 -10 178.767   9.670   4 
  -6   7 -10 191.292   9.899   7 
   6   7  10 187.466  10.261   2 
  -7   7  10 14.1913  1.0324   4 
  -7   7  10 14.9249  1.1953   2 
   7   7 -10 15.5934  1.1593   4 
  -7   7  10 15.1361  1.2713   1 
  -7  -7 -10 13.8267  1.9904   7 
  -7   7 -10 14.2906  1.4408   7 
  -8   7  10 106.649   6.297   2 
   8   7 -10 112.504   5.919   4 
   0   8  10 119.024   7.705   1 
  -1  -8 -10 229.024  17.474   3 
  -1   8  10 239.217  12.737   4 
  -1   8  10 233.549  14.819   1 
   1   8  10 244.788  14.826   1 
  -1   8 -10 241.233  17.717   3 
  -2  -8 -10 172.405  14.124   3 
  -2   8  10 178.337  11.427   1 
  -2   8  10 182.475  10.308   8 
  -2   8  10 180.724   9.809   4 
   2   8  10 184.603  10.327   8 
  -2   8 -10 171.031  10.736   8 
   2   8  10 191.103  11.435   1 
  -2   8 -10 182.783  14.278   3 
  -2   8 -10 180.806   9.945   7 
  -3   8  10 63.2197  3.9683   4 
  -3  -8 -10 61.7124  6.9071   3 
  -3   8  10 65.3161  4.6544   1 
  -3   8 -10 71.3561  4.7011   8 
   3   8  10 72.1915  4.6760   1 
  -3   8 -10 71.0835  7.0487   3 
  -3   8 -10 71.6036  4.4945   7 
  -4  -8 -10 99.4807 10.5023   3 
  -4   8  10 114.419   7.128   2 
  -4   8  10 114.747   7.787   1 
  -4  -8 -10 126.247   7.671   7 
   4   8 -10 115.242   6.667   4 
  -4   8  10 116.106   6.671   4 
  -4   8 -10 128.860  10.716   3 
   4   8  10 129.811   7.811   1 
  -4   8 -10 127.624   7.121   7 
  -4   8 -10 130.365   7.479   8 
  -5   8  10 54.3919  3.7646   1 
  -5   8  10 54.7832  3.1890   4 
  -5  -8 -10 57.5893  4.4068   7 
  -5   8  10 54.1620  3.4454   2 
   5   8 -10 55.0942  3.2446   4 
   5   8  10 49.5298  3.7040   1 
  -5   8 -10 49.4391  3.6344   7 
  -6  -8 -10 11.1047  2.0109   7 
  -6   8  10 12.0902  0.9549   4 
  -6   8  10 11.3700  1.0627   2 
   6   8 -10 13.2077  1.0750   4 
  -6   8  10 12.0225  1.1630   1 
  -6   8 -10 12.2769  1.4797   7 
  -7  -8 -10 65.1497  4.4494   7 
   7   8 -10 68.6765  3.7684   4 
  -7   8  10 69.2333  3.9944   2 
  -7   8  10 61.4307  3.6400   4 
  -7   8 -10 66.1622  3.8838   7 
   0   9  10 338.977  18.256   8 
   0   9  10 326.458  20.169   1 
   0   9  10 330.203  17.319   4 
   0   9 -10 309.582  18.537   8 
  -1  -9 -10 7.61651 2.12527   3 
  -1   9  10 6.86664 0.98560   8 
  -1   9  10 6.88039 0.85193   4 
   1   9 -10 7.29888 1.24945   8 
  -1   9  10 8.01480 1.05740   1 
  -1   9 -10 9.04708 2.40687   3 
   1   9  10 7.44760 1.04822   1 
  -1   9 -10 7.04844 1.29031   8 
   1   9  10 7.65114 1.00790   8 
  -1   9 -10 7.79810 1.24202   7 
  -2  -9 -10 233.715  18.517   3 
  -2   9  10 255.844  15.483   1 
  -2   9  10 244.272  13.264   4 
  -2   9  10 247.518  13.928   8 
  -2   9 -10 249.103  14.383   8 
  -2   9 -10 248.011  13.233   7 
   2   9  10 257.551  15.470   1 
   2   9  10 240.450  13.917   8 
  -2   9 -10 249.128  18.576   3 
  -3   9  10 66.9380  4.0297   8 
  -3  -9 -10 63.3551  6.8531   3 
  -3   9  10 67.6512  3.8657   4 
  -3   9  10 63.4972  4.4845   1 
  -3   9 -10 63.4995  6.6365   3 
   3   9  10 65.8472  4.5074   1 
  -3   9 -10 63.6955  4.4415   8 
  -3   9 -10 62.6608  4.2088   7 
  -4   9  10 121.421   6.604   4 
  -4  -9 -10 133.499   7.665   7 
   4   9 -10 113.443   6.574   4 
  -4   9  10 120.739   7.710   1 
  -4   9 -10 120.606   7.301   8 
   4   9  10 113.408   7.665   1 
  -4   9 -10 111.257   6.856   7 
   5   9 -10 81.2254  4.8231   4 
  -5  -9 -10 85.0337  5.8484   7 
  -5   9  10 81.6537  5.6039   1 
  -5   9  10 82.0235  4.7759   4 
  -5   9 -10 89.9736  5.2093   7 
   5   9  10 91.8672  5.6629   1 
  -6  -9 -10 127.731   7.955   7 
  -6   9  10 125.671   7.029   4 
  -6   9  10 125.478   8.219   1 
   6   9 -10 135.930   7.150   4 
   6   9  10 131.042   8.264   1 
  -6   9 -10 138.029   7.264   7 
  -7   9  10 21.1421  1.2605   4 
  -7  -9 -10 18.6782  1.9639   7 
   0  10  10 26.0680  2.0385   8 
   0  10  10 27.2663  2.2155   1 
   0  10 -10 26.1349  2.3086   8 
   0  10  10 25.3072  1.8381   4 
  -1 -10 -10 86.9742  7.9920   3 
  -1  10  10 88.1634  6.0145   1 
  -1  10  10 88.4555  5.1490   4 
   1  10 -10 80.9348  5.6203   8 
  -1  10  10 82.4386  5.4106   8 
   1  10  10 95.2592  5.4865   8 
   1  10  10 98.9594  6.0824   1 
  -1  10 -10 90.5165  5.3195   7 
  -1  10 -10 93.4581  5.8369   8 
  -1  10 -10 95.2867  8.0952   3 
  -2  10  10 101.718   6.258   1 
  -2  10  10 102.332   5.353   4 
  -2  10  10 103.173   5.635   8 
   2  10  10 89.0937  6.1831   1 
   2  10  10 83.2356  5.5264   8 
  -2  10 -10 86.3589  5.9308   8 
  -2  10 -10 83.7184  5.4567   7 
  -3  10  10 333.017  18.960   8 
  -3  10  10 342.055  18.116   4 
  -3  10  10 325.339  21.065   1 
   3  10  10 341.638  21.104   1 
  -3  10 -10 338.846  17.882   7 
  -3  10 -10 372.515  19.489   8 
  -4  10  10 139.056   7.773   4 
  -4 -10 -10 154.927   8.730   7 
  -4  10  10 138.385   9.066   1 
   4  10 -10 134.522   7.765   4 
  -4  10 -10 143.834   8.488   8 
   4  10  10 144.004   9.106   1 
  -4  10 -10 144.852   7.998   7 
   5  10 -10 173.518   9.186   4 
  -5 -10 -10 181.591  10.061   7 
  -5  10  10 169.152  10.645   1 
  -5  10  10 174.807   9.129   4 
   5  10  10 160.878  10.662   1 
  -5  10 -10 161.734   9.199   7 
   6  10 -10 65.8309  3.5575   4 
  -6 -10 -10 61.5505  4.3663   7 
  -6  10  10 60.0061  3.4450   4 
  -6  10 -10 59.9452  3.6640   7 
   0  11 -10 56.4273  3.9565   8 
   0  11  10 58.8005  4.1100   1 
   0  11  10 57.0510  3.4797   4 
   0  11  10 59.3877  3.7508   8 
  -1  11  10 446.973  23.586   8 
  -1  11  10 431.321  26.109   1 
  -1  11  10 442.131  22.445   4 
  -1  11 -10 416.906  23.863   8 
   1  11  10 426.107  26.113   1 
   1  11  10 413.942  23.540   8 
   1  11  10 407.484  22.375   4 
  -1  11 -10 417.043  21.827   7 
  -2  11  10 3.59593 0.77739   1 
  -2  11  10 2.50051 0.55730   4 
  -2  11  10 3.12662 0.68691   8 
  -2  11 -10 4.57400 1.00441   8 
  -2  11 -10 4.45730 0.94149   7 
   2  11  10 4.27036 0.75261   8 
   2  11  10 4.11186 0.80854   1 
  -3  11  10 161.283   8.771   4 
  -3  11  10 154.107   9.153   8 
  -3  11  10 161.180  10.228   1 
  -3  11 -10 161.874   8.854   7 
  -3  11 -10 170.486   9.582   8 
   3  11  10 159.223  10.246   1 
  -4  11  10 13.0641  1.0915   4 
  -4  11  10 13.0173  1.2904   1 
   4  11 -10 12.6003  1.0959   4 
  -4 -11 -10 14.4381  2.0482   7 
  -4  11 -10 14.9187  1.5138   7 
  -4  11 -10 15.6142  1.4927   8 
   4  11  10 16.4531  1.4307   1 
  -5 -11 -10 39.6670  3.2919   7 
  -5  11  10 39.8424  2.7540   1 
   5  11 -10 43.4253  2.4219   4 
  -5  11  10 41.6508  2.3564   4 
   5  11  10 34.7143  2.7716   1 
  -5  11 -10 37.3226  2.6019   7 
   6  11 -10 7.76278 0.64066   4 
  -6  11  10 6.07683 0.52957   4 
  -6 -11 -10 6.17740 1.29093   7 
  -6  11 -10 6.59569 0.81362   7 
   0  12  10 2.23903 0.64814   1 
   0  12  10 1.91443 0.47580   4 
   0  12 -10 2.33414 0.74613   8 
   0  12  10 1.72677 0.58755   8 
  -1  12  10 39.2017  3.2173   1 
  -1  12  10 41.2236  2.9401   8 
  -1  12  10 39.7483  2.7417   4 
   1  12  10 47.7864  2.7893   4 
  -1  12 -10 49.3878  3.0009   7 
  -1  12 -10 48.1578  3.2577   8 
   1  12  10 48.7889  3.3280   1 
   1  12  10 46.9331  2.9727   8 
  -2  12  10 14.0314  1.2203   8 
  -2  12  10 13.5989  1.2993   1 
  -2  12  10 13.8163  1.1126   4 
  -2  12 -10 12.7149  1.4449   8 
   2  12  10 11.0646  1.1205   8 
   2  12  10 11.4457  1.2875   1 
  -2  12 -10 11.8012  1.3371   7 
  -3  12  10 61.7915  3.2855   4 
  -3  12  10 60.2422  3.8347   1 
  -3  12  10 58.1846  3.4064   8 
  -3  12 -10 44.9360  3.3546   7 
  -3  12 -10 48.5212  3.6377   8 
  -4 -12 -10 46.1552  3.4255   7 
  -4  12  10 41.3186  2.9040   1 
  -4  12  10 44.3176  2.5097   4 
   4  12  10 40.5707  2.9550   1 
  -4  12 -10 41.0292  2.7157   7 
  -4  12 -10 38.7801  2.8051   8 
  -5 -12 -10 36.1152  3.1412   7 
  -5  12  10 43.3490  2.4570   4 
   5  12 -10 46.5811  2.5142   4 
   0  13  10 20.2465  1.4684   4 
   0  13 -10 22.2279  1.7931   8 
   0  13  10 19.9999  1.5901   8 
   0  13  10 20.1786  1.7338   1 
  -1  13  10 108.223   6.215   8 
  -1  13  10 108.514   6.891   1 
  -1  13  10 105.511   5.889   4 
   1  13  10 104.024   5.860   4 
  -1  13 -10 106.853   6.424   8 
   1  13  10 102.372   6.182   8 
   1  13  10 107.171   6.897   1 
  -1  13 -10 107.363   5.841   7 
  -2  13  10 121.520   6.795   8 
  -2  13  10 113.151   7.507   1 
  -2  13  10 118.680   6.461   4 
  -2  13 -10 120.829   6.452   7 
  -2  13 -10 128.393   7.084   8 
   2  13  10 108.480   6.720   8 
   2  13  10 115.253   7.547   1 
  -3  13  10 2.80891 0.47240   4 
  -3 -13 -10 2.49212 0.99782   7 
  -3  13  10 3.36203 0.56875   8 
  -3  13 -10 2.45881 0.63182   7 
  -3  13 -10 3.06379 0.70715   8 
  -4 -13 -10 2.59777 0.97215   7 
  -4  13  10 3.48739 0.43499   4 
  -4  13 -10 4.31806 0.69098   7 
  -4  13 -10 4.18458 0.67009   8 
   0  14 -10 32.0612  2.1832   8 
   0  14  10 30.9418  1.9476   4 
   0  14  10 30.8657  2.0810   8 
  -1  14  10 19.2144  1.2518   4 
  -1  14  10 18.8254  1.3557   8 
   1  14  10 16.1563  1.2922   8 
  -1  14 -10 16.9271  1.3028   7 
   1  14  10 15.9468  1.1937   4 
  -1  14 -10 17.7679  1.4611   8 
  -2  14  10 67.4975  4.1589   8 
  -2  14 -10 73.1363  4.3495   8 
  -2  14 -10 73.1216  3.9738   7 
  -3  14  10 65.7425  3.7450   4 
  -3 -14 -10 64.3356  4.2792   7 
  -3  14  10 62.5352  3.8948   8 
  -3  14 -10 76.1522  4.1297   8 
  -3  14 -10 70.7500  3.7767   7 
   0  15  10 25.0535  1.6343   8 
   0   0  11 0.07572 0.30821   6 
  -1   0  11 415.425  22.787   6 
  -1   0 -11 337.940  26.504   3 
  -2   0 -11 9.79443 2.80226   3 
  -2   0  11 12.4377  1.3570   6 
  -3   0  11 212.487  12.590   6 
  -3   0 -11 185.270  15.972   3 
  -4   0 -11 397.015  31.206   3 
  -4   0  11 456.784  26.008   6 
  -5   0 -11 2.79748 1.40544   7 
  -5   0  11 4.53255 1.05492   6 
  -5   0 -11 3.73915 2.43574   3 
   5   0  11 4.23998 0.59434   2 
  -5   0  11 4.43404 0.59845   4 
  -5   0  11 5.16693 0.71839   2 
  -5   0  11 4.38383 0.71015   1 
  -6   0  11 7.55803 0.88908   2 
   6   0  11 8.65465 0.86123   2 
  -6   0  11 8.70188 0.97129   1 
  -6   0 -11 8.39490 1.81836   7 
  -6   0  11 9.67278 1.37503   6 
  -7   0  11 43.8086  2.8942   2 
   7   0  11 43.3302  2.8223   2 
  -7   0 -11 44.5180  3.5085   7 
  -7   0  11 45.6928  3.1166   1 
   8   0  11 14.3780  1.1259   2 
  -8   0  11 15.0756  1.2278   1 
  -8   0  11 14.7157  1.1441   2 
   0   1  11 442.565  26.006   6 
   0  -1  11 428.058  25.987   6 
  -1  -1 -11 191.018  16.394   3 
  -1   1  11 252.371  13.782   6 
  -1   1 -11 202.661  16.496   3 
  -1  -1  11 238.507  13.740   6 
  -2  -1 -11 58.6801  6.6590   3 
  -2   1  11 72.9158  4.7417   6 
  -2   1 -11 62.3218  6.7798   3 
  -2  -1  11 70.6952  4.7271   6 
  -3  -1 -11 421.522  34.483   3 
  -3   1  11 524.858  29.408   6 
  -3  -1  11 541.691  29.430   6 
  -3   1 -11 461.738  34.712   3 
  -4   1  11 85.0837  5.7683   1 
  -4   1  11 91.9974  6.1821   6 
  -4  -1 -11 79.1630  8.8615   3 
  -4  -1  11 96.4921  6.2070   6 
  -4   1 -11 86.5753  9.0280   3 
  -5   1  11 385.394  18.965   4 
  -5   1  11 370.206  22.032   6 
  -5  -1 -11 364.306  19.789   7 
  -5   1  11 357.840  20.342   2 
  -5   1  11 364.269  22.022   1 
  -5  -1 -11 309.355  26.747   3 
   5  -1  11 358.192  20.198   2 
  -5  -1  11 370.060  22.025   6 
  -5   1 -11 375.678  19.619   7 
  -5   1 -11 333.022  26.862   3 
   5   1  11 350.162  20.208   2 
   6  -1  11 14.0945  1.1943   2 
  -6  -1 -11 13.1615  2.2842   7 
  -6   1  11 14.5882  1.3686   1 
  -6   1  11 14.2584  1.2964   2 
  -6   1  11 14.8290  1.7822   6 
  -6  -1  11 16.2758  1.3873   1 
   6   1  11 15.6452  1.2490   2 
  -6  -1  11 15.2026  1.7728   6 
  -6   1 -11 16.1699  2.2995   7 
  -7  -1 -11 0.97270 1.00364   7 
  -7   1  11 0.65442 0.33312   2 
   7  -1  11 0.82436 0.31226   2 
   7   1 -11 0.94240 0.40481   1 
   7   1  11 0.56622 0.30009   2 
  -7  -1  11 0.93214 0.38052   1 
  -7   1 -11 1.39473 0.93657   7 
  -8   1  11 23.9932  1.7243   1 
  -8   1  11 24.1914  1.6255   2 
   8  -1  11 22.2372  1.5586   2 
   8   1  11 20.7085  1.5635   2 
   0   2  11 2.54399 0.64803   6 
   0  -2  11 2.50270 0.65971   6 
  -1   2  11 22.9433  2.1969   6 
  -1  -2  11 30.0597  2.3328   6 
  -1   2 -11 27.1685  3.7282   3 
   1   2  11 30.3047  2.2865   6 
  -2  -2 -11 112.221  10.583   3 
  -2   2  11 133.706   8.174   6 
  -2   2 -11 115.871  10.640   3 
  -2  -2  11 137.186   8.202   6 
  -3   2  11 6.56404 1.01438   6 
  -3   2  11 6.57366 0.80231   1 
  -3  -2 -11 4.04782 2.18677   3 
  -3  -2  11 4.42298 0.86301   6 
  -3   2 -11 3.55428 2.15600   3 
  -4   2  11 34.6887  2.5133   1 
  -4  -2 -11 30.9890  5.0120   3 
  -4   2  11 37.2365  2.9548   6 
  -4   2 -11 31.8868  5.0032   3 
  -4  -2  11 30.3590  2.7795   6 
  -5  -2 -11 3.34681 2.41680   3 
  -5   2  11 2.86047 0.62555   1 
  -5   2  11 2.43941 0.82778   6 
  -5   2  11 2.49466 0.56450   2 
  -5   2  11 2.69316 0.50446   4 
   5  -2  11 2.03983 0.45508   2 
  -5  -2 -11 2.15966 1.39612   7 
  -5  -2  11 4.82131 1.07089   6 
  -5   2 -11 2.59182 2.28535   3 
  -5   2 -11 3.72062 1.37751   7 
   5   2  11 3.57788 0.54953   2 
  -6   2  11 85.1382  5.5187   2 
  -6  -2 -11 87.9515  6.2804   7 
  -6   2  11 88.0714  5.9485   1 
  -6   2  11 90.7030  5.0950   4 
   6  -2  11 86.3187  5.3782   2 
  -6   2  11 85.7411  6.3415   6 
   6   2  11 96.0604  5.4647   2 
  -6   2 -11 102.557   6.125   7 
  -6  -2  11 97.5819  6.4420   6 
  -7   2  11 109.759   6.539   1 
   7  -2  11 103.171   5.921   2 
  -7   2  11 110.155   6.080   2 
  -7  -2 -11 103.209   6.483   7 
   7   2  11 87.9874  5.9225   2 
  -7   2 -11 88.8480  6.0284   7 
  -8   2  11 93.7743  6.0828   1 
   8  -2  11 95.0126  5.5772   2 
  -8   2  11 94.1616  5.6516   2 
   8   2  11 100.640   5.642   2 
   0  -3  11 688.532  39.327   6 
   0   3  11 639.805  39.218   6 
  -1   3  11 121.288   7.534   6 
  -1  -3 -11 107.392   9.597   3 
  -1  -3  11 115.703   7.512   6 
   1   3  11 124.797   7.526   6 
  -1   3 -11 109.327   9.614   3 
  -2   3  11 373.164  21.714   1 
  -2   3  11 357.173  21.453   6 
  -2  -3 -11 332.811  25.513   3 
  -2   3 -11 345.298  25.564   3 
  -2  -3  11 361.421  21.437   6 
  -3   3  11 60.1780  4.1377   1 
  -3   3  11 57.8942  4.3763   6 
  -3  -3 -11 52.2863  6.4972   3 
  -3   3 -11 62.5524  6.8062   3 
  -3  -3  11 70.0755  4.5062   6 
  -4   3  11 450.345  27.185   6 
  -4   3  11 476.374  23.624   4 
  -4   3  11 464.389  27.497   1 
  -4   3 -11 429.370  32.426   3 
  -4  -3  11 424.511  27.078   6 
  -5  -3 -11 18.2870  2.6369   7 
  -5   3  11 18.3095  1.2708   4 
  -5   3  11 18.7987  1.5441   1 
  -5  -3 -11 15.1024  4.0965   3 
  -5   3  11 18.7278  1.9035   6 
  -5   3  11 17.0852  1.4136   2 
  -5  -3  11 13.0861  1.6934   6 
  -5   3 -11 13.7198  2.1113   7 
  -5   3 -11 11.7646  3.5480   3 
   5   3  11 13.0891  1.2557   2 
  -6   3  11 31.0245  2.2488   2 
  -6  -3 -11 28.1718  3.2296   7 
  -6   3  11 31.3486  2.0168   4 
  -6   3  11 30.5813  2.3726   1 
   6   3  11 31.0857  2.1679   2 
  -6   3 -11 35.8467  2.9597   7 
  -7  -3 -11 0.91964 1.04313   7 
  -7   3  11 0.89381 0.37549   2 
  -7   3  11 1.98500 0.47785   1 
   7   3  11 1.08757 0.37498   2 
  -7   3 -11 0.89634 0.79608   7 
  -8   3  11 19.0937  1.4122   2 
   8   3 -11 18.2405  1.3138   4 
   8   3  11 20.4113  1.3887   2 
   0  -4  11 132.290   8.453   6 
  -1  -4 -11 163.016  13.009   3 
  -1   4  11 169.948  10.448   1 
  -1  -4  11 167.920  10.478   6 
  -1   4 -11 166.549  13.028   3 
  -2  -4 -11 22.5213  3.6673   3 
  -2   4  11 23.9521  2.2019   6 
  -2   4  11 28.5881  2.0818   1 
  -2   4 -11 25.9379  3.8906   3 
  -2  -4  11 28.7675  2.3119   6 
  -3   4  11 53.3921  3.5382   1 
  -3  -4 -11 41.7254  5.6716   3 
  -3   4  11 50.9403  3.7785   6 
  -3   4 -11 50.1709  5.9379   3 
  -3  -4  11 49.7982  3.7479   6 
  -4   4  11 13.1234  1.3284   1 
  -4   4  11 12.3501  1.5708   6 
  -4   4  11 12.9959  1.2370   2 
  -4  -4 -11 9.19565 3.12263   3 
  -4  -4 -11 14.5332  2.4132   7 
  -4   4  11 14.2208  1.1399   4 
  -4  -4  11 17.3078  1.7318   6 
  -4   4 -11 16.3052  3.8655   3 
  -4   4 -11 17.2052  2.1276   7 
  -5   4  11 345.762  20.275   1 
  -5   4  11 334.588  18.693   2 
  -5  -4 -11 274.182  24.667   3 
  -5   4  11 354.393  17.402   4 
  -5   4  11 335.329  20.211   6 
  -5  -4 -11 316.542  18.271   7 
  -5  -4  11 308.288  20.084   6 
   5   4  11 336.903  18.604   2 
  -5   4 -11 329.089  17.670   7 
  -5   4 -11 339.173  24.842   3 
  -6   4  11 39.1219  2.5801   2 
  -6  -4 -11 37.5959  3.6295   7 
  -6   4  11 35.5908  2.6904   1 
  -6   4  11 39.8361  2.3150   4 
  -6   4 -11 32.5739  2.9550   7 
   6   4  11 34.4384  2.4516   2 
  -7   4  11 80.0920  4.4433   4 
  -7   4  11 79.9199  4.8651   2 
  -7   4  11 80.9745  5.2254   1 
   7   4 -11 79.3800  4.5467   4 
  -7  -4 -11 74.6822  5.3347   7 
  -7   4 -11 77.3735  4.8987   7 
   7   4  11 84.0340  4.8195   2 
  -8   4  11 6.01658 0.65048   2 
   8   4 -11 6.15245 0.61859   4 
   0   5  11 70.2092  4.5519   1 
   0  -5  11 65.9863  4.6949   6 
   1  -5  11 48.6743  3.5299   6 
  -1  -5 -11 48.8585  5.1754   3 
  -1   5  11 52.9640  3.3964   1 
  -1   5 -11 45.9513  5.1208   3 
  -1  -5  11 43.2309  3.4868   6 
  -2   5  11 355.297  20.914   1 
  -2  -5 -11 309.731  24.487   3 
  -2   5 -11 361.781  24.780   3 
  -2  -5  11 332.687  20.544   6 
  -3  -5 -11 126.307  11.684   3 
  -3   5  11 140.459   8.675   1 
  -3   5  11 142.550   7.446   4 
  -3   5 -11 125.466  11.498   3 
  -4  -5 -11 167.793  15.871   3 
  -4   5  11 208.846  12.388   1 
  -4   5  11 213.039  10.617   4 
  -4   5  11 194.675  11.395   2 
  -4  -5 -11 210.214  11.682   7 
  -4   5 -11 190.993  15.852   3 
  -4   5 -11 191.112  10.991   7 
   4   5  11 188.960  11.278   2 
  -5   5  11 136.972   7.994   2 
  -5   5  11 143.892   7.410   4 
  -5  -5 -11 112.546  11.944   3 
  -5   5  11 142.098   8.666   1 
  -5  -5 -11 130.600   8.628   7 
  -5   5 -11 135.153   7.954   7 
   5   5  11 133.897   7.882   2 
  -5   5 -11 131.000  11.812   3 
   6   5 -11 2.00569 0.49230   4 
  -6  -5 -11 1.97791 1.32065   7 
  -6   5  11 1.93036 0.52090   1 
  -6   5  11 2.45875 0.45153   4 
  -6   5  11 2.00471 0.51335   2 
  -6   5 -11 4.96973 1.18899   7 
   7   5 -11 1.25041 0.39398   4 
  -7   5  11 1.71923 0.34420   4 
  -7  -5 -11 1.67494 1.08518   7 
  -7   5  11 1.58286 0.42150   2 
  -7   5  11 1.42867 0.41910   1 
  -7   5 -11 1.50100 0.72621   7 
   7   5  11 1.73167 0.40735   2 
   8   5 -11 67.4370  3.9853   4 
  -8   5  11 72.1635  4.2847   2 
   8   5  11 76.6785  4.2618   2 
   0   6  11 186.084  11.646   1 
  -1   6  11 300.666  17.482   1 
   1  -6  11 270.622  17.175   6 
  -1  -6 -11 283.129  20.606   3 
  -1   6 -11 270.419  20.417   3 
   1   6  11 286.336  17.423   1 
  -2  -6 -11 287.866  22.303   3 
  -2   6  11 314.027  18.803   1 
   2   6  11 310.156  18.734   1 
  -2   6 -11 302.314  22.278   3 
  -3   6  11 35.6804  2.2743   4 
  -3  -6 -11 30.9319  4.6826   3 
  -3   6  11 34.3994  2.6545   1 
  -3  -6 -11 36.9427  3.2899   7 
  -3   6  11 32.9986  2.4369   2 
   3   6  11 35.7767  2.3858   2 
  -3   6 -11 35.5481  2.9940   8 
  -3   6 -11 36.4957  2.9213   7 
  -3   6 -11 39.0499  4.9326   3 
  -4   6  11 3.53771 0.65494   2 
   4   6 -11 3.34325 0.62411   4 
  -4  -6 -11 3.15609 2.10175   3 
  -4   6  11 4.27653 0.75190   1 
  -4   6  11 4.00037 0.61492   4 
  -4  -6 -11 3.15431 1.32717   7 
  -4   6 -11 4.82765 2.26443   3 
   4   6  11 5.81979 0.71515   2 
  -4   6 -11 5.69502 1.28619   7 
  -4   6 -11 4.88895 1.15348   8 
  -5   6  11 106.058   5.878   4 
  -5  -6 -11 95.2458  7.0084   7 
  -5   6  11 104.135   6.355   2 
   5   6 -11 107.015   5.939   4 
  -5   6  11 102.121   6.867   1 
   5   6  11 113.512   6.303   2 
  -5   6 -11 107.333   6.441   7 
  -6   6  11 259.108  14.457   4 
  -6   6  11 269.151  15.584   2 
  -6   6  11 276.450  16.895   1 
  -6  -6 -11 265.874  15.353   7 
   6   6 -11 276.397  14.576   4 
  -6   6 -11 287.903  14.641   7 
   6   6  11 281.309  15.526   2 
   7   6 -11 61.4739  3.4094   4 
  -7   6  11 56.5299  3.2908   4 
  -7  -6 -11 53.4288  4.1283   7 
  -7   6  11 58.8019  3.6216   2 
  -7   6  11 56.7572  3.8755   1 
  -7   6 -11 56.1792  3.6350   7 
   7   6  11 63.8319  3.5957   2 
   8   6 -11 21.3785  1.3857   4 
  -8   6  11 22.6461  1.4839   2 
   0   7  11 425.694  26.041   1 
  -1  -7 -11 53.3229  5.6846   3 
  -1   7  11 59.5693  3.3648   4 
  -1   7  11 62.9183  3.9721   1 
   1   7  11 52.8386  3.8642   1 
  -1   7 -11 46.5845  5.4922   3 
  -2   7  11 240.931  15.330   1 
  -2  -7 -11 217.806  18.422   3 
  -2   7  11 235.820  13.139   4 
  -2   7  11 234.043  14.101   2 
  -2   7  11 243.920  13.824   8 
   2   7  11 262.307  15.329   1 
   2   7  11 257.452  13.872   8 
  -2   7 -11 253.215  13.229   7 
  -2   7 -11 277.070  18.836   3 
  -2   7 -11 243.843  14.361   8 
   2   7  11 245.811  14.048   2 
  -3   7  11 128.423   6.967   4 
  -3  -7 -11 111.595  10.934   3 
  -3   7  11 122.262   7.465   2 
  -3   7  11 127.496   8.135   1 
  -3  -7 -11 142.207   7.972   7 
   3   7  11 124.454   8.065   1 
  -3   7 -11 127.475  10.948   3 
  -3   7 -11 122.627   7.298   7 
  -3   7 -11 125.709   7.847   8 
   3   7  11 125.356   7.407   2 
  -4   7  11 239.986  14.629   2 
   4   7 -11 235.279  13.618   4 
  -4   7  11 244.795  13.632   4 
  -4  -7 -11 237.525  14.334   7 
  -4   7  11 242.041  15.889   1 
   4   7  11 276.194  14.601   2 
  -4   7 -11 276.116  19.721   3 
  -4   7 -11 275.676  13.883   7 
  -4   7 -11 280.964  14.861   8 
  -5   7  11 20.9573  1.4765   4 
   5   7 -11 21.3662  1.5274   4 
  -5  -7 -11 20.6005  2.7203   7 
  -5   7  11 19.9291  1.7532   1 
  -5   7  11 21.8467  1.6456   2 
  -5   7 -11 22.0257  2.0858   7 
   5   7  11 18.8251  1.5364   2 
  -6  -7 -11 61.8809  4.7442   7 
  -6   7  11 63.5952  3.8927   2 
   6   7 -11 64.8653  3.6541   4 
  -6   7  11 61.5358  3.5495   4 
  -6   7  11 61.4556  4.1814   1 
  -6   7 -11 61.5134  4.0016   7 
   6   7  11 60.6138  3.8034   2 
  -7   7  11 25.3370  1.6010   4 
  -7  -7 -11 24.7704  2.4425   7 
  -7   7  11 25.8865  1.7946   2 
   7   7 -11 26.2531  1.7011   4 
  -7   7 -11 29.9466  2.0056   7 
   0   8  11 438.166  23.551   8 
   0   8  11 434.725  26.048   1 
   0   8 -11 401.187  23.892   8 
  -1   8  11 32.3606  2.1850   8 
  -1  -8 -11 28.9492  3.8584   3 
  -1   8  11 30.9635  1.9887   4 
  -1   8  11 30.2417  2.3377   1 
   1   8 -11 28.1743  2.4725   8 
   1   8  11 28.9834  2.1686   8 
   1   8  11 25.9843  2.2574   1 
  -1   8 -11 25.2474  2.5385   8 
  -2  -8 -11 163.395  13.917   3 
  -2   8  11 173.993   9.949   8 
  -2   8  11 173.657  11.052   1 
  -2   8  11 172.512   9.459   4 
  -2   8  11 162.271  10.106   2 
   2   8  11 179.507   9.979   8 
   2   8  11 187.253  11.057   1 
  -2   8 -11 172.599   9.610   7 
  -2   8 -11 175.903  10.468   8 
  -2   8 -11 181.038  13.902   3 
  -3  -8 -11 0.53499 0.93222   7 
  -3   8  11 1.56898 0.43298   4 
  -3  -8 -11 0.08225 1.25099   3 
  -3   8  11 1.95250 0.57318   1 
  -3   8  11 0.76873 0.38089   2 
  -3   8 -11 0.78180 1.45463   3 
  -3   8 -11 0.83786 0.74779   7 
   3   8  11 0.13879 0.41200   1 
  -3   8 -11 0.14745 0.70235   8 
  -4   8  11 28.0556  2.0225   2 
  -4   8  11 28.3829  2.2253   1 
   4   8 -11 26.4999  1.8589   4 
  -4   8  11 28.2579  1.8743   4 
  -4  -8 -11 29.2346  2.9829   7 
  -4   8 -11 26.4948  2.3462   8 
  -4   8 -11 26.0167  2.3713   7 
   4   8  11 27.3936  2.1907   1 
   5   8 -11 15.3226  1.2198   4 
  -5  -8 -11 14.4487  2.2995   7 
  -5   8  11 15.1549  1.1700   4 
  -5   8  11 15.2276  1.3014   2 
  -5   8  11 16.0621  1.4354   1 
  -5   8 -11 15.8486  1.7287   7 
  -6   8  11 86.9942  5.8319   1 
  -6   8  11 90.4550  4.9869   4 
  -6  -8 -11 91.7041  6.0771   7 
  -6   8  11 89.8172  5.4011   2 
   6   8 -11 96.7314  5.0952   4 
  -6   8 -11 88.5122  5.2856   7 
  -7   8  11 19.3826  1.2540   4 
  -7  -8 -11 18.7024  1.9955   7 
  -7   8  11 21.2581  1.4179   2 
  -7   8 -11 21.7089  1.5696   7 
   0   9 -11 132.345   8.352   8 
   0   9  11 140.307   8.873   1 
   0   9  11 140.471   8.043   8 
   1   9 -11 219.157  13.442   8 
  -1   9  11 237.141  13.218   8 
  -1   9  11 240.339  12.557   4 
  -1   9  11 232.610  14.622   1 
   1   9  11 238.254  14.631   1 
   1   9  11 239.817  13.232   8 
  -1   9 -11 229.032  13.607   8 
  -2   9  11 5.11876 0.67789   4 
  -2   9  11 3.85821 0.73364   8 
  -2  -9 -11 3.94061 1.95328   3 
  -2   9  11 4.73523 0.86261   1 
  -3   9  11 45.0383  2.6934   4 
  -3   9  11 44.7676  3.1888   1 
  -3  -9 -11 54.0384  3.8773   7 
  -3   9  11 46.1003  2.8323   8 
  -3   9 -11 38.9861  3.0469   7 
   3   9  11 37.8762  3.0988   1 
  -3   9 -11 38.0650  3.1889   8 
  -4   9  11 23.7336  1.9462   1 
  -4   9  11 23.3009  1.6264   4 
  -4  -9 -11 21.7722  2.5986   7 
  -5  -9 -11 48.6671  3.9297   7 
  -5   9  11 46.6263  3.2334   1 
  -5   9  11 46.6147  2.7366   4 
   5   9 -11 46.9704  2.7890   4 
   5   9  11 44.8863  3.2278   1 
  -5   9 -11 42.5779  3.0941   7 
  -6   9  11 1.66050 0.32087   4 
   6   9 -11 2.45312 0.44255   4 
  -6  -9 -11 2.42835 1.10959   7 
  -6   9 -11 0.86938 0.56425   7 
   0  10 -11 197.743  11.778   8 
   0  10  11 201.257  10.877   4 
   0  10  11 209.169  12.734   1 
   0  10  11 198.967  11.476   8 
  -1  10  11 368.083  18.532   4 
  -1  10  11 361.750  21.585   1 
  -1  10  11 366.033  19.486   8 
  -1  10 -11 322.256  19.765   8 
   1  10  11 338.320  19.453   8 
   1  10  11 341.105  21.551   1 
  -2  10  11 16.1915  1.3839   8 
  -2  10  11 15.3980  1.2428   4 
  -2  10  11 14.8205  1.4979   1 
   2  10  11 15.5658  1.5070   1 
  -2  10 -11 15.4129  1.6059   7 
   2  10  11 13.6149  1.3223   8 
  -2  10 -11 15.3608  1.7011   8 
  -3 -10 -11 117.902   6.970   7 
  -3  10  11 107.347   7.012   1 
  -3  10  11 102.491   6.241   8 
  -3  10  11 103.697   5.970   4 
  -3  10 -11 104.925   6.213   7 
   3  10  11 106.137   7.004   1 
  -3  10 -11 113.237   6.734   8 
  -4  10  11 154.125   9.793   1 
  -4 -10 -11 160.788   9.301   7 
  -4  10  11 149.413   8.375   4 
   4  10  11 154.928   9.803   1 
  -4  10 -11 154.819   8.538   7 
  -4  10 -11 157.044   9.120   8 
  -5  10  11 38.5024  2.2815   4 
  -5  10  11 37.1724  2.6818   1 
   5  10 -11 37.6719  2.3184   4 
  -5 -10 -11 40.5136  3.3677   7 
  -5  10 -11 39.3181  2.6441   7 
   5  10  11 36.6423  2.7023   1 
  -6  10  11 16.4098  1.0682   4 
  -6 -10 -11 16.7957  1.9788   7 
   0  11  11 7.88568 1.01981   8 
   0  11  11 7.87233 1.06893   1 
   0  11  11 8.46583 0.85782   4 
   0  11 -11 8.25722 1.21503   8 
  -1  11  11 11.1284  1.2041   8 
  -1  11  11 10.5517  1.2802   1 
  -1  11  11 9.81098 1.02261   4 
  -1  11 -11 13.9796  1.4061   7 
   1  11  11 14.5627  1.3870   1 
   1  11  11 15.1759  1.2833   8 
  -1  11 -11 14.2573  1.5471   8 
  -2  11  11 127.447   6.702   4 
  -2  11  11 131.044   7.061   8 
  -2  11  11 129.455   7.857   1 
  -2  11 -11 116.971   7.360   8 
   2  11  11 107.986   6.970   8 
   2  11  11 116.059   7.807   1 
  -2  11 -11 117.832   6.764   7 
  -3 -11 -11 92.9186  5.9198   7 
  -3  11  11 74.8495  5.2049   8 
  -3  11  11 77.5779  4.9940   4 
  -3  11  11 79.6441  5.8536   1 
   3  11  11 104.858   6.000   1 
  -3  11 -11 106.324   5.742   8 
  -3  11 -11 99.5767  5.3174   7 
  -4 -11 -11 148.077   8.680   7 
  -4  11  11 149.398   7.879   4 
  -4  11  11 146.781   9.195   1 
   4  11  11 143.215   9.203   1 
  -4  11 -11 145.558   8.516   8 
  -4  11 -11 142.732   7.932   7 
  -5 -11 -11 72.1794  4.9626   7 
  -5  11  11 77.6610  4.1372   4 
  -5  11 -11 73.8080  4.2867   7 
   0  12  11 122.004   6.909   8 
   0  12  11 116.185   7.628   1 
   0  12  11 115.504   6.502   4 
   0  12 -11 119.617   7.086   8 
  -1  12  11 235.590  12.749   8 
  -1  12  11 231.419  14.137   1 
  -1  12  11 230.050  12.102   4 
   1  12  11 216.090  12.702   8 
   1  12  11 224.166  14.122   1 
  -1  12 -11 233.660  12.998   8 
  -1  12 -11 215.932  11.809   7 
  -2  12  11 110.890   5.964   8 
  -2  12  11 105.967   6.607   1 
  -2  12  11 106.504   5.655   4 
  -2  12 -11 98.2641  6.1809   8 
  -2  12 -11 100.240   5.694   7 
   2  12  11 99.2458  6.6022   1 
   2  12  11 90.4364  5.8667   8 
  -3  12  11 5.98056 0.78006   1 
  -3 -12 -11 6.21295 1.36383   7 
  -3  12  11 5.83355 0.63964   4 
  -3  12  11 6.02503 0.71147   8 
  -3  12 -11 4.86096 0.90986   8 
   3  12  11 6.13088 0.81186   1 
  -3  12 -11 4.64195 0.84333   7 
  -4 -12 -11 4.14025 1.14152   7 
  -4  12  11 4.53330 0.48393   4 
  -4  12 -11 2.50749 0.61197   8 
  -4  12 -11 3.20265 0.68429   7 
   0  13  11 62.7658  4.2611   1 
   0  13 -11 64.8128  3.9869   8 
   0  13  11 62.7955  3.6008   4 
   0  13  11 62.5143  3.8325   8 
  -1  13  11 4.82952 0.71360   8 
  -1  13  11 4.99619 0.70197   1 
  -1  13  11 4.58403 0.55910   4 
   1  13  11 3.36482 0.65433   1 
  -1  13 -11 3.04217 0.72105   8 
   1  13  11 2.57009 0.56114   8 
  -2 -13 -11 152.433   8.171   7 
  -2  13  11 135.030   7.587   4 
  -2  13  11 138.785   7.981   8 
  -2  13 -11 148.346   7.519   7 
   2  13  11 127.786   7.928   8 
  -2  13 -11 148.462   8.240   8 
  -3  13  11 174.388  10.082   4 
  -3 -13 -11 175.534  10.460   7 
  -3  13 -11 201.384   9.931   7 
  -3  13 -11 210.507  10.844   8 
  -4 -13 -11 2.31790 0.89355   7 
  -4  13 -11 2.97577 0.52978   7 
   0  14  11 119.840   6.794   8 
  -1 -14 -11 156.033   8.539   7 
  -1  14  11 151.018   8.292   4 
  -1  14  11 149.369   8.724   8 
  -1  14 -11 167.460   8.889   8 
   1  14  11 156.685   8.724   8 
  -2  14  11 26.1222  1.5611   4 
  -2  14  11 26.0302  1.6521   8 
  -2 -14 -11 25.9508  2.1401   7 
  -2  14 -11 23.6221  1.5927   7 
   0   0  12 419.742  25.180   6 
   1   0  12 12.0228  1.3341   6 
  -1   0  12 12.0187  1.3583   6 
  -2   0  12 146.029   8.832   6 
  -2   0 -12 122.655  11.512   3 
  -3   0  12 0.97976 0.54698   6 
  -3   0 -12 1.89952 1.96309   3 
  -4   0  12 2.83096 0.49410   4 
   4   0  12 2.80513 0.51791   2 
  -4   0 -12 2.14660 2.09959   3 
  -4   0 -12 3.71569 1.48635   7 
  -4   0  12 2.70501 0.57573   2 
  -5   0  12 245.275  14.197   2 
  -5   0  12 253.043  15.592   6 
  -5   0 -12 262.651  14.252   7 
   5   0  12 255.974  14.136   2 
  -5   0 -12 219.277  19.622   3 
  -6   0  12 9.89458 1.01140   2 
  -6   0 -12 13.6457  2.1566   7 
   6   0  12 11.1682  1.0055   2 
  -6   0  12 11.7282  1.1097   1 
  -7   0  12 11.4574  1.0178   2 
   7   0  12 11.5235  1.0004   2 
  -7   0 -12 11.1040  1.7217   7 
  -7   0  12 12.3180  1.0920   1 
  -8   0 -12 2.00712 0.70119   7 
   8   0  12 2.00223 0.37002   2 
  -8   0  12 2.15851 0.38250   2 
   0   1  12 21.3247  1.9129   6 
   0  -1  12 19.6413  1.8788   6 
  -1   1  12 222.434  13.999   6 
   1  -1  12 217.553  13.918   6 
   1   1  12 239.800  13.993   6 
  -2   1  12 558.484  29.384   6 
  -2  -1 -12 438.478  34.325   3 
  -2   1 -12 444.776  34.288   3 
  -2  -1  12 505.250  29.302   6 
  -3  -1 -12 67.7218  7.9104   3 
  -3   1  12 86.0612  5.5549   6 
  -3  -1  12 78.8135  5.4526   6 
  -3   1 -12 72.6049  7.9892   3 
  -4   1  12 182.304  10.486   2 
  -4  -1 -12 191.858  10.979   7 
  -4   1  12 189.396   9.734   4 
  -4   1  12 186.834  11.611   6 
  -4  -1 -12 151.457  14.967   3 
   4  -1  12 177.532  10.354   2 
  -4  -1  12 180.319  11.545   6 
   4   1  12 176.581  10.372   2 
  -4   1 -12 174.188  15.267   3 
  -4   1 -12 190.255  10.758   7 
  -5   1  12 240.552  13.768   2 
  -5  -1 -12 196.205  18.901   3 
  -5   1  12 249.500  14.890   1 
  -5   1  12 255.827  12.817   4 
  -5  -1 -12 247.573  13.890   7 
  -5   1  12 256.253  15.158   6 
   5  -1  12 241.255  13.655   2 
  -5   1 -12 248.617  13.688   7 
  -5  -1  12 237.912  15.070   6 
  -5   1 -12 213.271  19.018   3 
   5   1  12 237.534  13.676   2 
  -6  -1 -12 32.2171  3.2349   7 
   6  -1  12 31.1428  2.1598   2 
  -6   1  12 30.7603  2.2338   2 
  -6   1  12 31.1614  2.3653   1 
   6   1  12 33.4856  2.2119   2 
  -6   1 -12 36.5811  3.1688   7 
   7  -1  12 48.1760  2.8933   2 
  -7  -1 -12 46.1373  3.5237   7 
  -7   1  12 46.2580  2.9340   2 
  -7   1  12 48.2272  3.1547   1 
  -7   1 -12 42.0088  3.3273   7 
   7   1  12 41.5097  2.8667   2 
  -8   1  12 23.7794  1.4627   2 
   8  -1  12 22.5527  1.4138   2 
  -8  -1 -12 20.8214  1.7396   7 
   8   1  12 18.0934  1.3875   2 
  -8   1 -12 16.4622  1.5866   7 
   0   2  12 408.158  25.421   6 
   0  -2  12 441.666  25.527   6 
   1  -2  12 33.1594  2.4975   6 
  -1   2  12 34.5993  2.5618   6 
  -1  -2  12 25.3355  2.3530   6 
   1   2  12 24.6568  2.3258   6 
  -2  -2 -12 56.8602  6.5001   3 
  -2  -2  12 61.9327  4.3287   6 
  -2   2 -12 57.9765  6.4628   3 
  -3   2  12 126.452   8.590   6 
  -3   2 -12 128.307  11.652   3 
  -3  -2  12 139.392   8.645   6 
  -4   2  12 18.6558  1.3015   4 
  -4   2  12 18.1380  1.5306   1 
  -4   2  12 17.9330  1.4613   2 
  -4   2  12 19.0779  1.9438   6 
  -4  -2 -12 17.7971  2.7041   7 
  -4  -2 -12 15.5321  4.0739   3 
  -4   2 -12 16.7814  4.0694   3 
  -4   2 -12 15.0867  2.3072   7 
  -4  -2  12 16.6239  1.8395   6 
   4   2  12 15.7323  1.3358   2 
  -5   2  12 45.0148  3.5372   6 
  -5   2  12 43.6949  3.0491   1 
  -5  -2 -12 36.4176  5.8222   3 
  -5  -2 -12 41.8057  3.9429   7 
  -5   2  12 47.4039  2.6484   4 
  -5   2  12 45.4379  2.9002   2 
   5   2  12 38.3032  2.7516   2 
  -5  -2  12 40.2749  3.4493   6 
  -5   2 -12 41.3157  3.6269   7 
  -5   2 -12 37.6139  5.6347   3 
  -6   2  12 26.6062  1.9346   2 
  -6  -2 -12 26.8024  2.9816   7 
  -6   2  12 27.3271  1.7311   4 
  -6   2  12 28.9714  2.0706   1 
   6  -2  12 27.6739  1.8386   2 
  -6   2 -12 21.6709  2.4818   7 
   6   2  12 21.8945  1.8112   2 
  -7   2  12 27.5299  1.9784   2 
   7  -2  12 27.6475  1.8982   2 
  -7   2  12 29.2618  2.1191   1 
  -7  -2 -12 28.0137  2.6879   7 
   7   2  12 29.6972  1.9626   2 
  -7   2 -12 29.5930  2.4534   7 
  -8   2  12 23.3042  1.5716   2 
  -8  -2 -12 20.5634  1.8210   7 
   8  -2  12 21.7018  1.4937   2 
   8   2  12 25.6972  1.5789   2 
  -8   2 -12 23.0063  1.7438   7 
   0   3  12 174.003  11.063   6 
   0  -3  12 180.234  11.134   6 
   1  -3  12 16.6373  1.5529   6 
   1   3  12 11.8700  1.3955   6 
  -1  -3  12 12.3484  1.4270   6 
  -2  -3 -12 169.503  15.523   3 
  -2   3  12 197.358  12.487   6 
  -2   3 -12 198.740  15.696   3 
   2   3  12 216.716  12.431   6 
  -2  -3  12 208.703  12.498   6 
  -3   3  12 93.0146  6.4458   6 
  -3  -3 -12 76.3186  8.8976   3 
  -3   3  12 103.866   6.226   1 
  -3   3 -12 98.7278  9.2944   3 
  -3  -3  12 96.5250  6.4606   6 
  -4   3  12 130.615   6.469   4 
  -4   3  12 128.807   7.551   1 
  -4  -3 -12 128.365   7.907   7 
  -4  -3 -12 94.6474 10.6654   3 
  -4   3  12 122.223   7.888   6 
  -4   3  12 126.048   7.008   2 
  -4  -3  12 105.656   7.707   6 
  -4   3 -12 114.266   7.236   7 
   4   3  12 101.059   6.806   2 
  -4   3 -12 102.412  10.589   3 
  -5   3  12 232.077  11.302   4 
  -5   3  12 231.827  13.179   1 
  -5   3  12 218.639  12.169   2 
  -5   3  12 200.837  13.265   6 
  -5  -3 -12 215.424  12.531   7 
  -5   3 -12 190.856  16.867   3 
  -5  -3  12 194.667  13.229   6 
  -5   3 -12 204.277  11.863   7 
   5   3  12 197.401  12.024   2 
  -6  -3 -12 24.1064  2.9179   7 
  -6   3  12 24.5396  1.7036   4 
  -6   3  12 24.5228  2.0207   1 
  -6   3  12 23.5172  1.8953   2 
   6   3  12 30.7520  1.9204   2 
  -6   3 -12 31.7977  2.6882   7 
  -7  -3 -12 3.62354 1.23576   7 
  -7   3  12 5.36011 0.67266   2 
  -7   3  12 5.19022 0.69000   1 
  -7   3 -12 6.71164 1.18154   7 
   7   3  12 6.95920 0.70316   2 
   8   3 -12 50.8087  3.0041   4 
  -8   3  12 56.3233  3.2320   2 
  -8  -3 -12 48.5674  3.2844   7 
  -8   3 -12 55.4463  3.1800   7 
   0  -4  12 29.7539  2.4881   6 
   1  -4  12 120.222   8.214   6 
  -1  -4  12 136.127   8.348   6 
  -2  -4 -12 194.649  17.301   3 
  -2   4  12 235.004  14.065   1 
  -2   4  12 224.917  14.024   6 
  -2  -4  12 233.446  14.051   6 
  -2   4 -12 240.809  17.563   3 
  -3   4  12 89.0764  5.4473   2 
  -3   4  12 90.7580  6.1354   6 
  -3   4  12 95.8883  5.8966   1 
  -3  -4 -12 74.8058  8.5901   3 
  -3   4  12 95.2244  5.0305   4 
  -3   4 -12 85.4234  8.6184   3 
  -3   4 -12 89.2042  5.9463   8 
  -3  -4  12 83.4800  6.0603   6 
  -4   4  12 81.4068  4.3784   4 
  -4   4  12 71.5902  5.3830   6 
  -4  -4 -12 77.6228  5.7623   7 
  -4   4  12 75.7020  4.7421   2 
  -4   4  12 78.2848  5.1166   1 
  -4  -4  12 71.9526  5.3706   6 
  -4   4 -12 81.9100  5.2076   7 
   4   4  12 71.7277  4.6204   2 
  -5   4  12 76.3316  4.7284   1 
  -5  -4 -12 68.8628  5.4062   7 
  -5   4  12 72.0008  5.0930   6 
  -5   4  12 73.2937  4.3886   2 
  -5   4  12 74.9441  4.0137   4 
  -5   4 -12 65.6928  4.6878   7 
  -5  -4  12 60.0962  4.8982   6 
   5   4  12 61.1736  4.2233   2 
  -6   4  12 60.5848  4.2587   1 
  -6   4  12 62.6762  3.9980   2 
  -6   4  12 62.8538  3.6463   4 
  -6  -4 -12 60.6800  4.8526   7 
   6   4  12 65.8827  3.9444   2 
  -6   4 -12 68.7758  4.3868   7 
  -7   4  12 28.8508  2.1705   1 
  -7  -4 -12 28.9965  2.7509   7 
  -7   4  12 29.3198  2.0599   2 
   7   4 -12 30.7762  1.9505   4 
   7   4  12 32.8525  2.0559   2 
  -7   4 -12 30.4776  2.3574   7 
  -8   4  12 17.4950  1.2129   2 
   8   4 -12 16.2925  1.1223   4 
   0  -5  12 522.283  31.158   6 
  -1   5  12 217.296  12.689   1 
   1  -5  12 199.040  12.631   6 
  -1  -5  12 191.750  12.616   6 
  -2   5  12 188.067   9.687   4 
  -2  -5 -12 151.075  14.180   3 
  -2   5  12 187.351  11.290   1 
  -2   5 -12 194.032  14.490   3 
  -2  -5  12 172.893  11.275   6 
  -3   5  12 80.9503  5.3658   2 
  -3   5  12 86.3747  5.8184   1 
  -3  -5 -12 85.6749  6.0406   7 
  -3   5  12 87.7797  4.9733   4 
  -3   5 -12 92.8201  5.6317   7 
  -3   5 -12 93.1992  5.9090   8 
   3   5  12 89.5038  5.3231   2 
  -3   5 -12 92.2794  8.6583   3 
  -4  -5 -12 197.831  18.922   3 
  -4   5  12 260.634  13.000   4 
  -4  -5 -12 244.249  14.031   7 
  -4   5  12 245.662  13.983   2 
  -4   5  12 258.081  15.166   1 
  -4   5 -12 250.726  13.358   7 
  -4   5 -12 235.285  18.847   3 
  -4   5 -12 237.485  14.136   8 
   4   5  12 245.838  13.886   2 
  -5   5  12 139.476   7.364   4 
  -5  -5 -12 133.498   8.656   7 
  -5   5  12 136.581   8.601   1 
   5   5 -12 136.134   7.414   4 
  -5   5  12 138.990   7.982   2 
  -5   5 -12 128.543   7.852   7 
   5   5  12 127.339   7.854   2 
  -6  -5 -12 34.7529  3.4049   7 
  -6   5  12 36.1590  2.4316   2 
  -6   5  12 34.8183  2.1734   4 
   6   5 -12 36.7185  2.2764   4 
  -6   5  12 36.0271  2.5745   1 
   6   5  12 34.8220  2.3559   2 
  -6   5 -12 33.4272  2.7627   7 
   7   5 -12 15.9252  1.1712   4 
  -7   5  12 15.7742  1.2938   1 
  -7   5  12 17.4657  1.2703   2 
  -7  -5 -12 15.5060  1.9783   7 
   7   5  12 14.9755  1.2031   2 
  -7   5 -12 15.5769  1.5347   7 
   0   6  12 2.85422 0.63325   1 
  -1   6  12 294.177  15.641   8 
  -1   6  12 270.931  15.900   2 
  -1   6  12 280.377  17.251   1 
   1  -6  12 260.046  17.032   6 
   1   6  12 275.808  15.878   2 
   1   6  12 284.991  17.232   1 
  -1   6 -12 266.175  16.111   8 
   1   6  12 299.372  15.673   8 
  -2   6  12 108.259   6.870   2 
  -2   6  12 114.662   6.727   8 
  -2  -6 -12 111.542   7.165   7 
  -2  -6 -12 99.3824 10.0437   3 
  -2   6  12 115.165   6.381   4 
  -2   6  12 114.549   7.448   1 
   2  -6  12 105.353   7.492   6 
  -2  -6 -12 94.5440  8.0977   8 
  -2   6 -12 119.362   6.772   7 
  -2   6 -12 124.122   7.412   8 
   2   6  12 126.815   6.870   2 
  -2   6 -12 129.032  10.264   3 
   2   6  12 128.875   6.804   8 
  -3   6  12 361.024  18.352   4 
  -3   6  12 353.907  19.713   2 
  -3  -6 -12 293.811  25.434   3 
  -3  -6 -12 356.995  18.971   7 
  -3   6  12 359.873  21.381   1 
   3   6  12 350.437  19.630   2 
  -3   6 -12 346.599  18.318   7 
  -3   6 -12 352.687  19.857   8 
  -3   6 -12 338.223  25.300   3 
  -4   6  12 212.323  13.206   1 
  -4   6  12 209.609  11.298   4 
  -4   6  12 208.186  12.186   2 
  -4  -6 -12 205.746  12.324   7 
   4   6  12 212.804  12.101   2 
  -4   6 -12 218.714  11.672   7 
  -4   6 -12 208.277  12.374   8 
   5   6 -12 103.785   6.245   4 
  -5  -6 -12 106.587   7.437   7 
  -5   6  12 106.935   7.258   1 
  -5   6  12 108.558   6.205   4 
  -5   6  12 113.223   6.743   2 
  -5   6 -12 123.041   6.808   7 
   5   6  12 127.877   6.726   2 
  -6   6  12 23.7478  1.8897   1 
   6   6 -12 24.5432  1.6762   4 
  -6   6  12 23.2228  1.5864   4 
  -6  -6 -12 24.3952  2.7960   7 
  -6   6  12 24.8858  1.8034   2 
  -6   6 -12 26.2765  2.1894   7 
   6   6  12 26.7302  1.7741   2 
   7   6 -12 23.3113  1.5075   4 
  -7   6  12 23.9847  1.6195   2 
  -7  -6 -12 21.4061  2.2112   7 
   7   6  12 22.9423  1.5708   2 
  -7   6 -12 21.8714  1.7867   7 
   0   7  12 347.863  20.142   2 
   0   7  12 364.034  21.894   1 
   0   7 -12 343.787  20.235   8 
   0   7  12 368.593  19.829   8 
  -1   7  12 55.9795  3.6931   1 
  -1   7  12 52.4048  3.3759   2 
  -1   7  12 56.5503  3.4034   8 
   1   7 -12 52.4340  3.7656   8 
   1   7  12 52.8585  3.3880   8 
   1   7  12 48.5914  3.3275   2 
  -1   7 -12 46.9663  3.7964   8 
   1   7  12 47.8939  3.6037   1 
  -2   7  12 109.439   6.412   4 
  -2   7  12 111.066   7.518   1 
  -2   7  12 111.145   6.940   2 
  -2  -7 -12 109.721   7.167   7 
  -2   7  12 109.490   6.770   8 
   2   7  12 123.755   7.524   1 
  -2   7 -12 120.377   6.786   7 
   2   7  12 122.565   6.925   2 
   2   7  12 120.604   6.847   8 
  -2   7 -12 121.293  10.119   3 
  -2   7 -12 120.931   7.405   8 
  -3   7  12 123.053   7.701   1 
  -3   7  12 119.740   7.086   2 
  -3  -7 -12 100.368  10.495   3 
  -3  -7 -12 121.476   7.555   7 
  -3   7  12 126.007   6.590   4 
  -3   7 -12 116.611  10.329   3 
   3   7  12 114.385   6.993   2 
  -3   7 -12 116.577   6.924   7 
  -3   7 -12 120.802   7.474   8 
  -4   7  12 39.7860  2.5563   4 
  -4   7  12 43.8852  2.8559   2 
  -4  -7 -12 42.3194  3.7870   7 
  -4   7  12 42.1906  3.0554   1 
  -4   7 -12 41.3935  3.1183   7 
  -4   7 -12 40.7100  3.1550   8 
   4   7  12 42.0077  2.7640   2 
   5   7 -12 26.2671  1.9337   4 
  -5   7  12 28.5980  2.2803   1 
  -5  -7 -12 28.4958  3.1774   7 
  -5   7  12 29.8936  1.9341   4 
  -5   7  12 29.0944  2.1211   2 
   5   7  12 35.2470  2.1476   2 
  -5   7 -12 35.5063  2.5961   7 
  -6   7  12 60.0761  3.2554   4 
   6   7 -12 58.0892  3.3140   4 
  -6   7  12 55.3969  3.7954   1 
  -6   7  12 61.7633  3.5804   2 
  -6  -7 -12 53.2586  4.2939   7 
  -6   7 -12 53.6398  3.6182   7 
   6   7  12 53.7400  3.4810   2 
  -7   7  12 1.57380 0.34773   2 
   7   7 -12 1.84920 0.36089   4 
  -7  -7 -12 1.20590 0.82978   7 
  -7   7 -12 1.11252 0.51056   7 
   7   7  12 1.45803 0.32594   2 
   0   8  12 81.0153  5.0145   2 
   0   8 -12 76.9546  5.3682   8 
   0   8  12 84.9230  5.0089   8 
   0   8  12 83.2765  5.4882   1 
  -1   8  12 373.259  20.191   8 
  -1   8  12 360.993  22.330   1 
   1   8 -12 341.455  20.466   8 
  -1   8  12 358.748  20.551   2 
  -1   8  12 358.008  19.146   4 
   1   8  12 377.894  22.338   1 
   1   8  12 379.968  20.213   8 
  -1   8 -12 359.299  20.650   8 
   1   8  12 357.310  20.500   2 
  -2  -8 -12 35.0511  5.0389   3 
  -2   8  12 41.4862  3.1777   1 
  -2   8  12 40.2249  2.8996   2 
  -2  -8 -12 42.1111  3.5517   7 
  -2   8  12 41.6013  2.6809   4 
  -2   8  12 41.5106  2.8678   8 
   2   8  12 47.6620  2.9341   2 
  -2   8 -12 46.5212  3.1670   7 
   2   8  12 45.6115  2.9312   8 
  -2   8 -12 46.9930  3.4482   8 
   2   8  12 47.7409  3.2111   1 
  -2   8 -12 47.1881  5.1313   3 
  -3   8  12 64.7309  4.2738   2 
  -3   8  12 66.4453  4.6768   1 
  -3   8  12 67.0025  3.9785   4 
  -3  -8 -12 65.8988  4.9216   7 
  -3   8 -12 73.2123  4.4523   7 
   3   8  12 70.3807  4.6580   1 
  -3   8 -12 73.6814  4.7344   8 
  -4   8  12 284.870  16.898   2 
  -4   8  12 303.945  18.393   1 
  -4  -8 -12 303.367  16.569   7 
  -4   8  12 295.563  15.757   4 
  -4   8 -12 298.952  15.746   7 
  -4   8 -12 301.041  16.956   8 
  -5   8  12 29.0454  2.2249   1 
  -5   8  12 29.1073  2.0598   2 
   5   8 -12 30.0911  1.9272   4 
  -5  -8 -12 27.2055  3.0059   7 
  -5   8  12 29.0744  1.8696   4 
  -5   8 -12 32.7247  2.4200   7 
   6   8 -12 7.02222 0.68066   4 
  -6  -8 -12 6.76414 1.50089   7 
  -6   8  12 7.36311 0.76056   1 
  -6   8  12 6.77301 0.71270   2 
  -6   8  12 7.04364 0.61778   4 
  -6   8 -12 6.32781 1.02301   7 
   0   9  12 1.39546 0.54315   1 
   0   9  12 0.93815 0.52659   8 
   0   9 -12 1.51518 0.76194   8 
   1   9 -12 121.002   7.996   8 
  -1   9  12 138.755   7.817   8 
  -1   9  12 136.257   8.644   1 
  -1   9  12 130.955   7.347   4 
  -1   9 -12 135.308   8.224   8 
   1   9  12 141.332   8.648   1 
   1   9  12 134.543   7.808   8 
  -2   9  12 20.5844  1.8259   1 
  -2   9  12 21.6726  1.6740   8 
  -2  -9 -12 23.6359  2.4664   7 
  -2   9  12 22.5673  1.5481   4 
   2   9  12 19.8132  1.7982   1 
   2   9  12 19.7794  1.6486   8 
  -2   9 -12 21.3908  1.9327   7 
  -2   9 -12 20.9624  2.0925   8 
  -3   9  12 27.0032  1.6966   4 
  -3   9  12 24.2878  1.7405   8 
  -3   9  12 27.1759  2.0340   1 
  -3  -9 -12 26.7970  2.7041   7 
  -3   9 -12 18.8452  2.0880   8 
  -3   9 -12 17.3580  1.9398   7 
  -4   9  12 157.438   8.203   4 
  -4   9  12 158.634   9.605   1 
  -4  -9 -12 158.067   9.233   7 
  -4   9  12 151.669   8.778   2 
  -4   9 -12 144.040   8.924   8 
   4   9  12 145.547   9.532   1 
  -4   9 -12 144.621   8.352   7 
  -5  -9 -12 26.7767  2.8666   7 
   5   9 -12 29.5310  1.8296   4 
  -5   9  12 27.4366  2.0966   1 
  -5   9  12 27.3596  1.9076   2 
  -5   9  12 29.5874  1.7880   4 
  -6   9  12 10.2379  0.7726   4 
  -6  -9 -12 10.4202  1.6794   7 
   6   9 -12 10.1317  0.8230   4 
  -6   9 -12 13.9206  1.1901   7 
   0  10 -12 24.0761  2.1595   8 
   0  10  12 25.3389  2.0945   1 
   0  10  12 26.1167  1.9262   8 
  -1  10  12 51.9149  3.8715   1 
  -1  10  12 49.7106  3.2398   4 
  -1  10  12 56.5935  3.5292   8 
   1  10  12 57.4861  3.5430   8 
  -1  10 -12 58.1806  3.9015   8 
   1  10  12 58.7939  3.9117   1 
  -2 -10 -12 333.101  16.464   7 
  -2  10  12 310.764  18.608   1 
  -2  10  12 306.300  16.746   8 
  -2  10  12 300.187  15.928   4 
   2  10  12 273.621  16.710   8 
   2  10  12 295.857  18.573   1 
  -2  10 -12 291.697  15.670   7 
  -2  10 -12 299.819  17.148   8 
  -3 -10 -12 201.305  10.917   7 
  -3  10  12 195.203  11.821   1 
  -3  10  12 181.478  10.554   8 
  -3  10  12 189.253  10.103   4 
  -3  10 -12 181.496  10.111   7 
   3  10  12 182.904  11.772   1 
  -3  10 -12 187.747  10.987   8 
  -4 -10 -12 5.38214 1.41210   7 
  -4  10  12 5.01590 0.73249   1 
  -4  10  12 4.96787 0.58481   4 
  -5 -10 -12 14.0855  1.9635   7 
  -5  10  12 14.3923  1.0069   4 
  -6 -10 -12 28.6536  2.4775   7 
  -6  10 -12 32.6657  1.9986   7 
   0  11  12 23.7132  1.9427   1 
   0  11 -12 23.4518  1.9814   8 
   0  11  12 22.5475  1.7582   8 
  -1  11  12 217.131  12.580   8 
  -1  11  12 210.494  11.924   4 
  -1  11  12 225.211  13.985   1 
  -1  11 -12 236.872  12.940   8 
   1  11  12 234.872  14.003   1 
   1  11  12 221.330  12.593   8 
  -2  11  12 34.6640  2.3525   1 
  -2 -11 -12 39.5537  2.9724   7 
  -2 -11 -12 28.3526  3.3561   8 
   2  11  12 27.1338  2.2685   1 
  -2  11 -12 26.1622  2.1183   7 
  -2  11 -12 26.8924  2.3249   8 
  -3  11  12 87.4431  5.4218   8 
  -3 -11 -12 95.0008  6.0455   7 
  -3  11  12 94.6547  6.1176   1 
  -3  11  12 93.0324  5.2141   4 
  -3  11 -12 102.849   5.835   8 
   3  11  12 95.2259  6.1239   1 
  -3  11 -12 92.8972  5.3534   7 
  -4  11  12 71.8998  3.8207   4 
  -4 -11 -12 72.5322  4.7781   7 
  -4  11 -12 65.1595  3.9767   7 
  -4  11 -12 64.2893  4.2142   8 
  -5 -11 -12 23.2952  2.2788   7 
  -5  11  12 23.7927  1.4332   4 
   0  12  12 139.613   7.892   8 
   0  12  12 133.068   7.429   4 
   0  12 -12 138.620   8.064   8 
   0  12  12 140.474   8.769   1 
  -1  12  12 101.150   6.477   1 
  -1 -12 -12 103.377   6.051   7 
  -1  12  12 103.280   5.835   8 
  -1  12  12 96.2546  5.4883   4 
   1  12  12 95.3784  5.8059   8 
   1  12  12 99.8202  6.4730   1 
  -1  12 -12 101.731   6.056   8 
  -2  12  12 181.658  10.023   8 
  -2 -12 -12 185.966  10.059   7 
  -2  12  12 183.608   9.545   4 
  -2  12  12 175.558  11.137   1 
  -2 -12 -12 149.211  11.021   8 
  -2  12 -12 195.761  10.334   8 
   2  12  12 182.020  11.160   1 
   2  12  12 161.382   9.967   8 
  -2  12 -12 190.303   9.427   7 
  -3  12  12 113.981   7.118   8 
  -3 -12 -12 118.012   7.415   7 
  -3  12 -12 138.845   7.466   8 
  -3  12 -12 136.818   6.860   7 
  -4  12  12 7.06628 0.58892   4 
  -4 -12 -12 6.35805 1.26945   7 
   0  13 -12 29.8575  2.0223   8 
   0  13  12 27.7746  1.8874   8 
   0  13  12 27.3322  1.7174   4 
  -1  13  12 42.8297  2.3007   4 
  -1  13  12 42.6416  2.4715   8 
  -1 -13 -12 32.8740  3.4725   8 
  -1  13 -12 33.4010  2.5474   8 
  -2  13  12 9.71873 0.86145   8 
  -2 -13 -12 9.61029 1.44119   7 
  -2  13  12 10.7936  0.7954   4 
  -2  13 -12 9.68555 1.02682   8 
  -3 -13 -12 8.50441 1.37517   7 
  -3  13 -12 10.5971  0.9016   7 
   0  14  12 35.4448  2.0970   8 
   0 -14 -12 30.7211  3.0044   8 
   1 -14 -12 59.1418  4.3584   8 
   0   0  13 0.50597 0.43880   6 
   1   0  13 275.359  16.751   6 
  -1   0  13 270.616  16.786   6 
  -2   0 -13 159.174  14.482   3 
  -2   0  13 197.737  11.517   6 
  -3   0 -13 242.747  20.663   3 
  -3   0  13 276.649  15.318   2 
  -3   0 -13 280.395  15.828   8 
  -3   0  13 274.949  16.655   6 
   3   0  13 263.568  15.210   2 
   4   0  13 11.5020  1.0505   2 
  -4   0  13 15.5803  1.6896   6 
  -4   0 -13 9.23573 3.26412   3 
  -4   0 -13 10.6635  2.0980   7 
  -4   0  13 11.6632  1.1236   2 
  -4   0  13 12.9380  0.9992   4 
  -5   0  13 68.2287  5.0261   6 
   5   0  13 67.3248  4.1673   2 
  -5   0 -13 69.6250  5.0963   7 
  -5   0  13 67.9907  4.2340   2 
   6   0  13 37.1005  2.4368   2 
  -6   0 -13 38.7281  3.3338   7 
  -6   0  13 36.6155  2.4759   2 
   7   0  13 0.15884 0.22828   2 
  -7   0  13 0.15578 0.22375   2 
  -7   0 -13 0.01555 0.73402   7 
   8   0  13 29.5816  1.8627   2 
   0   1  13 821.901  48.567   6 
  -1   1  13 235.135  14.664   6 
   1  -1  13 239.823  14.653   6 
   1   1  13 235.347  14.644   6 
  -2   1  13 132.020   7.945   6 
  -2  -1 -13 103.809  10.492   3 
   2   1  13 127.238   7.834   6 
  -2  -1  13 120.107   7.843   6 
  -2   1 -13 102.299  10.340   3 
  -3   1  13 29.5839  2.1643   2 
  -3  -1 -13 28.9943  2.9506   8 
   3  -1  13 26.1196  2.0247   2 
  -3   1  13 31.2629  2.7154   6 
  -3  -1 -13 24.6143  4.6145   3 
  -3   1 -13 33.3017  4.9353   3 
  -3  -1  13 31.9659  2.7067   6 
   3   1  13 35.3909  2.1441   2 
  -3   1 -13 33.3711  2.9709   8 
  -4  -1 -13 31.2126  5.3600   3 
  -4   1  13 41.4337  2.3740   4 
   4  -1  13 37.3367  2.4735   2 
  -4  -1 -13 39.6280  3.7077   7 
  -4   1  13 40.9257  2.6227   2 
  -4   1  13 42.1333  3.2840   6 
  -4  -1  13 35.6470  3.1312   6 
   4   1  13 34.3702  2.4705   2 
  -4   1 -13 34.9668  3.4036   7 
  -4   1 -13 33.5915  5.3086   3 
  -5   1  13 74.1988  3.9859   4 
  -5   1  13 69.2464  4.3215   2 
  -5  -1 -13 70.1973  5.2342   7 
   5  -1  13 71.1636  4.2327   2 
   5   1  13 64.5914  4.2238   2 
  -5   1 -13 65.1960  4.9586   7 
  -6   1  13 36.8687  2.3861   2 
  -6  -1 -13 38.5797  3.3366   7 
   6  -1  13 36.2099  2.3075   2 
  -6   1 -13 25.8294  2.8702   7 
   7  -1  13 22.5039  1.5375   2 
  -7  -1 -13 22.0746  2.1939   7 
  -7   1  13 21.3495  1.5674   2 
  -7   1  13 20.4418  1.6415   1 
  -7   1 -13 23.6275  2.1180   7 
   7   1  13 24.3792  1.5858   2 
   8   1 -13 24.6306  1.5190   4 
   0  -2  13 65.6723  4.6433   6 
   0   2  13 64.6644  4.6211   6 
   1  -2  13 56.9567  3.9688   6 
  -1   2  13 57.6579  3.9781   6 
  -1  -2  13 48.0050  3.8794   6 
   1   2  13 48.9256  3.8499   6 
  -2   2  13 598.045  36.324   6 
  -2  -2  13 612.668  36.298   6 
   2   2  13 647.435  36.271   6 
  -2   2 -13 574.734  42.155   3 
  -3  -2 -13 170.288  10.027   8 
  -3  -2 -13 130.752  13.355   3 
  -3   2  13 167.932  10.325   6 
  -3   2  13 168.943   9.321   2 
  -3  -2 -13 147.295   9.659   7 
   3   2  13 156.067   9.199   2 
  -3  -2  13 161.431  10.246   6 
  -3   2 -13 163.402   9.410   7 
  -3   2 -13 163.457   9.829   8 
  -3   2 -13 149.171  13.439   3 
  -4   2  13 185.215  11.430   6 
  -4  -2 -13 145.677  14.770   3 
  -4   2  13 194.655   9.557   4 
  -4  -2 -13 181.833  10.795   7 
  -4   2  13 184.843  10.318   2 
   4   2  13 165.953  10.173   2 
  -4   2 -13 182.233  10.383   7 
  -4   2 -13 166.589  14.847   3 
  -4  -2  13 174.546  11.336   6 
  -5  -2 -13 71.5473  5.4651   7 
  -5   2  13 77.1332  4.1751   4 
  -5   2  13 75.5928  4.5462   2 
  -5   2  13 73.2092  4.8267   1 
   5   2  13 67.5605  4.4201   2 
  -5   2 -13 70.2081  5.0713   7 
  -6   2  13 47.1306  3.3565   1 
  -6  -2 -13 51.7710  4.0776   7 
  -6   2  13 47.6230  3.1643   2 
   6   2  13 51.8543  3.1448   2 
  -6   2 -13 49.8611  3.7202   7 
  -7   2  13 7.42043 0.74167   2 
  -7  -2 -13 8.51158 1.48092   7 
  -7   2  13 7.68515 0.77344   1 
  -7   2 -13 6.65499 1.18861   7 
   7   2  13 6.91724 0.71314   2 
   8   2 -13 24.7149  1.6516   4 
   8   2  13 30.9223  1.7910   2 
   0  -3  13 4.92066 0.88077   6 
   0   3  13 4.84978 0.90134   6 
  -1   3  13 62.3890  4.6169   6 
   1  -3  13 61.5046  4.6230   6 
   1   3  13 72.1842  4.6977   6 
  -2  -3 -13 163.087  15.250   3 
  -2   3  13 197.288  12.147   6 
  -2  -3  13 191.424  12.090   6 
   2   3  13 196.034  11.064   2 
   2   3  13 210.561  12.123   6 
  -2   3 -13 184.070  15.214   3 
  -2   3 -13 195.395  11.626   8 
  -3  -3 -13 127.983  12.934   3 
  -3   3  13 160.436   8.936   2 
  -3   3  13 152.642   9.834   6 
  -3  -3 -13 164.840   9.765   8 
  -3  -3 -13 150.066   9.398   7 
  -3   3  13 164.864   8.250   4 
  -3  -3  13 152.077   9.814   6 
  -3   3 -13 147.530   8.881   7 
   3   3  13 143.268   8.791   2 
  -3   3 -13 144.268  12.898   3 
  -3   3 -13 151.557   9.376   8 
  -4  -3 -13 47.8773  6.9089   3 
  -4   3  13 62.6281  3.5596   4 
  -4   3  13 58.2601  4.5397   6 
  -4   3  13 63.4973  4.1683   1 
  -4   3  13 62.7606  3.9201   2 
  -4  -3 -13 57.5871  4.9187   7 
  -4  -3  13 62.8620  4.5831   6 
  -4   3 -13 60.2948  7.0420   3 
  -4   3 -13 67.3791  4.5751   7 
   4   3  13 60.2580  3.8129   2 
  -5   3  13 40.3608  2.5075   4 
  -5   3  13 40.8971  2.7754   2 
  -5  -3 -13 39.5201  3.8423   7 
   5   3  13 42.0974  2.7119   2 
  -5   3 -13 42.2294  3.3853   7 
  -6   3  13 151.242   8.868   2 
  -6  -3 -13 148.862   9.171   7 
  -6   3  13 152.817   8.198   4 
  -6   3  13 152.476   9.552   1 
  -6   3 -13 156.771   8.758   7 
   6   3  13 151.755   8.812   2 
  -7   3  13 56.0059  3.3457   2 
  -7  -3 -13 52.8832  3.7941   7 
   7   3 -13 53.7393  3.1255   4 
  -7   3 -13 51.8351  3.4841   7 
   7   3  13 54.1159  3.3115   2 
   0  -4  13 575.729  34.312   6 
   1  -4  13 226.097  14.022   6 
  -1  -4  13 224.506  14.018   6 
  -2   4  13 86.5338  5.4382   8 
  -2  -4 -13 91.2072  6.8471   8 
  -2   4  13 86.9533  5.5949   2 
  -2   4 -13 98.0484  6.2347   8 
   2   4  13 94.2828  5.5702   2 
  -2  -4  13 96.3894  6.3140   6 
   2  -4 -13 91.3533  6.9462   8 
  -2   4 -13 97.7414  8.7818   3 
  -3   4  13 37.4244  2.8584   1 
  -3  -4 -13 33.4052  3.5788   7 
  -3   4  13 38.5339  2.4419   4 
  -3  -4 -13 35.3629  3.5618   8 
  -3   4  13 37.7442  2.7043   2 
  -3   4  13 36.6954  3.1749   6 
  -3  -4  13 44.5996  3.3081   6 
  -3   4 -13 43.6736  3.2866   7 
  -3   4 -13 42.3134  5.3603   3 
   3   4  13 42.5209  2.6757   2 
  -3   4 -13 46.6135  3.4152   8 
  -4   4  13 304.469  18.480   6 
  -4   4  13 304.803  17.081   2 
  -4  -4 -13 289.913  16.831   7 
  -4   4  13 319.202  15.866   4 
  -4   4  13 306.467  18.468   1 
  -4  -4  13 283.851  18.367   6 
   4   4  13 289.095  16.969   2 
  -4   4 -13 295.667  17.204   8 
  -4   4 -13 304.307  16.176   7 
  -4   4 -13 293.177  22.624   3 
  -5  -4 -13 161.529  10.039   7 
  -5   4  13 166.870   8.813   4 
  -5   4  13 165.935  10.277   1 
  -5   4  13 164.899   9.536   2 
   5   4  13 159.857   9.447   2 
  -5   4 -13 159.347   9.330   7 
  -6  -4 -13 16.2693  2.3206   7 
  -6   4  13 16.8364  1.3846   2 
  -6   4  13 17.5041  1.2280   4 
  -6   4  13 18.3917  1.4811   1 
   6   4 -13 16.9885  1.2929   4 
   6   4  13 18.5299  1.3786   2 
  -6   4 -13 17.4632  1.8963   7 
  -7   4  13 11.7567  0.9760   2 
   7   4 -13 11.3300  0.9174   4 
  -7  -4 -13 10.8050  1.6210   7 
   7   4  13 12.1486  0.9645   2 
  -7   4 -13 11.5027  1.3110   7 
   0   5  13 28.5305  2.0554   2 
   0  -5  13 27.4557  2.4485   6 
   0   5 -13 27.3794  2.6392   8 
   0   5  13 30.6785  2.1229   8 
   0  -5 -13 28.4123  3.8006   8 
  -1  -5 -13 557.779  34.657   8 
  -1   5  13 662.608  33.171   8 
  -1   5  13 593.288  33.791   2 
   1  -5  13 613.850  35.977   6 
   1   5 -13 569.376  33.546   8 
   1   5  13 615.271  33.779   2 
  -1  -5  13 590.163  35.900   6 
   1  -5 -13 529.923  34.527   8 
   1   5  13 661.994  33.188   8 
  -1   5 -13 629.783  33.782   8 
  -2   5  13 108.630   6.451   8 
   2  -5  13 109.047   7.316   6 
  -2  -5 -13 109.513   7.975   8 
  -2  -5 -13 92.1449  9.8288   3 
  -2   5  13 108.031   6.637   2 
  -2  -5 -13 105.787   7.073   7 
  -2   5  13 113.772   7.159   1 
   2   5  13 115.359   6.592   2 
  -2  -5  13 117.939   7.416   6 
  -2   5 -13 109.942   6.539   7 
  -2   5 -13 116.130   7.171   8 
   2  -5 -13 105.107   7.917   8 
  -2   5 -13 120.761   9.949   3 
  -3  -5 -13 103.493   7.104   7 
  -3   5  13 99.3234  6.4081   2 
  -3   5  13 106.559   6.930   1 
  -3   5  13 107.747   5.918   4 
  -3   5 -13 107.499   9.789   3 
   3   5  13 111.911   6.396   2 
  -3   5 -13 110.290   6.906   8 
  -3   5 -13 106.842   6.464   7 
  -4   5  13 24.2100  1.9321   2 
  -4   5  13 24.2236  2.0380   1 
  -4  -5 -13 22.7206  2.9935   7 
  -4   5  13 24.7801  1.7268   4 
   4   5  13 28.4580  1.9198   2 
  -4   5 -13 28.6101  2.4626   8 
  -4   5 -13 29.1432  2.5295   7 
  -5  -5 -13 23.5771  2.9265   7 
   5   5 -13 22.1489  1.6608   4 
  -5   5  13 22.6147  1.8078   2 
  -5   5  13 23.2012  1.6123   4 
   5   5  13 28.5795  1.8338   2 
  -5   5 -13 28.9829  2.4227   7 
  -6   5  13 15.8158  1.2578   2 
  -6   5  13 15.6275  1.3090   1 
  -6   5  13 15.1787  1.0899   4 
   6   5 -13 15.5298  1.1709   4 
  -6  -5 -13 17.0674  2.2992   7 
  -6   5 -13 13.4670  1.6056   7 
   6   5  13 14.3722  1.1963   2 
  -7  -5 -13 43.5217  3.1213   7 
  -7   5  13 44.8912  2.6256   2 
  -7   5 -13 36.3081  2.6359   7 
   7   5  13 40.6467  2.5794   2 
   0   6 -13 65.5860  4.6766   8 
   0   6  13 65.7979  4.1881   2 
   0   6  13 69.0176  4.1973   8 
   1  -6  13 141.981   9.818   6 
  -1   6  13 161.478   9.824   1 
  -1  -6 -13 127.831  10.372   8 
  -1   6  13 168.691   8.952   8 
   1   6 -13 142.266   9.264   8 
  -1   6  13 151.297   9.056   2 
   1   6  13 169.430   8.957   8 
   1   6  13 163.353   9.075   2 
  -1   6 -13 158.168   9.490   8 
  -2  -6 -13 2.33701 1.82614   3 
  -2   6  13 2.61067 0.61767   8 
  -2   6  13 3.81968 0.70150   1 
  -2   6  13 2.61932 0.60142   2 
  -2  -6 -13 2.96756 1.25353   7 
   2  -6  13 2.84327 0.78725   6 
  -2  -6 -13 2.77856 1.73391   8 
  -2   6 -13 3.51524 1.00610   7 
  -2   6 -13 3.34493 1.07947   8 
   2   6  13 4.02311 0.62954   2 
   2   6  13 3.66574 0.68195   8 
   2  -6 -13 3.05843 1.67598   8 
  -3   6  13 206.518  12.630   2 
  -3   6  13 205.430  11.699   4 
  -3   6  13 213.153  13.680   1 
  -3  -6 -13 198.971  12.542   7 
  -3   6 -13 234.999  12.038   7 
  -3   6 -13 241.337  13.034   8 
   3   6  13 235.513  12.622   2 
  -4  -6 -13 119.863   8.088   7 
  -4   6  13 125.641   8.050   1 
  -4   6  13 131.587   7.492   2 
  -4   6  13 126.914   6.882   4 
  -4   6 -13 123.123   7.310   7 
   4   6  13 124.601   7.392   2 
  -4   6 -13 124.535   7.730   8 
  -5   6  13 6.16760 0.79708   1 
  -5  -6 -13 6.26036 1.72066   7 
  -5   6  13 5.83123 0.75020   2 
   5   6 -13 6.04175 0.68919   4 
  -5   6  13 7.24176 0.66954   4 
  -5   6 -13 4.39882 1.08137   7 
   5   6  13 5.32021 0.71412   2 
  -6   6  13 19.3594  1.3703   2 
   6   6 -13 17.0296  1.2269   4 
  -6   6  13 16.5910  1.3850   1 
  -6   6  13 17.7346  1.1790   4 
  -6  -6 -13 18.1841  2.3208   7 
   6   6  13 15.9195  1.2856   2 
  -6   6 -13 15.3024  1.6314   7 
  -7  -6 -13 5.28208 1.12276   7 
   7   6 -13 4.88420 0.52359   4 
   7   6  13 5.10156 0.53916   2 
  -7   6 -13 5.51201 0.83976   7 
   0   7  13 241.561  14.945   1 
   0   7  13 247.167  13.572   8 
   0   7 -13 233.401  13.990   8 
   0   7  13 239.104  13.777   2 
  -1   7  13 337.551  20.137   2 
   1   7 -13 327.468  20.085   8 
  -1   7  13 347.532  21.855   1 
  -1   7  13 360.314  19.774   8 
  -1   7 -13 366.933  20.334   8 
   1   7  13 366.681  21.842   1 
   1   7  13 375.067  19.819   8 
   1   7  13 364.409  20.146   2 
  -2   7  13 11.5304  0.9912   4 
  -2  -7 -13 11.7938  2.5310   8 
  -2  -7 -13 12.9761  2.0049   7 
  -2   7  13 10.8831  1.1029   2 
  -2   7  13 11.5226  1.1950   1 
  -2   7  13 11.5142  1.1312   8 
  -2   7 -13 13.0202  1.5295   7 
   2   7  13 9.90778 1.09755   8 
   2   7  13 11.8698  1.1091   2 
  -2   7 -13 11.5706  1.6392   8 
  -3   7  13 53.6076  3.5196   2 
  -3  -7 -13 53.2420  4.3675   7 
  -3   7  13 54.7528  3.8053   1 
  -3   7  13 53.2197  3.2069   4 
  -3   7 -13 57.7569  3.9953   8 
  -3   7 -13 53.3660  3.6938   7 
   3   7  13 54.4937  3.4708   2 
  -4   7  13 225.070  12.008   4 
  -4   7  13 224.288  14.022   1 
  -4  -7 -13 220.785  13.007   7 
  -4   7  13 232.499  12.967   2 
  -4   7 -13 223.305  12.166   7 
  -4   7 -13 226.317  13.058   8 
   4   7  13 224.794  12.878   2 
  -5   7  13 49.6977  2.9019   4 
  -5   7  13 53.4026  3.2163   2 
  -5  -7 -13 51.7727  4.1828   7 
   5   7 -13 48.9465  2.9337   4 
  -5   7  13 50.1622  3.4234   1 
   5   7  13 47.9516  3.1255   2 
  -5   7 -13 46.7217  3.3371   7 
  -6   7  13 63.3023  3.5735   4 
  -6   7  13 67.6119  3.9249   2 
  -6  -7 -13 63.5565  4.5299   7 
   6   7 -13 62.7670  3.6261   4 
   6   7  13 63.8207  3.8532   2 
  -6   7 -13 64.3176  3.9123   7 
   0   8  13 20.5180  1.5214   2 
   0   8  13 16.7756  1.5011   8 
   0   8  13 18.0232  1.6063   1 
   0   8 -13 15.4492  1.8111   8 
  -1   8  13 9.21863 1.05651   8 
  -1   8  13 8.90000 1.08519   1 
  -1   8  13 10.4284  1.0174   2 
   1   8 -13 8.12077 1.27712   8 
   1   8  13 8.95024 1.06510   8 
  -1   8 -13 9.41598 1.48522   8 
   1   8  13 8.11857 1.03292   1 
  -2   8  13 3.01452 0.62907   8 
  -2   8  13 3.31812 0.61744   2 
  -2   8  13 3.08066 0.54175   4 
  -2  -8 -13 2.78026 1.70283   8 
  -2  -8 -13 3.37163 1.21467   7 
  -2   8  13 2.80430 0.64111   1 
  -2   8 -13 3.14866 0.99029   8 
   2   8  13 3.37518 0.60657   2 
   2   8  13 2.34259 0.60809   1 
  -2   8 -13 2.74426 0.84517   7 
   2   8  13 2.34085 0.57923   8 
  -3   8  13 384.758  20.532   4 
  -3  -8 -13 387.244  21.036   7 
  -3   8  13 380.462  22.046   2 
  -3   8  13 385.188  23.945   1 
  -3   8 -13 382.594  20.251   7 
  -3   8 -13 421.018  22.129   8 
   3   8  13 394.858  22.017   2 
  -4   8  13 52.5520  3.3372   2 
  -4  -8 -13 57.7486  4.3856   7 
  -4   8  13 53.0513  3.0649   4 
  -4   8  13 57.3926  3.6627   1 
   4   8  13 49.0115  3.2725   2 
  -4   8 -13 49.4702  3.4704   7 
  -4   8 -13 48.4239  3.5617   8 
  -5   8  13 66.5793  3.7128   4 
  -5   8  13 66.7735  4.3647   1 
  -5  -8 -13 63.9058  4.8040   7 
  -5   8  13 67.2316  4.0437   2 
   5   8  13 65.1285  3.9849   2 
  -5   8 -13 65.6166  4.0730   7 
  -6  -8 -13 8.36914 1.48061   7 
  -6   8  13 9.17921 0.78239   2 
  -6   8  13 8.87794 0.68021   4 
  -6   8 -13 9.18480 1.04985   7 
   0   9  13 11.6658  1.2287   1 
   0   9  13 12.1289  1.2048   8 
   0   9 -13 11.3654  1.4549   8 
   1   9 -13 37.2698  2.7559   8 
  -1   9  13 43.5815  2.5704   8 
  -1   9  13 40.7727  2.8023   1 
   1   9  13 31.9843  2.6769   1 
   1   9  13 33.5226  2.4869   8 
  -1   9 -13 32.7791  2.8066   8 
  -2   9  13 119.030   6.506   4 
  -2   9  13 117.655   6.997   2 
  -2   9  13 119.787   6.864   8 
  -2   9  13 116.082   7.613   1 
  -2  -9 -13 105.065   8.255   8 
  -2  -9 -13 121.524   7.348   7 
  -2   9 -13 121.040   6.687   7 
   2   9  13 119.621   7.611   1 
   2   9  13 113.224   6.846   8 
  -2   9 -13 128.438   7.373   8 
  -3   9  13 91.8249  5.7664   8 
  -3   9  13 97.5401  5.9603   2 
  -3   9  13 99.6799  6.5071   1 
  -3  -9 -13 98.9167  6.5105   7 
  -3   9  13 95.4411  5.5185   4 
   3   9  13 102.648   6.482   1 
  -3   9 -13 109.974   6.320   8 
  -3   9 -13 106.826   5.842   7 
  -4   9  13 7.47387 0.69236   4 
  -4   9  13 7.35280 0.85889   1 
  -4  -9 -13 5.98142 1.57400   7 
  -4   9  13 6.93122 0.74921   2 
  -4   9 -13 7.16871 1.13432   7 
  -4   9 -13 5.87845 1.03805   8 
  -5   9  13 26.4007  1.6704   4 
  -5   9  13 28.1775  1.8340   2 
  -5  -9 -13 26.4706  2.6936   7 
  -5   9 -13 28.5638  2.0502   7 
  -6  -9 -13 43.0993  3.1257   7 
   0  10  13 11.2963  1.1816   1 
   0  10  13 10.7925  1.1213   8 
   0  10 -13 11.4211  1.3645   8 
  -1  10  13 5.23223 0.82723   1 
  -1  10  13 4.31581 0.59559   4 
  -1  10  13 4.58138 0.77705   8 
  -1  10 -13 7.86238 1.16639   8 
  -2  10  13 52.3917  3.6644   1 
  -2 -10 -13 48.7233  3.8776   7 
  -2  10  13 52.9673  3.0925   4 
  -2  10  13 51.7719  3.2794   8 
  -2 -10 -13 42.7222  4.4705   8 
  -2  10 -13 57.4298  3.3775   7 
  -2  10 -13 57.8477  3.7192   8 
   2  10  13 51.3749  3.2723   8 
   2  10  13 55.6078  3.6687   1 
  -3  10  13 89.9778  5.2696   8 
  -3 -10 -13 98.2798  6.0330   7 
  -3  10  13 99.4520  5.9664   1 
  -3  10  13 97.9548  5.0628   4 
   3  10  13 81.9483  5.8692   1 
  -3  10 -13 87.6602  5.6408   8 
  -3  10 -13 84.8918  5.1921   7 
  -4  10  13 129.078   7.923   1 
  -4 -10 -13 129.875   7.682   7 
  -4  10  13 131.811   6.770   4 
  -4  10 -13 117.928   6.830   7 
  -4  10 -13 119.126   7.328   8 
  -5  10  13 38.5661  2.3662   4 
  -5 -10 -13 39.9222  3.2032   7 
  -5  10 -13 48.4074  2.6702   7 
   0  11  13 752.254  40.855   8 
   0  11  13 764.592  45.288   1 
   0  11 -13 726.275  41.040   8 
  -1 -11 -13 50.9760  4.9287   8 
  -1  11  13 60.6604  3.4010   4 
  -1  11  13 63.6142  4.0718   1 
  -1  11  13 62.9843  3.6652   8 
   1  11  13 60.5139  4.0428   1 
  -1  11 -13 58.5373  3.9006   8 
   1  11  13 55.1763  3.6181   8 
  -2  11  13 83.2510  5.4352   1 
  -2 -11 -13 84.2416  5.3597   7 
  -2  11  13 82.2247  4.6086   4 
  -2 -11 -13 75.4211  5.9875   8 
  -2  11  13 85.5159  4.8812   8 
  -2  11 -13 83.4884  4.7043   7 
   2  11  13 75.9411  4.8333   8 
  -2  11 -13 91.1292  5.2267   8 
   2  11  13 86.4531  5.4488   1 
  -3  11  13 57.8022  3.2782   4 
  -3  11  13 58.0015  3.8744   1 
  -3  11  13 54.1375  3.4069   8 
  -3 -11 -13 57.0766  4.1338   7 
  -3  11 -13 65.0644  3.5122   7 
   3 -11 -13 46.9451  4.2732   8 
  -3  11 -13 66.1073  3.8012   8 
  -4  11  13 7.78392 0.61484   4 
  -4 -11 -13 7.25593 1.38359   7 
  -4  11 -13 6.32602 0.84536   8 
   0  12  13 36.4840  2.6403   1 
   0  12 -13 37.1666  2.5159   8 
   0  12  13 37.3286  2.3835   8 
  -1 -12 -13 1.02432 1.24247   8 
  -1  12  13 0.33274 0.34610   8 
   1  12  13 1.27791 0.39625   8 
  -1  12 -13 1.26774 0.53219   8 
  -2  12  13 201.162  10.535   4 
  -2 -12 -13 195.349  10.900   7 
  -2  12  13 193.555  11.068   8 
  -2 -12 -13 195.099  11.993   8 
  -2  12 -13 201.677  10.293   7 
  -2  12 -13 208.771  11.330   8 
  -3  12  13 29.6018  1.7143   4 
  -3 -12 -13 28.9947  2.4757   7 
  -3  12 -13 27.8122  1.8468   7 
   0  13  13 23.9382  1.5691   8 
   0 -13 -13 23.0079  2.5968   8 
  -1 -13 -13 40.6594  3.4142   8 
   1  13  13 43.5077  2.4986   8 
   1 -13 -13 37.3941  3.4187   8 
   0   0  14 276.818  17.027   6 
  -1   0 -14 202.712  12.273   8 
   1   0  14 204.928  12.656   6 
  -1   0  14 195.507  12.621   6 
   2   0  14 1263.48   71.95   2 
  -2   0  14 1255.85   72.00   2 
  -2   0  14 1271.87   76.27   6 
  -2   0 -14 1374.63   71.55   8 
   2   0  14 1322.49   76.23   6 
   3   0  14 6.84454 0.77615   2 
  -3   0 -14 6.72201 1.54828   8 
  -3   0 -14 7.24244 1.73485   7 
  -3   0 -14 6.07625 2.73254   3 
  -3   0  14 7.11801 0.83627   2 
  -3   0  14 8.06229 1.20047   6 
  -4   0  14 0.68797 0.35224   2 
  -4   0  14 0.64138 0.54660   6 
   4   0  14 0.68957 0.31900   2 
  -4   0 -14 0.96480 1.13806   7 
  -5   0  14 22.3397  1.6590   2 
  -5   0 -14 23.8211  2.6727   7 
   5   0  14 21.8792  1.6152   2 
  -6   0 -14 68.0021  4.5804   7 
  -6   0  14 63.7456  3.9733   2 
   6   0  14 64.9007  3.9565   2 
   7   0  14 37.9949  2.3486   2 
  -7   0 -14 36.4333  2.7039   7 
   0  -1  14 24.5387  2.2196   6 
   0  -1 -14 24.2162  2.8552   8 
   0   1  14 22.2858  2.1585   6 
   1   1 -14 289.221  17.208   8 
  -1   1  14 284.892  18.127   6 
   1  -1  14 299.052  18.195   6 
  -1  -1 -14 309.903  17.558   8 
   1   1  14 300.321  18.168   6 
  -1   1 -14 294.042  17.329   8 
   1  -1 -14 309.854  17.479   8 
   1   1  14 285.426  16.772   2 
  -1  -1  14 296.299  18.191   6 
  -2   1  14 311.520  18.434   2 
  -2   1  14 312.910  19.903   6 
  -2  -1 -14 323.166  19.016   8 
   2  -1  14 311.486  19.809   6 
  -2  -1  14 330.140  19.917   6 
   2   1  14 345.602  19.907   6 
   2   1  14 331.094  18.401   2 
  -2   1 -14 339.247  18.970   8 
  -3   1  14 29.9115  2.6211   6 
  -3  -1 -14 28.5491  3.1278   7 
  -3  -1 -14 25.4241  4.6260   3 
  -3  -1 -14 31.6415  2.9501   8 
  -3   1  14 30.7026  2.0967   2 
  -3   1 -14 29.7506  2.9538   7 
  -3   1 -14 24.7681  4.4878   3 
  -3  -1  14 26.2139  2.5170   6 
  -3   1 -14 27.3527  2.8215   8 
   3   1  14 27.6241  1.9909   2 
  -4  -1 -14 107.921   6.900   7 
  -4   1  14 109.722   7.026   6 
  -4   1  14 113.970   5.633   4 
   4  -1  14 105.163   5.998   2 
  -4   1  14 109.920   6.127   2 
   4   1  14 85.9755  5.9536   2 
  -4  -1  14 86.1434  6.7937   6 
  -4   1 -14 89.8414  6.4831   7 
  -5  -1 -14 23.5104  2.6940   7 
   5  -1  14 21.4989  1.5255   2 
  -5   1  14 21.3577  1.5876   2 
  -5   1 -14 17.4674  2.2922   7 
   5   1  14 19.5630  1.5220   2 
   6  -1  14 25.9800  1.8256   2 
  -6  -1 -14 26.9299  2.6830   7 
  -6   1  14 27.1615  1.8859   2 
  -6   1 -14 26.4112  2.5059   7 
   6   1  14 28.8380  1.8814   2 
   7  -1  14 4.42424 0.49648   2 
  -7   1  14 4.34130 0.51687   2 
  -7  -1 -14 3.59573 0.97057   7 
   7   1  14 4.65064 0.52547   2 
  -7   1 -14 5.23408 0.98817   7 
   0  -2  14 52.6112  3.8991   6 
   0   2  14 50.2137  3.2830   2 
   0   2  14 48.6204  3.8419   6 
   0  -2 -14 59.1510  4.6335   8 
   0   2 -14 49.6881  3.9896   8 
   1   2 -14 3.28522 1.16515   8 
  -1  -2 -14 3.15593 1.53103   8 
  -1   2  14 3.01111 0.81497   6 
  -1  -2  14 2.05909 0.70696   6 
  -1   2 -14 1.25965 1.05657   8 
   1   2  14 1.61377 0.63715   6 
   1   2  14 1.51919 0.43616   2 
   1  -2 -14 1.75995 1.36944   8 
   2  -2  14 19.5063  1.9858   6 
  -2   2  14 20.5227  2.0771   6 
  -2  -2 -14 22.0771  2.7253   8 
  -2   2  14 20.5201  1.6421   2 
   2   2  14 21.2937  2.0546   6 
  -2   2 -14 23.0371  2.5470   8 
  -2  -2  14 21.1691  2.0662   6 
   2  -2 -14 22.4245  2.7449   8 
   2   2  14 20.7541  1.5857   2 
  -3   2  14 449.178  25.223   2 
  -3  -2 -14 449.222  25.560   8 
  -3  -2 -14 433.855  23.986   7 
  -3   2  14 436.106  27.022   6 
  -3   2 -14 463.889  25.460   8 
  -3   2 -14 459.521  23.633   7 
  -3  -2  14 447.174  27.042   6 
   3   2  14 445.056  25.150   2 
   3   2  14 445.490  26.895   6 
  -4  -2 -14 15.7359  2.5440   7 
  -4   2  14 17.1885  1.2337   4 
  -4   2  14 16.3222  1.8477   6 
  -4   2  14 16.4458  1.4048   2 
  -4  -2  14 17.7697  1.8820   6 
  -4   2 -14 18.6172  2.2486   7 
   4   2  14 15.5351  1.3176   2 
  -5   2  14 98.0975  5.4095   4 
  -5   2  14 97.1690  5.8800   2 
  -5  -2 -14 98.6550  6.6057   7 
  -5   2 -14 101.196   6.255   7 
   5   2  14 96.0599  5.8305   2 
  -6  -2 -14 82.8169  5.3479   7 
  -6   2  14 84.3519  4.7436   2 
   6   2  14 72.9024  4.6673   2 
  -6   2 -14 72.8833  4.9317   7 
  -7   2  14 57.1547  3.5826   2 
  -7  -2 -14 57.7444  3.8587   7 
   7   2  14 63.6520  3.6052   2 
  -7   2 -14 59.7644  3.7203   7 
   0   3 -14 76.1428  5.4144   8 
   0   3  14 78.8986  5.4814   6 
   0  -3 -14 83.4726  6.1911   8 
   0   3  14 78.6884  4.8091   2 
   0  -3  14 76.6476  5.4633   6 
  -1   3  14 431.886  26.999   6 
   1   3 -14 434.215  25.380   8 
  -1  -3 -14 486.325  26.233   8 
   1  -3  14 463.934  27.125   6 
  -1   3  14 455.787  25.317   2 
  -1   3 -14 443.836  25.535   8 
   1   3  14 437.076  25.269   2 
   1  -3 -14 464.105  26.125   8 
  -1  -3  14 437.600  27.056   6 
   1   3  14 445.887  27.005   6 
   2  -3  14 100.393   6.912   6 
  -2   3  14 101.342   6.209   2 
  -2  -3 -14 107.432   7.250   8 
  -2   3  14 93.4137  6.8697   6 
  -2  -3  14 106.935   6.996   6 
   2   3  14 102.068   6.143   2 
  -2   3 -14 106.314   6.851   8 
   2  -3 -14 109.943   7.276   8 
  -3  -3 -14 137.731   8.132   8 
  -3   3  14 129.300   8.161   6 
  -3  -3 -14 97.4834 10.8780   3 
  -3   3  14 136.833   7.324   2 
  -3  -3 -14 129.655   8.031   7 
  -3   3 -14 121.782   7.763   8 
  -3   3 -14 119.572   7.342   7 
  -3  -3  14 110.271   7.998   6 
  -3   3 -14 111.287  10.758   3 
   3   3  14 117.031   7.175   2 
  -4  -3 -14 112.547   7.363   7 
  -4   3  14 112.667   6.559   2 
  -4   3  14 117.050   6.022   4 
  -4   3 -14 107.874   6.742   7 
  -4   3 -14 103.104   6.865   8 
   4   3  14 100.926   6.432   2 
  -5  -3 -14 4.70227 1.52724   7 
  -5   3  14 4.27014 0.53011   4 
  -5   3  14 4.38563 0.63956   2 
  -5   3 -14 3.67793 1.15568   7 
   5   3  14 3.48533 0.57142   2 
  -6   3  14 6.43070 0.70816   2 
  -6  -3 -14 7.46042 1.56387   7 
  -6   3  14 6.43326 0.71170   1 
   6   3  14 5.65486 0.66636   2 
  -6   3 -14 5.26978 1.15572   7 
  -7  -3 -14 3.70084 0.96590   7 
   7   3 -14 4.11773 0.49786   4 
  -7   3  14 4.17186 0.51045   2 
  -7   3 -14 5.14871 0.89940   7 
   7   3  14 4.78780 0.53174   2 
   0  -4  14 30.0648  2.6198   6 
   0  -4 -14 32.2421  3.7589   8 
   0   4  14 30.5966  2.1708   2 
   0   4 -14 31.3449  2.8917   8 
   1   4 -14 351.339  21.256   8 
   1  -4  14 365.208  22.720   6 
  -1  -4 -14 373.662  22.215   8 
  -1   4  14 363.001  21.187   2 
   1   4  14 385.281  21.192   2 
  -1   4 -14 385.991  21.493   8 
  -1  -4  14 373.915  22.709   6 
   1  -4 -14 403.861  22.366   8 
   2  -4  14 14.9417  1.6351   6 
  -2   4  14 13.8590  1.2738   2 
  -2  -4 -14 15.1429  2.5206   8 
  -2   4 -14 14.7422  1.9556   8 
  -2  -4  14 13.5842  1.5859   6 
   2   4  14 12.7513  1.1912   2 
   2  -4 -14 14.5445  2.5004   8 
  -3   4  14 62.8400  3.5708   4 
  -3  -4 -14 57.5651  4.8344   7 
  -3  -4 -14 61.4382  4.7712   8 
  -3   4  14 62.2659  3.9550   2 
  -3  -4  14 58.7227  4.4994   6 
  -3   4 -14 65.5372  4.3016   7 
  -3   4 -14 65.0815  4.5109   8 
   3   4  14 60.3153  3.8735   2 
  -4  -4 -14 6.30855 1.75270   7 
  -4   4  14 6.19270 0.65767   4 
  -4   4  14 6.03531 0.80069   2 
  -4   4  14 7.90748 0.85775   1 
   4   4  14 5.18295 0.72558   2 
  -4   4 -14 4.87732 1.22992   7 
  -4   4 -14 5.28297 1.18967   8 
  -5  -4 -14 17.3387  2.4539   7 
  -5   4  14 16.5889  1.1574   4 
  -5   4  14 17.7272  1.3492   2 
   5   4 -14 15.6955  1.1946   4 
  -5   4  14 16.5689  1.3587   1 
   5   4  14 12.6832  1.2132   2 
  -5   4 -14 13.5755  1.7719   7 
  -6   4  14 63.7459  3.9206   2 
  -6  -4 -14 67.5014  4.6166   7 
  -6   4  14 63.4890  4.1788   1 
   6   4 -14 62.8593  3.6465   4 
   6   4  14 66.0644  3.9093   2 
  -6   4 -14 60.9895  4.0677   7 
  -7  -4 -14 104.573   6.161   7 
   7   4 -14 107.286   5.772   4 
   7   4  14 111.639   6.191   2 
  -7   4 -14 103.763   5.884   7 
   0  -5 -14 208.901  13.636   8 
   0   5  14 208.276  12.217   2 
   0   5  14 220.776  12.033   8 
   0   5 -14 221.524  12.626   8 
   0  -5  14 201.621  13.218   6 
  -1   5  14 80.1547  4.4232   8 
   1  -5  14 73.6079  5.0718   6 
  -1   5  14 75.0440  4.4800   2 
   1   5 -14 74.1437  4.9079   8 
  -1  -5 -14 74.4172  5.9834   8 
  -1  -5  14 64.8917  4.9608   6 
   1   5  14 65.3699  4.3939   2 
  -1   5 -14 67.4918  4.9442   8 
   1  -5 -14 62.7992  5.7993   8 
  -2   5  14 15.8454  1.3793   2 
   2  -5  14 15.6051  1.6993   6 
  -2   5 -14 15.5517  1.9876   8 
   2   5  14 15.6624  1.3245   2 
  -2  -5  14 14.2193  1.6382   6 
   2  -5 -14 15.5960  2.6948   8 
  -3  -5 -14 124.611   8.183   7 
  -3   5  14 127.672   7.638   2 
   3  -5  14 124.953   8.384   6 
  -3   5  14 129.306   8.206   1 
  -3  -5 -14 135.812   8.495   8 
  -3   5  14 129.316   7.014   4 
  -3   5 -14 125.445   7.454   7 
   3   5  14 128.224   7.569   2 
  -3   5 -14 131.627   8.073   8 
  -4  -5 -14 202.377  12.320   7 
  -4   5  14 214.323  11.251   4 
  -4   5  14 208.880  13.112   1 
  -4   5  14 215.950  12.181   2 
  -4   5 -14 206.941  12.330   8 
  -4   5 -14 207.518  11.564   7 
   4   5  14 218.618  12.120   2 
  -5   5  14 27.2256  1.9344   1 
  -5  -5 -14 28.5187  2.9616   7 
  -5   5  14 25.6581  1.8308   2 
  -5   5  14 25.9884  1.6242   4 
  -5   5 -14 21.1133  2.1534   7 
   5   5  14 22.1219  1.7494   2 
  -6   5  14 13.8075  1.0932   2 
  -6  -5 -14 13.4697  1.9374   7 
   6   5 -14 12.4742  0.9777   4 
  -6   5  14 13.3115  0.9330   4 
   6   5  14 12.8574  1.0534   2 
  -6   5 -14 12.9593  1.4419   7 
  -7   5  14 0.92479 0.26860   2 
  -7  -5 -14 0.43837 0.63892   7 
  -7   5 -14 0.99960 0.49061   7 
   7   5  14 1.08184 0.27754   2 
   0  -6 -14 290.954  19.136   8 
   0   6  14 322.393  17.584   8 
   0   6 -14 318.368  18.106   8 
   0   6  14 325.792  17.930   2 
  -1  -6 -14 370.273  22.539   8 
  -1   6  14 410.813  20.953   8 
  -1   6  14 388.772  21.375   2 
   1   6 -14 365.320  21.328   8 
   1   6  14 387.332  21.346   2 
   1   6  14 378.375  20.939   8 
  -1   6 -14 375.419  21.498   8 
   1  -6 -14 336.796  22.363   8 
  -2   6  14 28.8795  2.1224   2 
  -2  -6 -14 28.7646  3.3979   8 
  -2  -6 -14 29.9373  3.0596   7 
  -2   6  14 30.3772  2.0486   8 
  -2   6  14 29.0795  2.2354   1 
   2  -6  14 27.9723  2.5007   6 
  -2   6 -14 29.5744  2.6467   8 
   2  -6 -14 24.0188  3.3219   8 
   2   6  14 28.4347  2.0762   2 
  -3   6  14 91.8348  5.2798   4 
  -3  -6 -14 90.2839  6.4452   7 
  -3   6  14 89.6911  6.1822   1 
  -3   6  14 94.3546  5.7849   2 
  -3  -6 -14 92.0294  6.6007   8 
  -3   6 -14 98.0326  5.7636   7 
   3   6  14 102.214   5.763   2 
  -3   6 -14 103.076   6.261   8 
  -4   6  14 59.3003  4.1107   1 
  -4   6  14 63.5668  3.8873   2 
  -4   6  14 60.4691  3.4980   4 
  -4  -6 -14 55.3375  4.6941   7 
   4   6  14 61.9773  3.8093   2 
  -4   6 -14 62.9048  4.0505   7 
  -4   6 -14 61.5816  4.1827   8 
  -5   6  14 18.1721  1.2543   4 
  -5  -6 -14 19.0063  2.4839   7 
  -5   6  14 17.7173  1.4894   1 
  -5   6  14 18.8819  1.4401   2 
   5   6  14 19.4477  1.4192   2 
  -5   6 -14 17.9535  1.7973   7 
   6   6 -14 15.1361  1.0948   4 
  -6   6  14 14.7958  1.0437   4 
  -6   6  14 15.7608  1.2088   2 
  -6  -6 -14 14.0179  1.9156   7 
  -6   6 -14 17.0998  1.5098   7 
   6   6  14 18.1433  1.2125   2 
   0   7 -14 8.77214 1.47262   8 
   0   7  14 9.19813 1.02751   8 
   0   7  14 8.92892 0.97718   2 
   0  -7 -14 9.88039 2.43861   8 
  -1  -7 -14 12.0424  2.5919   8 
  -1   7  14 11.3428  1.1494   2 
  -1   7  14 10.6898  1.1876   1 
  -1   7  14 11.3726  1.1545   8 
   1   7 -14 10.8218  1.4884   8 
   1   7  14 15.0054  1.2570   8 
   1  -7 -14 15.0424  2.8039   8 
  -1   7 -14 16.5036  1.7949   8 
  -2   7  14 46.8142  3.0169   8 
  -2   7  14 48.3609  3.3624   1 
  -2  -7 -14 44.5041  3.8413   7 
  -2   7  14 52.4450  3.1883   2 
  -2  -7 -14 50.1718  4.5220   8 
  -2   7 -14 46.0055  3.5774   8 
   2  -7 -14 36.5856  4.2215   8 
   2   7  14 49.1995  3.1189   2 
  -3   7  14 453.066  24.615   4 
  -3   7  14 465.056  26.481   2 
  -3  -7 -14 443.939  24.991   7 
  -3   7  14 457.157  28.693   1 
  -3   7 -14 504.201  26.483   8 
  -3   7 -14 480.077  24.237   7 
   3   7  14 492.377  26.463   2 
  -4   7  14 49.6341  3.1070   2 
  -4   7  14 47.8615  3.3067   1 
  -4   7  14 47.5535  2.7959   4 
  -4  -7 -14 45.2137  3.9823   7 
   4   7  14 48.6131  3.0553   2 
  -4   7 -14 46.5715  3.3571   8 
  -4   7 -14 46.4119  3.2493   7 
  -5   7  14 318.604  16.942   2 
  -5   7  14 293.865  18.303   1 
  -5   7  14 293.970  15.706   4 
  -5  -7 -14 294.222  16.354   7 
   5   7  14 297.072  16.869   2 
  -5   7 -14 298.572  15.609   7 
  -6   7  14 22.4552  1.4010   4 
  -6   7  14 24.3885  1.5893   2 
  -6   7 -14 22.7196  1.7308   7 
   6   7  14 23.3810  1.5552   2 
   0   8  14 33.8256  2.3474   8 
   0   8  14 34.3327  2.3567   2 
   0   8  14 34.8634  2.5495   1 
   0   8 -14 33.7724  2.7174   8 
   0  -8 -14 29.7221  3.8647   8 
  -1  -8 -14 57.7898  5.5694   8 
  -1   8  14 67.0609  4.1309   8 
  -1   8  14 64.4724  4.5261   1 
  -1   8  14 65.7533  4.2182   2 
   1   8 -14 59.4398  4.3591   8 
   1   8  14 72.3737  4.1753   8 
  -1   8 -14 74.0732  4.6553   8 
   1  -8 -14 60.5863  5.5910   8 
   1   8  14 75.0128  4.2400   2 
   1   8  14 70.1927  4.5472   1 
  -2  -8 -14 16.1647  2.2239   7 
  -2  -8 -14 15.3185  2.6196   8 
  -2   8  14 14.3497  1.3708   1 
  -2   8  14 13.9487  1.2411   8 
  -2   8  14 14.7369  1.1232   4 
  -2   8  14 14.3941  1.2844   2 
   2   8  14 16.7793  1.2896   2 
   2  -8 -14 13.0373  2.4447   8 
  -2   8 -14 17.9532  1.8128   8 
  -3   8  14 10.3737  0.9964   2 
  -3  -8 -14 10.3086  1.9110   7 
  -3   8  14 10.1977  1.0515   1 
  -3   8  14 10.7953  0.8584   4 
  -3   8 -14 9.34331 1.29817   7 
  -3   8 -14 8.90132 1.37165   8 
   3   8  14 8.22267 0.90683   2 
  -4   8  14 11.9437  1.0877   2 
  -4   8  14 11.9655  0.9533   4 
  -4  -8 -14 13.4788  2.1558   7 
  -4   8  14 12.3098  1.1644   1 
  -4   8 -14 13.6704  1.4279   8 
   4   8  14 14.3624  1.1046   2 
  -4   8 -14 13.3429  1.4328   7 
  -5  -8 -14 36.4677  3.1401   7 
  -5   8  14 38.3170  2.1293   4 
  -5   8  14 38.3699  2.3465   2 
  -5   8 -14 34.1753  2.4445   7 
   5   8  14 33.7212  2.2867   2 
  -6   8 -14 46.8407  2.7904   7 
   0   9 -14 120.192   7.079   8 
   0  -9 -14 99.3800  8.1221   8 
   0   9  14 117.437   7.449   1 
   0   9  14 120.603   6.871   2 
   0   9  14 116.975   6.744   8 
  -1   9  14 51.8649  3.1794   2 
  -1   9  14 51.8082  3.1356   8 
  -1  -9 -14 51.7179  4.7213   8 
  -1   9  14 52.6324  3.4605   1 
   1   9  14 47.9253  3.4027   1 
   1   9  14 46.3567  3.0970   8 
   1  -9 -14 38.8159  4.3824   8 
  -1   9 -14 47.5264  3.4651   8 
  -2   9  14 29.5640  2.2263   1 
  -2   9  14 28.3066  1.8256   4 
  -2  -9 -14 27.8964  2.7526   7 
  -2   9  14 27.8965  2.0162   2 
  -2  -9 -14 28.9430  3.2746   8 
  -2   9  14 27.8895  1.9738   8 
  -2   9 -14 36.1045  2.5214   8 
   2  -9 -14 27.1926  3.2732   8 
  -3   9  14 28.4098  1.9820   2 
  -3  -9 -14 25.2884  2.7767   7 
  -3   9  14 26.3901  1.7764   4 
  -3   9  14 28.9055  2.1632   1 
  -3   9 -14 34.6130  2.4228   8 
   3  -9 -14 25.6674  2.8771   8 
  -3   9 -14 32.5240  2.2198   7 
  -4  -9 -14 121.313   7.616   7 
  -4   9  14 125.781   7.906   1 
  -4   9  14 133.028   6.769   4 
  -4   9  14 128.688   7.282   2 
  -4   9 -14 124.430   6.882   7 
  -4   9 -14 119.736   7.363   8 
  -5   9  14 41.5397  2.5317   2 
  -5  -9 -14 39.1909  3.1430   7 
  -5   9  14 39.4374  2.3215   4 
  -5   9 -14 44.4657  2.6112   7 
   0 -10 -14 103.013   8.142   8 
   0  10  14 117.359   6.832   8 
   0  10 -14 121.391   7.109   8 
   0  10  14 127.995   7.601   1 
  -1 -10 -14 29.5990  3.1955   8 
   1  10  14 21.0103  1.6968   1 
   1  10  14 19.9317  1.5504   8 
  -1  10 -14 22.0712  1.8792   8 
   1 -10 -14 15.4088  2.7533   8 
  -2 -10 -14 24.9356  2.4851   7 
  -2  10  14 27.7650  1.7658   8 
  -2  10  14 27.0309  1.9764   1 
  -2  10  14 26.7974  1.6186   4 
  -2 -10 -14 24.0784  2.8407   8 
  -2  10 -14 25.7741  2.0961   8 
   2  10  14 23.3386  1.9103   1 
   2 -10 -14 19.6705  2.7817   8 
  -3  10  14 84.3600  5.3401   1 
  -3 -10 -14 80.3982  5.3796   7 
  -3  10  14 83.8632  4.5274   4 
  -3  10 -14 90.3027  5.1363   8 
   3 -10 -14 69.8668  5.5237   8 
  -3  10 -14 83.8794  4.6832   7 
  -4  10  14 15.6112  1.0093   4 
  -4 -10 -14 15.1446  1.9192   7 
  -4  10 -14 15.1577  1.3149   8 
  -4  10 -14 14.3376  1.2752   7 
   0 -11 -14 1.17094 1.34063   8 
   0  11  14 1.70318 0.45363   8 
   0  11 -14 2.21156 0.60683   8 
   0  11  14 1.84716 0.47769   1 
  -1  11  14 47.1109  3.0966   1 
  -1 -11 -14 44.4956  3.9800   8 
  -1  11  14 46.9811  2.7842   8 
   1 -11 -14 37.6254  3.8517   8 
  -1  11 -14 47.5175  3.0332   8 
   1  11  14 41.7406  2.7560   8 
  -2 -11 -14 63.8819  4.3762   7 
  -2  11  14 63.8169  3.8940   8 
  -2 -11 -14 72.6784  4.9232   8 
  -2  11  14 65.6664  3.6819   4 
   2 -11 -14 63.2028  4.8980   8 
  -2  11 -14 72.2924  4.2144   8 
  -3 -11 -14 43.4494  3.3115   7 
  -3  11  14 45.3914  2.5574   4 
   3 -11 -14 41.4244  3.3611   8 
  -3  11 -14 46.0495  2.7037   7 
  -3  11 -14 49.1734  2.9779   8 
   0  12 -14 234.017  12.335   8 
   0 -12 -14 212.452  13.188   8 
   0  12  14 213.501  12.184   8 
  -1 -12 -14 170.312  10.086   8 
   1 -12 -14 146.365   9.990   8 
  -1  12 -14 173.248   9.319   8 
   2 -12 -14 7.98834 1.43363   8 
  -2  12 -14 8.60641 0.90542   8 
   0   0 -15 1.05157 1.13253   8 
  -1   0 -15 206.067  11.924   8 
  -1   0  15 187.743  12.186   6 
   1   0  15 195.542  12.201   6 
  -1   0  15 185.577  11.087   2 
   1   0 -15 198.181  11.753   8 
   1   0  15 187.751  11.081   2 
  -2   0  15 74.8288  4.5841   2 
  -2   0 -15 75.4510  5.4509   8 
   2   0  15 73.4776  4.5347   2 
   2   0  15 76.3342  5.3196   6 
  -2   0  15 72.7111  5.3183   6 
  -3   0 -15 -0.1525  0.9001   8 
  -3   0  15 0.32273 0.29582   2 
  -3   0  15 0.82803 0.53610   6 
  -3   0 -15 0.57574 1.00220   7 
   3   0  15 1.74696 0.42655   2 
  -4   0 -15 166.435   9.782   7 
   4   0  15 165.318   9.565   2 
   5   0  15 64.3979  4.0166   2 
  -5   0 -15 68.8163  4.6953   7 
   6   0  15 70.8678  4.2861   2 
  -6   0 -15 73.4097  4.6629   7 
  -7   0 -15 104.368   5.843   7 
   0   1 -15 102.769   6.808   8 
   0  -1 -15 110.436   7.053   8 
   0   1  15 97.6285  6.0344   2 
   0   1  15 101.209   6.878   6 
   0  -1  15 97.3340  6.8195   6 
   1  -1  15 85.7721  6.1493   6 
  -1  -1 -15 86.8507  6.3346   8 
   1   1 -15 84.9882  6.0412   8 
  -1   1  15 84.1108  6.1358   6 
  -1   1  15 83.9408  5.4080   2 
   1  -1 -15 101.202   6.414   8 
  -1   1 -15 96.3982  6.2903   8 
  -1  -1  15 89.5626  6.1868   6 
   1   1  15 95.9953  5.4559   2 
   1   1  15 93.5289  6.1941   6 
   2  -1  15 341.379  21.072   6 
  -2   1  15 334.359  21.083   6 
  -2  -1 -15 356.573  20.144   8 
  -2   1  15 338.169  19.558   2 
   2   1  15 350.476  21.068   6 
   2   1  15 344.205  19.508   2 
  -2  -1  15 343.895  21.122   6 
  -2   1 -15 357.399  20.054   8 
  -3   1  15 107.714   6.063   2 
  -3  -1 -15 111.570   6.840   8 
  -3   1  15 106.228   6.905   6 
   3  -1  15 108.786   6.845   6 
  -3  -1 -15 110.436   6.711   7 
  -3   1 -15 97.3481  6.6400   8 
  -3  -1  15 87.8518  6.7374   6 
   3   1  15 91.7018  5.9471   2 
   3   1  15 94.1568  6.7127   6 
  -3   1 -15 91.8379  6.3052   7 
  -4  -1 -15 12.0389  2.0731   7 
   4  -1  15 11.3757  1.0301   2 
  -4   1  15 11.2726  1.0808   2 
   4   1  15 13.5996  1.1038   2 
  -4   1 -15 14.2742  2.0230   7 
  -5   1  15 46.5487  3.0230   2 
  -5  -1 -15 48.8451  3.8325   7 
   5  -1  15 47.8133  2.9871   2 
   5   1  15 46.7109  3.0072   2 
  -5   1 -15 48.9387  3.6771   7 
   6  -1  15 94.3776  5.4663   2 
  -6  -1 -15 100.309   5.841   7 
  -6   1  15 95.7173  5.5049   2 
  -6   1 -15 90.5107  5.6224   7 
   6   1  15 88.0482  5.4771   2 
   7   1 -15 86.5712  4.8599   4 
  -7  -1 -15 90.4929  5.1530   7 
   7   1  15 92.5067  5.2007   2 
   0   2 -15 51.9835  4.1259   8 
   0  -2  15 51.1621  4.0023   6 
   0  -2 -15 60.8410  4.6215   8 
   0   2  15 52.6292  3.4140   2 
   1   2 -15 48.7790  3.7668   8 
  -1   2  15 49.6947  3.0984   2 
   1  -2  15 49.9754  3.6977   6 
  -1  -2 -15 55.9263  4.3185   8 
  -1   2  15 47.5740  3.6408   6 
   1   2  15 41.7083  3.0168   2 
  -1   2 -15 43.2415  3.7691   8 
   1  -2 -15 46.4779  4.0355   8 
   1   2  15 43.2287  3.5631   6 
   2  -2  15 45.9930  4.0771   6 
  -2   2  15 48.0366  3.5607   2 
  -2  -2 -15 47.7865  4.3870   8 
   2   2  15 63.3913  4.2718   6 
  -2   2 -15 63.9357  4.4796   8 
  -2  -2  15 60.5263  4.3169   6 
   2   2  15 60.7848  3.6041   2 
   2  -2 -15 65.5925  4.5250   8 
  -3  -2 -15 50.6122  3.8492   8 
  -3   2  15 49.6312  2.9940   2 
  -3   2  15 46.4436  3.5714   6 
   3  -2  15 45.5480  3.4847   6 
  -3  -2 -15 48.6205  3.9520   7 
  -3   2 -15 40.4041  3.4173   7 
  -3  -2  15 37.9121  3.4037   6 
   3   2  15 40.2119  2.8551   2 
  -3   2 -15 41.8588  3.5488   8 
  -4  -2 -15 17.1684  2.4491   7 
  -4   2  15 17.0031  1.2816   4 
  -4   2  15 17.0830  1.4759   2 
  -4   2 -15 24.0193  2.3607   7 
  -4   2 -15 21.5165  2.1053   8 
   4   2  15 21.5578  1.5127   2 
  -5  -2 -15 21.8099  2.4868   7 
  -5   2  15 21.1365  1.4795   2 
   5   2  15 16.7641  1.3972   2 
  -5   2 -15 17.4215  2.0422   7 
  -6   2  15 22.0356  1.5828   2 
  -6  -2 -15 23.8904  2.2889   7 
   6   2  15 22.4776  1.5850   2 
  -6   2 -15 24.0785  2.0836   7 
  -7  -2 -15 41.9873  2.8137   7 
   7   2  15 43.1260  2.5975   2 
   0   3  15 114.426   7.841   6 
   0  -3 -15 131.574   8.307   8 
   0  -3  15 117.077   7.909   6 
   0   3  15 118.072   7.097   2 
   0   3 -15 120.628   7.684   8 
   1   3 -15 548.390  31.048   8 
  -1   3  15 531.011  33.122   6 
  -1  -3 -15 592.874  31.722   8 
   1  -3  15 542.456  33.136   6 
  -1   3  15 543.436  31.067   2 
  -1  -3  15 537.099  33.124   6 
  -1   3 -15 559.360  31.219   8 
   1  -3 -15 592.444  31.673   8 
   1   3  15 545.007  31.052   2 
  -2   3  15 191.442  12.181   6 
  -2  -3 -15 211.008  12.055   8 
   2  -3  15 188.860  12.176   6 
  -2   3  15 201.868  11.183   2 
  -2   3 -15 192.933  11.649   8 
  -2  -3  15 179.968  12.135   6 
   2  -3 -15 193.393  11.829   8 
   2   3  15 182.798  11.077   2 
  -3   3  15 44.5317  2.9715   2 
  -3  -3 -15 46.5845  3.7860   8 
  -3  -3 -15 42.4732  3.8669   7 
  -3   3 -15 47.1357  3.6073   8 
   3   3  15 42.5440  2.8949   2 
  -3   3 -15 45.4622  3.4043   7 
  -4   3  15 60.1096  3.5624   4 
  -4  -3 -15 56.9497  4.7039   7 
  -4   3  15 59.3919  3.9260   2 
  -4   3 -15 69.7153  4.3860   7 
  -4   3 -15 64.0055  4.3631   8 
   4   3  15 66.5902  3.9237   2 
  -5   3  15 157.415   9.273   2 
  -5  -3 -15 161.649   9.515   7 
  -5   3 -15 164.469   9.070   7 
   5   3  15 159.513   9.256   2 
  -6  -3 -15 7.24924 1.39918   7 
   6   3 -15 6.01488 0.62847   4 
  -6   3  15 6.50804 0.68492   2 
  -6   3 -15 9.97541 1.27868   7 
   0   4  15 153.645   9.275   2 
   0  -4 -15 166.102  10.504   8 
   0   4 -15 159.475   9.748   8 
   1   4 -15 20.6326  2.1007   8 
   1  -4  15 17.7215  1.7949   6 
  -1  -4 -15 21.6466  2.7811   8 
  -1   4  15 19.0884  1.4648   2 
   1  -4 -15 14.8553  2.6660   8 
  -1   4 -15 14.8359  2.0088   8 
   1   4  15 14.8245  1.3558   2 
  -1  -4  15 14.3811  1.7066   6 
   2  -4  15 257.561  16.631   6 
  -2   4  15 265.687  15.423   2 
  -2  -4 -15 274.091  16.203   8 
   2  -4 -15 284.755  16.187   8 
   2   4  15 271.880  15.381   2 
  -2  -4  15 255.018  16.597   6 
  -2   4 -15 281.970  15.809   8 
  -3   4  15 124.366   7.060   2 
  -3  -4 -15 123.886   7.763   8 
  -3  -4 -15 115.183   7.590   7 
  -3   4 -15 111.967   6.892   7 
   3   4  15 112.024   6.955   2 
  -3   4 -15 120.723   7.493   8 
  -4  -4 -15 90.0510  6.4538   7 
  -4   4  15 99.3671  5.8614   2 
  -4   4  15 95.6943  5.3371   4 
   4   4  15 98.2489  5.8022   2 
  -4   4 -15 95.7810  6.1532   8 
  -4   4 -15 102.060   5.957   7 
  -5  -4 -15 77.4765  5.2853   7 
  -5   4  15 76.4694  4.1954   4 
  -5   4  15 75.8966  4.5887   2 
   5   4  15 73.7991  4.5561   2 
  -5   4 -15 75.0755  4.7237   7 
  -6  -4 -15 32.1322  2.6371   7 
  -6   4  15 34.2838  2.0349   2 
   6   4 -15 29.7538  1.8383   4 
   6   4  15 28.8413  1.9751   2 
  -6   4 -15 26.5186  2.1821   7 
   0   5  15 260.283  14.580   2 
   0  -5  15 241.817  15.713   6 
   0   5 -15 253.870  14.849   8 
   0  -5 -15 264.066  15.770   8 
   1   5 -15 194.598  11.280   8 
  -1  -5 -15 213.112  12.330   8 
   1  -5  15 178.632  11.933   6 
  -1   5  15 207.463  11.073   2 
   1   5  15 181.294  10.975   2 
   1  -5 -15 195.747  12.197   8 
  -1   5 -15 187.761  11.392   8 
  -1  -5  15 168.486  11.863   6 
  -2  -5 -15 83.8251  6.0065   8 
  -2   5  15 76.1237  4.9244   2 
   2   5  15 80.5985  4.9156   2 
   2  -5 -15 80.9320  5.9621   8 
  -2   5 -15 80.3840  5.4483   8 
  -3  -5 -15 57.2428  4.3808   8 
  -3   5  15 57.2991  3.6480   2 
  -3  -5 -15 51.7415  4.4173   7 
   3   5  15 56.1494  3.5940   2 
  -3   5 -15 58.1466  3.8232   7 
  -3   5 -15 59.0219  4.1328   8 
  -4   5  15 79.4783  4.1611   4 
  -4   5  15 79.3964  4.5964   2 
  -4  -5 -15 78.5978  5.4413   7 
  -4   5 -15 68.1656  4.8075   8 
  -4   5 -15 71.6818  4.6295   7 
   4   5  15 68.0535  4.4819   2 
  -5   5  15 93.4700  4.9932   4 
  -5   5  15 94.2084  5.4490   2 
  -5   5  15 90.4013  5.8006   1 
  -5  -5 -15 89.9291  5.9701   7 
   5   5  15 90.5167  5.4029   2 
  -5   5 -15 88.3121  5.3697   7 
  -6  -5 -15 4.89653 1.14954   7 
  -6   5  15 5.61145 0.59693   2 
  -6   5 -15 5.05824 0.88612   7 
   6   5  15 5.53886 0.57974   2 
   0  -6 -15 65.6467  5.4735   8 
   0   6 -15 59.4358  4.4560   8 
   0   6  15 69.1441  4.1308   2 
  -1   6  15 40.4102  2.7465   2 
  -1  -6 -15 37.4916  4.0046   8 
   1   6 -15 38.6881  3.0663   8 
   1   6  15 43.3442  2.7411   2 
  -1   6 -15 39.4269  3.2201   8 
   1  -6 -15 40.0840  4.0460   8 
  -2   6  15 142.675   8.334   2 
  -2  -6 -15 141.575   9.298   8 
   2  -6 -15 132.516   9.218   8 
  -2   6 -15 142.262   8.705   8 
   2   6  15 146.342   8.307   2 
  -3  -6 -15 9.82615 1.92158   7 
  -3   6  15 9.45625 0.83171   4 
  -3   6  15 9.48681 0.99886   2 
  -3  -6 -15 9.23760 1.71752   8 
  -3   6  15 9.53861 1.02692   1 
  -3   6 -15 13.8849  1.6476   8 
  -3   6 -15 12.5062  1.4592   7 
   3   6  15 12.0586  1.0416   2 
  -4   6  15 49.3681  3.3463   1 
  -4  -6 -15 48.9258  4.0164   7 
  -4   6  15 50.8675  3.1778   2 
  -4   6  15 48.7704  2.8389   4 
   4   6  15 49.5471  3.1362   2 
  -4   6 -15 47.7772  3.4222   8 
  -4   6 -15 49.9008  3.3345   7 
  -5  -6 -15 116.090   7.305   7 
  -5   6  15 118.706   7.002   2 
  -5   6  15 114.032   6.436   4 
   5   6  15 129.625   7.003   2 
  -5   6 -15 121.787   6.723   7 
  -6   6  15 23.5442  1.5638   2 
  -6   6 -15 23.1185  1.7111   7 
   0  -7 -15 14.5807  2.6852   8 
   0   7  15 17.2547  1.4034   2 
   0   7 -15 16.8279  1.8216   8 
  -1  -7 -15 132.855   9.256   8 
   1   7 -15 119.711   8.132   8 
  -1   7  15 137.520   8.082   2 
  -1   7 -15 143.233   8.422   8 
   1   7  15 150.557   8.085   2 
   1  -7 -15 136.973   9.306   8 
  -2   7  15 20.1298  1.6513   2 
  -2   7  15 19.1614  1.7148   1 
  -2  -7 -15 20.2991  2.7388   8 
   2   7  15 24.4315  1.6820   2 
  -2   7 -15 25.1853  2.2123   8 
   2  -7 -15 25.3493  2.9115   8 
  -3   7  15 65.0948  3.9450   2 
  -3   7  15 62.9324  4.1963   1 
  -3  -7 -15 60.7940  4.6633   7 
  -3  -7 -15 60.0506  4.5724   8 
  -3   7  15 60.5488  3.5395   4 
  -3   7 -15 59.8250  3.9023   7 
  -3   7 -15 65.9641  4.3014   8 
   3   7  15 66.4933  3.9222   2 
  -4   7  15 272.062  14.670   4 
  -4  -7 -15 262.904  15.281   7 
  -4   7  15 292.911  15.844   2 
  -4   7  15 269.170  17.102   1 
  -4   7 -15 280.546  15.790   8 
   4   7  15 291.273  15.818   2 
  -4   7 -15 286.799  14.618   7 
  -5  -7 -15 5.17042 1.29182   7 
  -5   7  15 6.01035 0.63376   2 
  -5   7  15 6.04260 0.51857   4 
  -5   7 -15 3.46487 0.79081   7 
   0   8  15 18.3307  1.4808   8 
   0   8 -15 18.7463  1.8207   8 
   0  -8 -15 17.5828  2.8114   8 
   0   8  15 19.5523  1.5024   2 
   1   8 -15 41.8258  3.0195   8 
  -1  -8 -15 45.5271  4.1826   8 
  -1   8  15 43.4725  2.7734   8 
  -1   8  15 43.6525  3.0295   1 
  -1   8  15 45.4224  2.8571   2 
   1   8  15 43.2099  2.8194   2 
  -1   8 -15 40.0135  3.1400   8 
   1  -8 -15 40.4867  4.0727   8 
  -2  -8 -15 2.99556 1.38777   8 
  -2   8  15 2.50485 0.50843   2 
  -2   8  15 3.25509 0.58745   1 
   2  -8 -15 2.40915 1.35512   8 
  -2   8 -15 1.67428 0.75737   8 
   2   8  15 1.79993 0.45110   2 
  -3   8  15 270.526  15.310   4 
  -3  -8 -15 270.414  15.819   7 
  -3   8  15 281.671  17.882   1 
  -3   8  15 290.349  16.528   2 
   3   8  15 297.915  16.491   2 
  -3   8 -15 328.270  16.622   8 
  -3   8 -15 306.016  15.167   7 
  -4   8  15 25.2309  1.6573   2 
  -4  -8 -15 25.1098  2.5167   7 
  -4   8  15 24.3648  1.4625   4 
  -4   8 -15 21.8801  1.8406   8 
  -4   8 -15 21.4587  1.7889   7 
   4   8  15 23.1881  1.6090   2 
  -5  -8 -15 31.0926  2.5463   7 
  -5   8  15 29.1833  1.7022   4 
  -5   8  15 29.0461  1.8778   2 
  -5   8 -15 28.9258  1.9755   7 
   0   9  15 41.0712  2.5159   2 
   0   9 -15 37.9669  2.7310   8 
   0   9  15 37.1881  2.6636   1 
   0  -9 -15 34.4694  3.6806   8 
   0   9  15 35.6759  2.4410   8 
  -1   9  15 60.0161  3.6028   8 
  -1   9  15 59.3984  3.9692   1 
  -1   9  15 60.9123  3.6844   2 
  -1  -9 -15 59.5965  4.8691   8 
   1  -9 -15 54.0806  4.7811   8 
   1   9  15 59.6731  3.6626   2 
  -1   9 -15 59.0461  3.9413   8 
  -2   9  15 122.018   7.511   1 
  -2  -9 -15 119.817   7.768   8 
  -2   9  15 122.981   6.934   2 
   2   9  15 118.436   6.897   2 
  -2   9 -15 120.187   7.136   8 
   2  -9 -15 105.444   7.702   8 
  -3  -9 -15 13.1931  1.9284   7 
  -3   9  15 14.0958  1.0024   4 
  -3   9  15 14.4720  1.1429   2 
  -3   9 -15 15.5291  1.3507   7 
  -3   9 -15 17.3198  1.5040   8 
  -4   9  15 2.68114 0.43977   2 
  -4   9  15 2.62561 0.34086   4 
  -4  -9 -15 2.99125 1.05574   7 
  -4   9 -15 4.25997 0.72682   8 
   0  10 -15 28.5046  2.1345   8 
   0 -10 -15 29.6727  3.1164   8 
  -1 -10 -15 22.9950  2.6734   8 
   1 -10 -15 20.7756  2.6064   8 
  -1  10 -15 22.3804  1.8178   8 
  -2 -10 -15 27.0929  2.5607   8 
  -2  10 -15 23.7435  1.9035   8 
   2 -10 -15 22.8365  2.5115   8 
  -3  10  15 176.038   9.554   4 
  -3 -10 -15 173.140  10.011   7 
  -3  10 -15 195.633   9.452   7 
   0 -11 -15 101.048   6.794   8 
   0  11 -15 104.086   5.988   8 
  -1 -11 -15 14.9178  1.9410   8 
   1 -11 -15 8.89314 1.65543   8 
  -1  11 -15 10.0793  1.0304   8 
   2 -11 -15 26.8505  2.4336   8 
   0   0 -16 0.74503 1.04100   8 
   0   0  16 0.56927 0.32285   2 
   0   0  16 0.40335 0.45506   6 
   1   0 -16 11.8968  1.9081   8 
  -1   0 -16 11.3607  1.9580   8 
   1   0  16 11.6280  1.4276   6 
   1   0  16 11.3853  1.0337   2 
  -1   0  16 12.3450  1.4569   6 
   2   0  16 191.345  11.486   2 
  -2   0 -16 211.736  12.241   8 
  -3   0 -16 12.4484  1.8933   7 
  -3   0 -16 14.4928  1.9710   8 
   3   0  16 13.4853  1.1316   2 
  -4   0 -16 0.58600 0.92909   7 
   4   0  16 0.41871 0.26816   2 
   5   0  16 89.9914  5.2474   2 
  -5   0 -16 87.7063  5.5518   7 
   6   0  16 5.19786 0.52982   2 
  -6   0 -16 4.36610 0.95676   7 
   0   1  16 81.6277  4.9984   2 
   0  -1  16 79.3959  5.7407   6 
   0  -1 -16 86.6954  5.9105   8 
   0   1 -16 84.9674  5.7792   8 
   0   1  16 80.4992  5.7130   6 
   1  -1  16 36.5318  3.2837   6 
  -1   1  16 37.5097  3.2992   6 
   1   1 -16 40.6790  3.4501   8 
  -1  -1 -16 41.4943  3.6914   8 
  -1   1  16 40.3488  2.8060   2 
   1   1  16 47.3690  2.8487   2 
  -1   1 -16 47.7330  3.7517   8 
   1  -1 -16 51.1338  3.8017   8 
   1   1  16 44.9176  3.4159   6 
  -1  -1  16 44.6383  3.4230   6 
  -2  -1 -16 13.5501  2.1592   8 
  -2   1  16 13.0011  1.1579   2 
  -3  -1 -16 15.8934  2.1384   7 
  -3  -1 -16 17.4864  2.1535   8 
  -3   1  16 16.5932  1.3686   2 
  -3   1 -16 16.5276  2.0245   7 
  -3   1 -16 19.4280  2.1592   8 
   3   1  16 17.9537  1.3708   2 
  -4   1  16 84.5229  5.3752   2 
  -4  -1 -16 89.6657  5.8784   7 
  -4   1 -16 88.3494  5.7894   8 
  -4   1 -16 98.8831  5.8061   7 
   4   1  16 92.5756  5.3862   2 
  -5  -1 -16 46.4867  3.5177   7 
  -5   1  16 43.4152  2.9107   2 
  -5   1 -16 50.4034  3.4476   7 
   5   1  16 48.4511  2.9379   2 
  -6   1  16 42.3725  2.5528   2 
  -6  -1 -16 43.9423  2.9684   7 
  -6   1 -16 39.8809  2.8267   7 
   6   1  16 40.8046  2.5624   2 
   0  -2  16 94.9551  6.6590   6 
   0   2 -16 99.6299  6.5572   8 
   0   2  16 93.6198  6.5875   6 
   0   2  16 100.140   5.893   2 
   0  -2 -16 102.384   6.839   8 
   1   2 -16 308.681  18.416   8 
  -1   2  16 319.360  18.167   2 
   1  -2  16 293.009  19.507   6 
  -1   2  16 295.650  19.533   6 
  -1  -2 -16 334.275  18.860   8 
   1  -2 -16 356.224  18.833   8 
   1   2  16 328.002  19.595   6 
  -1   2 -16 337.099  18.660   8 
  -1  -2  16 302.081  19.526   6 
   1   2  16 333.553  18.163   2 
  -2  -2 -16 143.352   8.821   8 
  -2   2  16 131.460   7.986   2 
  -2   2 -16 141.770   8.650   8 
   2  -2 -16 134.400   8.537   8 
   2   2  16 131.912   7.959   2 
  -3  -2 -16 64.1722  4.5502   7 
  -3   2  16 63.7849  3.8375   2 
  -3  -2 -16 64.0265  4.5477   8 
  -3   2 -16 57.8457  4.1099   7 
  -3   2 -16 58.9580  4.3814   8 
   3   2  16 57.3425  3.7668   2 
  -4  -2 -16 4.57026 1.34987   7 
  -4   2  16 3.76382 0.57529   2 
   4   2  16 4.68685 0.60231   2 
  -4   2 -16 3.36765 0.95679   8 
  -4   2 -16 4.19591 1.13760   7 
  -5  -2 -16 26.4866  2.4962   7 
  -5   2  16 24.8060  1.7066   2 
  -5   2 -16 25.6789  2.1998   7 
   5   2  16 22.6677  1.6672   2 
   6   2 -16 6.99397 0.66481   4 
  -6  -2 -16 7.84555 1.27393   7 
   6   2  16 10.3283  0.7743   2 
  -6   2 -16 9.39299 1.15775   7 
   0   3 -16 183.575  10.997   8 
   0   3  16 174.259  10.487   2 
   0  -3 -16 188.203  11.395   8 
  -1   3  16 49.9502  3.5664   2 
  -1  -3 -16 56.4654  4.5892   8 
   1   3 -16 52.9543  4.0757   8 
   1   3  16 58.6737  3.6047   2 
   1  -3 -16 62.4979  4.5939   8 
  -1   3 -16 62.6052  4.3474   8 
  -2   3  16 61.8959  3.7434   2 
  -2  -3 -16 67.1929  4.7099   8 
  -2   3 -16 57.8448  4.3321   8 
   2   3  16 52.5724  3.6475   2 
   2  -3 -16 55.2009  4.3437   8 
  -3  -3 -16 62.3829  4.6124   8 
  -3   3  16 66.4953  3.9707   2 
  -3  -3 -16 64.7516  4.6583   7 
   3   3  16 59.9968  3.9028   2 
  -3   3 -16 63.9451  4.4803   8 
  -3   3 -16 60.9015  4.1145   7 
  -4  -3 -16 82.8669  5.7609   7 
  -4   3  16 81.0208  5.2649   2 
  -4   3 -16 95.5174  5.4526   7 
   4   3  16 92.0843  5.2836   2 
  -4   3 -16 89.7665  5.6302   8 
  -5   3  16 143.936   8.606   2 
  -5  -3 -16 146.139   8.630   7 
  -5   3 -16 154.491   8.329   7 
   5   3  16 154.057   8.611   2 
  -6   3  16 14.8757  1.1170   2 
  -6  -3 -16 15.3052  1.6292   7 
  -6   3 -16 17.2279  1.4683   7 
   6   3  16 15.7885  1.1310   2 
   0   4 -16 231.960  13.835   8 
   0  -4 -16 248.743  14.445   8 
   0   4  16 229.122  13.513   2 
  -1  -4 -16 126.022   7.876   8 
  -1   4  16 114.764   6.830   2 
   1   4 -16 105.930   7.109   8 
   1   4  16 111.689   6.781   2 
   1  -4 -16 117.835   7.742   8 
  -1   4 -16 113.999   7.320   8 
  -2  -4 -16 114.634   7.297   8 
  -2   4  16 108.187   6.427   2 
   2  -4 -16 106.872   7.096   8 
  -2   4 -16 104.982   6.887   8 
   2   4  16 103.203   6.376   2 
  -3   4  16 204.179  11.688   2 
  -3  -4 -16 200.542  12.158   8 
  -3  -4 -16 198.443  11.581   7 
  -3   4 -16 199.457  10.985   7 
  -3   4 -16 212.752  12.031   8 
   3   4  16 203.325  11.657   2 
  -4   4  16 41.6819  2.5259   2 
  -4  -4 -16 40.1400  3.3401   7 
   4   4  16 35.1419  2.4415   2 
  -4   4 -16 35.0706  2.7887   8 
  -4   4 -16 35.8773  2.7559   7 
  -5   4  16 45.7695  2.7858   2 
  -5  -4 -16 44.0652  3.3676   7 
   5   4  16 42.2804  2.7454   2 
  -5   4 -16 43.3964  2.9570   7 
  -6  -4 -16 29.6050  2.3489   7 
  -6   4 -16 32.5110  2.1381   7 
   0  -5 -16 169.918  10.399   8 
   0   5  16 165.077   9.361   2 
   0   5 -16 147.012   9.605   8 
  -1  -5 -16 42.1449  3.6372   8 
  -1   5  16 38.1275  2.4372   2 
   1   5 -16 34.4094  2.7607   8 
   1   5  16 31.9239  2.3365   2 
   1  -5 -16 31.0980  3.3279   8 
  -1   5 -16 30.3413  2.8053   8 
  -2  -5 -16 72.3445  5.4468   8 
  -2   5  16 66.7005  4.5949   2 
  -2   5 -16 79.6591  5.1496   8 
   2   5  16 77.4341  4.6234   2 
   2  -5 -16 82.6411  5.4951   8 
  -3  -5 -16 119.717   7.403   8 
  -3  -5 -16 121.963   7.259   7 
  -3   5  16 123.639   6.830   2 
  -3   5 -16 111.900   7.118   8 
  -3   5 -16 106.741   6.472   7 
   3   5  16 106.779   6.742   2 
  -4   5  16 8.92403 0.72571   4 
  -4   5  16 9.06349 0.89679   2 
  -4  -5 -16 8.86147 1.68525   7 
  -4   5 -16 10.4654  1.3140   7 
  -4   5 -16 9.61053 1.22876   8 
   4   5  16 9.79194 0.89410   2 
  -5  -5 -16 5.78656 1.27309   7 
   5   5  16 2.77608 0.45311   2 
  -5   5 -16 1.98353 0.69454   7 
   0   6 -16 9.03411 1.39699   8 
   0  -6 -16 9.55389 1.99707   8 
   0   6  16 7.26974 0.84616   2 
  -1   6  16 36.4981  2.3340   2 
  -1  -6 -16 39.0424  3.4968   8 
   1   6 -16 33.5287  2.6040   8 
   1   6  16 30.6727  2.2356   2 
   1  -6 -16 27.9242  3.2008   8 
  -1   6 -16 28.9786  2.6503   8 
  -2  -6 -16 46.7136  4.2476   8 
  -2   6 -16 60.5868  4.0425   8 
   2   6  16 57.8702  3.5370   2 
   2  -6 -16 57.8094  4.3805   8 
  -3  -6 -16 46.6962  3.7788   8 
  -3   6  16 50.1674  3.2502   2 
  -3  -6 -16 47.7968  3.8845   7 
   3   6  16 54.5359  3.2546   2 
  -3   6 -16 51.4874  3.3051   7 
  -3   6 -16 54.3903  3.6502   8 
  -4   6  16 38.5320  2.5744   2 
  -4   6  16 36.1406  2.2859   4 
  -4  -6 -16 35.1207  3.1879   7 
  -4   6 -16 40.0847  2.8175   8 
   4   6  16 46.0984  2.6197   2 
  -4   6 -16 44.4803  2.7626   7 
  -5  -6 -16 41.5750  3.0148   7 
  -5   6  16 38.0109  2.4287   2 
  -5   6 -16 37.7419  2.5080   7 
   5   6  16 38.7481  2.4258   2 
   0   7  16 2.80363 0.54640   2 
   0   7 -16 3.43389 0.90523   8 
   0  -7 -16 1.63856 1.30590   8 
  -1   7  16 27.7591  1.9074   2 
  -1  -7 -16 29.6432  3.0751   8 
   1   7 -16 22.9324  2.0584   8 
   1   7  16 26.1756  1.8731   2 
  -1   7 -16 24.9791  2.2501   8 
   1  -7 -16 26.8540  2.9476   8 
  -2  -7 -16 39.9424  3.6290   8 
  -2   7  16 41.3688  2.8727   2 
  -2   7 -16 46.7083  3.2818   8 
   2  -7 -16 47.1901  3.7569   8 
   2   7  16 48.1606  2.9021   2 
  -3   7  16 27.4182  1.9003   2 
  -3  -7 -16 24.9944  2.4214   8 
  -3  -7 -16 24.0863  2.5628   7 
  -3   7 -16 26.9595  2.0044   7 
  -3   7 -16 30.0115  2.2546   8 
   3   7  16 28.1734  1.8758   2 
  -4   7  16 10.3577  0.8618   2 
  -4  -7 -16 10.2077  1.6593   7 
  -4   7  16 10.0508  0.7083   4 
  -4   7 -16 9.00801 1.06918   8 
   4   7  16 8.57738 0.80957   2 
  -4   7 -16 8.76799 1.07966   7 
  -5  -7 -16 31.1532  2.4585   7 
  -5   7  16 31.8342  1.9966   2 
  -5   7 -16 31.8874  2.0546   7 
   0  -8 -16 5.62350 1.57447   8 
   0   8  16 3.93198 0.60324   2 
   0   8 -16 3.98141 0.84551   8 
  -1   8  16 134.227   7.878   2 
  -1  -8 -16 143.800   8.803   8 
   1   8  16 132.336   7.859   2 
   1  -8 -16 136.457   8.746   8 
  -1   8 -16 132.093   8.043   8 
  -2   8  16 49.4265  3.1278   2 
  -2  -8 -16 46.9221  3.8208   8 
  -2   8 -16 54.0119  3.4645   8 
   2   8  16 50.1833  3.1191   2 
   2  -8 -16 47.6249  3.8428   8 
  -3   8  16 9.07102 0.79740   2 
  -3  -8 -16 8.40402 1.48917   7 
   3   8  16 7.17614 0.73454   2 
  -3   8 -16 7.88341 1.05674   8 
  -4  -8 -16 156.199   9.083   7 
  -4   8 -16 169.393   9.333   8 
  -4   8 -16 165.915   8.598   7 
   0   9 -16 0.99800 0.54040   8 
   0  -9 -16 1.70252 1.14063   8 
   0   9  16 1.73244 0.38757   2 
  -1   9  16 1.06679 0.31801   2 
  -1  -9 -16 1.10398 1.06168   8 
   1   9  16 0.43085 0.27510   2 
   1  -9 -16 1.19108 1.07938   8 
  -1   9 -16 0.50915 0.50574   8 
  -2   9  16 3.04888 0.45858   2 
  -2  -9 -16 2.71178 1.02028   8 
   2   9  16 2.11536 0.39739   2 
   2  -9 -16 2.89182 1.04322   8 
  -2   9 -16 2.08140 0.64133   8 
  -3   9  16 13.5372  0.9966   2 
  -3  -9 -16 12.1943  1.6234   7 
   0 -10 -16 14.3254  1.9245   8 
  -1 -10 -16 3.48114 1.10147   8 
  -1  10 -16 2.43284 0.58426   8 
   1 -10 -16 2.47945 1.02826   8 
  -2  10 -16 35.4844  2.3376   8 
   2 -10 -16 33.2982  2.6751   8 
   0   0 -17 -0.0179  0.8702   8 
   1   0  17 51.1219  3.2475   2 
   1   0 -17 49.9495  3.9239   8 
  -1   0 -17 54.2997  4.1404   8 
  -2   0 -17 29.2221  2.7918   8 
   2   0  17 28.0533  1.9486   2 
  -3   0 -17 85.4881  5.7113   8 
   3   0  17 86.1108  5.1150   2 
  -4   0 -17 47.2622  3.3748   7 
   4   0  17 47.1794  2.9391   2 
   5   0  17 80.4050  4.8083   2 
  -5   0 -17 84.7765  4.9669   7 
   0  -1 -17 0.65992 0.97556   8 
   0   1 -17 0.45207 0.90046   8 
   0   1  17 0.44005 0.29622   2 
   1   1 -17 106.342   6.985   8 
  -1  -1 -17 116.186   7.284   8 
  -1   1  17 112.267   6.490   2 
   1  -1 -17 108.247   7.095   8 
  -1   1 -17 106.707   7.123   8 
   1   1  17 106.020   6.442   2 
  -2  -1 -17 4.24194 1.31236   8 
  -2   1  17 3.35868 0.56970   2 
  -2   1 -17 6.01471 1.38248   8 
   2   1  17 4.81321 0.60944   2 
  -3   1  17 77.9462  4.8657   2 
  -3  -1 -17 79.1876  5.4545   8 
   3   1  17 82.1283  4.8785   2 
  -3   1 -17 86.3328  5.4718   8 
  -4   1  17 9.87308 0.89154   2 
  -4  -1 -17 10.1845  1.6169   7 
  -4   1 -17 12.3196  1.5233   7 
  -4   1 -17 10.5532  1.3685   8 
   4   1  17 11.1078  0.9292   2 
  -5  -1 -17 43.5012  2.9161   7 
   5   1  17 36.8790  2.4100   2 
  -5   1 -17 37.2594  2.7034   7 
  -6  -1 -17 18.1814  1.5273   7 
  -6   1 -17 19.0423  1.5092   7 
   0   2  17 5.63497 0.70229   2 
   0   2 -17 6.42004 1.38085   8 
   0  -2 -17 6.00431 1.49052   8 
  -1   2  17 17.1169  1.3747   2 
  -1  -2 -17 17.8944  2.3209   8 
   1   2 -17 16.1172  1.9256   8 
  -2   2  17 46.0690  2.8860   2 
  -2  -2 -17 46.6658  3.6993   8 
   2   2  17 41.7585  2.8286   2 
  -2   2 -17 44.2234  3.5127   8 
   2  -2 -17 42.2726  3.4058   8 
  -3  -2 -17 4.48809 1.22456   8 
  -3   2  17 5.43332 0.65139   2 
  -3   2 -17 4.77263 1.14220   8 
   3   2  17 4.43218 0.61059   2 
  -4  -2 -17 33.4409  2.7995   7 
  -4   2  17 31.8230  2.2019   2 
  -4   2 -17 37.9384  2.6271   7 
  -4   2 -17 33.1372  2.5745   8 
   4   2  17 34.5182  2.2282   2 
  -5   2  17 29.5118  2.0197   2 
  -5  -2 -17 30.9088  2.4931   7 
  -5   2 -17 33.2693  2.3603   7 
   5   2  17 34.2546  2.0737   2 
   0   3  17 8.54110 0.88335   2 
   0   3 -17 8.75279 1.52556   8 
   0  -3 -17 9.08096 1.72889   8 
  -1   3  17 0.40345 0.30275   2 
  -1  -3 -17 0.22158 1.02834   8 
   1   3 -17 0.28129 0.71054   8 
   1  -3 -17 0.75276 0.96473   8 
   1   3  17 0.40696 0.29371   2 
  -1   3 -17 0.51195 0.82971   8 
  -2  -3 -17 148.608   8.705   8 
  -2   3  17 143.814   7.985   2 
  -2   3 -17 131.572   8.390   8 
   2   3  17 128.251   7.910   2 
   2  -3 -17 129.244   8.368   8 
  -3  -3 -17 14.5904  1.8748   8 
  -3   3  17 15.4238  1.2328   2 
  -4   3  17 66.9688  4.1993   2 
  -4  -3 -17 71.7869  4.6268   7 
  -4   3 -17 71.0539  4.2844   7 
  -4   3 -17 69.0350  4.4838   8 
   4   3  17 71.6380  4.2228   2 
  -5  -3 -17 34.9025  2.5269   7 
  -5   3  17 35.0343  2.0107   2 
  -5   3 -17 28.5773  2.1727   7 
   5   3  17 26.1757  1.9478   2 
   0   4  17 25.9978  1.8751   2 
   0   4 -17 25.7103  2.3768   8 
   0  -4 -17 26.4978  2.7928   8 
  -1   4  17 29.3106  2.1165   2 
   1   4 -17 27.2029  2.4374   8 
  -1  -4 -17 29.4489  2.9690   8 
   1   4  17 31.2830  2.1130   2 
  -1   4 -17 31.6956  2.6872   8 
   1  -4 -17 33.8245  2.9861   8 
  -2  -4 -17 51.5299  3.8106   8 
  -2   4  17 51.0323  3.0044   2 
   2  -4 -17 41.8580  3.4763   8 
  -2   4 -17 42.9477  3.4096   8 
   2   4  17 41.5400  2.8927   2 
  -3  -4 -17 33.0795  2.8366   8 
  -3   4  17 33.2051  2.2459   2 
  -3   4 -17 34.9872  2.7107   8 
   3   4  17 32.8897  2.2285   2 
  -4   4  17 28.0175  1.9016   2 
  -4  -4 -17 28.4048  2.5099   7 
  -4   4 -17 27.8788  2.1898   8 
   4   4  17 28.9649  1.9104   2 
  -4   4 -17 28.0629  2.1196   7 
  -5  -4 -17 94.1878  5.4995   7 
  -5   4 -17 92.6652  5.2042   7 
   0  -5 -17 157.305   9.654   8 
   0   5 -17 150.747   9.155   8 
   0   5  17 151.369   8.885   2 
  -1   5  17 5.20188 0.67277   2 
   1   5 -17 2.86887 0.86977   8 
  -1  -5 -17 4.53817 1.37802   8 
   1  -5 -17 5.03301 1.35242   8 
  -1   5 -17 4.69570 1.07659   8 
   1   5  17 4.72220 0.65294   2 
  -2   5  17 351.425  19.673   2 
  -2  -5 -17 360.078  20.065   8 
   2   5  17 335.009  19.626   2 
  -2   5 -17 352.539  19.762   8 
   2  -5 -17 345.135  19.871   8 
  -3  -5 -17 121.980   7.870   8 
  -3   5  17 132.479   7.516   2 
  -3   5 -17 134.135   7.783   8 
   3   5  17 126.470   7.473   2 
   4   5  17 25.9583  1.7805   2 
  -4   5 -17 26.8617  1.9618   7 
  -4   5 -17 27.2609  2.0351   8 
  -5  -5 -17 34.2416  2.5233   7 
  -5   5 -17 35.4330  2.2450   7 
   0   6 -17 83.1414  5.4190   8 
   0  -6 -17 90.0481  6.0022   8 
   0   6  17 85.1055  5.1674   2 
   1   6 -17 34.9958  2.6308   8 
  -1  -6 -17 37.3475  3.2646   8 
  -1   6  17 35.8050  2.4073   2 
  -1   6 -17 36.7124  2.7973   8 
   1  -6 -17 34.4391  3.1368   8 
   1   6  17 36.7684  2.4057   2 
  -2  -6 -17 67.2320  4.9104   8 
  -2   6  17 68.7605  4.3125   2 
  -2   6 -17 75.2038  4.6941   8 
   2  -6 -17 69.0537  4.8231   8 
   2   6  17 74.1445  4.3173   2 
  -3  -6 -17 91.3832  6.1411   8 
  -3   6  17 101.484   5.824   2 
   3   6  17 98.9834  5.7917   2 
  -3   6 -17 102.436   6.051   8 
  -4   6  17 21.3031  1.5846   2 
  -4  -6 -17 22.4182  2.1044   7 
  -4   6 -17 25.8552  1.7639   7 
   4   6  17 24.6941  1.6084   2 
  -4   6 -17 25.6809  1.8317   8 
   0  -7 -17 0.85145 0.98709   8 
   0   7 -17 0.36539 0.54689   8 
   0   7  17 0.30763 0.28354   2 
  -1   7  17 115.539   6.641   2 
  -1  -7 -17 122.325   7.377   8 
   1   7  17 112.387   6.620   2 
  -1   7 -17 109.002   6.815   8 
   1  -7 -17 106.820   7.196   8 
  -2  -7 -17 35.5204  3.0479   8 
  -2   7  17 36.2884  2.4598   2 
   2  -7 -17 37.2551  2.9975   8 
   2   7  17 40.4523  2.4846   2 
  -2   7 -17 41.6912  2.8168   8 
  -3   7  17 9.84078 0.86406   2 
   3   7  17 10.1413  0.8597   2 
  -3   7 -17 10.5084  1.1573   8 
  -4   7  17 119.055   6.821   2 
   0  -8 -17 115.818   7.132   8 
   0   8  17 110.409   6.458   2 
   0   8 -17 107.168   6.534   8 
  -1  -8 -17 1.05886 0.89509   8 
  -1   8  17 1.20710 0.33572   2 
   1  -8 -17 0.72042 0.85111   8 
  -1   8 -17 0.95011 0.54405   8 
   1   8  17 0.35437 0.26190   2 
  -2   8  17 46.7513  3.1978   2 
  -2  -8 -17 43.9807  3.6297   8 
   2  -8 -17 56.2629  3.7147   8 
   2   8  17 58.2821  3.2478   2 
  -2   8 -17 59.6646  3.4944   8 
  -3   8  17 21.5707  1.4196   2 
  -3   8 -17 20.4979  1.6169   8 
   3   8  17 20.5963  1.3988   2 
   0  -9 -17 69.3025  4.6726   8 
   0   9 -17 69.1488  4.1790   8 
   0   9  17 69.1293  4.0858   2 
  -1  -9 -17 30.6973  2.5362   8 
  -1   9  17 29.7174  1.9194   2 
  -1   9 -17 31.2083  2.1273   8 
   1   9  17 29.4339  1.9164   2 
   1  -9 -17 30.0246  2.5003   8 
  -2   9 -17 6.39006 0.81226   8 
   0   0 -18 36.6439  3.1053   8 
   1   0 -18 0.95317 0.87133   8 
  -1   0 -18 1.35391 0.99920   8 
  -2   0 -18 3.56033 1.11293   8 
  -3   0 -18 121.400   7.441   8 
  -4   0 -18 97.2514  5.5491   7 
  -5   0 -18 18.3169  1.5176   7 
   0   1  18 44.6795  2.8920   2 
   0   1 -18 45.5599  3.5369   8 
   0  -1 -18 46.4866  3.6246   8 
   1   1 -18 72.0482  4.5672   8 
  -1  -1 -18 73.9416  4.7996   8 
  -1   1  18 71.2983  4.0223   2 
  -1   1 -18 58.6133  4.5361   8 
   1  -1 -18 57.4662  4.4683   8 
   1   1  18 59.6761  3.9551   2 
  -2  -1 -18 13.6503  1.8160   8 
  -2   1  18 12.4535  1.0430   2 
  -2   1 -18 14.3707  1.7855   8 
   2   1  18 12.4820  1.0470   2 
  -3  -1 -18 21.0128  2.1044   8 
  -3   1  18 21.1242  1.5402   2 
  -3   1 -18 24.0134  2.1162   8 
   3   1  18 23.7879  1.5683   2 
  -4  -1 -18 51.5823  3.1431   7 
   4   1  18 45.5109  2.8206   2 
  -4   1 -18 43.5584  3.0802   8 
  -4   1 -18 44.9745  2.9656   7 
  -5  -1 -18 77.4947  4.4873   7 
  -5   1 -18 80.0537  4.4576   7 
   0  -2 -18 33.3477  2.9057   8 
   0   2 -18 30.7876  2.7028   8 
   0   2  18 31.3926  2.1425   2 
  -1  -2 -18 79.4307  5.3831   8 
   1   2 -18 77.3087  5.0871   8 
  -1   2  18 80.1956  4.7029   2 
   1  -2 -18 75.4923  5.2377   8 
   1   2  18 75.3148  4.6747   2 
  -1   2 -18 78.9343  5.2435   8 
  -2   2  18 3.75968 0.53347   2 
  -2  -2 -18 4.41434 1.18775   8 
   2   2  18 3.26488 0.51630   2 
  -2   2 -18 3.65446 1.04272   8 
  -3   2  18 49.7416  3.5276   2 
   3   2  18 67.9902  3.6109   2 
  -4   2  18 11.3513  0.8345   2 
  -4  -2 -18 12.3928  1.4153   7 
   4   2  18 8.95392 0.80558   2 
  -4   2 -18 9.04189 1.11933   8 
  -4   2 -18 8.56538 1.11903   7 
   0   3  18 3.05518 0.51502   2 
   0  -3 -18 2.90156 1.14786   8 
   0   3 -18 3.91632 1.00699   8 
   1   3 -18 17.6953  1.7649   8 
  -1  -3 -18 18.9774  2.1684   8 
  -1   3  18 18.0981  1.3563   2 
   1  -3 -18 16.2795  1.9820   8 
  -1   3 -18 16.6026  1.8749   8 
   1   3  18 16.6456  1.3272   2 
  -2  -3 -18 113.725   7.159   8 
  -2   3  18 109.165   6.601   2 
  -2   3 -18 121.544   7.066   8 
   2  -3 -18 107.956   6.925   8 
   2   3  18 113.258   6.603   2 
  -3  -3 -18 23.9622  2.1620   8 
  -3   3  18 26.3561  1.6739   2 
   3   3  18 21.6820  1.6067   2 
  -3   3 -18 22.7442  2.0346   8 
  -4  -3 -18 50.8141  3.1995   7 
  -4   3  18 49.0909  2.9409   2 
   4   3  18 46.3185  2.9357   2 
  -4   3 -18 48.9506  2.9718   7 
  -4   3 -18 47.2154  3.1511   8 
   0   4  18 47.4956  3.0098   2 
   0   4 -18 45.4675  3.3584   8 
   0  -4 -18 48.8376  3.7151   8 
  -1   4  18 1.66697 0.40151   2 
  -1  -4 -18 1.44592 0.98718   8 
   1   4 -18 1.48540 0.68830   8 
  -1   4 -18 0.75919 0.70174   8 
   1  -4 -18 1.05317 0.88771   8 
  -2   4  18 60.2736  3.7909   2 
  -2  -4 -18 61.5603  4.3734   8 
   2   4  18 60.7920  3.7828   2 
   2  -4 -18 60.4051  4.1872   8 
  -2   4 -18 68.8164  4.2622   8 
  -3   4  18 70.3171  4.4500   2 
  -3  -4 -18 65.2188  4.7721   8 
   3   4  18 80.7107  4.4819   2 
  -3   4 -18 83.5255  4.8118   8 
  -4  -4 -18 88.6384  5.0642   7 
  -4   4  18 86.3624  5.0916   2 
   4   4  18 87.0714  5.0976   2 
  -4   4 -18 88.7241  5.2220   8 
   0   5  18 151.602   8.579   2 
   0   5 -18 144.087   8.734   8 
   0  -5 -18 148.580   9.093   8 
  -1   5  18 35.4045  2.4129   2 
   1   5 -18 34.1388  2.6111   8 
  -1  -5 -18 39.9158  3.1507   8 
  -1   5 -18 38.8636  2.8217   8 
   1   5  18 38.8388  2.4320   2 
   1  -5 -18 36.8979  3.0029   8 
  -2  -5 -18 59.0811  3.9488   8 
  -2   5  18 60.5178  3.3880   2 
   2  -5 -18 48.2618  3.6678   8 
  -2   5 -18 53.1342  3.6672   8 
   2   5  18 50.9929  3.3303   2 
  -3  -5 -18 22.0881  1.9649   8 
  -3   5  18 23.8501  1.5581   2 
   3   5  18 21.3719  1.5197   2 
  -3   5 -18 21.7210  1.8148   8 
   4   5  18 65.2996  3.8507   2 
   0  -6 -18 1.52150 0.94750   8 
   0   6  18 1.55936 0.38946   2 
   0   6 -18 1.87459 0.66337   8 
  -1   6  18 26.3584  1.7748   2 
  -1  -6 -18 24.6852  2.3695   8 
  -1   6 -18 26.0003  2.0714   8 
   1   6  18 25.9873  1.7666   2 
   1  -6 -18 24.6429  2.3035   8 
  -2   6  18 93.6277  5.1918   2 
  -2   6 -18 89.0138  5.3962   8 
   2  -6 -18 81.1991  5.4251   8 
   2   6  18 87.0247  5.1637   2 
  -3  -6 -18 38.5535  2.8380   8 
  -3   6  18 41.3947  2.5481   2 
   3   6  18 41.1908  2.5481   2 
  -3   6 -18 43.1881  2.7732   8 
   0   7  18 62.2377  3.7361   2 
   0  -7 -18 63.2876  4.2749   8 
   0   7 -18 60.4298  3.8604   8 
  -1   7  18 1.64831 0.36309   2 
  -1  -7 -18 1.00061 0.79683   8 
   1   7  18 1.55247 0.34984   2 
  -1   7 -18 1.76199 0.58572   8 
   1  -7 -18 2.06563 0.84387   8 
  -2   7  18 63.4615  3.6452   2 
   2   7  18 62.8372  3.6378   2 
  -2   7 -18 61.4549  3.8140   8 
   2  -7 -18 54.3086  3.8648   8 
   0  -8 -18 4.54020 0.99396   8 
   0   8 -18 3.98496 0.65430   8 
   0   8  18 3.90213 0.47332   2 
  -1   8 -18 2.93326 0.57732   8 
   1   8  18 2.92309 0.40368   2 
   1  -8 -18 2.23866 0.78278   8 
   0   0 -19 0.13999 0.71558   8 
   1   0 -19 14.1364  1.6064   8 
  -1   0 -19 14.7157  1.7573   8 
  -2   0 -19 41.0904  3.0773   8 
  -3   0 -19 102.278   6.198   8 
   0  -1 -19 17.7837  1.9128   8 
   0   1 -19 18.3645  1.8732   8 
   0   1  19 18.3423  1.3218   2 
  -1  -1 -19 26.2418  2.4199   8 
   1   1 -19 23.7416  2.1890   8 
  -1   1  19 25.1777  1.7978   2 
   1  -1 -19 29.8341  2.3682   8 
   1   1  19 29.8219  1.8473   2 
  -1   1 -19 30.2810  2.4393   8 
  -2  -1 -19 30.0782  2.4027   8 
   2   1  19 26.3408  1.7776   2 
  -2   1 -19 25.8435  2.2721   8 
  -3  -1 -19 26.5842  2.1568   8 
   3   1  19 27.4432  1.7579   2 
  -3   1 -19 27.3634  2.1385   8 
   0   2 -19 0.57645 0.66285   8 
   0  -2 -19 0.50127 0.76781   8 
   0   2  19 0.32647 0.24892   2 
  -1   2  19 115.054   7.180   2 
   1   2 -19 113.338   7.371   8 
  -1  -2 -19 124.466   7.682   8 
   1  -2 -19 128.363   7.591   8 
   1   2  19 130.464   7.220   2 
  -1   2 -19 138.203   7.651   8 
  -2   2  19 85.6736  5.3427   2 
  -2  -2 -19 86.4325  5.7772   8 
   2   2  19 98.0376  5.3858   2 
  -2   2 -19 97.2905  5.7696   8 
  -3   2  19 25.7247  1.7674   2 
  -3  -2 -19 26.3474  2.1593   8 
  -3   2 -19 29.8767  2.1682   8 
   3   2  19 30.0685  1.8201   2 
   0   3  19 10.5250  0.8999   2 
   0   3 -19 10.4738  1.3201   8 
   0  -3 -19 10.5820  1.5235   8 
  -1   3  19 13.1099  1.0949   2 
   1   3 -19 13.1837  1.3957   8 
  -1  -3 -19 12.3817  1.6588   8 
   1   3  19 16.3772  1.1470   2 
  -1   3 -19 16.9014  1.6242   8 
   1  -3 -19 15.9829  1.6654   8 
  -2  -3 -19 10.6949  1.4031   8 
  -2   3  19 9.44139 0.79725   2 
  -2   3 -19 8.44637 1.18700   8 
   2   3  19 8.85541 0.78913   2 
  -3   3  19 11.0551  0.7956   2 
  -3  -3 -19 10.2458  1.2101   8 
   3   3  19 8.48264 0.76504   2 
  -3   3 -19 8.57241 1.09017   8 
   0   4 -19 3.92235 0.83685   8 
   0  -4 -19 4.20067 1.02702   8 
   0   4  19 3.68493 0.50574   2 
  -1  -4 -19 36.8029  2.7641   8 
   1   4 -19 36.1038  2.4281   8 
  -1   4  19 36.6316  2.2178   2 
  -1   4 -19 31.1621  2.4978   8 
   1  -4 -19 31.6331  2.6040   8 
   1   4  19 32.4942  2.1870   2 
  -2  -4 -19 45.6911  3.4226   8 
  -2   4  19 45.3236  3.0088   2 
   2   4  19 52.5467  3.0466   2 
  -2   4 -19 55.9588  3.3916   8 
  -3   4  19 126.800   7.231   2 
   0  -5 -19 23.9213  2.1060   8 
   0   5 -19 23.5445  1.8416   8 
   0   5  19 23.2931  1.5972   2 
  -1  -5 -19 124.349   7.304   8 
  -1   5  19 123.220   6.918   2 
   1   5  19 119.526   6.916   2 
  -1   5 -19 120.844   7.085   8 
   1  -5 -19 111.397   7.152   8 
  -2  -5 -19 48.4405  3.1339   8 
   2   5  19 40.6127  2.6698   2 
   0  -6 -19 5.37635 1.00787   8 
   0   6  19 6.01631 0.59393   2 
  -1  -6 -19 3.22282 0.85644   8 
  -1   6  19 3.18343 0.43319   2 
   1  -6 -19 5.23488 0.92805   8 
   2   6  19 3.69083 0.44395   2 
   0   0 -20 90.1864  5.5391   8 
   1   0 -20 0.41238 0.53383   8 
  -1   0 -20 0.53195 0.60641   8 
   0  -1 -20 4.44804 0.91888   8 
   0   1 -20 5.72785 0.96437   8 
  -1  -1 -20 8.34036 1.17706   8 
   1   1 -20 7.68799 1.00272   8 
  -1   1 -20 9.24417 1.16727   8 
   1  -1 -20 9.29348 1.10949   8 
  -2   1 -20 40.9497  2.8115   8 
   0   2  20 4.09235 0.45621   2 
   0  -2 -20 3.93171 0.87210   8 
   1   2 -20 2.07076 0.57176   8 
  -1   2  20 1.71070 0.31403   2 
  -1  -2 -20 2.27039 0.75929   8 
   1   2  20 1.82372 0.32528   2 
  -1   2 -20 2.17484 0.67418   8 
   1  -2 -20 1.82274 0.64511   8 
   0   3  20 4.16959 0.46231   2 
   0  -3 -20 4.03659 0.88449   8 
   0   3 -20 4.09414 0.75927   8 
  -1  -3 -20 7.07738 1.08344   8 
   1   3  20 6.34478 0.58258   2 
   1  -3 -20 5.75496 0.95066   8 
  -1   3 -20 5.92763 0.90595   8 
   0   4  20 12.7697  0.9387   2 
  -1   4 -20 57.5696  3.5962   8 
   0   0   0    0.00    0.00   0 
;
_shelx_hkl_checksum              96611
loop_
_space_group_symop_operation_xyz
'x, y, z'
'-x+1/2, -y, z+1/2'
'-x, y+1/2, -z+1/2'
'x+1/2, -y+1/2, -z'
loop_
_atom_site_label
_atom_site_type_symbol
_atom_site_fract_x
_atom_site_fract_y
_atom_site_fract_z
_atom_site_U_iso_or_equiv
_atom_site_adp_type
_atom_site_occupancy
_atom_site_site_symmetry_order
_atom_site_calc_flag
_atom_site_refinement_flags_posn
_atom_site_refinement_flags_adp
C1 C 0.5473(3) 0.08343(18) 0.77494(17) 0.0341(6) Uani 1 1 d . .
H1A H 0.4534 0.0795 0.7434 0.051 Uiso 1 1 calc R U
H1B H 0.5320 0.1285 0.8174 0.051 Uiso 1 1 calc R U
H1C H 0.5708 0.0216 0.7969 0.051 Uiso 1 1 calc R U
C2 C 0.6789(3) 0.11510(14) 0.72453(14) 0.0235(5) Uani 1 1 d . .
C3 C 0.6552(3) 0.13806(15) 0.64648(14) 0.0241(5) Uani 1 1 d . .
H3 H 0.5546 0.1341 0.6250 0.029 Uiso 1 1 calc R U
C4 C 0.7762(3) 0.16653(15) 0.60006(13) 0.0212(4) Uani 1 1 d . .
H4 H 0.7590 0.1829 0.5471 0.025 Uiso 1 1 calc R U
C5 C 0.9229(3) 0.17097(14) 0.63136(12) 0.0174(4) Uani 1 1 d . .
C6 C 0.9502(2) 0.14885(14) 0.70929(12) 0.0189(4) Uani 1 1 d . .
H6 H 1.0510 0.1528 0.7305 0.023 Uiso 1 1 calc R U
C7 C 0.8273(3) 0.12098(14) 0.75506(13) 0.0218(5) Uani 1 1 d . .
H7 H 0.8444 0.1056 0.8083 0.026 Uiso 1 1 calc R U
C8 C 1.1804(3) 0.33712(14) 0.67344(12) 0.0193(4) Uani 1 1 d . .
C9 C 1.3339(2) 0.31143(15) 0.68349(14) 0.0226(5) Uani 1 1 d . .
H9 H 1.3905 0.2853 0.6413 0.027 Uiso 1 1 calc R U
C10 C 1.4033(3) 0.32423(16) 0.75545(14) 0.0265(5) Uani 1 1 d . .
H10 H 1.5068 0.3048 0.7633 0.032 Uiso 1 1 calc R U
C11 C 1.3220(3) 0.36541(17) 0.81618(14) 0.0272(5) Uani 1 1 d . .
H11 H 1.3699 0.3746 0.8654 0.033 Uiso 1 1 calc R U
C12 C 1.1707(3) 0.39307(15) 0.80480(13) 0.0232(5) Uani 1 1 d . .
H12 H 1.1162 0.4220 0.8464 0.028 Uiso 1 1 calc R U
C13 C 1.0967(2) 0.37942(14) 0.73364(13) 0.0196(4) Uani 1 1 d . .
C14 C 0.9331(2) 0.41507(15) 0.72272(13) 0.0203(4) Uani 1 1 d . .
H14 H 0.9345 0.4851 0.7251 0.024 Uiso 1 1 calc R U
C15 C 0.9817(2) 0.38905(14) 0.58297(13) 0.0204(4) Uani 1 1 d . .
H15 H 0.9282 0.3669 0.5347 0.025 Uiso 1 1 calc R U
C16 C 0.8288(3) 0.37915(16) 0.78641(14) 0.0238(5) Uani 1 1 d . .
H16 H 0.8061 0.3140 0.7871 0.029 Uiso 1 1 calc R U
C17 C 0.7672(3) 0.43172(18) 0.84103(14) 0.0300(5) Uani 1 1 d . .
H17A H 0.7874 0.4971 0.8421 0.036 Uiso 1 1 calc R U
H17B H 0.7024 0.4043 0.8794 0.036 Uiso 1 1 calc R U
C18 C 0.7363(3) 0.44179(16) 0.62274(14) 0.0262(5) Uani 1 1 d . .
H18A H 0.6577 0.4389 0.6645 0.031 Uiso 1 1 calc R U
H18B H 0.6911 0.4136 0.5752 0.031 Uiso 1 1 calc R U
C19 C 0.7748(3) 0.54581(17) 0.60602(16) 0.0307(5) Uani 1 1 d . .
H19A H 0.7003 0.5703 0.5674 0.037 Uiso 1 1 calc R U
H19B H 0.7615 0.5822 0.6547 0.037 Uiso 1 1 calc R U
C20 C 0.9361(3) 0.56164(15) 0.57554(13) 0.0253(5) Uani 1 1 d . .
C21 C 0.9850(3) 0.65286(16) 0.55949(14) 0.0308(5) Uani 1 1 d . .
H21 H 0.9149 0.7034 0.5656 0.037 Uiso 1 1 calc R U
C22 C 1.1343(3) 0.67076(17) 0.53481(15) 0.0341(6) Uani 1 1 d . .
H22 H 1.1655 0.7331 0.5234 0.041 Uiso 1 1 calc R U
C23 C 1.2374(3) 0.59774(18) 0.52682(14) 0.0313(6) Uani 1 1 d . .
H23 H 1.3400 0.6099 0.5105 0.038 Uiso 1 1 calc R U
C24 C 1.1909(3) 0.50627(16) 0.54272(13) 0.0248(5) Uani 1 1 d . .
H24 H 1.2620 0.4561 0.5371 0.030 Uiso 1 1 calc R U
C25 C 1.0412(3) 0.48808(15) 0.56669(12) 0.0223(5) Uani 1 1 d . .
N1 N 1.1092(2) 0.32340(12) 0.59848(10) 0.0187(4) Uani 1 1 d . .
N2 N 0.8697(2) 0.38628(12) 0.64642(11) 0.0205(4) Uani 1 1 d . .
O1 O 1.0206(2) 0.21612(11) 0.49384(9) 0.0251(4) Uani 1 1 d . .
O2 O 1.21068(18) 0.16055(10) 0.59025(9) 0.0252(4) Uani 1 1 d . .
S1 S 1.07432(6) 0.21222(3) 0.57258(3) 0.01860(15) Uani 1 1 d . .
loop_
_atom_site_aniso_label
_atom_site_aniso_U_11
_atom_site_aniso_U_22
_atom_site_aniso_U_33
_atom_site_aniso_U_23
_atom_site_aniso_U_13
_atom_site_aniso_U_12
C1 0.0297(13) 0.0265(11) 0.0459(14) 0.0053(11) 0.0115(11) -0.0021(11)
C2 0.0238(11) 0.0121(9) 0.0345(12) 0.0009(8) 0.0060(9) -0.0009(9)
C3 0.0184(10) 0.0187(10) 0.0351(12) -0.0009(9) -0.0015(9) 0.0002(9)
C4 0.0259(11) 0.0147(9) 0.0230(10) 0.0004(8) -0.0035(9) 0.0021(9)
C5 0.0200(10) 0.0107(8) 0.0216(10) -0.0019(8) 0.0023(8) -0.0009(9)
C6 0.0194(10) 0.0130(10) 0.0242(11) -0.0014(8) -0.0015(8) 0.0014(8)
C7 0.0296(12) 0.0133(8) 0.0224(11) 0.0022(8) 0.0026(9) 0.0033(9)
C8 0.0229(10) 0.0121(9) 0.0228(10) 0.0001(8) 0.0023(8) -0.0035(9)
C9 0.0200(10) 0.0190(10) 0.0289(11) 0.0001(9) 0.0038(9) -0.0010(9)
C10 0.0231(11) 0.0227(10) 0.0338(12) 0.0024(9) -0.0024(10) 0.0006(10)
C11 0.0270(11) 0.0279(11) 0.0267(12) 0.0024(10) -0.0043(9) -0.0039(11)
C12 0.0275(11) 0.0194(10) 0.0225(11) -0.0011(9) 0.0033(9) -0.0032(9)
C13 0.0216(10) 0.0130(8) 0.0242(10) 0.0008(8) 0.0033(9) -0.0035(9)
C14 0.0224(10) 0.0142(9) 0.0242(10) -0.0032(8) 0.0032(9) -0.0014(9)
C15 0.0217(10) 0.0151(10) 0.0245(11) -0.0031(8) -0.0014(9) 0.0017(9)
C16 0.0214(10) 0.0190(10) 0.0308(12) -0.0016(9) 0.0028(9) -0.0022(9)
C17 0.0285(12) 0.0288(11) 0.0326(12) -0.0050(10) 0.0089(10) -0.0045(10)
C18 0.0205(11) 0.0230(11) 0.0352(13) -0.0071(9) -0.0029(9) 0.0017(10)
C19 0.0301(13) 0.0216(11) 0.0404(13) -0.0014(10) -0.0060(10) 0.0076(11)
C20 0.0334(12) 0.0201(10) 0.0223(10) -0.0006(9) -0.0055(10) 0.0029(10)
C21 0.0451(14) 0.0187(11) 0.0286(12) 0.0027(9) -0.0045(11) 0.0054(11)
C22 0.0550(16) 0.0185(11) 0.0289(12) 0.0041(9) 0.0019(12) -0.0046(12)
C23 0.0411(14) 0.0287(12) 0.0240(11) 0.0029(9) 0.0071(10) -0.0077(12)
C24 0.0337(12) 0.0211(10) 0.0196(10) -0.0018(9) 0.0040(9) -0.0007(10)
C25 0.0314(12) 0.0186(10) 0.0167(10) -0.0012(8) -0.0034(9) 0.0007(9)
N1 0.0205(9) 0.0133(8) 0.0222(9) -0.0024(7) 0.0010(7) 0.0005(8)
N2 0.0189(9) 0.0162(8) 0.0263(9) -0.0051(7) 0.0005(8) -0.0003(7)
O1 0.0358(9) 0.0191(7) 0.0205(7) -0.0036(6) 0.0067(6) -0.0035(7)
O2 0.0223(8) 0.0174(7) 0.0360(9) -0.0029(6) 0.0065(6) 0.0011(6)
S1 0.0219(3) 0.0132(2) 0.0207(3) -0.00296(18) 0.0042(2) -0.0005(2)
loop_
_atom_type_symbol
_atom_type_description
_atom_type_scat_dispersion_real
_atom_type_scat_dispersion_imag
_atom_type_scat_source
C C 0.0181 0.0091 'International Tables Vol C Tables 4.2.6.8 and 6.1.1.4'
H H 0.0000 0.0000 'International Tables Vol C Tables 4.2.6.8 and 6.1.1.4'
N N 0.0311 0.0180 'International Tables Vol C Tables 4.2.6.8 and 6.1.1.4'
O O 0.0492 0.0322 'International Tables Vol C Tables 4.2.6.8 and 6.1.1.4'
S S 0.3331 0.5567 'International Tables Vol C Tables 4.2.6.8 and 6.1.1.4'
loop_
_geom_angle_atom_site_label_1
_geom_angle_atom_site_label_2
_geom_angle_atom_site_label_3
_geom_angle
C2 C1 H1A 109.5
C2 C1 H1B 109.5
H1A C1 H1B 109.5
C2 C1 H1C 109.5
H1A C1 H1C 109.5
H1B C1 H1C 109.5
C3 C2 C7 118.9(2)
C3 C2 C1 120.7(2)
C7 C2 C1 120.4(2)
C4 C3 C2 120.7(2)
C4 C3 H3 119.6
C2 C3 H3 119.6
C3 C4 C5 119.4(2)
C3 C4 H4 120.3
C5 C4 H4 120.3
C4 C5 C6 121.2(2)
C4 C5 S1 118.78(16)
C6 C5 S1 119.90(17)
C7 C6 C5 118.6(2)
C7 C6 H6 120.7
C5 C6 H6 120.7
C6 C7 C2 121.2(2)
C6 C7 H7 119.4
C2 C7 H7 119.4
C9 C8 C13 121.3(2)
C9 C8 N1 119.06(19)
C13 C8 N1 119.60(19)
C10 C9 C8 119.5(2)
C10 C9 H9 120.3
C8 C9 H9 120.3
C9 C10 C11 120.1(2)
C9 C10 H10 119.9
C11 C10 H10 119.9
C12 C11 C10 119.8(2)
C12 C11 H11 120.1
C10 C11 H11 120.1
C11 C12 C13 121.4(2)
C11 C12 H12 119.3
C13 C12 H12 119.3
C12 C13 C8 117.9(2)
C12 C13 C14 119.5(2)
C8 C13 C14 122.6(2)
N2 C14 C16 108.83(18)
N2 C14 C13 111.35(18)
C16 C14 C13 110.99(18)
N2 C14 H14 108.5
C16 C14 H14 108.5
C13 C14 H14 108.5
N2 C15 N1 110.40(17)
N2 C15 C25 112.70(17)
N1 C15 C25 111.48(17)
N2 C15 H15 107.3
N1 C15 H15 107.3
C25 C15 H15 107.3
C17 C16 C14 124.5(2)
C17 C16 H16 117.7
C14 C16 H16 117.7
C16 C17 H17A 120.0
C16 C17 H17B 120.0
H17A C17 H17B 120.0
N2 C18 C19 113.60(19)
N2 C18 H18A 108.8
C19 C18 H18A 108.8
N2 C18 H18B 108.8
C19 C18 H18B 108.8
H18A C18 H18B 107.7
C20 C19 C18 114.03(19)
C20 C19 H19A 108.7
C18 C19 H19A 108.7
C20 C19 H19B 108.7
C18 C19 H19B 108.7
H19A C19 H19B 107.6
C21 C20 C25 118.7(2)
C21 C20 C19 119.3(2)
C25 C20 C19 122.0(2)
C22 C21 C20 121.0(2)
C22 C21 H21 119.5
C20 C21 H21 119.5
C23 C22 C21 119.8(2)
C23 C22 H22 120.1
C21 C22 H22 120.1
C22 C23 C24 120.0(2)
C22 C23 H23 120.0
C24 C23 H23 120.0
C25 C24 C23 120.3(2)
C25 C24 H24 119.9
C23 C24 H24 119.9
C24 C25 C20 120.2(2)
C24 C25 C15 122.9(2)
C20 C25 C15 116.92(19)
C8 N1 C15 113.40(16)
C8 N1 S1 116.30(13)
C15 N1 S1 114.73(14)
C15 N2 C18 107.85(18)
C15 N2 C14 113.82(17)
C18 N2 C14 112.99(17)
O2 S1 O1 119.42(10)
O2 S1 N1 106.44(9)
O1 S1 N1 105.81(9)
O2 S1 C5 109.00(10)
O1 S1 C5 108.10(10)
N1 S1 C5 107.48(9)
loop_
_geom_bond_atom_site_label_1
_geom_bond_atom_site_label_2
_geom_bond_distance
C1 C2 1.502(3)
C1 H1A 0.9800
C1 H1B 0.9800
C1 H1C 0.9800
C2 C3 1.393(3)
C2 C7 1.394(3)
C3 C4 1.379(3)
C3 H3 0.9500
C4 C5 1.384(3)
C4 H4 0.9500
C5 C6 1.394(3)
C5 S1 1.758(2)
C6 C7 1.383(3)
C6 H6 0.9500
C7 H7 0.9500
C8 C9 1.393(3)
C8 C13 1.399(3)
C8 N1 1.440(3)
C9 C10 1.386(3)
C9 H9 0.9500
C10 C11 1.389(4)
C10 H10 0.9500
C11 C12 1.386(3)
C11 H11 0.9500
C12 C13 1.393(3)
C12 H12 0.9500
C13 C14 1.521(3)
C14 N2 1.478(3)
C14 C16 1.509(3)
C14 H14 1.0000
C15 N2 1.460(3)
C15 N1 1.474(3)
C15 C25 1.531(3)
C15 H15 1.0000
C16 C17 1.314(3)
C16 H16 0.9500
C17 H17A 0.9500
C17 H17B 0.9500
C18 N2 1.461(3)
C18 C19 1.549(3)
C18 H18A 0.9900
C18 H18B 0.9900
C19 C20 1.512(4)
C19 H19A 0.9900
C19 H19B 0.9900
C20 C21 1.397(3)
C20 C25 1.399(3)
C21 C22 1.388(4)
C21 H21 0.9500
C22 C23 1.381(4)
C22 H22 0.9500
C23 C24 1.393(3)
C23 H23 0.9500
C24 C25 1.388(3)
C24 H24 0.9500
N1 S1 1.6754(17)
O1 S1 1.4295(17)
O2 S1 1.4276(16)
loop_
_geom_hbond_atom_site_label_D
_geom_hbond_atom_site_label_H
_geom_hbond_atom_site_label_A
_geom_hbond_distance_DH
_geom_hbond_distance_HA
_geom_hbond_distance_DA
_geom_hbond_angle_DHA
_geom_hbond_site_symmetry_A
C18 H18B O1 0.99 2.65 3.547(3) 150.9 4_456
C15 H15 O1 1.00 2.40 2.923(3) 111.6 .
C9 H9 O1 0.95 2.58 3.468(3) 156.0 4_556
C4 H4 S1 0.95 3.00 3.851(2) 149.3 4_456
C4 H4 O1 0.95 2.62 3.213(3) 121.1 4_456
C18 H18B O1 0.99 2.65 3.547(3) 150.9 4_456
C15 H15 O1 1.00 2.40 2.923(3) 111.6 .
C9 H9 O1 0.95 2.58 3.468(3) 156.0 4_556
C4 H4 S1 0.95 3.00 3.851(2) 149.3 4_456
C4 H4 O1 0.95 2.62 3.213(3) 121.1 4_456
C4 H4 O1 0.95 2.62 3.213(3) 121.1 4_456
C4 H4 S1 0.95 3.00 3.851(2) 149.3 4_456
C9 H9 O1 0.95 2.58 3.468(3) 156.0 4_556
C15 H15 O1 1.00 2.40 2.923(3) 111.6 .
C18 H18B O1 0.99 2.65 3.547(3) 150.9 4_456
loop_
_geom_torsion_atom_site_label_1
_geom_torsion_atom_site_label_2
_geom_torsion_atom_site_label_3
_geom_torsion_atom_site_label_4
_geom_torsion
C7 C2 C3 C4 -0.3(3)
C1 C2 C3 C4 -179.6(2)
C2 C3 C4 C5 0.9(3)
C3 C4 C5 C6 -1.2(3)
C3 C4 C5 S1 -177.28(16)
C4 C5 C6 C7 0.8(3)
S1 C5 C6 C7 176.86(15)
C5 C6 C7 C2 -0.1(3)
C3 C2 C7 C6 -0.1(3)
C1 C2 C7 C6 179.2(2)
C13 C8 C9 C10 2.8(3)
N1 C8 C9 C10 -179.90(19)
C8 C9 C10 C11 -2.3(3)
C9 C10 C11 C12 0.5(3)
C10 C11 C12 C13 0.8(3)
C11 C12 C13 C8 -0.3(3)
C11 C12 C13 C14 -177.1(2)
C9 C8 C13 C12 -1.5(3)
N1 C8 C13 C12 -178.79(18)
C9 C8 C13 C14 175.19(18)
N1 C8 C13 C14 -2.1(3)
C12 C13 C14 N2 -174.68(18)
C8 C13 C14 N2 8.7(3)
C12 C13 C14 C16 -53.3(2)
C8 C13 C14 C16 130.1(2)
N2 C14 C16 C17 -125.7(3)
C13 C14 C16 C17 111.4(3)
N2 C18 C19 C20 30.6(3)
C18 C19 C20 C21 -179.0(2)
C18 C19 C20 C25 -2.4(3)
C25 C20 C21 C22 0.4(4)
C19 C20 C21 C22 177.1(2)
C20 C21 C22 C23 -0.8(4)
C21 C22 C23 C24 0.7(4)
C22 C23 C24 C25 -0.1(4)
C23 C24 C25 C20 -0.4(3)
C23 C24 C25 C15 178.3(2)
C21 C20 C25 C24 0.3(3)
C19 C20 C25 C24 -176.3(2)
C21 C20 C25 C15 -178.5(2)
C19 C20 C25 C15 4.8(3)
N2 C15 C25 C24 145.7(2)
N1 C15 C25 C24 20.9(3)
N2 C15 C25 C20 -35.5(3)
N1 C15 C25 C20 -160.28(19)
C9 C8 N1 C15 -153.03(18)
C13 C8 N1 C15 24.3(3)
C9 C8 N1 S1 70.7(2)
C13 C8 N1 S1 -111.95(18)
N2 C15 N1 C8 -53.3(2)
C25 C15 N1 C8 72.7(2)
N2 C15 N1 S1 83.63(18)
C25 C15 N1 S1 -150.29(15)
N1 C15 N2 C18 -171.86(17)
C25 C15 N2 C18 62.7(2)
N1 C15 N2 C14 61.9(2)
C25 C15 N2 C14 -63.5(2)
C19 C18 N2 C15 -60.4(2)
C19 C18 N2 C14 66.3(2)
C16 C14 N2 C15 -160.94(17)
C13 C14 N2 C15 -38.3(2)
C16 C14 N2 C18 75.6(2)
C13 C14 N2 C18 -161.74(18)
C8 N1 S1 O2 -45.65(17)
C15 N1 S1 O2 178.67(15)
C8 N1 S1 O1 -173.66(15)
C15 N1 S1 O1 50.66(17)
C8 N1 S1 C5 71.03(17)
C15 N1 S1 C5 -64.66(16)
C4 C5 S1 O2 -143.42(16)
C6 C5 S1 O2 40.42(19)
C4 C5 S1 O1 -12.2(2)
C6 C5 S1 O1 171.64(16)
C4 C5 S1 N1 101.60(17)
C6 C5 S1 N1 -74.56(19)
