#------------------------------------------------------------------------------
#$Date: 2017-07-05 00:08:44 +0300 (Wed, 05 Jul 2017) $
#$Revision: 198401 $
#$URL: file:///home/coder/svn-repositories/cod/cif/1/54/64/1546461.cif $
#------------------------------------------------------------------------------
#
# This file is available in the Crystallography Open Database (COD),
# http://www.crystallography.net/
#
# All data on this site have been placed in the public domain by the
# contributors.
#
data_1546461
loop_
_publ_author_name
'Xu, Wei'
'Wang, Gaonan'
'Sun, Ning'
'Liu, Yuanhong'
_publ_section_title
;
 Gold-Catalyzed Formal [3 + 2] Cycloaddition of Ynamides with
 4,5-Dihydro-1,2,4-oxadiazoles: Synthesis of Functionalized
 4-Aminoimidazoles.
;
_journal_issue                   12
_journal_name_full               'Organic letters'
_journal_page_first              3307
_journal_page_last               3310
_journal_paper_doi               10.1021/acs.orglett.7b01469
_journal_volume                  19
_journal_year                    2017
_chemical_formula_sum            'C18 H19 N3 O3 S'
_chemical_formula_weight         357.42
_chemical_name_systematic
; 
 ? 
;
_space_group_crystal_system      monoclinic
_space_group_IT_number           14
_space_group_name_Hall           '-P 2yn'
_space_group_name_H-M_alt        'P 1 21/n 1'
_symmetry_space_group_name_Hall  '-P 2yn'
_symmetry_space_group_name_H-M   'P 1 21/n 1'
_atom_sites_solution_hydrogens   mixed
_audit_creation_method           SHELXL-2013
_cell_angle_alpha                90
_cell_angle_beta                 100.034(3)
_cell_angle_gamma                90
_cell_formula_units_Z            4
_cell_length_a                   7.4046(11)
_cell_length_b                   21.681(3)
_cell_length_c                   10.6160(16)
_cell_measurement_reflns_used    3342
_cell_measurement_temperature    293(2)
_cell_measurement_theta_max      56.368
_cell_measurement_theta_min      4.326
_cell_volume                     1678.2(4)
_computing_cell_refinement       'Bruker SMART'
_computing_data_collection       'Bruker SMART'
_computing_data_reduction        'Bruker SHELXTL'
_computing_molecular_graphics    'Bruker SHELXTL'
_computing_publication_material  'Bruker SHELXTL'
_computing_structure_refinement  'SHELXL-2013 (Sheldrick, 2013)'
_computing_structure_solution    'Bruker SHELXTL'
_diffrn_ambient_temperature      293(2)
_diffrn_measured_fraction_theta_full 1.000
_diffrn_measured_fraction_theta_max 1.000
_diffrn_measurement_device_type  'CCD area detector'
_diffrn_measurement_method       'phi and omega scans'
_diffrn_radiation_type           MoK\a
_diffrn_radiation_wavelength     0.71073
_diffrn_reflns_av_R_equivalents  0.0363
_diffrn_reflns_av_unetI/netI     0.0346
_diffrn_reflns_Laue_measured_fraction_full 1.000
_diffrn_reflns_Laue_measured_fraction_max 1.000
_diffrn_reflns_limit_h_max       8
_diffrn_reflns_limit_h_min       -8
_diffrn_reflns_limit_k_max       18
_diffrn_reflns_limit_k_min       -26
_diffrn_reflns_limit_l_max       12
_diffrn_reflns_limit_l_min       -12
_diffrn_reflns_number            9531
_diffrn_reflns_point_group_measured_fraction_full 1.000
_diffrn_reflns_point_group_measured_fraction_max 1.000
_diffrn_reflns_theta_full        25.242
_diffrn_reflns_theta_max         25.492
_diffrn_reflns_theta_min         1.879
_exptl_absorpt_coefficient_mu    0.216
_exptl_absorpt_correction_T_max  0.7456
_exptl_absorpt_correction_T_min  0.6583
_exptl_absorpt_correction_type   multi-scan
_exptl_absorpt_process_details   sadabs
_exptl_crystal_colour            colorless
_exptl_crystal_density_diffrn    1.415
_exptl_crystal_description       prismatic
_exptl_crystal_F_000             752
_exptl_crystal_size_max          0.220
_exptl_crystal_size_mid          0.170
_exptl_crystal_size_min          0.140
_refine_diff_density_max         0.247
_refine_diff_density_min         -0.330
_refine_diff_density_rms         0.048
_refine_ls_extinction_coef       0.027(2)
_refine_ls_extinction_expression Fc^*^=kFc[1+0.001xFc^2^\l^3^/sin(2\q)]^-1/4^
_refine_ls_extinction_method     SHELXL
_refine_ls_goodness_of_fit_ref   1.024
_refine_ls_hydrogen_treatment    mixed
_refine_ls_matrix_type           full
_refine_ls_number_parameters     234
_refine_ls_number_reflns         3115
_refine_ls_number_restraints     0
_refine_ls_restrained_S_all      1.024
_refine_ls_R_factor_all          0.0476
_refine_ls_R_factor_gt           0.0392
_refine_ls_shift/su_max          0.001
_refine_ls_shift/su_mean         0.000
_refine_ls_structure_factor_coef Fsqd
_refine_ls_weighting_details
'w=1/[\s^2^(Fo^2^)+(0.0598P)^2^+0.4413P] where P=(Fo^2^+2Fc^2^)/3'
_refine_ls_weighting_scheme      calc
_refine_ls_wR_factor_gt          0.1018
_refine_ls_wR_factor_ref         0.1086
_reflns_Friedel_coverage         0.000
_reflns_number_gt                2629
_reflns_number_total             3115
_reflns_threshold_expression     'I > 2\s(I)'
_cod_data_source_file            ol7b01469_si_002.cif
_cod_data_source_block           cd16627
_cod_database_code               1546461
_shelx_space_group_comment
; 
The symmetry employed for this shelxl refinement is uniquely defined 
by the following loop, which should always be used as a source of 
symmetry information in preference to the above space-group names. 
They are only intended as comments. 
;
_shelx_estimated_absorpt_t_min   0.954
_shelx_estimated_absorpt_t_max   0.970
_shelxl_version_number           2013-4
_shelx_res_file
; 
TITL cd16627 in P2(1)/n 
CELL 0.71073   7.4046  21.6811  10.6160  90.000 100.034  90.000 
ZERR    4.00   0.0011   0.0034   0.0016   0.000   0.003   0.000 
LATT 1 
SYMM 0.5-X, 0.5+Y, 0.5-Z 
SFAC C  H  N  O  S 
UNIT 72 76 12 12 4 
OMIT  -3.00  51.00 
L.S. 10 
ACTA 
BOND $H 
FMAP 2 
PLAN 20 
wpdb -1 
size 0.22 0.17 0.14 
mpla c11 > c16 
mpla n1 n2 c1 c2 c3 
mpla c4 > c9 
htab 
conf 
WGHT    0.059800    0.441300 
EXTI    0.027374 
FVAR       0.16154 
MOLE 1 
S1    5    1.064240    0.112389    0.309076    11.00000    0.05365    0.02582 = 
         0.02459   -0.00225    0.00225   -0.00515 
N1    3    0.825632   -0.050969    0.061117    11.00000    0.04012    0.02856 = 
         0.02459   -0.00519    0.00387   -0.00347 
N2    3    0.922807   -0.031669    0.265355    11.00000    0.03966    0.03012 = 
         0.02784   -0.00294    0.00274   -0.00122 
N3    3    0.864722    0.078497    0.268822    11.00000    0.04634    0.03028 = 
         0.02595   -0.00462    0.00135    0.00112 
O1    4    0.456623    0.154911   -0.341485    11.00000    0.05751    0.04045 = 
         0.03525    0.00199   -0.00639    0.00718 
O2    4    1.149467    0.111541    0.197802    11.00000    0.06842    0.04146 = 
         0.03336   -0.00361    0.01373   -0.01644 
O3    4    1.031500    0.170104    0.365101    11.00000    0.08141    0.02764 = 
         0.04089   -0.00831    0.00399   -0.00389 
C1    1    0.900445   -0.075018    0.176502    11.00000    0.03178    0.03007 = 
         0.02604   -0.00083    0.00477   -0.00350 
C2    1    0.862325    0.021475    0.202078    11.00000    0.03603    0.02801 = 
         0.02832   -0.00348    0.00347   -0.00241 
C3    1    0.798164    0.011435    0.074521    11.00000    0.03337    0.02878 = 
         0.02965   -0.00350    0.00575   -0.00341 
C4    1    0.709939    0.050447   -0.030796    11.00000    0.03104    0.03242 = 
         0.02799   -0.00177    0.00287   -0.00405 
C5    1    0.687197    0.113641   -0.017777    11.00000    0.05544    0.03588 = 
         0.03097   -0.00568   -0.00295   -0.00163 
AFIX  43 
H5    2    0.730520    0.131975    0.060884    11.00000   -1.20000 
AFIX   0 
C6    1    0.602438    0.150269   -0.117603    11.00000    0.05334    0.03146 = 
         0.03675   -0.00238   -0.00045    0.00125 
AFIX  43 
H6    2    0.588231    0.192346   -0.105391    11.00000   -1.20000 
AFIX   0 
C7    1    0.539072    0.123903   -0.235522    11.00000    0.03325    0.03714 = 
         0.03254    0.00225    0.00029    0.00072 
C8    1    0.559172    0.061162   -0.249978    11.00000    0.05584    0.04340 = 
         0.03063   -0.01028   -0.00774    0.00441 
AFIX  43 
H8    2    0.515756    0.042963   -0.328765    11.00000   -1.20000 
AFIX   0 
C9    1    0.642095    0.025147   -0.150149    11.00000    0.05259    0.03016 = 
         0.03545   -0.00497   -0.00339    0.00458 
AFIX  43 
H9    2    0.653189   -0.017054   -0.162510    11.00000   -1.20000 
AFIX   0 
C10   1    0.420965    0.218740   -0.327963    11.00000    0.05029    0.04288 = 
         0.04630    0.01003    0.00925    0.00734 
AFIX 137 
H10A  2    0.355469    0.224555   -0.258379    11.00000   -1.50000 
H10B  2    0.348430    0.233925   -0.405580    11.00000   -1.50000 
H10C  2    0.534904    0.240869   -0.310792    11.00000   -1.50000 
AFIX   0 
C11   1    0.947074   -0.140226    0.199436    11.00000    0.03204    0.03077 = 
         0.03005   -0.00144    0.00650   -0.00145 
C12   1    0.916082   -0.184718    0.103436    11.00000    0.05248    0.03564 = 
         0.02839   -0.00083    0.00718   -0.00324 
AFIX  43 
H12   2    0.864729   -0.173395    0.020412    11.00000   -1.20000 
AFIX   0 
C13   1    0.961498   -0.245723    0.131265    11.00000    0.06093    0.03493 = 
         0.04118   -0.00879    0.01469   -0.00209 
AFIX  43 
H13   2    0.941098   -0.275091    0.066490    11.00000   -1.20000 
AFIX   0 
C14   1    1.036634   -0.263449    0.253917    11.00000    0.05073    0.03115 = 
         0.05661    0.00496    0.01122    0.01060 
AFIX  43 
H14   2    1.066937   -0.304521    0.271925    11.00000   -1.20000 
AFIX   0 
C15   1    1.066443   -0.219800    0.349576    11.00000    0.04975    0.04517 = 
         0.04038    0.00387   -0.00408    0.01066 
AFIX  43 
H15   2    1.115718   -0.231463    0.432777    11.00000   -1.20000 
AFIX   0 
C16   1    1.023312   -0.158820    0.322134    11.00000    0.04712    0.04004 = 
         0.03302   -0.00603   -0.00078    0.00678 
AFIX  43 
H16   2    1.045801   -0.129629    0.387170    11.00000   -1.20000 
AFIX   0 
C17   1    0.732802    0.084591    0.356773    11.00000    0.05523    0.04884 = 
         0.05376   -0.01493    0.01486    0.00422 
AFIX 137 
H17A  2    0.611665    0.075457    0.311931    11.00000   -1.50000 
H17B  2    0.736049    0.125996    0.389133    11.00000   -1.50000 
H17C  2    0.764547    0.056299    0.426688    11.00000   -1.50000 
AFIX   0 
C18   1    1.198434    0.066817    0.426064    11.00000    0.05208    0.04553 = 
         0.03494    0.00042   -0.00440    0.00084 
AFIX 137 
H18A  2    1.314461    0.086612    0.454046    11.00000   -1.50000 
H18B  2    1.218071    0.027138    0.390653    11.00000   -1.50000 
H18C  2    1.136222    0.061757    0.497529    11.00000   -1.50000 
AFIX   0 
H1    2    0.813113   -0.069599   -0.010882    11.00000    0.04137 
HKLF 4 
  
REM  cd16627 in P2(1)/n 
REM R1 =  0.0392 for    2629 Fo > 4sig(Fo)  and  0.0476 for all    3115 data 
REM    234 parameters refined using      0 restraints 
  
END 
  
WGHT      0.0592      0.4495 
  
REM Instructions for potential hydrogen bonds 
HTAB C18 N2 
EQIV $1 -x+2, -y, -z 
HTAB N1 O2_$1 
  
REM Highest difference peak  0.247,  deepest hole -0.330,  1-sigma level  0.048 
Q1    1   0.9516  0.0908  0.2865  11.00000  0.05    0.25 
Q2    1   1.1343  0.0901  0.3723  11.00000  0.05    0.23 
Q3    1   0.8152  0.0799  0.3035  11.00000  0.05    0.19 
Q4    1   0.8020  0.0224  0.1416  11.00000  0.05    0.19 
Q5    1   0.9232 -0.1106  0.1860  11.00000  0.05    0.18 
Q6    1   0.8758  0.0507  0.2351  11.00000  0.05    0.18 
Q7    1   0.8072  0.0918  0.2585  11.00000  0.05    0.18 
Q8    1   0.6341  0.0955 -0.2364  11.00000  0.05    0.16 
Q9    1   0.9231  0.1671  0.3809  11.00000  0.05    0.16 
Q10   1   0.6343  0.0348 -0.0767  11.00000  0.05    0.16 
Q11   1   0.9825 -0.1603  0.1441  11.00000  0.05    0.16 
Q12   1   0.4348  0.1228  0.0044  11.00000  0.05    0.15 
Q13   1   1.4151  0.0907  0.4073  11.00000  0.05    0.15 
Q14   1   0.7458  0.0444 -0.0943  11.00000  0.05    0.15 
Q15   1   0.9420 -0.1500  0.2601  11.00000  0.05    0.15 
Q16   1   0.7434  0.0772 -0.0259  11.00000  0.05    0.14 
Q17   1   0.7649 -0.0220  0.0667  11.00000  0.05    0.14 
Q18   1   0.6282  0.1384 -0.1859  11.00000  0.05    0.14 
Q19   1   0.2992  0.2231 -0.2831  11.00000  0.05    0.14 
Q20   1   0.9879 -0.2088  0.1247  11.00000  0.05    0.14 
;
_shelx_res_checksum              87339
_shelx_hkl_file
; 
   1   0   0   -0.31    0.02 
   1   0   0   -0.23    0.02 
   2   0   0  254.17    7.98 
   2   0   0  231.16    8.12 
   3   0   0   -0.09    0.03 
   3   0   0   -0.02    0.03 
   4   0   0    5.14    0.25 
   4   0   0    4.91    0.28 
  -5   0   0   -0.04    0.05 
   5   0   0    0.00    0.04 
   5   0   0    0.00    0.06 
  -6   0   0    6.97    0.35 
   6   0   0    6.90    0.42 
   6   0   0    7.13    0.33 
   7   0   0    0.00    0.08 
   8   0   0   11.69    0.66 
   9   0   0   -0.04    0.14 
   9  -1   0    0.36    0.19 
   8  -1   0    0.37    0.16 
   7  -1   0    0.55    0.14 
   6  -1   0    2.79    0.19 
   6  -1   0    2.60    0.26 
  -6   1   0    2.98    0.20 
   5  -1   0    4.93    0.30 
   5  -1   0    4.55    0.25 
   4  -1   0    1.76    0.13 
   4  -1   0    2.26    0.18 
   3  -1   0   24.89    0.91 
   3  -1   0   23.58    0.85 
   2  -1   0  126.04    3.98 
   2  -1   0  114.91    4.07 
   1  -1   0  160.99    5.74 
   1  -1   0  181.72    5.70 
   0  -1   0   -0.14    0.00 
   1   1   0  164.86    5.55 
   1   1   0  171.59    5.47 
   1   1   0  159.79    5.50 
   2   1   0  117.51    4.06 
   2   1   0  120.51    3.97 
   2   1   0  122.93    3.99 
   3   1   0   24.92    0.91 
   3   1   0   24.78    0.84 
   3   1   0   22.65    0.86 
   4   1   0    1.90    0.16 
   4   1   0    1.91    0.14 
   4   1   0    1.73    0.12 
   5   1   0    4.27    0.29 
   5   1   0    4.94    0.24 
  -6  -1   0    2.95    0.22 
   6   1   0    3.17    0.28 
   7   1   0    0.50    0.14 
   8   1   0    0.58    0.19 
   9   1   0    0.76    0.24 
   9  -2   0    1.80    0.31 
   8  -2   0   -0.04    0.10 
   7  -2   0    1.18    0.20 
   6  -2   0    1.77    0.22 
   5  -2   0   10.90    0.46 
   5  -2   0   10.78    0.52 
   4  -2   0   21.87    0.85 
   4  -2   0   21.14    0.78 
   3  -2   0  116.00    4.11 
   3  -2   0  125.65    4.01 
   2  -2   0  321.55    9.69 
   2  -2   0  268.36    9.85 
   1  -2   0    4.52    0.20 
   1  -2   0    4.81    0.17 
   0  -2   0   92.64    3.07 
  -1  -2   0    4.16    0.18 
   1   2   0    4.49    0.19 
   1   2   0    4.34    0.16 
   2   2   0  285.58    9.60 
   2   2   0  284.55    9.43 
   2   2   0  290.39    9.43 
   3   2   0  116.02    3.81 
   3   2   0  114.78    3.85 
   3   2   0  114.32    3.92 
  -4  -2   0   21.07    0.80 
   4   2   0   21.25    0.76 
   4   2   0   21.31    0.84 
  -5  -2   0   10.24    0.47 
   5   2   0   10.86    0.52 
   5   2   0   11.68    0.44 
   6   2   0    1.57    0.21 
   7   2   0    0.96    0.18 
   8   2   0    0.04    0.12 
   9   2   0    1.26    0.27 
   9  -3   0    0.15    0.17 
   8  -3   0    1.12    0.22 
   7  -3   0    0.04    0.08 
   6  -3   0   19.84    0.87 
   5  -3   0    0.17    0.09 
   5  -3   0    0.42    0.08 
   4  -3   0   12.00    0.53 
   4  -3   0   12.37    0.47 
   3  -3   0   42.53    1.42 
   3  -3   0   40.86    1.49 
   2  -3   0  305.65   10.01 
   2  -3   0  304.35   10.20 
   1  -3   0   17.91    0.61 
   1  -3   0   17.99    0.64 
   0  -3   0    0.04    0.03 
  -1  -3   0   17.24    0.61 
   1   3   0   17.08    0.62 
  -2  -3   0  347.30   10.88 
   2   3   0  332.60   10.88 
   2   3   0  313.29   11.06 
  -3  -3   0   40.42    1.43 
   3   3   0   41.91    1.39 
   3   3   0   41.10    1.48 
  -4  -3   0   12.78    0.53 
   4   3   0   12.88    0.48 
   4   3   0   13.32    0.57 
  -5  -3   0    0.32    0.08 
   5   3   0    0.44    0.07 
   5   3   0    0.42    0.11 
  -6  -3   0   20.08    0.81 
   6   3   0   19.14    0.86 
   7   3   0    0.08    0.10 
   8   3   0    0.75    0.19 
   9   3   0    0.30    0.20 
   9  -4   0    0.92    0.24 
   8  -4   0    0.73    0.18 
   7  -4   0   -0.14    0.07 
   6  -4   0    1.85    0.22 
   5  -4   0    3.10    0.25 
   5  -4   0    3.27    0.18 
   4  -4   0    1.33    0.15 
   4  -4   0    1.54    0.10 
   3  -4   0    0.54    0.09 
   3  -4   0    0.55    0.05 
   2  -4   0   37.46    1.33 
   2  -4   0   37.62    1.26 
   1  -4   0   17.48    0.60 
   1  -4   0   17.23    0.63 
   0  -4   0  118.06    3.90 
  -1  -4   0   16.20    0.59 
   1   4   0   16.31    0.60 
  -2  -4   0   34.53    1.23 
   2   4   0   36.12    1.20 
   2   4   0   35.42    1.26 
  -3  -4   0    0.44    0.08 
   3   4   0    0.42    0.05 
   3   4   0    0.60    0.09 
  -4  -4   0    1.51    0.15 
   4   4   0    1.62    0.16 
   4   4   0    1.57    0.11 
  -5  -4   0    3.51    0.23 
   5   4   0    3.41    0.18 
   5   4   0    2.67    0.23 
  -6  -4   0    1.88    0.20 
   6   4   0    1.84    0.23 
  -7  -4   0    0.04    0.11 
   7   4   0    0.01    0.09 
   8   4   0    0.79    0.20 
   9   4   0    1.16    0.27 
   9  -5   0    0.13    0.16 
   8  -5   0    0.38    0.16 
   7  -5   0    0.19    0.11 
   6  -5   0    1.66    0.21 
   5  -5   0   12.27    0.56 
   5  -5   0   11.14    0.45 
   4  -5   0   15.03    0.64 
   4  -5   0   15.14    0.55 
   3  -5   0    3.49    0.15 
   3  -5   0    2.92    0.19 
   2  -5   0    3.48    0.19 
   2  -5   0    3.32    0.15 
   1  -5   0   19.57    0.66 
   1  -5   0   18.05    0.69 
   0  -5   0   -0.03    0.03 
  -1  -5   0   16.33    0.60 
  -2  -5   0    2.91    0.17 
   2   5   0    3.05    0.18 
  -3  -5   0    3.14    0.20 
   3   5   0    3.42    0.21 
   3   5   0    3.10    0.15 
  -4  -5   0   14.68    0.62 
   4   5   0   15.37    0.56 
   4   5   0   15.14    0.65 
  -5  -5   0   10.96    0.52 
   5   5   0   11.97    0.45 
   5   5   0   11.29    0.56 
  -6  -5   0    1.83    0.20 
   6   5   0    1.62    0.22 
  -7  -5   0    0.09    0.11 
   7   5   0    0.04    0.09 
   8   5   0    0.12    0.14 
   9   5   0    0.33    0.19 
   9  -6   0    0.19    0.17 
   8  -6   0    0.41    0.16 
   7  -6   0    0.02    0.10 
   6  -6   0    0.71    0.15 
   5  -6   0    1.10    0.16 
   4  -6   0    1.91    0.18 
   4  -6   0    2.10    0.12 
   3  -6   0   10.13    0.38 
   3  -6   0    9.96    0.45 
   2  -6   0   36.53    1.32 
   2  -6   0   37.61    1.26 
   1  -6   0    2.00    0.11 
   1  -6   0    1.79    0.12 
   0  -6   0   46.49    1.58 
  -1  -6   0    1.76    0.12 
  -2  -6   0   33.54    1.20 
   2   6   0   34.26    1.23 
  -3  -6   0    9.04    0.40 
   3   6   0    8.84    0.41 
  -4  -6   0    1.94    0.18 
   4   6   0    2.04    0.13 
   4   6   0    1.96    0.19 
  -5  -6   0    1.31    0.17 
   5   6   0    1.14    0.10 
   5   6   0    0.97    0.16 
  -6  -6   0    1.16    0.18 
   6   6   0    0.93    0.17 
  -7  -6   0    0.04    0.12 
   7   6   0    0.09    0.11 
   8   6   0    0.48    0.17 
   9   6   0    0.30    0.19 
   9  -7   0   -0.03    0.14 
   8  -7   0    0.98    0.22 
   7  -7   0    1.17    0.21 
   6  -7   0    1.92    0.23 
   5  -7   0    3.29    0.25 
   4  -7   0    2.52    0.20 
   4  -7   0    2.52    0.13 
   3  -7   0   21.81    0.84 
   3  -7   0   21.30    0.75 
   2  -7   0    0.39    0.07 
   2  -7   0    0.47    0.05 
   1  -7   0    0.44    0.07 
   1  -7   0    0.50    0.06 
   0  -7   0    0.04    0.03 
  -1  -7   0    0.72    0.09 
  -2  -7   0    0.37    0.08 
   2   7   0    0.32    0.07 
  -3  -7   0   21.56    0.83 
   3   7   0   21.59    0.86 
  -4  -7   0    2.24    0.19 
   4   7   0    2.39    0.19 
  -5  -7   0    2.88    0.23 
   5   7   0    3.02    0.25 
  -6  -7   0    2.05    0.23 
   6   7   0    2.21    0.25 
  -7  -7   0    1.95    0.24 
   7   7   0    1.77    0.25 
   8   7   0    0.98    0.23 
   9   7   0    0.01    0.16 
   9  -8   0    0.06    0.15 
   8  -8   0    1.35    0.24 
   7  -8   0    0.28    0.13 
   6  -8   0    0.19    0.10 
   5  -8   0    3.45    0.27 
   4  -8   0    1.25    0.09 
   4  -8   0    1.13    0.15 
   3  -8   0    1.66    0.10 
   3  -8   0    1.64    0.16 
   2  -8   0   39.42    1.42 
   2  -8   0   39.47    1.35 
   1  -8   0    8.47    0.34 
   1  -8   0    8.11    0.36 
   0  -8   0   18.13    0.68 
  -1  -8   0    8.01    0.35 
  -2  -8   0   37.40    1.36 
   2   8   0   38.57    1.39 
  -3  -8   0    1.57    0.16 
   3   8   0    1.63    0.16 
  -4  -8   0    1.12    0.15 
   4   8   0    1.10    0.16 
  -5  -8   0    2.88    0.24 
   5   8   0    2.87    0.26 
  -6  -8   0    0.21    0.12 
   6   8   0    0.07    0.10 
  -7  -8   0    0.46    0.15 
   7   8   0    0.15    0.13 
   8   8   0    2.20    0.31 
   9   8   0   -0.02    0.17 
   9  -9   0    0.08    0.16 
   8  -9   0    0.43    0.18 
   7  -9   0    4.50    0.35 
   6  -9   0    0.07    0.10 
   5  -9   0    5.37    0.35 
   4  -9   0    2.15    0.20 
   4  -9   0    2.57    0.13 
   3  -9   0    0.21    0.05 
   3  -9   0    0.19    0.07 
   2  -9   0    4.55    0.25 
   2  -9   0    4.27    0.21 
   1  -9   0    1.03    0.10 
   1  -9   0    0.84    0.10 
   0  -9   0   -0.01    0.03 
  -1  -9   0    0.79    0.10 
  -2  -9   0    3.88    0.23 
  -3  -9   0    0.05    0.07 
   3   9   0    0.10    0.06 
  -4  -9   0    2.17    0.21 
   4   9   0    2.60    0.21 
  -5  -9   0    5.60    0.35 
   5   9   0    5.17    0.35 
  -6  -9   0    0.01    0.10 
   6   9   0    0.12    0.11 
  -7  -9   0    4.75    0.37 
   7   9   0    5.25    0.40 
  -8  -9   0    0.54    0.19 
   8   9   0    0.54    0.19 
   9   9   0   -0.10    0.18 
   9 -10   0    0.26    0.19 
   8 -10   0   -0.10    0.12 
   7 -10   0    0.07    0.11 
   6 -10   0    1.41    0.21 
   5 -10   0    5.85    0.36 
   4 -10   0   10.39    0.40 
   4 -10   0   10.15    0.50 
   3 -10   0    9.20    0.37 
   3 -10   0    8.83    0.43 
   2 -10   0   26.65    1.02 
   2 -10   0   27.45    0.97 
   1 -10   0    2.92    0.17 
   1 -10   0    2.89    0.18 
   0 -10   0   40.22    1.42 
  -1 -10   0    3.19    0.20 
  -2 -10   0   24.38    0.94 
  -3 -10   0    8.63    0.43 
   3  10   0    8.64    0.44 
  -4 -10   0   10.27    0.50 
   4  10   0    9.54    0.50 
  -5 -10   0    6.10    0.39 
   5  10   0    6.35    0.40 
  -6 -10   0    1.51    0.22 
   6  10   0    1.76    0.25 
  -7 -10   0    0.04    0.12 
   7  10   0    0.05    0.11 
  -8 -10   0    0.16    0.16 
   8  10   0    0.13    0.15 
   9  10   0   -0.17    0.16 
   9 -11   0    0.43    0.20 
   8 -11   0    2.35    0.32 
   7 -11   0    0.06    0.10 
   6 -11   0    1.20    0.20 
   5 -11   0   -0.05    0.07 
   4 -11   0   12.35    0.58 
   3 -11   0    0.08    0.04 
   3 -11   0    0.04    0.06 
   2 -11   0    8.57    0.36 
   2 -11   0    7.89    0.39 
   1 -11   0   39.94    1.42 
   1 -11   0   40.85    1.47 
   0 -11   0   -0.01    0.05 
  -1 -11   0   37.99    1.38 
  -2 -11   0    8.14    0.40 
  -3 -11   0   -0.12    0.05 
  -4 -11   0   12.71    0.60 
   4  11   0   12.67    0.62 
  -5 -11   0    0.17    0.11 
   5  11   0    0.04    0.09 
  -6 -11   0    1.19    0.21 
   6  11   0    1.16    0.22 
  -7 -11   0    0.21    0.15 
   7  11   0    0.15    0.13 
  -8 -11   0    2.50    0.32 
   8  11   0    2.01    0.33 
   9  11   0    0.47    0.22 
   8 -12   0    3.11    0.35 
   7 -12   0    1.13    0.22 
   6 -12   0    0.65    0.16 
   5 -12   0    6.01    0.38 
   4 -12   0    2.92    0.26 
   3 -12   0   20.64    0.87 
   3 -12   0   21.93    0.79 
   2 -12   0    1.01    0.14 
   2 -12   0    1.25    0.12 
   1 -12   0    0.55    0.10 
   1 -12   0    0.70    0.10 
   0 -12   0    0.33    0.09 
  -1 -12   0    0.66    0.11 
  -2 -12   0    1.03    0.14 
  -3 -12   0   19.33    0.81 
  -4 -12   0    2.64    0.26 
   4  12   0    3.17    0.28 
  -5 -12   0    7.10    0.43 
   5  12   0    6.33    0.42 
  -6 -12   0    0.95    0.19 
   6  12   0    0.81    0.19 
  -7 -12   0    0.86    0.19 
   7  12   0    1.00    0.22 
  -8 -12   0    3.65    0.38 
   8  12   0    2.87    0.38 
   8 -13   0    0.37    0.16 
   7 -13   0    2.17    0.29 
   6 -13   0    1.02    0.19 
   5 -13   0    8.32    0.47 
   4 -13   0   11.46    0.57 
   3 -13   0    5.12    0.26 
   3 -13   0    4.82    0.31 
   2 -13   0    0.02    0.05 
   2 -13   0    0.20    0.06 
   1 -13   0   24.00    0.92 
   1 -13   0   24.46    0.95 
   0 -13   0   -0.02    0.05 
  -1 -13   0   23.59    0.93 
  -2 -13   0    0.16    0.08 
  -3 -13   0    5.06    0.32 
  -4 -13   0   10.53    0.55 
  -5 -13   0    9.42    0.52 
   5  13   0    9.18    0.54 
  -6 -13   0    1.35    0.22 
   6  13   0    1.59    0.26 
  -7 -13   0    1.57    0.27 
   7  13   0    2.04    0.30 
  -8 -13   0    0.35    0.19 
   8  13   0    0.36    0.20 
   8 -14   0    0.12    0.15 
   7 -14   0    0.58    0.18 
   6 -14   0    0.07    0.11 
   5 -14   0    6.75    0.42 
   4 -14   0    0.19    0.11 
   3 -14   0    0.16    0.11 
   3 -14   0    0.03    0.06 
   2 -14   0    6.00    0.35 
   2 -14   0    6.29    0.31 
   1 -14   0   12.41    0.56 
   1 -14   0   12.14    0.53 
   0 -14   0   12.51    0.55 
  -1 -14   0   12.12    0.55 
  -2 -14   0    5.85    0.35 
  -3 -14   0    0.09    0.10 
  -4 -14   0    0.04    0.11 
  -5 -14   0    5.90    0.41 
   5  14   0    7.27    0.46 
  -6 -14   0    0.06    0.13 
   6  14   0    0.15    0.13 
  -7 -14   0    0.68    0.19 
   7  14   0    0.79    0.22 
  -8 -14   0    0.46    0.20 
   8  14   0    0.09    0.19 
   8 -15   0    0.94    0.23 
   7 -15   0    0.25    0.14 
   6 -15   0    9.80    0.57 
   5 -15   0    0.71    0.16 
   4 -15   0    4.06    0.31 
   3 -15   0    7.88    0.36 
   3 -15   0    7.28    0.42 
   2 -15   0   83.40    2.86 
   1 -15   0    7.01    0.36 
   1 -15   0    6.29    0.36 
   0 -15   0    0.04    0.06 
  -1 -15   0    6.95    0.38 
  -2 -15   0   83.57    2.94 
  -3 -15   0    6.17    0.40 
  -4 -15   0    3.99    0.32 
  -5 -15   0    0.85    0.19 
  -6 -15   0   10.80    0.62 
   6  15   0   10.95    0.65 
  -7 -15   0    0.07    0.14 
   7  15   0    0.19    0.16 
  -8 -15   0    0.53    0.21 
   8  15   0    0.42    0.24 
   8 -16   0    0.93    0.25 
   7 -16   0    0.46    0.17 
   6 -16   0    0.26    0.14 
   5 -16   0    0.04    0.11 
   4 -16   0    0.79    0.17 
   3 -16   0   17.06    0.69 
   3 -16   0   17.48    0.78 
   2 -16   0    1.19    0.15 
   2 -16   0    1.01    0.17 
   1 -16   0   23.67    0.94 
   1 -16   0   24.39    0.98 
   0 -16   0   -0.02    0.06 
  -1 -16   0   23.34    0.95 
  -2 -16   0    0.94    0.19 
  -3 -16   0   17.79    0.82 
  -4 -16   0    0.93    0.21 
  -5 -16   0    0.04    0.12 
  -6 -16   0    0.57    0.19 
  -7 -16   0    0.49    0.19 
   7  16   0    0.21    0.18 
  -8 -16   0    0.70    0.26 
   8  16   0    1.03    0.29 
   7 -17   0    0.08    0.14 
   6 -17   0    0.25    0.14 
   5 -17   0    0.43    0.15 
   4 -17   0    9.88    0.54 
   3 -17   0    0.29    0.12 
   2 -17   0    1.54    0.17 
   2 -17   0    1.46    0.20 
   1 -17   0    7.65    0.43 
   1 -17   0    7.89    0.41 
   0 -17   0   -0.12    0.06 
  -1 -17   0    7.74    0.44 
  -2 -17   0    0.98    0.18 
  -3 -17   0    0.53    0.16 
  -4 -17   0   10.72    0.60 
  -5 -17   0    0.32    0.16 
  -6 -17   0    0.53    0.19 
  -7 -17   0    0.10    0.17 
   7 -18   0    0.55    0.20 
   6 -18   0    0.03    0.11 
   5 -18   0    1.33    0.23 
   4 -18   0    2.35    0.27 
   3 -18   0    0.47    0.14 
   2 -18   0    3.15    0.23 
   2 -18   0    3.19    0.27 
   1 -18   0    0.02    0.10 
   1 -18   0    0.15    0.09 
   0 -18   0   20.73    0.88 
  -1 -18   0   -0.02    0.10 
  -2 -18   0    3.13    0.30 
  -3 -18   0    0.17    0.14 
  -4 -18   0    2.05    0.28 
  -5 -18   0    1.02    0.22 
  -6 -18   0    0.32    0.18 
  -7 -18   0    0.43    0.21 
   7 -19   0   -0.05    0.14 
   6 -19   0    0.34    0.15 
   5 -19   0    2.04    0.28 
   4 -19   0    1.42    0.23 
   3 -19   0    0.49    0.15 
   2 -19   0    1.32    0.21 
   2 -19   0    1.17    0.16 
   1 -19   0   -0.12    0.07 
   1 -19   0   -0.02    0.08 
   0 -19   0    0.12    0.10 
  -1 -19   0   -0.10    0.08 
  -2 -19   0    0.95    0.19 
  -3 -19   0    0.75    0.19 
  -4 -19   0    1.05    0.22 
  -5 -19   0    1.99    0.30 
  -6 -19   0    0.20    0.17 
  -7 -19   0    0.01    0.17 
   7 -20   0    0.12    0.17 
   6 -20   0    0.09    0.13 
   5 -20   0   -0.20    0.10 
   4 -20   0    2.40    0.29 
   3 -20   0    0.39    0.14 
   2 -20   0    1.37    0.18 
   2 -20   0    1.13    0.20 
   1 -20   0    0.67    0.16 
   1 -20   0    0.48    0.14 
   0 -20   0    5.90    0.39 
  -1 -20   0    0.50    0.15 
  -2 -20   0    0.98    0.20 
  -3 -20   0    0.31    0.15 
  -4 -20   0    1.78    0.29 
  -5 -20   0    0.01    0.13 
  -6 -20   0    0.06    0.16 
  -7 -20   0    0.07    0.20 
   6 -21   0    0.13    0.15 
   5 -21   0    0.54    0.18 
   4 -21   0    0.01    0.11 
   3 -21   0    0.19    0.13 
   2 -21   0    3.95    0.33 
   2 -21   0    4.75    0.31 
   1 -21   0    9.27    0.50 
   1 -21   0    8.85    0.51 
   0 -21   0    0.09    0.10 
  -1 -21   0    9.19    0.53 
  -2 -21   0    5.04    0.38 
  -3 -21   0    0.13    0.12 
  -4 -21   0    0.10    0.14 
  -5 -21   0    0.49    0.19 
  -6 -21   0   -0.13    0.15 
   6 -22   0    0.12    0.17 
   5 -22   0    0.04    0.14 
   4 -22   0    1.41    0.25 
   3 -22   0   -0.05    0.10 
   2 -22   0    4.71    0.37 
   1 -22   0    0.16    0.12 
   1 -22   0    0.14    0.11 
   0 -22   0   25.60    1.09 
  -1 -22   0    0.00    0.11 
  -2 -22   0    4.37    0.35 
  -3 -22   0   -0.14    0.11 
  -4 -22   0    1.75    0.29 
  -5 -22   0    0.02    0.15 
  -6 -22   0    0.06    0.17 
   5 -23   0    0.21    0.16 
   4 -23   0    1.81    0.28 
   3 -23   0    0.09    0.12 
   2 -23   0    1.29    0.23 
   1 -23   0    0.50    0.16 
   1 -23   0    0.53    0.14 
   0 -23   0    0.41    0.13 
  -1 -23   0    0.88    0.21 
  -2 -23   0    1.56    0.26 
  -3 -23   0   -0.01    0.12 
  -4 -23   0    1.76    0.30 
  -5 -23   0    0.25    0.17 
   5 -24   0    5.87    0.49 
   4 -24   0    2.25    0.31 
   3 -24   0    2.93    0.33 
   2 -24   0    0.11    0.13 
   1 -24   0    1.49    0.24 
   1 -24   0    1.77    0.24 
   0 -24   0    2.72    0.30 
  -1 -24   0    1.70    0.27 
  -2 -24   0    0.05    0.12 
  -3 -24   0    2.08    0.31 
  -4 -24   0    2.00    0.33 
  -5 -24   0    5.05    0.50 
   4 -25   0    1.15    0.24 
   3 -25   0    0.03    0.13 
   2 -25   0    5.41    0.42 
   1 -25   0    0.22    0.12 
   1 -25   0    0.03    0.12 
   0 -25   0    0.14    0.12 
  -1 -25   0    0.25    0.14 
  -2 -25   0    6.68    0.50 
  -3 -25   0   -0.02    0.16 
  -4 -25   0    0.95    0.24 
   4 -26   0    0.12    0.18 
   3 -26   0    0.42    0.18 
   2 -26   0    1.06    0.23 
   1 -26   0    2.29    0.31 
   1 -26   0    2.43    0.30 
   0 -26   0    5.19    0.42 
   0 -26   0    5.34    0.41 
  -1 -26   0    2.32    0.32 
  -2 -26   0    2.02    0.33 
  -3 -26   0    0.33    0.21 
  -4 -26   0    0.01    0.20 
   3 -27   0    0.33    0.17 
   2 -27   0    0.60    0.20 
   1 -27   0    3.88    0.39 
   0 -27   0    0.39    0.16 
   0 -27   0   -0.11    0.13 
  -1 -27   0    4.91    0.45 
  -2 -27   0    0.56    0.22 
  -3 -27   0    0.25    0.22 
   2 -28   0    1.37    0.28 
   1 -28   0    0.14    0.15 
   0 -28   0    1.50    0.28 
   0 -28   0    1.26    0.26 
  -1 -28   0    0.19    0.18 
  -2 -28   0    1.27    0.31 
  -2 -28   1    0.63    0.26 
  -1 -28   1    0.11    0.18 
   0 -28   1    0.74    0.21 
   0 -28   1    1.08    0.23 
   1 -28   1    0.17    0.16 
   2 -28   1    0.74    0.22 
  -3 -27   1    0.15    0.21 
  -2 -27   1    2.00    0.33 
  -1 -27   1    0.95    0.23 
   0 -27   1    0.50    0.18 
   0 -27   1    0.75    0.21 
   1 -27   1    0.49    0.19 
   2 -27   1    2.09    0.31 
   3 -27   1    0.21    0.18 
  -4 -26   1    0.20    0.22 
  -3 -26   1    1.47    0.31 
  -2 -26   1    0.43    0.18 
  -1 -26   1    0.19    0.15 
   0 -26   1    0.57    0.17 
   0 -26   1    0.79    0.20 
   1 -26   1    1.41    0.24 
   1 -26   1    1.57    0.26 
   2 -26   1   -0.03    0.11 
   3 -26   1    0.24    0.16 
   4 -26   1    0.89    0.25 
  -4 -25   1   -0.22    0.16 
  -3 -25   1   -0.01    0.15 
  -2 -25   1    0.14    0.14 
  -1 -25   1    2.92    0.33 
   0 -25   1    0.57    0.17 
   0 -25   1    0.28    0.15 
   1 -25   1    0.22    0.14 
   1 -25   1    0.56    0.15 
   2 -25   1    0.34    0.16 
   3 -25   1    3.12    0.35 
   4 -25   1    0.10    0.15 
  -5 -24   1    0.01    0.17 
  -4 -24   1   -0.08    0.15 
  -3 -24   1    0.67    0.20 
  -2 -24   1    1.25    0.25 
  -1 -24   1    1.13    0.22 
   0 -24   1    3.29    0.33 
   0 -24   1    3.53    0.34 
   1 -24   1    1.05    0.20 
   1 -24   1    1.07    0.20 
   2 -24   1    0.20    0.13 
   3 -24   1    0.13    0.13 
   4 -24   1    1.43    0.26 
   5 -24   1    0.09    0.16 
  -5 -23   1    0.15    0.16 
  -4 -23   1   -0.13    0.13 
  -3 -23   1    1.67    0.28 
  -2 -23   1   -0.04    0.11 
  -1 -23   1    2.86    0.31 
   0 -23   1    0.25    0.13 
   1 -23   1    2.62    0.29 
   1 -23   1    1.95    0.24 
   2 -23   1   -0.05    0.09 
   3 -23   1    0.24    0.13 
   4 -23   1    1.11    0.24 
   5 -23   1    0.22    0.16 
  -6 -22   1    0.91    0.26 
  -5 -22   1    1.64    0.29 
  -4 -22   1    0.30    0.18 
  -3 -22   1    5.70    0.43 
  -2 -22   1    0.07    0.12 
  -1 -22   1    0.53    0.15 
   0 -22   1    0.17    0.11 
   1 -22   1    9.93    0.54 
   1 -22   1    8.60    0.50 
   2 -22   1    0.24    0.13 
   2 -22   1    0.61    0.14 
   3 -22   1    1.40    0.24 
   4 -22   1    0.09    0.12 
   5 -22   1    2.00    0.30 
   6 -22   1    0.36    0.20 
  -6 -21   1    5.74    0.51 
  -5 -21   1    0.28    0.16 
  -4 -21   1    1.81    0.28 
  -3 -21   1    0.07    0.12 
  -2 -21   1    0.03    0.11 
  -1 -21   1   24.48    1.06 
   0 -21   1    8.70    0.50 
   1 -21   1    1.43    0.21 
   1 -21   1    1.77    0.24 
   2 -21   1    4.73    0.32 
   2 -21   1    4.69    0.35 
   3 -21   1    0.47    0.15 
   4 -21   1    8.65    0.54 
   5 -21   1    3.08    0.35 
   6 -21   1    2.35    0.33 
  -7 -20   1    1.22    0.29 
  -6 -20   1    0.15    0.17 
  -5 -20   1    0.13    0.14 
  -4 -20   1    0.01    0.13 
  -3 -20   1    1.09    0.21 
  -2 -20   1    4.36    0.35 
  -1 -20   1    4.66    0.35 
   0 -20   1   10.21    0.54 
   1 -20   1    0.10    0.09 
   1 -20   1   -0.01    0.09 
   2 -20   1    0.04    0.08 
   2 -20   1    0.05    0.09 
   3 -20   1    0.07    0.10 
   4 -20   1    3.53    0.34 
   5 -20   1    4.85    0.40 
   6 -20   1    2.51    0.33 
  -7 -19   1    0.15    0.18 
  -6 -19   1    2.88    0.36 
  -5 -19   1    0.73    0.20 
  -4 -19   1   16.16    0.81 
  -3 -19   1    0.58    0.16 
  -2 -19   1    6.02    0.41 
  -1 -19   1   49.29    1.86 
   0 -19   1    0.55    0.14 
   1 -19   1   13.03    0.64 
   1 -19   1   13.66    0.63 
   2 -19   1   82.22    2.82 
   2 -19   1   78.38    2.90 
   3 -19   1    1.51    0.22 
   4 -19   1    9.33    0.54 
   5 -19   1    0.77    0.19 
   6 -19   1    0.47    0.18 
   7 -19   1    4.31    0.44 
  -7 -18   1    3.40    0.40 
  -6 -18   1    2.59    0.34 
  -5 -18   1    6.04    0.44 
  -4 -18   1    0.25    0.14 
  -3 -18   1   13.37    0.68 
  -2 -18   1    3.99    0.32 
  -1 -18   1    2.66    0.27 
   0 -18   1   13.98    0.65 
   1 -18   1   39.73    1.53 
   1 -18   1   40.33    1.50 
   2 -18   1    0.04    0.10 
   2 -18   1    0.05    0.08 
   3 -18   1   41.34    1.52 
   3 -18   1   41.32    1.61 
   4 -18   1    1.26    0.22 
   5 -18   1    9.98    0.58 
   6 -18   1    0.57    0.18 
   7 -18   1    0.52    0.19 
  -7 -17   1    4.36    0.43 
  -6 -17   1    0.33    0.16 
  -5 -17   1    0.11    0.12 
  -4 -17   1    2.55    0.29 
  -3 -17   1   13.34    0.66 
  -2 -17   1    2.48    0.25 
  -1 -17   1    8.92    0.48 
   0 -17   1    0.37    0.12 
   1 -17   1    6.23    0.36 
   1 -17   1    7.08    0.39 
   2 -17   1   33.55    1.27 
   2 -17   1   34.38    1.34 
   3 -17   1   -0.01    0.11 
   3 -17   1    0.28    0.09 
   4 -17   1    0.75    0.17 
   5 -17   1    7.74    0.49 
   6 -17   1    1.71    0.26 
   7 -17   1    0.96    0.22 
   8  16  -1    0.87    0.27 
  -8 -16   1    0.98    0.26 
   7  16  -1    0.97    0.24 
  -7 -16   1    0.68    0.21 
  -6 -16   1    7.70    0.51 
  -5 -16   1    1.16    0.22 
  -4 -16   1   14.17    0.70 
  -3 -16   1    3.72    0.30 
  -2 -16   1   19.66    0.85 
  -1 -16   1    6.58    0.39 
   0 -16   1   18.24    0.77 
   1 -16   1    0.09    0.07 
   1 -16   1    0.21    0.10 
   2 -16   1   32.66    1.26 
   2 -16   1   31.79    1.21 
   3 -16   1    3.34    0.28 
   3 -16   1    3.59    0.24 
   4 -16   1   18.14    0.83 
   5 -16   1    7.91    0.49 
   6 -16   1    0.62    0.18 
   7 -16   1    0.02    0.14 
   8  15  -1    0.11    0.19 
  -8 -15   1    0.29    0.19 
   7  15  -1    2.85    0.36 
  -7 -15   1    2.89    0.34 
   6  15  -1    3.01    0.35 
  -6 -15   1    3.61    0.36 
  -5 -15   1    2.69    0.30 
  -4 -15   1    2.10    0.25 
  -3 -15   1    3.41    0.28 
  -2 -15   1    0.01    0.10 
  -1 -15   1    3.26    0.24 
   0 -15   1    4.36    0.28 
   1 -15   1   10.28    0.50 
   1 -15   1   11.09    0.50 
   2 -15   1   27.89    1.10 
   2 -15   1   27.57    1.05 
   3 -15   1   16.07    0.73 
   3 -15   1   16.71    0.67 
   4 -15   1    9.21    0.51 
   5 -15   1    1.91    0.24 
   6 -15   1    0.40    0.15 
   7 -15   1    2.86    0.34 
   8 -15   1    0.13    0.17 
   8  14  -1   -0.05    0.17 
  -8 -14   1    0.14    0.16 
   7  14  -1    1.28    0.26 
  -7 -14   1    1.62    0.27 
   6  14  -1    3.21    0.34 
  -6 -14   1    2.98    0.32 
   5  14  -1    0.22    0.12 
  -5 -14   1    0.39    0.15 
  -4 -14   1    5.31    0.36 
  -3 -14   1    7.46    0.43 
  -2 -14   1    1.16    0.17 
  -1 -14   1    6.56    0.36 
   0 -14   1    0.32    0.09 
   1 -14   1   28.93    1.09 
   1 -14   1   28.82    1.11 
   2 -14   1   10.51    0.50 
   2 -14   1   10.19    0.46 
   3 -14   1   13.99    0.59 
   3 -14   1   14.31    0.65 
   4 -14   1   12.39    0.61 
   5 -14   1    1.43    0.22 
   6 -14   1    0.04    0.11 
   7 -14   1    0.10    0.12 
   8 -14   1    0.64    0.20 
   8  13  -1    0.32    0.19 
  -8 -13   1   -0.03    0.15 
   7  13  -1    1.67    0.27 
  -7 -13   1    1.89    0.28 
   6  13  -1    0.17    0.12 
  -6 -13   1    0.13    0.12 
   5  13  -1    0.72    0.17 
  -5 -13   1    0.57    0.15 
  -4 -13   1    3.05    0.28 
  -3 -13   1    1.93    0.22 
  -2 -13   1    1.35    0.17 
  -1 -13   1    2.66    0.20 
   0 -13   1   23.06    0.90 
   1 -13   1    0.11    0.06 
   1 -13   1    0.06    0.05 
   2 -13   1   22.08    0.89 
   2 -13   1   21.92    0.84 
   3 -13   1    9.41    0.47 
   3 -13   1    9.35    0.42 
   4 -13   1    0.19    0.11 
   5 -13   1    0.43    0.14 
   6 -13   1    4.09    0.34 
   7 -13   1    0.04    0.13 
   8 -13   1    0.04    0.15 
   8  12  -1    1.96    0.32 
  -8 -12   1    2.36    0.32 
   7  12  -1    1.58    0.26 
  -7 -12   1    2.32    0.29 
   6  12  -1    0.12    0.10 
  -6 -12   1   -0.05    0.10 
   5  12  -1    0.06    0.09 
  -5 -12   1    0.05    0.10 
   4  12  -1    1.77    0.21 
  -4 -12   1    2.23    0.24 
  -3 -12   1    7.30    0.40 
  -2 -12   1   56.44    2.01 
  -1 -12   1    7.24    0.37 
   0 -12   1  143.33    4.82 
   1 -12   1   28.56    1.08 
   1 -12   1   30.23    1.11 
   2 -12   1    3.09    0.22 
   2 -12   1    3.46    0.21 
   3 -12   1    2.54    0.21 
   3 -12   1    2.53    0.17 
   4 -12   1    6.87    0.39 
   4 -12   1    6.53    0.31 
   5 -12   1    1.30    0.20 
   6 -12   1    7.70    0.47 
   7 -12   1    1.35    0.24 
   8 -12   1    1.39    0.25 
   9  11  -1    0.31    0.21 
   8  11  -1    0.66    0.22 
  -8 -11   1    0.43    0.19 
   7  11  -1    0.14    0.12 
  -7 -11   1    0.06    0.12 
   6  11  -1    1.19    0.21 
  -6 -11   1    1.21    0.21 
   5  11  -1    0.00    0.08 
  -5 -11   1   -0.11    0.09 
   4  11  -1    0.03    0.07 
  -4 -11   1    0.08    0.10 
  -3 -11   1    0.00    0.06 
  -2 -11   1    6.16    0.33 
  -1 -11   1   70.25    2.43 
   0 -11   1    2.67    0.19 
   1 -11   1    6.90    0.34 
   1 -11   1    7.59    0.34 
   2 -11   1    2.34    0.16 
   2 -11   1    2.27    0.18 
   3 -11   1    2.35    0.16 
   3 -11   1    1.90    0.19 
   4 -11   1    4.53    0.31 
   4 -11   1    5.01    0.25 
   5 -11   1    0.01    0.09 
   6 -11   1    7.22    0.45 
   7 -11   1    0.45    0.15 
   8 -11   1    0.68    0.21 
   9  10  -1    0.68    0.26 
   8  10  -1    0.16    0.15 
  -8 -10   1    0.11    0.16 
   7  10  -1    0.32    0.14 
  -7 -10   1    0.16    0.13 
   6  10  -1    0.55    0.15 
  -6 -10   1    0.63    0.16 
   5  10  -1    2.69    0.26 
  -5 -10   1    2.24    0.24 
   4  10  -1    0.09    0.07 
  -4 -10   1    0.13    0.08 
   3  10  -1    3.39    0.23 
  -3 -10   1    2.67    0.21 
  -2 -10   1    0.11    0.07 
  -1 -10   1    0.07    0.05 
   0 -10   1    2.66    0.18 
   1 -10   1    6.35    0.30 
   1 -10   1    6.60    0.31 
   2 -10   1    0.98    0.10 
   2 -10   1    0.79    0.11 
   3 -10   1   27.34    1.06 
   3 -10   1   27.17    0.99 
   4 -10   1    3.39    0.19 
   4 -10   1    2.95    0.24 
   5 -10   1    0.58    0.14 
   6 -10   1    0.17    0.11 
   7 -10   1    1.59    0.24 
   8 -10   1    0.30    0.16 
   9   9  -1    0.34    0.20 
   8   9  -1    0.62    0.20 
   7   9  -1    0.45    0.15 
  -7  -9   1    0.46    0.16 
   6   9  -1    1.78    0.23 
  -6  -9   1    1.67    0.22 
   5   9  -1    0.84    0.16 
  -5  -9   1    0.61    0.14 
   4   9  -1   26.19    1.03 
  -4  -9   1   24.89    0.99 
   3   9  -1    4.01    0.25 
  -3  -9   1    3.73    0.24 
  -2  -9   1   61.67    2.15 
  -1  -9   1   11.45    0.48 
   0  -9   1    0.35    0.07 
   1  -9   1   33.35    1.18 
   1  -9   1   33.51    1.21 
   2  -9   1   70.33    2.38 
   2  -9   1   70.33    2.45 
   3  -9   1   13.82    0.53 
   3  -9   1   12.94    0.58 
   4  -9   1    1.02    0.10 
   4  -9   1    0.81    0.14 
   5  -9   1    0.31    0.11 
   6  -9   1    6.77    0.42 
   7  -9   1    2.27    0.28 
   8  -9   1    2.73    0.33 
   9  -9   1    0.69    0.23 
   9   8  -1    0.62    0.23 
   8   8  -1    0.28    0.16 
   7   8  -1    0.20    0.13 
  -7  -8   1    0.19    0.13 
   6   8  -1   -0.14    0.08 
  -6  -8   1   -0.01    0.09 
   5   8  -1    6.22    0.38 
   5   8  -1    6.30    0.31 
  -5  -8   1    6.57    0.36 
   4   8  -1    0.37    0.10 
  -4  -8   1    0.33    0.10 
   3   8  -1   37.41    1.33 
  -3  -8   1   33.50    1.28 
  -2  -8   1   23.21    0.88 
  -1  -8   1   17.93    0.69 
   0  -8   1  173.62    5.76 
   1  -8   1   32.69    1.13 
   1  -8   1   31.44    1.15 
   2  -8   1    9.34    0.41 
   2  -8   1    9.04    0.37 
   3  -8   1   20.44    0.80 
   3  -8   1   19.51    0.73 
   4  -8   1    0.04    0.04 
   4  -8   1   -0.01    0.05 
   5  -8   1    3.46    0.27 
   6  -8   1    0.85    0.17 
   7  -8   1    0.09    0.11 
   8  -8   1    0.60    0.19 
   9  -8   1    0.24    0.18 
   9   7  -1    2.10    0.34 
   8   7  -1    0.29    0.15 
   7   7  -1    1.59    0.24 
  -7  -7   1    1.40    0.21 
   6   7  -1    0.65    0.15 
  -6  -7   1    0.39    0.12 
   5   7  -1    9.25    0.48 
   5   7  -1    8.70    0.39 
  -5  -7   1    9.03    0.45 
   4   7  -1    0.35    0.09 
   4   7  -1    0.24    0.07 
  -4  -7   1    0.24    0.08 
   3   7  -1    0.16    0.05 
   3   7  -1    0.16    0.06 
  -3  -7   1    0.24    0.07 
   2   7  -1    9.62    0.41 
  -2  -7   1    9.23    0.41 
  -1  -7   1    3.79    0.20 
   0  -7   1   22.91    0.83 
   1  -7   1   28.24    1.00 
   1  -7   1   28.45    1.02 
   2  -7   1   21.14    0.81 
   2  -7   1   21.37    0.77 
   3  -7   1    2.64    0.15 
   3  -7   1    2.51    0.18 
   4  -7   1    9.20    0.44 
   4  -7   1    8.26    0.36 
   5  -7   1    3.60    0.20 
   5  -7   1    3.15    0.26 
   6  -7   1    0.22    0.11 
   7  -7   1    3.04    0.31 
   8  -7   1    0.76    0.21 
   9  -7   1   -0.03    0.15 
   9   6  -1    0.17    0.17 
   8   6  -1    3.50    0.36 
   7   6  -1    8.41    0.50 
  -7  -6   1    8.27    0.46 
   6   6  -1    6.49    0.40 
  -6  -6   1    6.49    0.37 
   5   6  -1    3.06    0.19 
   5   6  -1    2.87    0.23 
  -5  -6   1    2.55    0.21 
   4   6  -1    7.20    0.31 
   4   6  -1    6.77    0.36 
  -4  -6   1    6.51    0.34 
   3   6  -1   21.67    0.79 
   3   6  -1   22.91    0.85 
  -3  -6   1   20.45    0.81 
   2   6  -1   14.96    0.59 
  -2  -6   1   14.77    0.58 
  -1  -6   1    3.64    0.19 
   0  -6   1  115.86    3.85 
   1  -6   1    4.33    0.20 
   1  -6   1    4.54    0.21 
   2  -6   1    0.14    0.05 
   2  -6   1    0.26    0.05 
   3  -6   1    0.13    0.06 
   3  -6   1    0.11    0.04 
   4  -6   1   23.75    0.88 
   4  -6   1   25.22    0.97 
   5  -6   1   11.60    0.56 
   5  -6   1   11.10    0.47 
   6  -6   1    9.26    0.51 
   7  -6   1    0.05    0.11 
   8  -6   1    0.92    0.20 
   9  -6   1    0.48    0.20 
   9   5  -1    0.07    0.15 
   8   5  -1    0.00    0.12 
   7   5  -1    0.68    0.18 
  -7  -5   1    0.95    0.17 
   6   5  -1    1.34    0.20 
  -6  -5   1    1.71    0.19 
   5   5  -1    0.18    0.08 
   5   5  -1    0.10    0.06 
  -5  -5   1    0.08    0.07 
   4   5  -1    0.58    0.11 
   4   5  -1    0.72    0.09 
  -4  -5   1    0.57    0.10 
   3   5  -1   79.26    2.85 
   3   5  -1   85.72    2.78 
  -3  -5   1   82.75    2.80 
   2   5  -1   71.05    2.40 
   2   5  -1   70.89    2.45 
  -2  -5   1   71.84    2.41 
  -1  -5   1   79.42    2.67 
   0  -5   1    7.27    0.30 
   1  -5   1   66.58    2.24 
   1  -5   1   67.40    2.29 
   2  -5   1    6.66    0.27 
   2  -5   1    5.86    0.29 
   3  -5   1    0.35    0.06 
   3  -5   1    0.44    0.09 
   4  -5   1    0.53    0.11 
   4  -5   1    0.69    0.09 
   5  -5   1    3.25    0.25 
   5  -5   1    3.37    0.20 
   6  -5   1    0.04    0.10 
   7  -5   1    3.01    0.31 
   8  -5   1    0.11    0.12 
   9  -5   1    0.36    0.19 
   9   4  -1    0.05    0.15 
   8   4  -1    0.09    0.12 
   7   4  -1    2.16    0.26 
   6   4  -1    0.13    0.10 
  -6  -4   1   -0.01    0.08 
   5   4  -1    0.03    0.05 
   5   4  -1    0.05    0.07 
  -5  -4   1    0.04    0.06 
   4   4  -1    9.69    0.39 
   4   4  -1    9.65    0.45 
  -4  -4   1    9.18    0.42 
   3   4  -1   48.07    1.60 
   3   4  -1   46.13    1.66 
  -3  -4   1   45.71    1.61 
   2   4  -1    0.05    0.03 
   2   4  -1    0.20    0.05 
  -2  -4   1    0.08    0.05 
   1   4  -1    0.31    0.05 
   1   4  -1    0.23    0.04 
  -1  -4   1    0.24    0.05 
   0  -4   1   98.42    3.27 
   1  -4   1  138.61    4.58 
   1  -4   1  138.76    4.66 
   2  -4   1   12.26    0.46 
   2  -4   1   12.18    0.49 
   3  -4   1   37.03    1.32 
   3  -4   1   39.48    1.39 
   4  -4   1   27.10    1.04 
   4  -4   1   26.43    0.96 
   5  -4   1    6.02    0.35 
   5  -4   1    5.57    0.29 
   6  -4   1    0.44    0.14 
   7  -4   1   -0.03    0.09 
   8  -4   1    0.37    0.16 
   9  -4   1    0.50    0.19 
   9   3  -1    2.46    0.34 
   8   3  -1    0.69    0.18 
   7   3  -1    0.67    0.17 
   6   3  -1    0.03    0.06 
   6   3  -1   -0.08    0.08 
  -6  -3   1    0.04    0.05 
   5   3  -1    4.76    0.30 
   5   3  -1    4.74    0.24 
  -5  -3   1    3.58    0.24 
   4   3  -1   -0.03    0.03 
   4   3  -1    0.00    0.05 
  -4  -3   1   -0.06    0.05 
   3   3  -1    5.32    0.26 
   3   3  -1    4.23    0.21 
  -3  -3   1    5.08    0.24 
   2   3  -1  107.02    3.63 
  -2  -3   1  107.03    3.56 
   1   3  -1  280.34   10.56 
   1   3  -1  340.61   10.43 
  -1  -3   1  330.43   10.40 
   0  -3   1   87.61    2.90 
   1  -3   1  137.63    4.50 
   1  -3   1  135.18    4.58 
   2  -3   1  170.43    5.61 
   2  -3   1  162.88    5.49 
   3  -3   1    0.36    0.08 
   3  -3   1    0.55    0.07 
   4  -3   1   23.42    0.91 
   4  -3   1   22.80    0.85 
   5  -3   1    3.16    0.20 
   5  -3   1    3.68    0.26 
   6  -3   1    3.45    0.28 
   7  -3   1    1.39    0.22 
   8  -3   1   -0.04    0.10 
   9  -3   1    0.26    0.17 
   9   2  -1    0.15    0.15 
   8   2  -1    0.01    0.11 
   7   2  -1    0.82    0.18 
   6   2  -1    0.85    0.17 
   6   2  -1    0.78    0.11 
  -6  -2   1    0.60    0.12 
   5   2  -1    1.05    0.11 
   5   2  -1    0.84    0.14 
  -5  -2   1    0.82    0.11 
   4   2  -1    0.64    0.08 
   4   2  -1    0.76    0.12 
  -3  -2   1    4.36    0.21 
   2   2  -1  250.08    8.82 
   2   2  -1  274.48    8.99 
  -2  -2   1  281.35    8.83 
   1   2  -1   31.26    1.10 
   1   2  -1   32.34    1.09 
  -1  -2   1   32.23    1.09 
   0  -2   1    9.17    0.34 
   1  -2   1    5.36    0.22 
   1  -2   1    5.24    0.21 
   2  -2   1    1.34    0.09 
   2  -2   1    1.33    0.10 
   3  -2   1    0.74    0.08 
   3  -2   1    0.52    0.09 
   4  -2   1    5.66    0.28 
   4  -2   1    5.77    0.31 
   5  -2   1   -0.01    0.05 
   5  -2   1    0.07    0.08 
   6  -2   1    0.26    0.09 
   6  -2   1    0.15    0.10 
   7  -2   1   -0.06    0.09 
   8  -2   1    0.17    0.12 
   9  -2   1   -0.05    0.14 
   9   1  -1    0.55    0.20 
   8   1  -1    0.31    0.15 
   7   1  -1    0.10    0.11 
   6   1  -1   14.32    0.57 
   6   1  -1   13.09    0.65 
  -6  -1   1   13.74    0.58 
   5   1  -1    0.68    0.10 
   5   1  -1    0.64    0.13 
  -5  -1   1    0.76    0.10 
   4   1  -1    9.45    0.43 
  -4  -1   1    9.03    0.38 
   3   1  -1   12.34    0.49 
  -3  -1   1   11.33    0.44 
   2   1  -1  239.53    7.71 
   2   1  -1  228.70    7.84 
   1   1  -1   57.57    1.84 
   1   1  -1   57.80    1.82 
  -1  -1   1   47.98    1.81 
   0   1  -1   61.39    2.00 
   0  -1   1   58.94    1.99 
   0  -1   1   59.51    2.07 
   1  -1   1   17.09    0.60 
   1  -1   1   17.12    0.61 
   2  -1   1    2.38    0.14 
   2  -1   1    2.25    0.13 
   3  -1   1    4.53    0.22 
   3  -1   1    4.04    0.23 
   4  -1   1   13.35    0.59 
   4  -1   1   14.12    0.56 
   5  -1   1    1.69    0.16 
   5  -1   1    1.49    0.18 
   6  -1   1    0.34    0.12 
   6  -1   1    0.46    0.10 
   7  -1   1    0.17    0.11 
   8  -1   1    0.00    0.11 
   9  -1   1    0.32    0.18 
   9   0  -1   -0.07    0.14 
   8   0  -1    0.01    0.10 
   7   0  -1    9.75    0.54 
   6   0  -1   -0.01    0.09 
   6   0  -1   -0.01    0.06 
  -6   0   1    0.03    0.07 
   5   0  -1    4.89    0.26 
   5   0  -1    5.87    0.33 
  -5   0   1    5.73    0.27 
   4   0  -1    0.00    0.05 
   4   0  -1    0.01    0.02 
  -4   0   1   -0.04    0.03 
   3   0  -1    7.28    0.33 
   3   0  -1    6.96    0.30 
  -3   0   1    7.13    0.28 
   2   0  -1   -0.03    0.04 
   2   0  -1   -0.04    0.03 
  -2   0   1    0.02    0.03 
   1   0  -1   12.39    0.47 
   1   0  -1   12.41    0.46 
  -1   0   1   10.17    0.45 
   0   0  -1   -0.45    0.02 
   0   0   1   -0.47    0.02 
   1   0   1    0.17    0.03 
   1   0   1    0.10    0.03 
   2   0   1   -0.15    0.03 
   2   0   1   -0.17    0.02 
   3   0   1   16.32    0.65 
   3   0   1   16.54    0.63 
   4   0   1    0.02    0.05 
   4   0   1    0.04    0.05 
   5   0   1   10.70    0.55 
   5   0   1   13.32    0.54 
   6   0   1    0.03    0.07 
   6   0   1    0.14    0.10 
   7   0   1    3.32    0.32 
   8   0   1    0.06    0.12 
   9   0   1    0.51    0.19 
   9  -1  -1    0.72    0.22 
   8  -1  -1    0.20    0.13 
   7  -1  -1   -0.04    0.09 
   6  -1  -1   13.88    0.57 
   6  -1  -1   13.15    0.64 
   5  -1  -1    0.70    0.13 
  -5   1   1    0.80    0.09 
   4  -1  -1    9.62    0.45 
  -4   1   1    9.94    0.38 
   3  -1  -1   13.02    0.53 
  -3   1   1   12.93    0.47 
   2  -1  -1  237.38    8.27 
  -2   1   1  256.73    8.14 
   1  -1  -1   61.34    2.09 
  -1   1   1   62.13    2.08 
   0   1   1   62.25    2.07 
   1   1   1   16.28    0.59 
   1   1   1   16.59    0.59 
   2   1   1    2.02    0.13 
   2   1   1    2.37    0.14 
   3   1   1    4.62    0.23 
   3   1   1    4.11    0.23 
   4   1   1   13.42    0.56 
   4   1   1   12.57    0.58 
   4   1   1   14.70    0.50 
   5   1   1    1.63    0.16 
   5   1   1    1.17    0.17 
   5   1   1    1.62    0.11 
   6   1   1    0.20    0.11 
   6   1   1    0.17    0.09 
   7   1   1    0.07    0.10 
   8   1   1   -0.13    0.10 
   9   1   1   -0.02    0.13 
   9  -2  -1    0.05    0.16 
   8  -2  -1    0.02    0.10 
   7  -2  -1    0.76    0.16 
   6  -2  -1    0.76    0.16 
   5  -2  -1    1.05    0.15 
  -5   2   1    1.32    0.11 
   4  -2  -1    0.69    0.11 
  -4   2   1    0.43    0.06 
   3  -2  -1    7.42    0.33 
  -3   2   1    6.79    0.26 
   2  -2  -1  275.83    9.23 
   1  -2  -1   34.31    1.20 
  -1   2   1   35.43    1.20 
   0   2   1    8.88    0.33 
   1   2   1    4.73    0.20 
   1   2   1    4.73    0.21 
   2   2   1    1.23    0.10 
   2   2   1    1.28    0.10 
   3   2   1    0.55    0.09 
   3   2   1    0.58    0.04 
   3   2   1    0.57    0.09 
   4   2   1    5.82    0.32 
   4   2   1    5.96    0.24 
   4   2   1    5.89    0.31 
   5   2   1    0.06    0.04 
   5   2   1    0.06    0.07 
   5   2   1    0.04    0.08 
  -6  -2  -1    0.22    0.10 
   6   2   1    0.17    0.11 
  -7  -2  -1    0.07    0.11 
   7   2   1   -0.03    0.09 
   8   2   1    0.16    0.14 
   9   2   1   -0.15    0.12 
   9  -3  -1    2.38    0.33 
   8  -3  -1    0.48    0.16 
   7  -3  -1    0.72    0.17 
   6  -3  -1    0.08    0.08 
   5  -3  -1    4.79    0.30 
  -5   3   1    4.71    0.22 
   4  -3  -1   -0.04    0.05 
  -4   3   1    0.03    0.03 
   3  -3  -1    5.76    0.28 
  -3   3   1    5.59    0.21 
   2  -3  -1  116.97    3.96 
   1  -3  -1  311.94   11.05 
   1  -3  -1  351.79   10.99 
   0   3   1   92.43    3.06 
   1   3   1  122.98    3.95 
   1   3   1  114.75    4.00 
   2   3   1  157.85    5.33 
   2   3   1  158.07    5.25 
   3   3   1    0.49    0.09 
   3   3   1    0.58    0.04 
   3   3   1    0.63    0.10 
   4   3   1   21.22    0.86 
   4   3   1   21.04    0.88 
   4   3   1   23.61    0.76 
   5   3   1    3.25    0.23 
   5   3   1    3.18    0.25 
  -6  -3  -1    3.16    0.24 
   6   3   1    3.12    0.28 
  -7  -3  -1    1.35    0.20 
   7   3   1    1.40    0.23 
   8   3   1    0.05    0.12 
   9   3   1    0.34    0.18 
   9  -4  -1    0.20    0.17 
   8  -4  -1    0.05    0.11 
   7  -4  -1    2.26    0.27 
   7  -4  -1    1.83    0.20 
   6  -4  -1   -0.09    0.07 
   5  -4  -1    0.01    0.06 
  -5   4   1    0.01    0.04 
   4  -4  -1   10.01    0.46 
  -4   4   1    9.84    0.36 
   3  -4  -1   49.29    1.74 
   2  -4  -1    0.16    0.05 
   1  -4  -1    0.23    0.03 
   1  -4  -1    0.20    0.04 
   0   4   1   99.74    3.31 
   1   4   1  111.12    3.95 
   1   4   1  122.99    3.90 
   2   4   1   11.89    0.48 
   2   4   1   11.82    0.48 
   3   4   1   35.79    1.32 
   3   4   1   37.55    1.34 
   4   4   1   24.99    1.00 
   4   4   1   26.49    0.87 
   4   4   1   24.47    0.98 
  -5  -4  -1    5.66    0.33 
   5   4   1    6.26    0.36 
  -6  -4  -1    0.57    0.13 
   6   4   1    0.36    0.13 
  -7  -4  -1    0.09    0.12 
   7   4   1   -0.05    0.10 
   8   4   1    0.31    0.17 
   9   4   1    0.39    0.20 
   9  -5  -1    0.20    0.16 
   8  -5  -1    0.18    0.13 
   7  -5  -1    0.61    0.16 
   6  -5  -1    1.77    0.22 
   5  -5  -1    0.02    0.06 
   4  -5  -1    1.52    0.16 
   3  -5  -1   84.67    2.92 
   2  -5  -1   73.79    2.45 
   2  -5  -1   73.56    2.53 
   1  -5  -1   84.64    2.71 
   1  -5  -1   78.94    2.78 
   0  -5  -1    6.80    0.28 
   1   5   1   59.06    2.09 
   1   5   1   62.19    2.07 
   2   5   1    6.17    0.30 
   2   5   1    5.69    0.28 
   3   5   1    0.44    0.09 
   3   5   1    0.44    0.09 
   4   5   1    0.50    0.10 
   4   5   1    0.58    0.12 
  -5  -5  -1    3.60    0.25 
   5   5   1    3.27    0.26 
  -6  -5  -1    0.16    0.10 
   6   5   1    0.12    0.10 
  -7  -5  -1    3.05    0.29 
   7   5   1    3.57    0.34 
   8   5   1    0.06    0.13 
   9   5   1    0.17    0.17 
   9  -6  -1    0.31    0.17 
   8  -6  -1    3.42    0.35 
   7  -6  -1    8.82    0.52 
   6  -6  -1    6.21    0.39 
   5  -6  -1    3.13    0.25 
   4  -6  -1    6.95    0.36 
   3  -6  -1   23.43    0.89 
   2  -6  -1   16.36    0.64 
   2  -6  -1   16.55    0.57 
   1  -6  -1    4.22    0.20 
   1  -6  -1    3.72    0.17 
   0  -6  -1  121.74    4.04 
  -1  -6  -1    4.87    0.24 
  -2  -6  -1    0.11    0.05 
   2   6   1    0.30    0.07 
  -3  -6  -1    0.07    0.05 
   3   6   1    0.02    0.04 
  -4  -6  -1   22.29    0.88 
   4   6   1   21.98    0.90 
  -5  -6  -1   10.63    0.51 
   5   6   1   10.48    0.53 
  -6  -6  -1    9.38    0.50 
   6   6   1    9.00    0.51 
  -7  -6  -1    0.24    0.14 
   7   6   1    0.08    0.11 
   8   6   1    1.17    0.24 
   9   6   1    0.62    0.23 
   9  -7  -1    1.57    0.29 
   8  -7  -1    0.40    0.16 
   7  -7  -1    1.71    0.24 
   6  -7  -1    0.39    0.12 
   5  -7  -1    8.87    0.46 
   4  -7  -1    0.34    0.09 
   3  -7  -1    0.39    0.03 
   3  -7  -1    0.27    0.07 
   2  -7  -1   11.09    0.46 
   2  -7  -1   11.04    0.40 
   1  -7  -1    3.69    0.17 
   1  -7  -1    3.86    0.20 
   0  -7  -1   21.75    0.78 
  -1  -7  -1   28.10    1.01 
  -2  -7  -1   18.85    0.74 
   2   7   1   19.39    0.75 
  -3  -7  -1    2.39    0.18 
   3   7   1    2.50    0.19 
  -4  -7  -1    8.11    0.41 
   4   7   1    8.39    0.43 
  -5  -7  -1    3.27    0.25 
   5   7   1    3.43    0.27 
  -6  -7  -1    0.22    0.11 
   6   7   1    0.15    0.11 
  -7  -7  -1    4.07    0.33 
   7   7   1    3.19    0.34 
   8   7   1    0.27    0.15 
   9   7   1    0.21    0.19 
   9  -8  -1    0.41    0.20 
   8  -8  -1    0.46    0.16 
   7  -8  -1    0.11    0.11 
   6  -8  -1    0.02    0.08 
   5  -8  -1    6.47    0.38 
   4  -8  -1    0.44    0.10 
   3  -8  -1   39.95    1.31 
   3  -8  -1   37.93    1.43 
   2  -8  -1   23.52    0.90 
   2  -8  -1   24.48    0.84 
   1  -8  -1   18.62    0.68 
   1  -8  -1   18.76    0.71 
   0  -8  -1  174.22    5.77 
  -1  -8  -1   31.85    1.15 
  -2  -8  -1    8.37    0.39 
   2   8   1    8.71    0.41 
  -3  -8  -1   18.56    0.74 
   3   8   1   17.51    0.75 
  -4  -8  -1    0.01    0.06 
   4   8   1    0.06    0.06 
  -5  -8  -1    4.14    0.29 
   5   8   1    3.52    0.29 
  -6  -8  -1    1.00    0.18 
   6   8   1    0.97    0.19 
  -7  -8  -1   -0.01    0.11 
   7   8   1    0.09    0.12 
  -8  -8  -1    0.60    0.20 
   8   8   1    0.56    0.18 
   9   8   1    0.30    0.22 
   9  -9  -1    0.16    0.17 
   8  -9  -1    0.71    0.18 
   7  -9  -1    0.33    0.14 
   6  -9  -1    1.78    0.22 
   5  -9  -1    0.76    0.15 
   4  -9  -1   26.81    1.06 
   3  -9  -1    3.91    0.25 
   3  -9  -1    4.19    0.18 
   2  -9  -1   66.57    2.30 
   2  -9  -1   64.68    2.20 
   1  -9  -1   11.39    0.45 
   0  -9  -1    0.30    0.06 
  -1  -9  -1   33.46    1.21 
  -2  -9  -1   65.49    2.28 
  -3  -9  -1   11.92    0.55 
   3   9   1   12.26    0.56 
  -4  -9  -1    1.04    0.16 
   4   9   1    0.74    0.15 
  -5  -9  -1    0.17    0.11 
   5   9   1    0.22    0.11 
  -6  -9  -1    6.82    0.43 
   6   9   1    6.58    0.44 
  -7  -9  -1    2.11    0.27 
   7   9   1    2.36    0.30 
  -8  -9  -1    3.39    0.36 
   8   9   1    3.12    0.37 
   9   9   1    0.91    0.27 
   9 -10  -1    0.25    0.18 
   8 -10  -1    0.10    0.12 
   7 -10  -1    0.34    0.13 
   6 -10  -1    0.57    0.14 
   5 -10  -1    2.73    0.25 
   4 -10  -1    0.21    0.09 
   3 -10  -1    3.13    0.22 
   3 -10  -1    3.33    0.16 
   2 -10  -1    0.11    0.06 
   2 -10  -1    0.25    0.05 
   1 -10  -1   -0.01    0.04 
   0 -10  -1    2.80    0.18 
  -1 -10  -1    6.05    0.30 
  -2 -10  -1    0.90    0.13 
  -3 -10  -1   25.88    0.99 
   3  10   1   23.54    0.99 
  -4 -10  -1    2.97    0.24 
   4  10   1    3.00    0.27 
  -5 -10  -1    0.76    0.16 
   5  10   1    0.69    0.16 
  -6 -10  -1    0.11    0.11 
   6  10   1    0.27    0.13 
  -7 -10  -1    2.14    0.28 
   7  10   1    1.76    0.27 
  -8 -10  -1    0.17    0.15 
   8  10   1   -0.15    0.12 
   9  10   1    2.07    0.38 
   9 -11  -1    0.14    0.17 
   8 -11  -1    0.48    0.18 
   7 -11  -1    0.28    0.14 
   6 -11  -1    1.24    0.20 
   5 -11  -1    0.09    0.09 
   4 -11  -1    0.02    0.07 
   3 -11  -1    0.09    0.07 
   3 -11  -1    0.09    0.03 
   2 -11  -1    5.91    0.27 
   2 -11  -1    5.95    0.32 
   1 -11  -1   75.58    2.57 
   0 -11  -1    2.38    0.16 
  -1 -11  -1    7.10    0.35 
  -2 -11  -1    2.16    0.19 
  -3 -11  -1    1.92    0.20 
  -4 -11  -1    4.43    0.32 
   4  11   1    4.98    0.33 
  -5 -11  -1    0.15    0.11 
   5  11   1    0.18    0.11 
  -6 -11  -1    6.80    0.45 
   6  11   1    7.62    0.48 
  -7 -11  -1    0.25    0.14 
   7  11   1    0.34    0.15 
  -8 -11  -1    0.87    0.23 
   8  11   1    0.23    0.17 
   8 -12  -1    2.48    0.33 
   7 -12  -1    2.37    0.29 
   6 -12  -1    0.01    0.08 
   5 -12  -1    0.07    0.08 
   4 -12  -1    1.78    0.20 
   3 -12  -1    7.51    0.32 
   3 -12  -1    7.64    0.40 
   2 -12  -1   57.24    2.00 
   2 -12  -1   59.63    2.09 
   1 -12  -1    7.32    0.34 
   0 -12  -1  139.94    4.70 
  -1 -12  -1   28.61    1.08 
  -2 -12  -1    2.72    0.21 
  -3 -12  -1    2.01    0.21 
  -4 -12  -1    6.95    0.42 
   4  12   1    6.97    0.42 
  -5 -12  -1    1.08    0.20 
   5  12   1    1.21    0.21 
  -6 -12  -1    7.44    0.48 
   6  12   1    7.37    0.49 
  -7 -12  -1    1.80    0.28 
   7  12   1    1.75    0.28 
  -8 -12  -1    1.08    0.24 
   8  12   1    1.42    0.29 
   8 -13  -1   -0.02    0.12 
   7 -13  -1    1.92    0.27 
   6 -13  -1    0.02    0.08 
   5 -13  -1    0.58    0.15 
   4 -13  -1    2.91    0.24 
   3 -13  -1    1.86    0.20 
   3 -13  -1    2.18    0.14 
   2 -13  -1    1.63    0.13 
   2 -13  -1    1.45    0.17 
   1 -13  -1    2.56    0.18 
   0 -13  -1   22.65    0.88 
  -1 -13  -1   -0.01    0.05 
  -2 -13  -1   22.47    0.91 
  -3 -13  -1    9.20    0.49 
  -4 -13  -1    0.05    0.10 
  -5 -13  -1    0.55    0.17 
   5  13   1    0.39    0.14 
  -6 -13  -1    4.06    0.37 
   6  13   1    4.13    0.38 
  -7 -13  -1    0.27    0.15 
   7  13   1    0.07    0.12 
  -8 -13  -1   -0.17    0.13 
   8  13   1   -0.02    0.15 
   8 -14  -1    0.07    0.13 
   7 -14  -1    1.95    0.28 
   6 -14  -1    2.78    0.29 
   5 -14  -1    0.38    0.13 
   4 -14  -1    6.66    0.40 
   3 -14  -1    7.49    0.41 
   3 -14  -1    7.48    0.34 
   2 -14  -1    1.62    0.14 
   2 -14  -1    0.96    0.15 
   1 -14  -1    6.35    0.32 
   0 -14  -1    0.45    0.10 
  -1 -14  -1   25.94    1.01 
  -2 -14  -1    8.59    0.45 
  -3 -14  -1   12.60    0.62 
  -4 -14  -1   11.40    0.60 
  -5 -14  -1    1.34    0.23 
   5  14   1    1.39    0.24 
  -6 -14  -1    0.20    0.14 
   6  14   1    0.20    0.13 
  -7 -14  -1   -0.04    0.13 
   7  14   1    0.08    0.14 
  -8 -14  -1    0.22    0.18 
   8  14   1    0.67    0.25 
   8 -15  -1    0.35    0.18 
   7 -15  -1    2.53    0.32 
   6 -15  -1    3.00    0.32 
   5 -15  -1    2.96    0.29 
   4 -15  -1    1.68    0.21 
   3 -15  -1    4.11    0.22 
   3 -15  -1    3.27    0.27 
   2 -15  -1    0.17    0.07 
   2 -15  -1   -0.01    0.07 
   1 -15  -1    2.91    0.20 
   0 -15  -1    4.65    0.29 
  -1 -15  -1   10.22    0.50 
  -2 -15  -1   26.08    1.06 
  -3 -15  -1   17.66    0.80 
  -4 -15  -1    8.20    0.49 
  -5 -15  -1    1.84    0.26 
  -6 -15  -1    0.44    0.19 
   6  15   1    0.19    0.15 
  -7 -15  -1    2.68    0.34 
   7  15   1    3.04    0.38 
  -8 -15  -1   -0.03    0.18 
   8  15   1   -0.01    0.17 
   8 -16  -1    0.71    0.22 
   7 -16  -1    0.73    0.20 
   6 -16  -1    7.87    0.50 
   5 -16  -1    0.60    0.16 
   4 -16  -1   15.28    0.73 
   3 -16  -1    3.76    0.30 
   2 -16  -1   19.59    0.77 
   2 -16  -1   19.37    0.83 
   1 -16  -1    6.50    0.35 
   0 -16  -1   18.33    0.77 
  -1 -16  -1   -0.05    0.09 
  -2 -16  -1   28.79    1.15 
  -3 -16  -1    3.73    0.32 
  -4 -16  -1   17.52    0.83 
  -5 -16  -1    8.28    0.52 
  -6 -16  -1    0.93    0.22 
  -7 -16  -1    0.13    0.15 
   7  16   1    0.22    0.18 
   7 -17  -1    3.44    0.37 
   6 -17  -1    0.33    0.15 
   5 -17  -1    0.21    0.12 
   4 -17  -1    3.20    0.30 
   3 -17  -1   13.09    0.65 
   2 -17  -1    3.19    0.22 
   2 -17  -1    2.94    0.27 
   1 -17  -1    8.22    0.45 
   1 -17  -1    8.25    0.42 
   0 -17  -1    0.47    0.11 
  -1 -17  -1    6.90    0.41 
  -2 -17  -1   35.66    1.40 
  -3 -17  -1    0.08    0.11 
  -4 -17  -1    0.70    0.17 
  -5 -17  -1    7.46    0.49 
  -6 -17  -1    1.94    0.30 
  -7 -17  -1    0.98    0.24 
   7 -18  -1    3.25    0.37 
   6 -18  -1    2.67    0.31 
   5 -18  -1    5.83    0.42 
   4 -18  -1    0.30    0.13 
   3 -18  -1   13.12    0.66 
   2 -18  -1    4.69    0.33 
   2 -18  -1    4.21    0.27 
   1 -18  -1    3.47    0.28 
   1 -18  -1    3.07    0.24 
   0 -18  -1   13.74    0.64 
  -1 -18  -1   40.86    1.56 
  -2 -18  -1   -0.12    0.10 
  -3 -18  -1   41.19    1.62 
  -4 -18  -1    1.11    0.21 
  -5 -18  -1    8.85    0.56 
  -6 -18  -1    0.52    0.20 
  -7 -18  -1    0.58    0.24 
   7 -19  -1    0.21    0.17 
   6 -19  -1    1.81    0.28 
   5 -19  -1    0.52    0.17 
   4 -19  -1   16.85    0.81 
   3 -19  -1    0.67    0.16 
   2 -19  -1    6.13    0.40 
   2 -19  -1    6.26    0.35 
   1 -19  -1   47.39    1.85 
   1 -19  -1   50.04    1.80 
   0 -19  -1    0.93    0.17 
  -1 -19  -1   12.50    0.62 
  -2 -19  -1   79.21    2.86 
  -3 -19  -1    1.15    0.22 
  -4 -19  -1    8.84    0.56 
  -5 -19  -1    0.39    0.18 
  -6 -19  -1    0.44    0.21 
  -7 -19  -1    4.34    0.47 
   7 -20  -1    1.36    0.29 
   6 -20  -1    0.27    0.16 
   5 -20  -1   -0.05    0.10 
   4 -20  -1   -0.04    0.10 
   3 -20  -1    0.86    0.19 
   2 -20  -1    3.71    0.31 
   2 -20  -1    3.74    0.27 
   1 -20  -1    4.47    0.35 
   1 -20  -1    4.63    0.32 
   0 -20  -1   10.41    0.54 
  -1 -20  -1   -0.04    0.10 
  -2 -20  -1    0.01    0.10 
  -3 -20  -1    0.11    0.12 
  -4 -20  -1    3.38    0.37 
  -5 -20  -1    4.15    0.43 
  -6 -20  -1    2.39    0.36 
   6 -21  -1    5.88    0.46 
   5 -21  -1    0.26    0.15 
   4 -21  -1    2.20    0.29 
   3 -21  -1    0.02    0.11 
   2 -21  -1   -0.10    0.08 
   1 -21  -1   23.85    1.00 
   1 -21  -1   24.13    1.05 
   0 -21  -1    7.33    0.44 
  -1 -21  -1    1.92    0.26 
  -2 -21  -1    4.43    0.35 
  -3 -21  -1    0.32    0.14 
  -4 -21  -1    8.38    0.56 
  -5 -21  -1    3.59    0.41 
  -6 -21  -1    2.88    0.40 
   6 -22  -1    0.88    0.24 
   5 -22  -1    1.92    0.29 
   4 -22  -1    0.36    0.16 
   3 -22  -1    6.40    0.44 
   2 -22  -1   -0.04    0.10 
   1 -22  -1    0.26    0.13 
   1 -22  -1    0.30    0.13 
   0 -22  -1    0.28    0.13 
  -1 -22  -1    9.38    0.54 
  -2 -22  -1    0.22    0.13 
  -3 -22  -1    1.96    0.29 
  -4 -22  -1   -0.03    0.13 
  -5 -22  -1    1.46    0.30 
  -6 -22  -1    0.26    0.22 
   6 -23  -1    1.00    0.24 
   5 -23  -1    0.02    0.11 
   4 -23  -1    0.00    0.12 
   3 -23  -1    1.49    0.25 
   2 -23  -1   -0.07    0.09 
   1 -23  -1    2.33    0.29 
   1 -23  -1    2.72    0.27 
   0 -23  -1    0.45    0.14 
  -1 -23  -1    1.92    0.27 
  -2 -23  -1   -0.23    0.09 
  -3 -23  -1    0.18    0.16 
  -4 -23  -1    0.81    0.23 
  -5 -23  -1   -0.02    0.17 
   5 -24  -1    0.14    0.15 
   4 -24  -1    0.04    0.14 
   3 -24  -1    0.33    0.16 
   2 -24  -1    0.93    0.20 
   1 -24  -1    1.33    0.21 
   1 -24  -1    1.21    0.23 
   0 -24  -1    3.44    0.34 
  -1 -24  -1    1.08    0.22 
  -2 -24  -1    0.52    0.18 
  -3 -24  -1    0.04    0.15 
  -4 -24  -1    0.84    0.25 
  -5 -24  -1   -0.16    0.17 
   5 -25  -1   -0.05    0.15 
   4 -25  -1   -0.13    0.13 
   3 -25  -1   -0.03    0.12 
   2 -25  -1    0.16    0.12 
   1 -25  -1    3.44    0.32 
   1 -25  -1    3.21    0.35 
   0 -25  -1    0.67    0.16 
  -1 -25  -1    0.53    0.18 
  -2 -25  -1    0.51    0.19 
  -3 -25  -1    2.79    0.38 
  -4 -25  -1    0.17    0.20 
   4 -26  -1   -0.03    0.15 
   3 -26  -1    1.46    0.27 
   2 -26  -1    0.13    0.14 
   1 -26  -1    0.18    0.16 
   0 -26  -1    0.82    0.20 
  -1 -26  -1    1.51    0.28 
  -2 -26  -1   -0.03    0.13 
  -3 -26  -1    0.39    0.20 
  -4 -26  -1    0.92    0.27 
   3 -27  -1    0.21    0.17 
   2 -27  -1    2.07    0.31 
   1 -27  -1    0.63    0.19 
   0 -27  -1    0.45    0.17 
   0 -27  -1    0.45    0.18 
  -1 -27  -1    0.70    0.24 
  -2 -27  -1    1.54    0.31 
  -3 -27  -1   -0.11    0.19 
   2 -28  -1    0.60    0.21 
   1 -28  -1    0.07    0.15 
   0 -28  -1    0.78    0.24 
   0 -28  -1    1.06    0.25 
  -1 -28  -1    0.19    0.18 
  -2 -28  -1    0.86    0.28 
  -2 -28   2    0.26    0.21 
  -1 -28   2    0.45    0.19 
   0 -28   2    2.08    0.32 
   0 -28   2    1.14    0.25 
   1 -28   2    1.78    0.29 
  -3 -27   2    1.06    0.28 
  -2 -27   2    0.15    0.17 
  -1 -27   2    6.25    0.48 
   0 -27   2    0.35    0.19 
   0 -27   2    0.70    0.20 
   1 -27   2    5.62    0.45 
   1 -27   2    6.13    0.45 
   2 -27   2    2.22    0.32 
   3 -27   2    0.43    0.21 
  -4 -26   2    1.28    0.29 
  -3 -26   2    1.28    0.28 
  -2 -26   2    1.80    0.30 
  -1 -26   2   -0.05    0.12 
   0 -26   2    3.48    0.35 
   0 -26   2    3.12    0.34 
   1 -26   2    0.86    0.20 
   1 -26   2    0.73    0.19 
   2 -26   2    0.73    0.20 
   3 -26   2    2.03    0.32 
  -4 -25   2    4.19    0.46 
  -3 -25   2   -0.01    0.13 
  -2 -25   2    2.27    0.32 
  -1 -25   2   -0.06    0.10 
   0 -25   2    0.78    0.19 
   0 -25   2    0.88    0.20 
   1 -25   2    1.64    0.25 
   1 -25   2    2.08    0.27 
   2 -25   2    1.74    0.27 
   3 -25   2    0.81    0.21 
   4 -25   2   -0.06    0.15 
  -5 -24   2    0.57    0.25 
  -4 -24   2   -0.14    0.15 
  -3 -24   2    2.40    0.33 
  -2 -24   2    2.85    0.34 
  -1 -24   2    0.14    0.12 
   0 -24   2    1.10    0.22 
   0 -24   2    0.57    0.16 
   1 -24   2    3.07    0.31 
   1 -24   2    3.10    0.32 
   2 -24   2    1.05    0.22 
   3 -24   2    7.14    0.50 
   4 -24   2    0.28    0.16 
   5 -24   2    0.90    0.25 
  -5 -23   2   -0.01    0.17 
  -4 -23   2    1.05    0.24 
  -3 -23   2    0.24    0.15 
  -2 -23   2    0.79    0.19 
  -1 -23   2    3.41    0.35 
   0 -23   2    1.27    0.22 
   0 -23   2    1.36    0.23 
   1 -23   2    0.89    0.18 
   1 -23   2    0.76    0.18 
   2 -23   2    2.39    0.27 
   2 -23   2    1.91    0.27 
   3 -23   2    0.20    0.15 
   4 -23   2    2.03    0.29 
   5 -23   2    1.84    0.30 
  -6 -22   2   -0.08    0.16 
  -5 -22   2   -0.15    0.13 
  -4 -22   2    0.31    0.17 
  -3 -22   2    0.22    0.15 
  -2 -22   2    8.09    0.51 
  -1 -22   2    0.99    0.20 
   0 -22   2   11.73    0.61 
   0 -22   2   11.75    0.62 
   1 -22   2    0.67    0.17 
   1 -22   2    0.66    0.15 
   2 -22   2    0.14    0.11 
   2 -22   2    0.07    0.10 
   3 -22   2    0.01    0.12 
   4 -22   2    4.70    0.39 
   5 -22   2    0.07    0.14 
  -6 -21   2    0.23    0.19 
  -5 -21   2   -0.01    0.12 
  -4 -21   2    1.75    0.29 
  -3 -21   2    0.00    0.11 
  -2 -21   2    0.13    0.12 
  -1 -21   2    7.46    0.47 
   0 -21   2    0.10    0.10 
   1 -21   2    4.09    0.32 
   1 -21   2    4.43    0.33 
   2 -21   2    3.45    0.32 
   2 -21   2    3.76    0.29 
   3 -21   2    1.14    0.21 
   4 -21   2   -0.18    0.10 
   5 -21   2    3.22    0.36 
   6 -21   2    0.58    0.20 
  -7 -20   2    0.27    0.22 
  -6 -20   2    0.05    0.15 
  -5 -20   2    0.11    0.14 
  -4 -20   2    1.31    0.24 
  -3 -20   2    0.67    0.19 
  -2 -20   2    0.28    0.13 
  -1 -20   2    0.35    0.13 
   0 -20   2   10.25    0.55 
   1 -20   2    5.72    0.36 
   1 -20   2    5.52    0.37 
   2 -20   2    0.46    0.13 
   2 -20   2    0.32    0.13 
   3 -20   2    1.11    0.21 
   4 -20   2    1.63    0.25 
   5 -20   2    0.54    0.18 
   6 -20   2    0.31    0.17 
  -7 -19   2    0.22    0.19 
  -6 -19   2    0.29    0.16 
  -5 -19   2    1.62    0.27 
  -4 -19   2    0.79    0.19 
  -3 -19   2    0.40    0.14 
  -2 -19   2    0.16    0.13 
  -1 -19   2    0.95    0.19 
   0 -19   2    0.02    0.09 
   1 -19   2    0.29    0.11 
   1 -19   2    0.43    0.13 
   2 -19   2    4.85    0.35 
   2 -19   2    4.43    0.31 
   3 -19   2    2.45    0.24 
   3 -19   2    2.59    0.28 
   4 -19   2    3.20    0.32 
   5 -19   2    1.12    0.23 
   6 -19   2    0.34    0.16 
  -7 -18   2    0.44    0.19 
  -6 -18   2    0.34    0.17 
  -5 -18   2    1.05    0.21 
  -4 -18   2    5.61    0.41 
  -3 -18   2    1.95    0.27 
  -2 -18   2   17.59    0.81 
  -1 -18   2    4.40    0.32 
   0 -18   2    0.30    0.11 
   1 -18   2    0.52    0.14 
   1 -18   2    0.55    0.13 
   2 -18   2    3.66    0.29 
   2 -18   2    4.25    0.30 
   3 -18   2    0.12    0.12 
   3 -18   2    0.20    0.10 
   4 -18   2    0.70    0.18 
   5 -18   2    0.66    0.18 
   6 -18   2    6.30    0.47 
   7 -18   2    0.16    0.17 
  -7 -17   2    0.09    0.15 
  -6 -17   2    3.82    0.38 
  -5 -17   2    3.38    0.34 
  -4 -17   2    0.36    0.13 
  -3 -17   2    3.70    0.33 
  -2 -17   2    4.88    0.35 
  -1 -17   2    2.46    0.25 
   0 -17   2    5.25    0.34 
   1 -17   2   17.20    0.74 
   1 -17   2   16.92    0.75 
   2 -17   2    2.65    0.26 
   2 -17   2    2.81    0.23 
   3 -17   2   10.45    0.55 
   3 -17   2   10.29    0.50 
   4 -17   2    0.02    0.10 
   5 -17   2    1.87    0.26 
   6 -17   2    1.18    0.23 
   7 -17   2    0.25    0.17 
   8  16  -2    0.05    0.19 
  -8 -16   2   -0.13    0.16 
   7  16  -2    0.88    0.24 
  -7 -16   2    1.04    0.23 
  -6 -16   2    0.15    0.15 
  -5 -16   2   -0.04    0.11 
  -4 -16   2    0.18    0.11 
  -3 -16   2    1.17    0.20 
  -2 -16   2    0.86    0.18 
  -1 -16   2   -0.02    0.08 
   0 -16   2    5.90    0.36 
   1 -16   2   42.60    1.62 
   1 -16   2   46.13    1.66 
   2 -16   2    6.65    0.39 
   2 -16   2    6.55    0.36 
   3 -16   2    4.96    0.31 
   3 -16   2    5.18    0.34 
   4 -16   2    2.11    0.25 
   5 -16   2    0.02    0.11 
   6 -16   2    1.62    0.25 
   7 -16   2    0.01    0.13 
   8  15  -2    7.33    0.57 
  -8 -15   2    8.21    0.56 
   7  15  -2    0.63    0.19 
  -7 -15   2    0.35    0.17 
   6  15  -2    0.00    0.11 
  -6 -15   2    0.03    0.12 
  -5 -15   2    1.22    0.21 
  -4 -15   2    6.76    0.42 
  -3 -15   2    0.37    0.13 
  -2 -15   2    1.65    0.21 
  -1 -15   2    0.59    0.13 
   0 -15   2   42.17    1.56 
   1 -15   2   12.34    0.56 
   1 -15   2   11.98    0.55 
   2 -15   2   38.18    1.45 
   2 -15   2   41.08    1.51 
   3 -15   2    2.05    0.22 
   3 -15   2    2.19    0.20 
   4 -15   2   29.89    1.22 
   5 -15   2    0.79    0.18 
   6 -15   2    0.58    0.17 
   7 -15   2    0.96    0.23 
   8  14  -2    0.06    0.17 
  -8 -14   2    0.10    0.15 
   7  14  -2    0.21    0.15 
  -7 -14   2    0.10    0.16 
   6  14  -2    0.04    0.10 
  -6 -14   2   -0.03    0.10 
  -5 -14   2    1.53    0.23 
  -4 -14   2    1.42    0.21 
  -3 -14   2    3.14    0.28 
  -2 -14   2    0.49    0.13 
  -1 -14   2    0.10    0.08 
   0 -14   2    3.22    0.24 
   1 -14   2    5.05    0.29 
   1 -14   2    4.80    0.29 
   2 -14   2    2.76    0.22 
   2 -14   2    2.45    0.20 
   3 -14   2    8.43    0.45 
   3 -14   2    8.21    0.41 
   4 -14   2    0.83    0.16 
   5 -14   2    1.71    0.23 
   6 -14   2    0.29    0.14 
   7 -14   2    0.84    0.21 
   8 -14   2    1.42    0.28 
   8  13  -2    1.86    0.32 
  -8 -13   2    2.14    0.31 
   7  13  -2    5.38    0.44 
  -7 -13   2    5.90    0.43 
   6  13  -2    3.45    0.34 
  -6 -13   2    3.92    0.32 
   5  13  -2    4.62    0.35 
  -5 -13   2    4.98    0.35 
  -4 -13   2    6.26    0.39 
  -3 -13   2    4.42    0.30 
  -2 -13   2    8.12    0.43 
  -1 -13   2   18.59    0.77 
   0 -13   2    3.43    0.24 
   1 -13   2   11.78    0.52 
   1 -13   2   11.81    0.52 
   2 -13   2   23.86    0.91 
   2 -13   2   23.09    0.93 
   3 -13   2    6.76    0.35 
   3 -13   2    6.75    0.38 
   4 -13   2    4.21    0.31 
   4 -13   2    4.92    0.27 
   5 -13   2    1.50    0.21 
   6 -13   2    1.30    0.22 
   7 -13   2    2.53    0.32 
   8 -13   2    0.50    0.19 
   9  12  -2    0.59    0.24 
   8  12  -2    0.81    0.22 
  -8 -12   2    0.87    0.24 
   7  12  -2    3.11    0.34 
  -7 -12   2    3.66    0.34 
   6  12  -2    3.05    0.31 
  -6 -12   2    3.44    0.32 
   5  12  -2    4.15    0.32 
  -5 -12   2    4.46    0.32 
   4  12  -2    0.41    0.13 
  -4 -12   2    0.44    0.13 
  -3 -12   2    6.55    0.37 
  -2 -12   2    8.00    0.41 
  -1 -12   2   12.22    0.54 
   0 -12   2    0.03    0.06 
   1 -12   2    8.34    0.39 
   1 -12   2    8.30    0.39 
   2 -12   2   11.00    0.51 
   2 -12   2   11.59    0.50 
   3 -12   2   24.46    0.91 
   3 -12   2   22.99    0.95 
   4 -12   2    0.10    0.10 
   4 -12   2    0.09    0.07 
   5 -12   2    1.40    0.21 
   6 -12   2    1.30    0.22 
   7 -12   2    0.19    0.14 
   8 -12   2    0.58    0.21 
   9  11  -2    0.90    0.27 
   8  11  -2    0.94    0.24 
   7  11  -2    0.16    0.13 
  -7 -11   2    0.53    0.16 
   6  11  -2    5.48    0.39 
  -6 -11   2    4.99    0.36 
   5  11  -2    0.10    0.10 
  -5 -11   2   -0.04    0.10 
   4  11  -2    0.34    0.10 
  -4 -11   2    0.22    0.11 
  -3 -11   2    6.21    0.35 
  -2 -11   2    3.82    0.25 
  -1 -11   2   14.43    0.61 
   0 -11   2   19.56    0.77 
   1 -11   2    2.60    0.18 
   1 -11   2    2.53    0.17 
   2 -11   2   67.17    2.38 
   2 -11   2   67.63    2.32 
   3 -11   2    7.67    0.36 
   3 -11   2    6.83    0.38 
   4 -11   2   12.63    0.53 
   4 -11   2   12.32    0.59 
   5 -11   2    0.32    0.13 
   6 -11   2    3.18    0.31 
   7 -11   2    3.39    0.34 
   8 -11   2    0.08    0.15 
   9  10  -2    0.17    0.19 
   8  10  -2    1.48    0.27 
   7  10  -2    3.44    0.34 
  -7 -10   2    3.21    0.31 
   6  10  -2    0.42    0.15 
  -6 -10   2    0.35    0.14 
   5  10  -2    2.46    0.24 
  -5 -10   2    2.15    0.23 
   4  10  -2    2.55    0.22 
  -4 -10   2    2.60    0.23 
   3  10  -2    0.29    0.08 
  -3 -10   2    0.13    0.07 
  -2 -10   2   42.44    1.53 
  -1 -10   2  145.37    4.88 
   0 -10   2    3.10    0.20 
   1 -10   2    2.78    0.18 
   1 -10   2    2.97    0.19 
   2 -10   2    4.99    0.27 
   2 -10   2    4.79    0.26 
   3 -10   2   40.10    1.49 
   3 -10   2   40.06    1.43 
   4 -10   2    5.64    0.29 
   4 -10   2    5.71    0.35 
   5 -10   2    3.04    0.28 
   6 -10   2    0.53    0.16 
   7 -10   2    0.22    0.13 
   8 -10   2    1.07    0.23 
   9   9  -2    1.83    0.33 
   8   9  -2    0.41    0.17 
   7   9  -2    0.46    0.16 
  -7  -9   2    0.44    0.15 
   6   9  -2    0.12    0.10 
  -6  -9   2    0.13    0.11 
   5   9  -2    2.31    0.19 
   5   9  -2    2.60    0.25 
  -5  -9   2    2.16    0.22 
   4   9  -2    3.81    0.25 
   4   9  -2    3.46    0.23 
  -4  -9   2    3.33    0.24 
   3   9  -2    1.49    0.15 
  -3  -9   2    0.82    0.13 
  -2  -9   2    1.56    0.16 
  -1  -9   2    9.03    0.41 
   0  -9   2   21.05    0.80 
   1  -9   2   26.25    0.96 
   1  -9   2   25.51    0.95 
   2  -9   2   12.56    0.51 
   2  -9   2   12.03    0.52 
   3  -9   2   20.67    0.81 
   3  -9   2   19.45    0.76 
   4  -9   2    0.60    0.13 
   4  -9   2    0.95    0.12 
   5  -9   2   11.26    0.57 
   6  -9   2    1.08    0.19 
   7  -9   2    0.31    0.14 
   8  -9   2    0.08    0.14 
   9   8  -2    0.10    0.16 
   8   8  -2    0.17    0.14 
   7   8  -2    0.27    0.13 
  -7  -8   2    0.28    0.14 
   6   8  -2    1.40    0.21 
  -6  -8   2    1.30    0.19 
   5   8  -2    1.54    0.19 
   5   8  -2    1.38    0.15 
  -5  -8   2    1.20    0.17 
   4   8  -2   14.44    0.62 
   4   8  -2   12.90    0.57 
  -4  -8   2   14.57    0.61 
   3   8  -2   20.86    0.78 
   3   8  -2   20.13    0.80 
  -3  -8   2   19.54    0.79 
  -2  -8   2    7.35    0.35 
  -1  -8   2    0.01    0.04 
   0  -8   2   77.34    2.63 
   1  -8   2    5.34    0.27 
   1  -8   2    5.64    0.26 
   2  -8   2    6.18    0.31 
   2  -8   2    6.78    0.31 
   3  -8   2    0.89    0.11 
   3  -8   2    0.82    0.12 
   4  -8   2    3.84    0.26 
   4  -8   2    3.94    0.23 
   5  -8   2    9.69    0.44 
   5  -8   2    9.65    0.50 
   6  -8   2    1.75    0.23 
   7  -8   2    0.27    0.14 
   8  -8   2    2.97    0.36 
   9  -8   2    0.52    0.21 
   9   7  -2    0.32    0.18 
   8   7  -2    1.00    0.22 
   7   7  -2   -0.01    0.09 
  -7  -7   2   -0.06    0.11 
   6   7  -2    5.05    0.35 
   6   7  -2    4.98    0.28 
  -6  -7   2    4.39    0.30 
   5   7  -2    1.57    0.19 
   5   7  -2    1.93    0.17 
  -5  -7   2    2.04    0.20 
   4   7  -2    3.47    0.22 
   4   7  -2    4.39    0.26 
  -4  -7   2    4.33    0.26 
   3   7  -2    2.81    0.19 
   3   7  -2    2.81    0.18 
  -3  -7   2    2.86    0.19 
   2   7  -2    1.55    0.14 
   2   7  -2    1.71    0.13 
  -2  -7   2    1.81    0.14 
  -1  -7   2   14.53    0.57 
   0  -7   2    0.00    0.03 
   1  -7   2   28.13    1.01 
   1  -7   2   28.34    1.02 
   2  -7   2   65.89    2.22 
   2  -7   2   64.04    2.26 
   3  -7   2   19.63    0.75 
   3  -7   2   20.45    0.79 
   4  -7   2    8.93    0.40 
   4  -7   2    9.27    0.45 
   5  -7   2    0.95    0.12 
   5  -7   2    1.09    0.17 
   6  -7   2    0.36    0.13 
   7  -7   2    0.89    0.19 
   8  -7   2    0.04    0.12 
   9  -7   2    1.20    0.27 
   9   6  -2    0.26    0.18 
   8   6  -2    0.85    0.20 
   7   6  -2    3.95    0.33 
  -7  -6   2    4.69    0.33 
   6   6  -2    1.18    0.14 
   6   6  -2    0.86    0.17 
  -6  -6   2    1.07    0.16 
   5   6  -2    0.79    0.11 
   5   6  -2    0.64    0.13 
  -5  -6   2    0.73    0.13 
   4   6  -2    5.83    0.30 
   4   6  -2    6.17    0.33 
  -4  -6   2    6.63    0.33 
   3   6  -2    0.03    0.04 
   3   6  -2    0.00    0.04 
  -3  -6   2    0.05    0.05 
   2   6  -2    1.40    0.13 
   2   6  -2    1.66    0.12 
  -2  -6   2    1.44    0.13 
  -1  -6   2   22.95    0.84 
   0  -6   2   18.39    0.68 
   1  -6   2   59.05    2.05 
   1  -6   2   61.78    2.08 
   2  -6   2   30.00    1.08 
   2  -6   2   31.00    1.11 
   3  -6   2   30.37    1.11 
   3  -6   2   32.05    1.16 
   4  -6   2    1.26    0.13 
   4  -6   2    1.49    0.16 
   5  -6   2    3.93    0.28 
   5  -6   2    4.17    0.24 
   6  -6   2    2.85    0.28 
   7  -6   2    0.15    0.12 
   8  -6   2    0.77    0.20 
   9  -6   2    0.09    0.17 
   9   5  -2    0.55    0.20 
   8   5  -2    2.00    0.28 
   7   5  -2    0.84    0.17 
   6   5  -2   12.68    0.54 
   6   5  -2   12.71    0.62 
  -6  -5   2   11.57    0.55 
   5   5  -2   -0.02    0.04 
   5   5  -2    0.13    0.08 
  -5  -5   2    0.06    0.07 
   4   5  -2    0.22    0.08 
   4   5  -2    0.08    0.07 
  -4  -5   2    0.38    0.09 
   3   5  -2    0.02    0.04 
   3   5  -2    0.00    0.03 
  -3  -5   2    0.09    0.05 
   2   5  -2    0.43    0.07 
   2   5  -2    0.40    0.07 
  -2  -5   2    0.35    0.07 
   1   5  -2   15.73    0.60 
  -1  -5   2   15.88    0.60 
   0  -5   2    8.36    0.34 
   1  -5   2  104.36    3.48 
   1  -5   2  101.54    3.43 
   2  -5   2   86.54    2.90 
   2  -5   2   82.59    2.84 
   3  -5   2   52.95    1.85 
   3  -5   2   50.87    1.79 
   4  -5   2   11.01    0.47 
   4  -5   2   11.00    0.51 
   5  -5   2    1.92    0.21 
   5  -5   2    2.04    0.17 
   6  -5   2    1.08    0.19 
   7  -5   2    0.41    0.14 
   8  -5   2    0.14    0.15 
   9  -5   2   -0.09    0.15 
   9   4  -2    0.83    0.23 
   8   4  -2    1.71    0.26 
   7   4  -2    1.31    0.21 
   6   4  -2    1.54    0.16 
   6   4  -2    1.79    0.22 
   5   4  -2    5.36    0.32 
  -5  -4   2    5.42    0.29 
   4   4  -2   58.31    2.01 
   4   4  -2   56.84    2.07 
  -4  -4   2   59.49    2.02 
   3   4  -2    0.73    0.10 
   3   4  -2    0.79    0.09 
  -3  -4   2    0.72    0.09 
   2   4  -2    5.90    0.27 
   2   4  -2    6.19    0.27 
  -2  -4   2    5.92    0.28 
   1   4  -2   -0.07    0.03 
  -1  -4   2   -0.05    0.03 
   0  -4   2   60.97    2.06 
   1  -4   2   40.61    1.40 
   1  -4   2   40.20    1.39 
   2  -4   2   17.23    0.66 
   2  -4   2   17.28    0.64 
   3  -4   2   11.05    0.46 
   3  -4   2   11.21    0.48 
   4  -4   2   23.32    0.90 
   4  -4   2   24.88    0.95 
   5  -4   2    0.53    0.13 
   5  -4   2    0.77    0.12 
   6  -4   2    6.63    0.42 
   7  -4   2    0.61    0.16 
   8  -4   2    0.63    0.19 
   9  -4   2    0.51    0.20 
   9   3  -2    0.18    0.15 
   8   3  -2    1.24    0.22 
   7   3  -2   -0.02    0.08 
   6   3  -2   20.33    0.80 
   6   3  -2   20.02    0.87 
  -6  -3   2   19.86    0.80 
   5   3  -2   20.86    0.87 
   4   3  -2  142.81    4.88 
   4   3  -2  142.45    4.76 
   3   3  -2    7.17    0.33 
   3   3  -2    7.35    0.32 
  -3  -3   2    7.08    0.31 
   2   3  -2   78.89    2.60 
   2   3  -2   74.89    2.63 
  -2  -3   2   78.26    2.60 
   1   3  -2    1.40    0.08 
   1   3  -2    1.26    0.10 
  -1  -3   2    1.21    0.09 
   0   3  -2  223.73    7.09 
   0  -3   2  208.91    7.07 
   0  -3   2  211.67    7.18 
   1  -3   2   19.35    0.70 
   1  -3   2   19.57    0.70 
   2  -3   2    6.81    0.30 
   2  -3   2    6.92    0.30 
   3  -3   2   23.37    0.88 
   3  -3   2   22.81    0.85 
   4  -3   2   79.07    2.75 
   4  -3   2   82.29    2.84 
   5  -3   2    0.93    0.13 
   5  -3   2    1.23    0.18 
   6  -3   2    0.12    0.07 
   6  -3   2    0.06    0.10 
   7  -3   2    0.55    0.16 
   8  -3   2    0.90    0.21 
   9  -3   2    0.63    0.21 
   9   2  -2    0.01    0.14 
   8   2  -2    0.17    0.13 
   7   2  -2    4.74    0.36 
   6   2  -2    5.40    0.35 
  -6  -2   2    4.97    0.28 
   5   2  -2   14.05    0.59 
   5   2  -2   15.41    0.65 
  -5  -2   2   14.91    0.59 
   4   2  -2  185.17    6.34 
   4   2  -2  192.47    6.22 
  -4  -2   2  183.64    6.19 
   3   2  -2    2.40    0.15 
   3   2  -2    2.36    0.15 
   2   2  -2    5.62    0.25 
   2   2  -2    5.72    0.25 
  -2  -2   2    5.56    0.24 
   1   2  -2   35.57    1.22 
   1   2  -2   35.76    1.21 
  -1  -2   2   34.97    1.21 
   0   2  -2    2.36    0.13 
   0  -2   2    2.52    0.10 
   0  -2   2    2.22    0.12 
   1  -2   2  122.48    4.59 
   1  -2   2  152.00    4.55 
   2  -2   2   12.79    0.50 
   2  -2   2   12.68    0.50 
   3  -2   2   65.78    2.25 
   3  -2   2   65.99    2.30 
   4  -2   2   10.05    0.45 
   4  -2   2   10.21    0.48 
   5  -2   2    1.92    0.21 
   5  -2   2    2.10    0.18 
   6  -2   2    0.18    0.08 
   6  -2   2    0.13    0.11 
   7  -2   2    3.14    0.31 
   8  -2   2    1.82    0.29 
   9  -2   2    3.54    0.42 
   9   1  -2    0.56    0.20 
   8   1  -2    0.09    0.12 
   7   1  -2    0.39    0.13 
   6   1  -2    2.18    0.23 
  -6  -1   2    2.29    0.17 
   5   1  -2    1.67    0.18 
   5   1  -2    1.78    0.16 
  -5  -1   2    2.01    0.15 
   4   1  -2    7.68    0.34 
   4   1  -2    7.02    0.36 
  -4  -1   2    7.63    0.32 
   3   1  -2    0.18    0.05 
   3   1  -2    0.13    0.05 
  -3  -1   2    0.13    0.04 
   2   1  -2    3.66    0.19 
   2   1  -2    3.62    0.20 
   1   1  -2   90.71    3.07 
   1   1  -2   92.17    3.04 
  -1  -1   2   91.42    3.03 
   0   1  -2  110.39    3.56 
   0  -1   2  105.61    3.55 
   0  -1   2  105.24    3.67 
   1  -1   2   40.94    1.41 
   2  -1   2   -0.01    0.03 
   2  -1   2    0.05    0.03 
   3  -1   2   24.10    0.89 
   3  -1   2   23.97    0.91 
   4  -1   2    7.97    0.38 
   4  -1   2    8.07    0.40 
   5  -1   2   19.14    0.79 
   5  -1   2   19.89    0.83 
   6  -1   2    0.73    0.14 
   6  -1   2    0.84    0.17 
   7  -1   2    3.23    0.32 
   8  -1   2   -0.02    0.12 
   9  -1   2    1.05    0.26 
   9   0  -2   -0.01    0.15 
   8   0  -2    1.03    0.21 
   7   0  -2   -0.02    0.05 
   7   0  -2   -0.05    0.07 
   6   0  -2    3.57    0.28 
   6   0  -2    4.20    0.26 
   5   0  -2    0.01    0.06 
   5   0  -2   -0.01    0.05 
  -5   0   2    0.00    0.05 
   4   0  -2   27.08    1.04 
   4   0  -2   27.78    1.00 
  -4   0   2   26.95    0.96 
   3   0  -2   -0.04    0.03 
   3   0  -2    0.06    0.04 
  -3   0   2   -0.01    0.03 
   2   0  -2  962.13   32.61 
   2   0  -2 1000.00   32.11 
  -2   0   2  979.28   32.06 
   1   0  -2   -0.02    0.02 
   1   0  -2   -0.02    0.03 
  -1   0   2    0.00    0.02 
   0   0  -2  463.32   14.25 
   0   0   2  389.07   14.19 
   0   0   2  450.82   14.74 
  -1   0  -2   -0.05    0.02 
   1   0   2   -0.04    0.02 
   1   0   2   -0.04    0.03 
   2   0   2    4.59    0.23 
   2   0   2    4.52    0.23 
   3   0   2   -0.02    0.04 
   3   0   2    0.00    0.04 
   4   0   2  103.88    3.55 
   4   0   2  100.30    3.47 
   5   0   2   -0.03    0.08 
   5   0   2   -0.05    0.05 
   6   0   2   54.25    1.99 
   6   0   2   56.08    2.07 
   7   0   2    0.07    0.12 
   8   0   2    0.16    0.13 
   9   0   2   -0.10    0.15 
   9  -1  -2    0.63    0.20 
   8  -1  -2    0.36    0.15 
   7  -1  -2    0.67    0.16 
   7  -1  -2    0.18    0.08 
   6  -1  -2    2.32    0.19 
   6  -1  -2    2.19    0.23 
   5  -1  -2    1.36    0.17 
   5  -1  -2    1.63    0.15 
  -5   1   2    1.83    0.12 
   4  -1  -2    7.41    0.35 
   4  -1  -2    7.58    0.38 
  -4   1   2    7.36    0.30 
   3  -1  -2    0.14    0.06 
   3  -1  -2    0.14    0.05 
  -3   1   2    0.24    0.04 
   2  -1  -2    3.57    0.21 
   2  -1  -2    4.57    0.20 
  -2   1   2    4.24    0.17 
   1  -1  -2   95.46    3.20 
   1  -1  -2   96.83    3.23 
   0  -1  -2  106.89    3.42 
   0   1   2  100.97    3.42 
   0   1   2  101.31    3.42 
  -1  -1  -2   40.32    1.36 
   1   1   2   40.53    1.40 
   1   1   2   40.79    1.40 
   2   1   2    0.01    0.03 
   2   1   2   -0.03    0.03 
   3   1   2   23.34    0.89 
   3   1   2   24.00    0.90 
   4   1   2    8.65    0.41 
   4   1   2    8.21    0.41 
   5   1   2   18.79    0.80 
   5   1   2   20.30    0.84 
   6   1   2    0.67    0.14 
   6   1   2    0.79    0.18 
   7   1   2    2.41    0.28 
   8   1   2   -0.09    0.10 
   9   1   2    1.14    0.27 
   9  -2  -2    0.08    0.13 
   8  -2  -2    0.52    0.17 
   7  -2  -2    3.82    0.27 
   7  -2  -2    3.87    0.31 
   6  -2  -2    4.88    0.35 
   6  -2  -2    6.09    0.33 
   5  -2  -2   16.74    0.70 
   5  -2  -2   15.87    0.66 
  -5   2   2   15.74    0.58 
   4  -2  -2  186.96    6.69 
  -4   2   2  208.50    6.51 
   3  -2  -2    2.73    0.17 
  -3   2   2    2.71    0.12 
   2  -2  -2    6.25    0.27 
  -2   2   2    6.30    0.23 
   1  -2  -2   36.51    1.26 
  -1   2   2   36.91    1.24 
   0  -2  -2    2.58    0.12 
   0   2   2    2.60    0.13 
  -1  -2  -2  165.92    5.32 
   1   2   2  153.03    5.33 
   1   2   2  164.35    5.41 
   2   2   2   12.64    0.52 
   2   2   2   13.63    0.53 
   3   2   2   64.61    2.24 
   3   2   2   63.03    2.21 
   4   2   2    9.67    0.47 
   4   2   2    9.67    0.45 
   5   2   2    2.00    0.21 
   5   2   2    1.79    0.19 
   6   2   2    0.15    0.09 
   6   2   2    0.07    0.12 
   7   2   2    3.23    0.28 
   7   2   2    2.36    0.29 
   8   2   2    1.58    0.26 
   9   2   2    3.87    0.42 
   9  -3  -2   -0.04    0.14 
   8  -3  -2    1.41    0.24 
   7  -3  -2    0.08    0.10 
   7  -3  -2    0.01    0.09 
   6  -3  -2   19.89    0.87 
   6  -3  -2   19.79    0.81 
   5  -3  -2   21.81    0.91 
  -5   3   2   23.01    0.78 
   4  -3  -2  143.41    4.90 
   3  -3  -2    7.66    0.35 
   2  -3  -2   78.37    2.77 
  -2   3   2   84.28    2.71 
   1  -3  -2    1.35    0.08 
  -1   3   2    1.36    0.08 
   0   3   2  203.84    6.72 
  -1  -3  -2   18.78    0.63 
   1   3   2   17.29    0.68 
   1   3   2   18.82    0.68 
   2   3   2    6.30    0.30 
   2   3   2    6.91    0.32 
   3   3   2   23.39    0.95 
   3   3   2   27.21    0.96 
   4   3   2   78.33    2.75 
   4   3   2   80.47    2.80 
   5   3   2    0.99    0.16 
   5   3   2    0.69    0.13 
   6   3   2    0.05    0.11 
   6   3   2    0.04    0.08 
  -7  -3  -2    0.68    0.17 
   7   3   2    0.52    0.17 
   8   3   2    1.19    0.24 
   9   3   2    0.87    0.24 
   9  -4  -2    0.98    0.24 
   8  -4  -2    1.21    0.22 
   7  -4  -2    1.21    0.20 
   7  -4  -2    1.06    0.17 
   6  -4  -2    1.99    0.23 
   5  -4  -2    5.54    0.33 
   4  -4  -2   58.65    2.09 
   3  -4  -2    0.83    0.10 
   2  -4  -2    6.09    0.27 
   1  -4  -2   -0.05    0.02 
  -1   4   2   -0.03    0.02 
   0   4   2   57.57    1.95 
   1   4   2   37.72    1.33 
   1   4   2   38.15    1.33 
   2   4   2   16.29    0.63 
   2   4   2   15.76    0.63 
   3   4   2   11.51    0.50 
   3   4   2   11.01    0.50 
   4   4   2   25.81    1.00 
   4   4   2   23.88    0.97 
   5   4   2    0.62    0.13 
   5   4   2    0.45    0.12 
   6   4   2    6.01    0.38 
   6   4   2    5.78    0.39 
  -7  -4  -2    0.51    0.15 
   7   4   2    0.41    0.15 
   8   4   2    0.51    0.19 
   9   4   2    1.10    0.28 
   9  -5  -2    1.07    0.24 
   8  -5  -2    1.66    0.26 
   7  -5  -2    1.32    0.22 
   7  -5  -2    1.26    0.19 
   6  -5  -2   13.02    0.63 
   5  -5  -2    0.01    0.07 
   4  -5  -2    0.26    0.08 
   3  -5  -2    0.07    0.05 
   2  -5  -2    0.55    0.04 
   2  -5  -2    0.55    0.07 
   1  -5  -2   15.85    0.59 
  -1   5   2   15.72    0.57 
   0   5   2    7.69    0.32 
   1   5   2   94.95    3.26 
   1   5   2   95.87    3.22 
   2   5   2   79.68    2.80 
   2   5   2   82.39    2.78 
   3   5   2   51.27    1.81 
   3   5   2   50.00    1.82 
   4   5   2   10.67    0.51 
   4   5   2   10.85    0.51 
   5   5   2    1.94    0.21 
   5   5   2    1.99    0.22 
   6   5   2    1.15    0.20 
  -7  -5  -2    0.58    0.16 
   7   5   2    0.47    0.16 
   8   5   2   -0.09    0.10 
   9   5   2    0.13    0.16 
   9  -6  -2    0.27    0.16 
   8  -6  -2    0.84    0.21 
   7  -6  -2    4.53    0.34 
   6  -6  -2    1.13    0.18 
   5  -6  -2    0.54    0.12 
   4  -6  -2    6.38    0.34 
   3  -6  -2    0.01    0.04 
   2  -6  -2    1.67    0.08 
   2  -6  -2    1.43    0.12 
   1  -6  -2   23.85    0.83 
  -1   6   2   21.76    0.80 
   0   6   2   17.98    0.67 
   1   6   2   58.10    2.01 
   2   6   2   26.23    0.99 
   2   6   2   26.68    1.00 
   3   6   2   29.04    1.13 
   3   6   2   30.32    1.14 
   4   6   2    1.24    0.17 
   4   6   2    1.05    0.15 
   5   6   2    4.12    0.30 
   5   6   2    3.92    0.29 
  -6  -6  -2    2.54    0.26 
   6   6   2    2.71    0.28 
  -7  -6  -2   -0.10    0.09 
   7   6   2    0.03    0.10 
   8   6   2    0.51    0.19 
   9   6   2    0.04    0.18 
   9  -7  -2    0.46    0.20 
   8  -7  -2    1.09    0.22 
   7  -7  -2    0.02    0.10 
   6  -7  -2    4.65    0.33 
   5  -7  -2    1.61    0.19 
   4  -7  -2    4.86    0.29 
   3  -7  -2    2.96    0.20 
   2  -7  -2    1.85    0.09 
   2  -7  -2    1.63    0.13 
   1  -7  -2   14.94    0.55 
   0   7   2    0.00    0.03 
   1   7   2   25.75    0.96 
   2   7   2   58.68    2.13 
   2   7   2   61.89    2.12 
   3   7   2   18.60    0.77 
   3   7   2   18.08    0.76 
   4   7   2    9.12    0.48 
   4   7   2   10.05    0.50 
  -5  -7  -2    1.30    0.19 
   5   7   2    0.86    0.17 
  -6  -7  -2    0.76    0.17 
   6   7   2    0.32    0.13 
  -7  -7  -2    0.94    0.20 
   7   7   2    0.53    0.16 
  -8  -7  -2    0.04    0.14 
   8   7   2    0.18    0.14 
   9   7   2    1.21    0.29 
   9  -8  -2    0.02    0.14 
   8  -8  -2    0.32    0.16 
   7  -8  -2    0.21    0.12 
   6  -8  -2    1.47    0.21 
   5  -8  -2    1.23    0.17 
   4  -8  -2   15.49    0.66 
   3  -8  -2   21.24    0.83 
   2  -8  -2    8.25    0.37 
   2  -8  -2    7.99    0.31 
   1  -8  -2    0.03    0.03 
   0  -8  -2   79.55    2.69 
   1   8   2    5.77    0.30 
   2   8   2    5.68    0.32 
   2   8   2    6.43    0.34 
   3   8   2    1.12    0.16 
   3   8   2    0.78    0.13 
  -4  -8  -2    3.62    0.26 
   4   8   2    2.87    0.24 
  -5  -8  -2    9.63    0.49 
   5   8   2    8.30    0.49 
  -6  -8  -2    1.89    0.23 
   6   8   2    1.99    0.26 
  -7  -8  -2    0.27    0.14 
   7   8   2    0.27    0.14 
  -8  -8  -2    3.06    0.34 
   8   8   2    3.02    0.37 
   9   8   2    0.89    0.25 
   9  -9  -2    2.17    0.33 
   8  -9  -2   -0.08    0.10 
   7  -9  -2    0.31    0.13 
   6  -9  -2    0.17    0.10 
   5  -9  -2    2.18    0.22 
   4  -9  -2    4.19    0.27 
   3  -9  -2    1.38    0.08 
   3  -9  -2    1.54    0.15 
   2  -9  -2    2.19    0.12 
   2  -9  -2    2.05    0.16 
   1  -9  -2    8.89    0.37 
   0  -9  -2   20.17    0.76 
  -1  -9  -2   25.09    0.95 
  -2  -9  -2   12.28    0.54 
  -3  -9  -2   18.79    0.79 
   3   9   2   18.96    0.80 
  -4  -9  -2    0.69    0.14 
   4   9   2    0.66    0.14 
  -5  -9  -2   10.64    0.55 
   5   9   2   10.93    0.58 
  -6  -9  -2    1.04    0.20 
   6   9   2    1.01    0.20 
  -7  -9  -2    0.16    0.13 
   7   9   2    0.46    0.17 
  -8  -9  -2    0.10    0.14 
   8   9   2    0.04    0.14 
   9 -10  -2    0.10    0.17 
   8 -10  -2    1.64    0.27 
   7 -10  -2    2.85    0.30 
   6 -10  -2    0.26    0.11 
   5 -10  -2    2.12    0.22 
   4 -10  -2    2.23    0.21 
   3 -10  -2    0.31    0.08 
   3 -10  -2    0.31    0.04 
   2 -10  -2   43.41    1.52 
   2 -10  -2   46.06    1.62 
   1 -10  -2  149.42    4.97 
   0 -10  -2    3.10    0.19 
  -1 -10  -2    2.67    0.19 
  -2 -10  -2    4.55    0.28 
  -3 -10  -2   37.29    1.40 
   3  10   2   37.40    1.43 
  -4 -10  -2    5.10    0.34 
   4  10   2    5.30    0.35 
  -5 -10  -2    3.27    0.29 
   5  10   2    2.96    0.29 
  -6 -10  -2    0.21    0.12 
   6  10   2    0.44    0.16 
  -7 -10  -2    0.20    0.14 
   7  10   2   -0.01    0.12 
  -8 -10  -2    1.65    0.28 
   8  10   2    1.10    0.25 
   9 -11  -2    1.16    0.27 
   8 -11  -2    0.79    0.20 
   7 -11  -2    0.02    0.10 
   6 -11  -2    4.93    0.35 
   5 -11  -2   -0.01    0.07 
   4 -11  -2    0.30    0.10 
   3 -11  -2    7.06    0.37 
   3 -11  -2    7.00    0.28 
   2 -11  -2    3.91    0.24 
   2 -11  -2    4.02    0.20 
   1 -11  -2   12.54    0.51 
   0 -11  -2   18.87    0.74 
  -1 -11  -2    2.45    0.19 
  -2 -11  -2   67.65    2.38 
  -3 -11  -2    5.65    0.34 
  -4 -11  -2   12.26    0.61 
   4  11   2   12.36    0.62 
  -5 -11  -2    0.32    0.13 
   5  11   2    0.29    0.13 
  -6 -11  -2    3.03    0.31 
   6  11   2    3.05    0.33 
  -7 -11  -2    3.19    0.34 
   7  11   2    3.07    0.35 
  -8 -11  -2    0.27    0.17 
   8  11   2    0.12    0.15 
   9 -12  -2    0.84    0.23 
   8 -12  -2    0.42    0.17 
   7 -12  -2    3.13    0.32 
   6 -12  -2    3.72    0.30 
   5 -12  -2    4.65    0.32 
   4 -12  -2    0.43    0.12 
   3 -12  -2    6.80    0.29 
   3 -12  -2    6.65    0.37 
   2 -12  -2    9.11    0.43 
   2 -12  -2    8.45    0.37 
   1 -12  -2   11.83    0.49 
   0 -12  -2    0.05    0.05 
  -1 -12  -2    8.64    0.42 
  -2 -12  -2   11.59    0.55 
  -3 -12  -2   22.38    0.94 
  -4 -12  -2    0.10    0.10 
   4  12   2    0.12    0.10 
  -5 -12  -2    1.73    0.25 
   5  12   2    1.60    0.24 
  -6 -12  -2    1.41    0.25 
   6  12   2    1.41    0.25 
  -7 -12  -2    0.16    0.15 
   7  12   2    0.28    0.15 
  -8 -12  -2    0.84    0.24 
   8  12   2    0.97    0.25 
   8 -13  -2    1.74    0.28 
   7 -13  -2    5.34    0.40 
   6 -13  -2    3.58    0.30 
   5 -13  -2    4.70    0.33 
   4 -13  -2    6.73    0.39 
   3 -13  -2    4.63    0.30 
   3 -13  -2    4.77    0.23 
   2 -13  -2    8.59    0.37 
   2 -13  -2    8.35    0.42 
   1 -13  -2   18.37    0.72 
   0 -13  -2    3.07    0.21 
  -1 -13  -2   11.97    0.54 
  -2 -13  -2   22.42    0.92 
  -3 -13  -2    5.83    0.38 
  -4 -13  -2    4.48    0.34 
  -5 -13  -2    1.76    0.25 
   5  13   2    1.47    0.23 
  -6 -13  -2    1.44    0.25 
   6  13   2    1.26    0.24 
  -7 -13  -2    2.87    0.34 
   7  13   2    2.30    0.33 
  -8 -13  -2    1.12    0.26 
   8  13   2    0.83    0.25 
   8 -14  -2    0.12    0.14 
   7 -14  -2    0.44    0.16 
   6 -14  -2   -0.05    0.08 
   5 -14  -2    1.59    0.22 
   4 -14  -2    1.57    0.20 
   3 -14  -2    3.22    0.18 
   3 -14  -2    2.68    0.25 
   2 -14  -2    0.27    0.09 
   2 -14  -2    0.45    0.08 
   1 -14  -2    0.03    0.06 
   0 -14  -2    3.06    0.22 
  -1 -14  -2    5.51    0.33 
  -2 -14  -2    2.30    0.24 
  -3 -14  -2    8.22    0.47 
  -4 -14  -2    0.66    0.17 
  -5 -14  -2    1.69    0.25 
   5  14   2    2.02    0.28 
  -6 -14  -2    0.17    0.15 
   6  14   2    0.29    0.15 
  -7 -14  -2    0.80    0.21 
   7  14   2    0.62    0.21 
  -8 -14  -2    1.29    0.28 
   8  14   2    1.12    0.28 
   8 -15  -2    7.96    0.56 
   7 -15  -2    0.56    0.17 
   6 -15  -2    0.04    0.10 
   5 -15  -2    1.40    0.22 
   4 -15  -2    8.17    0.47 
   3 -15  -2    0.27    0.11 
   2 -15  -2    1.67    0.15 
   2 -15  -2    1.67    0.19 
   1 -15  -2    0.99    0.13 
   0 -15  -2   39.97    1.47 
  -1 -15  -2   11.78    0.56 
  -2 -15  -2   40.70    1.55 
  -3 -15  -2    1.70    0.23 
  -4 -15  -2   27.34    1.15 
  -5 -15  -2    0.82    0.19 
  -6 -15  -2    0.78    0.20 
   6  15   2    0.58    0.18 
  -7 -15  -2    1.12    0.25 
   7  15   2    0.73    0.21 
   8 -16  -2   -0.19    0.15 
   7 -16  -2    0.82    0.20 
   6 -16  -2    0.10    0.11 
   5 -16  -2    0.07    0.10 
   4 -16  -2    0.06    0.09 
   3 -16  -2    1.30    0.19 
   2 -16  -2    0.82    0.12 
   2 -16  -2    0.56    0.13 
   1 -16  -2    0.00    0.06 
   0 -16  -2    5.66    0.33 
  -1 -16  -2   48.28    1.78 
  -2 -16  -2    6.34    0.40 
  -3 -16  -2    5.62    0.39 
  -4 -16  -2    2.03    0.27 
  -5 -16  -2    0.11    0.13 
  -6 -16  -2    1.53    0.28 
  -7 -16  -2   -0.05    0.16 
   7  16   2    0.25    0.18 
   8 -17  -2    0.06    0.15 
   7 -17  -2   -0.06    0.12 
   6 -17  -2    3.31    0.34 
   5 -17  -2    3.02    0.31 
   4 -17  -2    0.02    0.08 
   3 -17  -2    3.04    0.28 
   2 -17  -2    4.93    0.30 
   2 -17  -2    5.67    0.35 
   1 -17  -2    2.48    0.20 
   0 -17  -2    4.82    0.32 
  -1 -17  -2   17.16    0.77 
  -2 -17  -2    2.16    0.25 
  -3 -17  -2   10.56    0.58 
  -4 -17  -2   -0.03    0.11 
  -5 -17  -2    1.67    0.27 
  -6 -17  -2    0.87    0.24 
  -7 -17  -2    0.64    0.24 
   7 -18  -2    0.23    0.15 
   6 -18  -2    0.29    0.14 
   5 -18  -2    0.63    0.17 
   4 -18  -2    6.30    0.42 
   3 -18  -2    1.62    0.22 
   2 -18  -2   17.12    0.79 
   2 -18  -2   17.72    0.73 
   1 -18  -2    5.29    0.32 
   0 -18  -2    0.40    0.13 
  -1 -18  -2    0.79    0.17 
  -2 -18  -2    3.64    0.33 
  -3 -18  -2    0.12    0.13 
  -4 -18  -2    0.45    0.17 
  -5 -18  -2    0.58    0.20 
  -6 -18  -2    6.35    0.49 
  -7 -18  -2   -0.14    0.14 
   7 -19  -2    0.01    0.13 
   6 -19  -2    0.30    0.16 
   5 -19  -2    1.18    0.21 
   4 -19  -2    0.75    0.18 
   3 -19  -2    0.61    0.15 
   2 -19  -2    0.30    0.11 
   2 -19  -2    0.50    0.11 
   1 -19  -2    0.95    0.18 
   1 -19  -2    1.27    0.18 
   0 -19  -2    0.09    0.10 
  -1 -19  -2    0.29    0.14 
  -2 -19  -2    3.58    0.33 
  -3 -19  -2    2.37    0.29 
  -4 -19  -2    3.06    0.35 
  -5 -19  -2    1.10    0.24 
  -6 -19  -2    0.27    0.19 
   7 -20  -2    0.46    0.20 
   6 -20  -2    0.36    0.17 
   5 -20  -2    0.19    0.12 
   4 -20  -2    1.00    0.19 
   3 -20  -2    0.45    0.15 
   2 -20  -2    0.17    0.11 
   1 -20  -2    0.40    0.11 
   1 -20  -2    0.35    0.13 
   0 -20  -2    9.01    0.50 
  -1 -20  -2    6.17    0.41 
  -2 -20  -2    0.46    0.17 
  -3 -20  -2    1.54    0.25 
  -4 -20  -2    1.32    0.25 
  -5 -20  -2    0.60    0.21 
  -6 -20  -2    0.17    0.18 
   6 -21  -2    0.41    0.19 
   5 -21  -2    0.15    0.12 
   4 -21  -2    1.74    0.26 
   3 -21  -2    0.07    0.10 
   2 -21  -2   -0.03    0.09 
   1 -21  -2    7.07    0.45 
   1 -21  -2    7.03    0.41 
   0 -21  -2    0.14    0.10 
  -1 -21  -2    4.86    0.37 
  -2 -21  -2    3.30    0.35 
  -3 -21  -2    1.23    0.24 
  -4 -21  -2   -0.08    0.12 
  -5 -21  -2    2.90    0.39 
  -6 -21  -2    0.95    0.27 
   6 -22  -2    0.10    0.15 
   5 -22  -2    0.06    0.13 
   4 -22  -2   -0.10    0.09 
   3 -22  -2    0.32    0.13 
   2 -22  -2    7.75    0.48 
   1 -22  -2    0.93    0.19 
   1 -22  -2    0.88    0.17 
   0 -22  -2   11.21    0.60 
  -1 -22  -2    0.96    0.20 
  -2 -22  -2    0.08    0.12 
  -3 -22  -2    0.08    0.13 
  -4 -22  -2    4.65    0.46 
  -5 -22  -2    0.02    0.17 
   6 -23  -2    0.36    0.19 
   5 -23  -2    0.04    0.15 
   4 -23  -2    0.74    0.19 
   3 -23  -2    0.27    0.14 
   2 -23  -2    0.72    0.18 
   1 -23  -2    3.18    0.30 
   1 -23  -2    3.01    0.33 
   0 -23  -2    1.44    0.22 
  -1 -23  -2    1.32    0.23 
  -2 -23  -2    1.73    0.28 
  -3 -23  -2    0.38    0.20 
  -4 -23  -2    1.38    0.31 
  -5 -23  -2    1.96    0.35 
   5 -24  -2    0.68    0.22 
   4 -24  -2    0.16    0.15 
   3 -24  -2    1.91    0.28 
   2 -24  -2    3.25    0.34 
   1 -24  -2   -0.01    0.10 
   1 -24  -2    0.00    0.11 
   0 -24  -2    0.74    0.18 
  -1 -24  -2    2.78    0.33 
  -2 -24  -2    1.09    0.24 
  -3 -24  -2    8.28    0.58 
  -4 -24  -2    0.03    0.18 
  -5 -24  -2    0.75    0.26 
   4 -25  -2    3.84    0.41 
   3 -25  -2    0.20    0.15 
   2 -25  -2    2.14    0.29 
   1 -25  -2   -0.13    0.10 
   0 -25  -2    0.69    0.18 
  -1 -25  -2    2.02    0.29 
  -2 -25  -2    1.75    0.28 
  -3 -25  -2    0.80    0.24 
  -4 -25  -2    0.08    0.20 
   4 -26  -2    1.71    0.30 
   3 -26  -2    1.86    0.30 
   2 -26  -2    1.24    0.25 
   1 -26  -2   -0.15    0.11 
   0 -26  -2    4.48    0.41 
  -1 -26  -2    0.77    0.21 
  -2 -26  -2    0.90    0.23 
  -3 -26  -2    2.36    0.38 
   3 -27  -2    0.85    0.23 
   2 -27  -2   -0.02    0.13 
   1 -27  -2    5.69    0.46 
   0 -27  -2    0.63    0.20 
   0 -27  -2    0.58    0.20 
  -1 -27  -2    5.38    0.48 
  -2 -27  -2    2.44    0.36 
   2 -28  -2    0.09    0.16 
   1 -28  -2    0.33    0.19 
   0 -28  -2    1.34    0.29 
   0 -28  -2    1.37    0.29 
  -1 -28  -2    2.36    0.36 
  -1 -28   3   -0.19    0.13 
  -1 -28   3    0.25    0.20 
   0 -28   3    3.43    0.38 
   0 -28   3    3.98    0.42 
   1 -28   3    0.00    0.15 
  -3 -27   3    0.42    0.23 
  -2 -27   3    0.27    0.19 
  -1 -27   3    0.27    0.16 
  -1 -27   3    0.19    0.16 
   0 -27   3    1.98    0.31 
   0 -27   3    2.38    0.31 
   1 -27   3    0.99    0.24 
   1 -27   3    1.29    0.24 
   2 -27   3    3.49    0.38 
  -4 -26   3    0.40    0.20 
  -3 -26   3    0.36    0.21 
  -2 -26   3    0.03    0.17 
  -1 -26   3    1.37    0.26 
   0 -26   3    0.02    0.11 
   0 -26   3   -0.05    0.12 
   1 -26   3    0.83    0.21 
   1 -26   3    1.08    0.22 
   2 -26   3    0.68    0.21 
   3 -26   3    1.37    0.27 
  -4 -25   3   -0.15    0.16 
  -3 -25   3    0.96    0.24 
  -2 -25   3    0.67    0.21 
  -1 -25   3    0.38    0.15 
   0 -25   3    2.23    0.28 
   0 -25   3    2.41    0.30 
   1 -25   3    0.84    0.20 
   1 -25   3    0.56    0.17 
   2 -25   3    0.03    0.13 
   3 -25   3    1.27    0.26 
   4 -25   3    0.88    0.24 
  -5 -24   3    0.28    0.21 
  -4 -24   3    3.37    0.41 
  -3 -24   3    0.42    0.19 
  -2 -24   3    2.01    0.30 
  -1 -24   3   -0.07    0.09 
   0 -24   3    2.33    0.28 
   0 -24   3    2.74    0.30 
   1 -24   3    0.06    0.10 
   1 -24   3   -0.03    0.11 
   2 -24   3    0.63    0.17 
   2 -24   3    0.39    0.16 
   3 -24   3    0.16    0.14 
   4 -24   3    2.36    0.33 
  -5 -23   3    3.96    0.44 
  -4 -23   3   -0.08    0.13 
  -3 -23   3    0.56    0.19 
  -2 -23   3    0.50    0.17 
  -1 -23   3    0.42    0.16 
   0 -23   3    0.61    0.18 
   0 -23   3    0.53    0.16 
   1 -23   3    0.01    0.10 
   1 -23   3   -0.02    0.10 
   2 -23   3    4.44    0.34 
   2 -23   3    3.81    0.35 
   3 -23   3    0.39    0.15 
   4 -23   3    3.71    0.38 
   5 -23   3    0.54    0.20 
  -6 -22   3    1.28    0.29 
  -5 -22   3    3.81    0.41 
  -4 -22   3    0.03    0.13 
  -3 -22   3    0.52    0.17 
  -2 -22   3    4.84    0.39 
  -1 -22   3    4.21    0.35 
   0 -22   3    4.55    0.35 
   0 -22   3    4.11    0.33 
   1 -22   3    0.82    0.19 
   1 -22   3    1.09    0.19 
   2 -22   3    0.61    0.15 
   2 -22   3    0.37    0.14 
   3 -22   3    4.27    0.35 
   4 -22   3    0.30    0.15 
   5 -22   3    0.67    0.21 
  -6 -21   3    1.12    0.26 
  -5 -21   3    0.67    0.19 
  -4 -21   3    0.34    0.16 
  -3 -21   3    9.40    0.57 
  -2 -21   3   19.99    0.93 
  -1 -21   3    2.18    0.27 
   0 -21   3    4.08    0.32 
   0 -21   3    4.17    0.33 
   1 -21   3    0.15    0.10 
   1 -21   3   -0.09    0.09 
   2 -21   3    3.18    0.29 
   2 -21   3    2.70    0.28 
   3 -21   3    0.61    0.16 
   4 -21   3    3.45    0.35 
   5 -21   3    3.19    0.36 
   6 -21   3    0.59    0.21 
  -7 -20   3   -0.05    0.19 
  -6 -20   3    0.16    0.18 
  -5 -20   3    0.17    0.14 
  -4 -20   3    0.76    0.20 
  -3 -20   3    4.19    0.35 
  -2 -20   3    3.03    0.32 
  -1 -20   3    5.63    0.39 
   0 -20   3    0.05    0.09 
   0 -20   3   -0.09    0.08 
   1 -20   3    0.37    0.13 
   1 -20   3    0.17    0.11 
   2 -20   3    1.62    0.22 
   2 -20   3    1.59    0.22 
   3 -20   3    0.26    0.12 
   4 -20   3    5.09    0.40 
   5 -20   3    4.71    0.40 
   6 -20   3    1.81    0.30 
  -7 -19   3    0.27    0.20 
  -6 -19   3    1.49    0.28 
  -5 -19   3    0.06    0.13 
  -4 -19   3    0.07    0.12 
  -3 -19   3    6.89    0.45 
  -2 -19   3    0.34    0.12 
  -1 -19   3    6.02    0.40 
   0 -19   3   32.60    1.29 
   0 -19   3   32.93    1.30 
   1 -19   3    3.72    0.29 
   1 -19   3    3.58    0.28 
   2 -19   3   30.80    1.23 
   2 -19   3   30.92    1.25 
   3 -19   3    0.38    0.14 
   3 -19   3    0.39    0.12 
   4 -19   3    0.31    0.15 
   5 -19   3   14.01    0.73 
   6 -19   3    0.05    0.14 
  -7 -18   3    2.70    0.37 
  -6 -18   3    0.13    0.16 
  -5 -18   3    0.29    0.16 
  -4 -18   3    0.36    0.16 
  -3 -18   3    0.45    0.16 
  -2 -18   3    4.17    0.33 
  -1 -18   3    2.57    0.26 
   0 -18   3    0.60    0.15 
   0 -18   3    0.70    0.16 
   1 -18   3   36.83    1.41 
   1 -18   3   36.37    1.41 
   2 -18   3    1.73    0.21 
   2 -18   3    1.48    0.21 
   3 -18   3   33.94    1.39 
   3 -18   3   35.55    1.35 
   4 -18   3    4.09    0.34 
   5 -18   3    1.44    0.24 
   6 -18   3    0.61    0.19 
  -7 -17   3    1.24    0.26 
  -6 -17   3    0.00    0.14 
  -5 -17   3    7.27    0.49 
  -4 -17   3   -0.02    0.10 
  -3 -17   3    3.71    0.31 
  -2 -17   3    1.49    0.22 
  -1 -17   3    0.27    0.12 
   0 -17   3   13.56    0.64 
   1 -17   3    3.77    0.28 
   1 -17   3    3.80    0.28 
   2 -17   3   11.72    0.57 
   2 -17   3   11.23    0.55 
   3 -17   3   17.83    0.84 
   3 -17   3   20.17    0.82 
   4 -17   3    0.64    0.16 
   5 -17   3    1.05    0.21 
   6 -17   3   -0.19    0.12 
   7 -17   3    0.28    0.17 
   8  16  -3    3.87    0.46 
  -8 -16   3    4.66    0.46 
  -7 -16   3    0.40    0.18 
  -6 -16   3    2.02    0.29 
  -5 -16   3    1.84    0.27 
  -4 -16   3   16.33    0.79 
  -3 -16   3   12.03    0.61 
  -2 -16   3   12.23    0.61 
  -1 -16   3   10.21    0.52 
   0 -16   3   16.06    0.71 
   1 -16   3    3.07    0.25 
   1 -16   3    2.77    0.23 
   2 -16   3   24.92    1.00 
   2 -16   3   23.33    0.97 
   3 -16   3   22.35    0.95 
   3 -16   3   24.62    1.00 
   4 -16   3    1.69    0.23 
   5 -16   3    2.20    0.27 
   6 -16   3    3.80    0.37 
   7 -16   3    0.14    0.15 
   8  15  -3    0.94    0.26 
  -8 -15   3    0.50    0.23 
   7  15  -3    0.67    0.21 
  -7 -15   3    0.62    0.20 
  -6 -15   3    2.59    0.31 
  -5 -15   3    5.73    0.41 
  -4 -15   3    2.66    0.29 
  -3 -15   3    3.87    0.30 
  -2 -15   3   10.27    0.53 
  -1 -15   3   12.83    0.61 
   0 -15   3   19.53    0.82 
   1 -15   3   26.25    1.02 
   1 -15   3   25.48    1.02 
   2 -15   3   20.73    0.87 
   2 -15   3   22.58    0.90 
   3 -15   3    0.62    0.13 
   3 -15   3    0.38    0.13 
   4 -15   3    1.52    0.22 
   4 -15   3    1.49    0.18 
   5 -15   3    7.52    0.47 
   6 -15   3    0.82    0.19 
   7 -15   3    2.35    0.32 
   8  14  -3    0.92    0.24 
  -8 -14   3    0.15    0.19 
   7  14  -3    3.53    0.37 
  -7 -14   3    3.48    0.36 
   6  14  -3    1.80    0.26 
  -6 -14   3    2.20    0.28 
  -5 -14   3    3.94    0.33 
  -4 -14   3    2.05    0.25 
  -3 -14   3    0.00    0.09 
  -2 -14   3    0.28    0.10 
  -1 -14   3    3.76    0.27 
   0 -14   3    0.55    0.12 
   1 -14   3   37.47    1.41 
   1 -14   3   38.15    1.41 
   2 -14   3   20.64    0.85 
   2 -14   3   20.75    0.84 
   3 -14   3   25.63    1.02 
   3 -14   3   24.21    0.98 
   4 -14   3    0.67    0.15 
   4 -14   3    0.38    0.11 
   5 -14   3    1.76    0.23 
   6 -14   3    3.19    0.33 
   7 -14   3    1.76    0.28 
   8  13  -3    1.82    0.31 
  -8 -13   3    2.48    0.34 
   7  13  -3    0.09    0.13 
  -7 -13   3    0.07    0.14 
   6  13  -3    5.13    0.39 
  -6 -13   3    4.88    0.37 
   5  13  -3    0.43    0.14 
  -5 -13   3    0.44    0.14 
  -4 -13   3    0.69    0.16 
  -3 -13   3    0.99    0.17 
  -2 -13   3   10.46    0.51 
  -1 -13   3    0.11    0.07 
   0 -13   3    0.74    0.13 
   1 -13   3    8.71    0.42 
   1 -13   3    8.91    0.44 
   2 -13   3   14.55    0.62 
   2 -13   3   14.14    0.62 
   3 -13   3    8.72    0.44 
   3 -13   3    8.72    0.46 
   4 -13   3    0.44    0.13 
   4 -13   3    0.46    0.11 
   5 -13   3    0.52    0.15 
   6 -13   3    0.95    0.20 
   7 -13   3    0.32    0.15 
   8 -13   3    0.55    0.21 
   8  12  -3    0.16    0.15 
   7  12  -3    2.00    0.28 
  -7 -12   3    1.79    0.26 
   6  12  -3    0.98    0.19 
  -6 -12   3    1.14    0.21 
   5  12  -3    0.03    0.10 
  -5 -12   3    0.06    0.10 
  -4 -12   3   25.48    1.05 
  -3 -12   3    0.03    0.08 
  -2 -12   3   39.85    1.48 
  -1 -12   3    0.56    0.11 
   0 -12   3    3.21    0.22 
   1 -12   3    7.13    0.36 
   1 -12   3    7.83    0.38 
   2 -12   3   17.92    0.74 
   2 -12   3   17.78    0.73 
   3 -12   3    8.21    0.40 
   3 -12   3    7.49    0.41 
   4 -12   3   38.53    1.42 
   4 -12   3   38.87    1.49 
   5 -12   3    5.09    0.35 
   6 -12   3    5.57    0.40 
   7 -12   3    0.48    0.17 
   8 -12   3    0.11    0.15 
   9  11  -3   -0.16    0.14 
   8  11  -3    0.33    0.17 
   7  11  -3    0.42    0.17 
  -7 -11   3    0.46    0.16 
   6  11  -3    1.58    0.23 
  -6 -11   3    1.36    0.22 
   5  11  -3    3.13    0.28 
  -5 -11   3    3.57    0.28 
   4  11  -3    5.49    0.33 
  -4 -11   3    4.55    0.32 
  -3 -11   3   36.90    1.39 
  -2 -11   3    0.00    0.05 
  -1 -11   3   31.81    1.19 
   0 -11   3    0.57    0.11 
   1 -11   3    1.46    0.15 
   1 -11   3    1.20    0.13 
   2 -11   3    2.30    0.18 
   2 -11   3    2.31    0.18 
   3 -11   3    6.21    0.35 
   3 -11   3    6.17    0.33 
   4 -11   3   13.97    0.60 
   4 -11   3   13.76    0.64 
   5 -11   3    3.58    0.29 
   6 -11   3    3.59    0.33 
   7 -11   3   -0.17    0.11 
   8 -11   3    0.50    0.19 
   9  10  -3   -0.10    0.14 
   8  10  -3   -0.03    0.12 
   7  10  -3    1.38    0.24 
  -7 -10   3    1.58    0.24 
   6  10  -3    0.20    0.12 
   6  10  -3    0.12    0.06 
  -6 -10   3    0.30    0.12 
   5  10  -3    1.84    0.21 
   5  10  -3    1.96    0.20 
  -5 -10   3    1.92    0.22 
   4  10  -3    3.34    0.24 
   4  10  -3    3.20    0.24 
  -4 -10   3    3.03    0.24 
  -3 -10   3    8.23    0.42 
  -2 -10   3    1.85    0.18 
  -1 -10   3    1.00    0.13 
   0 -10   3    3.61    0.23 
   1 -10   3   29.77    1.10 
   1 -10   3   29.52    1.09 
   2 -10   3    0.42    0.09 
   2 -10   3    0.48    0.10 
   3 -10   3   14.81    0.62 
   3 -10   3   14.46    0.63 
   4 -10   3    0.10    0.06 
   4 -10   3    0.00    0.08 
   5 -10   3    0.16    0.11 
   5 -10   3    0.16    0.08 
   6 -10   3    0.20    0.13 
   7 -10   3    5.49    0.41 
   8 -10   3    0.38    0.18 
   9   9  -3   -0.06    0.14 
   8   9  -3    1.14    0.24 
   7   9  -3    0.23    0.14 
  -7  -9   3   -0.02    0.11 
   6   9  -3   18.82    0.88 
  -6  -9   3   20.17    0.85 
   5   9  -3   -0.05    0.07 
   5   9  -3    0.05    0.08 
  -5  -9   3   -0.05    0.08 
   4   9  -3    7.75    0.40 
   4   9  -3    7.61    0.39 
  -4  -9   3    7.44    0.40 
   3   9  -3    9.50    0.45 
   3   9  -3    9.63    0.45 
  -3  -9   3    9.89    0.46 
  -2  -9   3    1.13    0.14 
  -1  -9   3    0.35    0.09 
   0  -9   3    0.10    0.06 
   1  -9   3   81.74    2.80 
   1  -9   3   82.00    2.82 
   2  -9   3    9.22    0.43 
   2  -9   3    9.88    0.43 
   3  -9   3    1.43    0.15 
   3  -9   3    1.20    0.14 
   4  -9   3    1.52    0.16 
   4  -9   3    1.15    0.17 
   5  -9   3    6.06    0.38 
   5  -9   3    6.17    0.33 
   6  -9   3    5.32    0.38 
   7  -9   3    4.01    0.38 
   8  -9   3    2.77    0.35 
   9   8  -3    0.12    0.16 
   8   8  -3    0.39    0.17 
   7   8  -3   10.27    0.59 
  -7  -8   3   10.74    0.55 
   6   8  -3    1.44    0.21 
  -6  -8   3    1.43    0.19 
   5   8  -3    9.41    0.51 
   5   8  -3   10.79    0.49 
  -5  -8   3   10.45    0.50 
   4   8  -3    7.18    0.37 
   4   8  -3    7.01    0.38 
  -4  -8   3    6.92    0.37 
   3   8  -3    0.37    0.10 
   3   8  -3    0.32    0.08 
  -3  -8   3    0.40    0.09 
   2   8  -3   18.17    0.71 
  -2  -8   3   17.06    0.70 
  -1  -8   3    8.21    0.38 
   0  -8   3   33.55    1.21 
   1  -8   3   13.71    0.53 
   1  -8   3   11.61    0.50 
   2  -8   3   20.83    0.81 
   2  -8   3   21.51    0.82 
   3  -8   3    1.47    0.14 
   3  -8   3    1.32    0.14 
   4  -8   3    1.44    0.15 
   4  -8   3    0.97    0.15 
   5  -8   3    0.07    0.10 
   5  -8   3    0.08    0.07 
   6  -8   3    4.69    0.35 
   7  -8   3    0.84    0.20 
   8  -8   3    1.99    0.30 
   9   7  -3    1.18    0.26 
   8   7  -3    0.67    0.18 
   7   7  -3    2.37    0.27 
  -7  -7   3    2.19    0.24 
   6   7  -3    0.14    0.07 
   6   7  -3    0.38    0.13 
  -6  -7   3    0.43    0.12 
   5   7  -3    9.59    0.48 
   5   7  -3    9.52    0.45 
  -5  -7   3    9.50    0.46 
   4   7  -3    9.06    0.44 
   4   7  -3    8.68    0.42 
  -4  -7   3    8.91    0.43 
   3   7  -3    2.86    0.18 
   3   7  -3    2.35    0.18 
  -3  -7   3    2.98    0.20 
   2   7  -3    0.05    0.05 
  -2  -7   3   -0.02    0.04 
  -1  -7   3    1.76    0.14 
   0  -7   3    7.90    0.36 
   1  -7   3  144.08    4.86 
   1  -7   3  146.67    4.91 
   2  -7   3   50.10    1.76 
   2  -7   3   49.42    1.74 
   3  -7   3    0.95    0.12 
   3  -7   3    0.60    0.10 
   4  -7   3    2.24    0.20 
   4  -7   3    2.00    0.18 
   5  -7   3    8.75    0.47 
   5  -7   3    8.50    0.42 
   6  -7   3   -0.01    0.11 
   7  -7   3    1.06    0.22 
   8  -7   3    0.45    0.18 
   9   6  -3    2.06    0.32 
   8   6  -3    1.51    0.26 
   7   6  -3    0.93    0.19 
   6   6  -3    1.52    0.17 
   6   6  -3    1.41    0.20 
  -6  -6   3    1.92    0.19 
   5   6  -3   16.45    0.67 
   5   6  -3   14.95    0.68 
  -5  -6   3   16.13    0.67 
   4   6  -3    6.75    0.34 
   4   6  -3    6.39    0.34 
  -4  -6   3    6.64    0.34 
   3   6  -3    8.10    0.37 
   3   6  -3    8.27    0.38 
  -3  -6   3    7.79    0.37 
   2   6  -3    4.23    0.21 
   2   6  -3    4.24    0.24 
  -2  -6   3    4.07    0.23 
   1   6  -3   10.10    0.44 
  -1  -6   3   10.35    0.43 
   0  -6   3    0.72    0.09 
   0  -6   3    0.69    0.06 
   1  -6   3   15.10    0.59 
   1  -6   3   14.70    0.56 
   2  -6   3    1.41    0.12 
   2  -6   3    1.12    0.12 
   3  -6   3   31.10    1.13 
   3  -6   3   30.71    1.15 
   4  -6   3   13.28    0.59 
   4  -6   3   13.05    0.56 
   5  -6   3    0.50    0.11 
   5  -6   3    0.78    0.15 
   6  -6   3    4.24    0.33 
   7  -6   3    0.03    0.11 
   8  -6   3    0.18    0.14 
   9   5  -3    0.17    0.16 
   8   5  -3    0.84    0.21 
   7   5  -3    2.86    0.30 
   6   5  -3    0.02    0.08 
   6   5  -3    0.36    0.13 
  -6  -5   3    0.19    0.09 
   5   5  -3   18.38    0.79 
   5   5  -3   18.90    0.76 
  -5  -5   3   18.42    0.75 
   4   5  -3    5.35    0.28 
   4   5  -3    4.79    0.28 
  -4  -5   3    4.64    0.27 
   3   5  -3    7.45    0.35 
   3   5  -3    7.86    0.36 
  -3  -5   3    7.82    0.35 
   2   5  -3   10.03    0.40 
   2   5  -3    9.69    0.42 
  -2  -5   3    9.30    0.41 
   1   5  -3    0.73    0.10 
  -1  -5   3    0.66    0.09 
   0  -5   3    3.71    0.17 
   0  -5   3    4.30    0.21 
   1  -5   3   20.62    0.77 
   2  -5   3   10.04    0.43 
   2  -5   3   10.08    0.42 
   3  -5   3    5.84    0.30 
   3  -5   3    5.66    0.30 
   4  -5   3    1.12    0.15 
   4  -5   3    1.52    0.15 
   5  -5   3    7.49    0.42 
   5  -5   3    7.23    0.38 
   6  -5   3    0.64    0.12 
   6  -5   3    0.59    0.16 
   7  -5   3    1.59    0.24 
   8  -5   3    0.11    0.15 
   9  -5   3    0.55    0.22 
   9   4  -3    0.20    0.16 
   8   4  -3    0.06    0.11 
   7   4  -3   -0.10    0.08 
   6   4  -3   32.73    1.25 
   6   4  -3   31.48    1.17 
  -6  -4   3   28.81    1.15 
   5   4  -3    3.19    0.22 
   5   4  -3    3.27    0.24 
   4   4  -3    1.28    0.14 
   4   4  -3    1.33    0.14 
  -4  -4   3    1.18    0.13 
   3   4  -3   10.97    0.46 
   3   4  -3   10.46    0.45 
  -3  -4   3   11.17    0.45 
   2   4  -3    5.70    0.25 
   2   4  -3    5.28    0.27 
  -2  -4   3    5.46    0.26 
   1   4  -3   10.49    0.43 
  -1  -4   3   10.44    0.42 
   0   4  -3    8.54    0.37 
   0  -4   3    9.11    0.38 
   0  -4   3    8.87    0.33 
   1  -4   3   14.67    0.57 
   2  -4   3   45.72    1.63 
   2  -4   3   47.59    1.64 
   3  -4   3   51.31    1.82 
   3  -4   3   52.61    1.85 
   4  -4   3    9.16    0.44 
   4  -4   3    8.48    0.41 
   5  -4   3    0.30    0.09 
   5  -4   3    0.20    0.10 
   6  -4   3    0.11    0.10 
   6  -4   3    0.08    0.07 
   7  -4   3    1.25    0.23 
   8  -4   3    0.72    0.20 
   9  -4   3    0.02    0.17 
   9   3  -3    0.63    0.20 
   8   3  -3    0.50    0.16 
   7   3  -3    6.05    0.40 
   6   3  -3    6.20    0.35 
   6   3  -3    6.35    0.39 
  -6  -3   3    6.18    0.33 
   5   3  -3    6.04    0.35 
   5   3  -3    6.24    0.34 
  -5  -3   3    6.84    0.33 
   4   3  -3    2.66    0.20 
   4   3  -3    2.55    0.19 
   3   3  -3   29.43    1.05 
   3   3  -3   27.75    1.05 
  -3  -3   3   29.45    1.04 
   2   3  -3   16.25    0.58 
   2   3  -3   14.61    0.60 
  -2  -3   3   15.70    0.59 
   1   3  -3    0.52    0.08 
  -1  -3   3    0.45    0.07 
   0   3  -3  134.61    4.45 
   0  -3   3  138.27    4.48 
   0  -3   3  127.63    4.44 
   1  -3   3   85.73    3.15 
   1  -3   3  101.91    3.16 
   2  -3   3   98.28    3.38 
   2  -3   3  100.14    3.35 
   3  -3   3   24.26    0.92 
   3  -3   3   23.99    0.91 
   4  -3   3   10.54    0.50 
   4  -3   3   11.16    0.49 
   5  -3   3    7.79    0.41 
   5  -3   3    8.63    0.45 
   6  -3   3    3.27    0.30 
   6  -3   3    3.40    0.25 
   7  -3   3    0.06    0.11 
   8  -3   3    0.72    0.20 
   9  -3   3    1.07    0.29 
   9   2  -3    0.08    0.14 
   8   2  -3    0.19    0.14 
   7   2  -3    0.52    0.15 
   7   2  -3    0.53    0.12 
   6   2  -3    5.19    0.31 
   6   2  -3    5.33    0.35 
  -6  -2   3    4.86    0.28 
   5   2  -3    0.22    0.08 
   5   2  -3    0.08    0.07 
  -5  -2   3    0.04    0.06 
   4   2  -3   61.81    2.24 
   4   2  -3   65.02    2.21 
  -4  -2   3   64.81    2.18 
   3   2  -3   24.64    0.90 
   3   2  -3   23.85    0.89 
   2   2  -3   26.61    0.92 
   2   2  -3   25.76    0.94 
  -2  -2   3   25.86    0.92 
   1   2  -3   11.59    0.41 
   1   2  -3   11.69    0.46 
  -1  -2   3   11.73    0.45 
   0   2  -3   16.33    0.62 
   0  -2   3   17.76    0.58 
   0  -2   3   15.84    0.62 
   1  -2   3    0.67    0.06 
   1  -2   3    0.75    0.09 
   2  -2   3    1.05    0.10 
   2  -2   3    1.05    0.11 
   3  -2   3    7.86    0.37 
   3  -2   3    7.95    0.38 
   4  -2   3    7.24    0.37 
   4  -2   3    6.96    0.36 
   5  -2   3    0.76    0.13 
   5  -2   3    0.69    0.14 
   6  -2   3    2.15    0.22 
   6  -2   3    2.25    0.25 
   7  -2   3    0.36    0.14 
   8  -2   3    0.63    0.20 
   9  -2   3    1.44    0.30 
   9   1  -3    0.62    0.19 
   8   1  -3    1.35    0.24 
   7   1  -3    0.08    0.10 
   7   1  -3   -0.02    0.09 
   6   1  -3    2.31    0.24 
   6   1  -3    2.41    0.21 
   5   1  -3    0.01    0.06 
   5   1  -3    0.02    0.07 
  -5  -1   3    0.05    0.05 
   4   1  -3  116.70    3.86 
   4   1  -3  112.22    3.91 
  -4  -1   3  113.31    3.80 
   3   1  -3    4.60    0.23 
   3   1  -3    4.36    0.24 
  -3  -1   3    4.47    0.21 
   2   1  -3   10.66    0.38 
   2   1  -3   10.27    0.41 
  -2  -1   3    8.66    0.38 
   1   1  -3    0.18    0.02 
   1   1  -3    0.21    0.05 
  -1  -1   3    0.19    0.05 
   0   1  -3   76.52    2.55 
   0  -1   3   74.29    2.56 
   0  -1   3   77.36    2.59 
  -1   1  -3   27.73    0.96 
   1  -1   3   27.98    0.99 
   1  -1   3   27.09    0.96 
   2  -1   3    0.85    0.10 
   2  -1   3    0.77    0.09 
   3  -1   3   21.43    0.81 
   3  -1   3   20.43    0.80 
   4  -1   3    1.35    0.16 
   4  -1   3    1.38    0.16 
   5  -1   3    6.63    0.39 
   5  -1   3    6.39    0.36 
   6  -1   3    0.59    0.13 
   6  -1   3    0.69    0.16 
   7  -1   3    0.17    0.13 
   8  -1   3    4.67    0.43 
   9  -1   3    0.29    0.19 
   9   0  -3    0.76    0.23 
   8   0  -3   -0.05    0.11 
   7   0  -3    5.93    0.36 
   7   0  -3    6.01    0.40 
   6   0  -3    0.09    0.07 
   6   0  -3   -0.03    0.09 
   5   0  -3   23.06    0.93 
   5   0  -3   23.17    0.90 
  -5   0   3   23.18    0.84 
   4   0  -3   -0.05    0.06 
   4   0  -3   -0.15    0.06 
  -4   0   3    0.04    0.05 
   3   0  -3   26.92    0.99 
   3   0  -3   27.83    0.99 
  -3   0   3   26.45    0.94 
   2   0  -3    0.01    0.04 
   2   0  -3   -0.02    0.03 
  -2   0   3    0.03    0.03 
   1   0  -3    2.30    0.14 
   1   0  -3    2.39    0.10 
  -1   0   3    2.61    0.14 
   0   0  -3   -0.02    0.03 
   0   0   3   -0.04    0.02 
   0   0   3   -0.01    0.01 
  -1   0  -3    4.63    0.19 
   1   0   3    5.11    0.23 
   1   0   3    3.52    0.18 
   2   0   3    0.25    0.06 
   2   0   3    0.00    0.04 
   3   0   3   23.32    0.90 
   3   0   3   23.68    0.90 
   4   0   3    0.04    0.06 
   4   0   3    0.06    0.06 
   5   0   3    4.90    0.31 
   5   0   3    4.51    0.31 
   6   0   3   -0.05    0.08 
   6   0   3    0.20    0.09 
   7   0   3    5.10    0.39 
   8   0   3   -0.08    0.12 
   9   0   3    0.49    0.21 
   9  -1  -3    0.74    0.21 
   8  -1  -3    1.17    0.22 
   7  -1  -3    0.04    0.11 
   7  -1  -3    0.12    0.11 
   6  -1  -3    2.16    0.23 
   6  -1  -3    2.42    0.21 
   5  -1  -3    0.01    0.06 
   5  -1  -3   -0.06    0.06 
  -5   1   3    0.06    0.04 
   4  -1  -3  116.76    3.85 
   4  -1  -3  110.40    3.90 
  -4   1   3  113.84    3.76 
   3  -1  -3    4.56    0.25 
   3  -1  -3    5.11    0.25 
  -3   1   3    4.74    0.20 
   2  -1  -3   10.78    0.45 
   2  -1  -3   11.55    0.43 
  -2   1   3   11.18    0.42 
   1  -1  -3    0.66    0.07 
   1  -1  -3    0.23    0.03 
  -1   1   3    0.22    0.05 
   0  -1  -3   74.64    2.48 
   0   1   3   73.56    2.50 
  -1  -1  -3   28.42    0.97 
   1   1   3   28.32    1.02 
   2   1   3    0.82    0.09 
   2   1   3    0.74    0.10 
   3   1   3   20.67    0.83 
   3   1   3   21.87    0.83 
   4   1   3    1.44    0.17 
   4   1   3    1.35    0.16 
   5   1   3    7.10    0.39 
   5   1   3    6.96    0.41 
   6   1   3    0.73    0.15 
   6   1   3    0.52    0.15 
   7   1   3    0.11    0.10 
   7   1   3    0.06    0.11 
   8   1   3    5.12    0.43 
   9   1   3    0.20    0.19 
   9  -2  -3   -0.06    0.11 
   8  -2  -3    0.16    0.12 
   7  -2  -3    0.41    0.14 
   7  -2  -3    0.52    0.14 
   6  -2  -3    4.48    0.29 
   6  -2  -3    5.26    0.34 
   5  -2  -3    0.13    0.08 
   5  -2  -3    0.17    0.08 
  -5   2   3    0.14    0.04 
   4  -2  -3   69.50    2.37 
   4  -2  -3   66.61    2.40 
  -4   2   3   69.41    2.28 
   3  -2  -3   25.10    0.94 
   3  -2  -3   24.92    0.94 
  -3   2   3   26.28    0.87 
   2  -2  -3   25.96    0.97 
   2  -2  -3   26.95    0.96 
  -2   2   3   27.66    0.93 
   1  -2  -3   12.65    0.44 
   1  -2  -3   12.04    0.46 
  -1   2   3   11.28    0.45 
   0  -2  -3   16.10    0.60 
   0   2   3   17.50    0.63 
  -1  -2  -3    0.57    0.05 
   1   2   3    0.59    0.09 
   1   2   3    0.29    0.05 
   2   2   3    1.28    0.12 
   2   2   3    1.21    0.13 
   3   2   3    7.62    0.37 
   3   2   3    7.84    0.39 
   4   2   3    6.90    0.38 
   4   2   3    7.05    0.37 
   5   2   3    0.56    0.12 
   5   2   3    0.69    0.15 
   6   2   3    1.66    0.23 
   6   2   3    2.05    0.23 
   7   2   3    0.43    0.16 
   7   2   3    0.27    0.12 
   8   2   3    0.95    0.24 
   9   2   3    1.22    0.29 
   9  -3  -3    0.23    0.16 
   8  -3  -3    0.29    0.14 
   7  -3  -3    5.79    0.39 
   7  -3  -3    6.26    0.37 
   6  -3  -3    5.26    0.33 
   6  -3  -3    5.07    0.35 
   5  -3  -3    6.80    0.37 
   5  -3  -3    6.73    0.36 
   4  -3  -3    2.89    0.21 
   3  -3  -3   29.67    1.12 
  -3   3   3   31.98    1.04 
   2  -3  -3   16.80    0.62 
  -2   3   3   16.51    0.59 
   1  -3  -3    0.55    0.05 
  -1   3   3    0.13    0.03 
   0  -3  -3  136.94    4.32 
   0   3   3  123.23    4.32 
  -1  -3  -3  104.61    3.40 
   1   3   3  101.65    3.45 
   1   3   3  101.27    3.48 
  -2  -3  -3   96.69    3.28 
   2   3   3  101.19    3.40 
   2   3   3   99.92    3.37 
   3   3   3   24.65    0.95 
   3   3   3   24.41    0.95 
   4   3   3   11.56    0.52 
   4   3   3   10.51    0.52 
   5   3   3    8.09    0.44 
   5   3   3    7.27    0.42 
   6   3   3    3.05    0.29 
   6   3   3    2.83    0.27 
   7   3   3   -0.02    0.10 
   7   3   3    0.06    0.11 
   8   3   3    1.01    0.23 
   9   3   3    0.90    0.25 
   9  -4  -3    0.19    0.17 
   8  -4  -3   -0.04    0.10 
   7  -4  -3    0.05    0.10 
   7  -4  -3    0.06    0.10 
   6  -4  -3   32.20    1.22 
   6  -4  -3   30.83    1.25 
   5  -4  -3    3.75    0.26 
   4  -4  -3    1.37    0.15 
   3  -4  -3   10.60    0.45 
   2  -4  -3    5.98    0.27 
  -2   4   3    6.22    0.25 
   1  -4  -3   10.90    0.42 
   0   4   3    8.89    0.38 
  -1  -4  -3   14.73    0.52 
   1   4   3   14.51    0.59 
   1   4   3   14.46    0.56 
  -2  -4  -3   45.24    1.53 
   2   4   3   46.39    1.64 
   2   4   3   46.30    1.64 
   3   4   3   53.12    1.87 
   3   4   3   51.18    1.87 
   4   4   3    9.06    0.45 
   4   4   3    8.84    0.45 
   5   4   3    0.24    0.11 
   5   4   3    0.23    0.11 
   6   4   3   -0.01    0.08 
   6   4   3    0.02    0.10 
   7   4   3    1.05    0.20 
   7   4   3    1.26    0.24 
   8   4   3    0.98    0.22 
   9   4   3    0.25    0.20 
   9  -5  -3    0.20    0.15 
   8  -5  -3    0.41    0.16 
   8  -5  -3    0.59    0.18 
   7  -5  -3    2.28    0.24 
   7  -5  -3    1.97    0.25 
   6  -5  -3    0.05    0.09 
   5  -5  -3   18.52    0.78 
   4  -5  -3    4.85    0.28 
   3  -5  -3    8.27    0.37 
   2  -5  -3   10.72    0.43 
  -2   5   3   10.69    0.40 
   1  -5  -3    0.92    0.08 
   0   5   3    3.75    0.20 
   1   5   3   19.76    0.76 
  -2  -5  -3    9.83    0.35 
   2   5   3   10.22    0.44 
   2   5   3    9.15    0.45 
   3   5   3    5.20    0.32 
   3   5   3    6.22    0.32 
   4   5   3    1.50    0.17 
   4   5   3    1.25    0.17 
   5   5   3    6.21    0.39 
   5   5   3    6.88    0.40 
   6   5   3    0.41    0.14 
   6   5   3    0.23    0.13 
   7   5   3    1.10    0.22 
   7   5   3    1.66    0.24 
   8   5   3    0.03    0.14 
   9   5   3    0.51    0.23 
   9  -6  -3    2.75    0.34 
   8  -6  -3    1.73    0.26 
   8  -6  -3    1.96    0.24 
   7  -6  -3    0.88    0.18 
   7  -6  -3    0.96    0.18 
   6  -6  -3    1.47    0.20 
   5  -6  -3   15.82    0.69 
   4  -6  -3    6.81    0.35 
   3  -6  -3    9.20    0.41 
   2  -6  -3    4.48    0.23 
  -2   6   3    4.64    0.20 
   0   6   3    0.62    0.09 
   1   6   3   13.14    0.55 
  -2  -6  -3    1.15    0.07 
   2   6   3    0.90    0.12 
   2   6   3    1.21    0.15 
   3   6   3   29.60    1.12 
   3   6   3   28.45    1.12 
   4   6   3   13.69    0.63 
   4   6   3   12.85    0.61 
   5   6   3    0.61    0.15 
   5   6   3    0.59    0.14 
   6   6   3    3.37    0.31 
   6   6   3    3.51    0.32 
  -7  -6  -3    0.22    0.13 
   7   6   3    0.11    0.12 
  -8  -6  -3   -0.16    0.14 
   8   6   3    0.26    0.17 
   9  -7  -3    0.71    0.21 
   8  -7  -3    0.39    0.15 
   8  -7  -3    0.19    0.13 
   7  -7  -3    2.20    0.27 
   6  -7  -3    0.62    0.14 
   5  -7  -3   10.76    0.52 
   4  -7  -3    8.59    0.42 
   3  -7  -3    2.80    0.19 
   2  -7  -3   -0.01    0.03 
  -2   7   3    0.04    0.03 
   0   7   3    8.33    0.38 
   1   7   3  137.63    4.63 
   2   7   3   44.75    1.64 
   2   7   3   45.94    1.65 
   3   7   3    0.73    0.12 
   3   7   3    0.58    0.12 
   4   7   3    1.77    0.20 
   4   7   3    1.46    0.20 
   5   7   3    8.45    0.48 
   5   7   3    8.52    0.49 
   6   7   3    0.03    0.11 
   6   7   3    0.18    0.11 
  -7  -7  -3    0.74    0.18 
   7   7   3    0.88    0.21 
  -8  -7  -3    0.61    0.20 
   8   7   3    0.48    0.19 
   9  -8  -3    0.00    0.14 
   8  -8  -3    0.04    0.12 
   8  -8  -3    0.13    0.14 
   7  -8  -3    9.82    0.55 
   6  -8  -3    1.81    0.22 
   5  -8  -3   11.35    0.55 
   4  -8  -3    7.46    0.38 
   3  -8  -3    0.46    0.09 
   2  -8  -3   16.65    0.61 
   2  -8  -3   17.60    0.67 
   0   8   3   34.59    1.25 
   1   8   3   11.55    0.52 
   2   8   3   18.31    0.80 
   2   8   3   20.85    0.81 
   3   8   3    1.44    0.17 
   3   8   3    1.21    0.17 
   4   8   3    0.99    0.17 
   4   8   3    1.11    0.18 
   5   8   3   -0.03    0.09 
   5   8   3    0.18    0.10 
  -6  -8  -3    4.48    0.35 
   6   8   3    4.63    0.36 
  -7  -8  -3    0.85    0.19 
   7   8   3    0.57    0.18 
  -8  -8  -3    1.38    0.26 
   8   8   3    2.22    0.33 
   9  -9  -3   -0.05    0.14 
   8  -9  -3    1.36    0.24 
   7  -9  -3    0.26    0.12 
   6  -9  -3   18.73    0.84 
   5  -9  -3    0.02    0.07 
   4  -9  -3    6.94    0.38 
   3  -9  -3    9.88    0.45 
   3  -9  -3    9.86    0.36 
   2  -9  -3    1.35    0.09 
   2  -9  -3    1.08    0.12 
   0   9   3    0.13    0.06 
   1   9   3   78.73    2.73 
   2   9   3    8.81    0.45 
   3   9   3    1.64    0.19 
   3   9   3    1.54    0.20 
   4   9   3    1.10    0.18 
   4   9   3    1.42    0.20 
   5   9   3    5.95    0.40 
   5   9   3    5.76    0.40 
  -6  -9  -3    4.99    0.37 
   6   9   3    5.08    0.39 
  -7  -9  -3    3.41    0.34 
   7   9   3    3.93    0.39 
  -8  -9  -3    2.65    0.33 
   8   9   3    2.73    0.37 
   9 -10  -3    0.03    0.16 
   8 -10  -3    0.01    0.10 
   7 -10  -3    1.37    0.22 
   6 -10  -3    0.21    0.10 
   5 -10  -3    2.27    0.23 
   4 -10  -3    3.39    0.25 
   3 -10  -3    8.38    0.32 
   3 -10  -3    9.02    0.42 
   2 -10  -3    2.42    0.14 
   2 -10  -3    2.24    0.17 
   1 -10  -3    1.18    0.11 
   0  10   3    3.20    0.22 
   1  10   3   28.47    1.10 
   2  10   3    0.48    0.12 
   3  10   3   13.26    0.65 
   3  10   3   14.20    0.65 
   4  10   3    0.00    0.07 
   4  10   3   -0.07    0.07 
  -5 -10  -3    0.38    0.13 
   5  10   3    0.11    0.11 
  -6 -10  -3    0.10    0.11 
   6  10   3    0.44    0.16 
  -7 -10  -3    5.42    0.42 
   7  10   3    5.28    0.44 
  -8 -10  -3    0.17    0.15 
   8  10   3   -0.10    0.14 
   9 -11  -3    0.09    0.16 
   8 -11  -3    0.26    0.14 
   7 -11  -3    0.34    0.13 
   6 -11  -3    1.44    0.20 
   5 -11  -3    3.65    0.28 
   4 -11  -3    4.91    0.31 
   3 -11  -3   38.32    1.44 
   3 -11  -3   38.45    1.31 
   2 -11  -3    0.09    0.04 
   2 -11  -3    0.09    0.06 
   1 -11  -3   31.29    1.13 
   0 -11  -3    0.66    0.11 
  -1 -11  -3    1.33    0.16 
  -3 -11  -3    6.01    0.38 
  -4 -11  -3   13.56    0.66 
   4  11   3   13.87    0.68 
  -5 -11  -3    3.53    0.32 
   5  11   3    3.93    0.33 
  -6 -11  -3    3.30    0.33 
   6  11   3    2.51    0.31 
  -7 -11  -3    0.17    0.14 
   7  11   3    0.03    0.14 
  -8 -11  -3    0.30    0.19 
   8  11   3    0.23    0.18 
   8 -12  -3    0.25    0.15 
   7 -12  -3    1.97    0.26 
   6 -12  -3    1.18    0.19 
   5 -12  -3    0.11    0.09 
   4 -12  -3   25.94    1.05 
   3 -12  -3   -0.01    0.06 
   3 -12  -3    0.10    0.04 
   2 -12  -3   41.80    1.51 
   2 -12  -3   40.22    1.43 
   1 -12  -3    0.86    0.11 
   0 -12  -3    3.62    0.23 
  -1 -12  -3    7.50    0.39 
  -2 -12  -3   16.90    0.74 
  -3 -12  -3    6.92    0.41 
  -4 -12  -3   38.11    1.49 
   4  12   3   38.22    1.53 
  -5 -12  -3    4.29    0.35 
   5  12   3    4.49    0.36 
  -6 -12  -3    5.24    0.40 
   6  12   3    5.38    0.43 
  -7 -12  -3    0.36    0.16 
   7  12   3    0.18    0.15 
  -8 -12  -3   -0.03    0.17 
   8  12   3    0.07    0.18 
   8 -13  -3    1.77    0.28 
   7 -13  -3    0.24    0.13 
   6 -13  -3    4.62    0.34 
   5 -13  -3    0.52    0.14 
   4 -13  -3    0.44    0.12 
   3 -13  -3    0.86    0.15 
   2 -13  -3   13.21    0.59 
   2 -13  -3   13.42    0.54 
   1 -13  -3    0.17    0.06 
   0 -13  -3    0.44    0.10 
  -1 -13  -3    8.73    0.44 
  -2 -13  -3   13.73    0.64 
  -3 -13  -3    7.77    0.45 
  -4 -13  -3    0.49    0.15 
  -5 -13  -3    0.42    0.14 
   5  13   3    0.35    0.14 
  -6 -13  -3    1.01    0.22 
   6  13   3    1.13    0.23 
  -7 -13  -3    0.41    0.18 
   7  13   3    0.17    0.16 
  -8 -13  -3    0.59    0.22 
   8  13   3    0.70    0.25 
   8 -14  -3    0.56    0.20 
   7 -14  -3    3.33    0.34 
   6 -14  -3    1.68    0.24 
   5 -14  -3    3.41    0.29 
   4 -14  -3    2.20    0.23 
   3 -14  -3   -0.01    0.06 
   2 -14  -3    0.18    0.08 
   2 -14  -3    0.18    0.06 
   1 -14  -3    4.47    0.26 
   0 -14  -3    0.78    0.13 
  -1 -14  -3   39.84    1.50 
  -2 -14  -3   21.45    0.92 
  -3 -14  -3   24.44    1.04 
  -4 -14  -3    0.67    0.18 
  -5 -14  -3    2.05    0.29 
  -6 -14  -3    2.89    0.34 
   6  14   3    3.06    0.36 
  -7 -14  -3    2.17    0.31 
   7  14   3    1.92    0.34 
   8 -15  -3    0.79    0.23 
   7 -15  -3    0.73    0.18 
   6 -15  -3    2.33    0.28 
   5 -15  -3    6.28    0.41 
   4 -15  -3    2.75    0.26 
   3 -15  -3    4.43    0.31 
   2 -15  -3   10.24    0.45 
   2 -15  -3   10.14    0.51 
   1 -15  -3   12.57    0.55 
   0 -15  -3   20.25    0.83 
  -1 -15  -3   25.85    1.04 
  -2 -15  -3   21.07    0.92 
  -3 -15  -3    0.44    0.15 
  -4 -15  -3    2.03    0.27 
  -5 -15  -3    7.06    0.49 
  -6 -15  -3    1.18    0.24 
   6  15   3    0.92    0.22 
  -7 -15  -3    2.13    0.33 
   7  15   3    2.26    0.35 
   8 -16  -3    3.86    0.41 
   7 -16  -3    0.42    0.15 
   6 -16  -3    1.90    0.26 
   5 -16  -3    1.64    0.24 
   4 -16  -3   16.21    0.76 
   3 -16  -3   12.00    0.60 
   2 -16  -3   11.07    0.50 
   2 -16  -3   11.90    0.57 
   1 -16  -3    9.72    0.46 
   0 -16  -3   15.18    0.67 
  -1 -16  -3    2.63    0.25 
  -2 -16  -3   24.02    1.02 
  -3 -16  -3   24.72    1.07 
  -4 -16  -3    1.73    0.27 
  -5 -16  -3    2.17    0.30 
  -6 -16  -3    2.96    0.36 
  -7 -16  -3    0.31    0.21 
   7 -17  -3    0.80    0.20 
   6 -17  -3    0.04    0.11 
   5 -17  -3    6.94    0.46 
   4 -17  -3    0.05    0.09 
   3 -17  -3    4.64    0.33 
   2 -17  -3    1.34    0.19 
   2 -17  -3    1.34    0.15 
   1 -17  -3    0.15    0.08 
   0 -17  -3   13.06    0.62 
  -1 -17  -3    4.32    0.33 
  -2 -17  -3   10.56    0.57 
  -3 -17  -3   18.95    0.88 
  -4 -17  -3    0.59    0.18 
  -5 -17  -3    1.41    0.26 
  -6 -17  -3    0.08    0.15 
  -7 -17  -3    0.32    0.19 
   7 -18  -3    2.47    0.33 
   6 -18  -3    0.12    0.11 
   5 -18  -3    0.12    0.12 
   4 -18  -3    0.05    0.10 
   3 -18  -3    0.48    0.13 
   2 -18  -3    4.26    0.27 
   2 -18  -3    4.95    0.34 
   1 -18  -3    2.55    0.23 
   0 -18  -3    0.60    0.15 
  -1 -18  -3   36.11    1.42 
  -2 -18  -3    1.68    0.25 
  -3 -18  -3   36.02    1.47 
  -4 -18  -3    3.88    0.38 
  -5 -18  -3    1.18    0.25 
  -6 -18  -3    0.62    0.21 
   7 -19  -3    0.08    0.16 
   6 -19  -3    2.29    0.31 
   5 -19  -3    0.28    0.12 
   4 -19  -3   -0.03    0.10 
   3 -19  -3    6.82    0.44 
   2 -19  -3    0.39    0.12 
   1 -19  -3    6.07    0.37 
   0 -19  -3   32.81    1.29 
  -1 -19  -3    3.82    0.33 
  -2 -19  -3   31.72    1.32 
  -3 -19  -3    0.31    0.14 
  -4 -19  -3    0.40    0.18 
  -5 -19  -3   15.27    0.83 
  -6 -19  -3    0.09    0.15 
   7 -20  -3    0.09    0.16 
   6 -20  -3    0.07    0.13 
   5 -20  -3    0.19    0.11 
   4 -20  -3    1.06    0.20 
   3 -20  -3    4.32    0.35 
   2 -20  -3    2.38    0.27 
   1 -20  -3    6.11    0.38 
   1 -20  -3    6.60    0.42 
   0 -20  -3    0.11    0.11 
  -1 -20  -3   -0.06    0.10 
  -2 -20  -3    1.50    0.24 
  -3 -20  -3    0.32    0.14 
  -4 -20  -3    4.84    0.45 
  -5 -20  -3    4.86    0.47 
  -6 -20  -3    1.63    0.31 
   6 -21  -3    1.02    0.25 
   5 -21  -3    0.52    0.17 
   4 -21  -3   -0.02    0.09 
   3 -21  -3    9.62    0.57 
   2 -21  -3   21.42    0.97 
   1 -21  -3    2.28    0.24 
   1 -21  -3    2.43    0.27 
   0 -21  -3    3.90    0.34 
  -1 -21  -3   -0.19    0.08 
  -2 -21  -3    2.12    0.29 
  -3 -21  -3    0.75    0.21 
  -4 -21  -3    3.47    0.40 
  -5 -21  -3    2.60    0.37 
  -6 -21  -3    0.61    0.23 
   6 -22  -3    0.91    0.26 
   5 -22  -3    3.56    0.38 
   4 -22  -3   -0.06    0.10 
   3 -22  -3    0.24    0.12 
   2 -22  -3    4.87    0.37 
   1 -22  -3    4.26    0.32 
   1 -22  -3    4.33    0.35 
   0 -22  -3    4.08    0.33 
  -1 -22  -3    1.04    0.22 
  -2 -22  -3    0.43    0.17 
  -3 -22  -3    3.77    0.39 
  -4 -22  -3    0.13    0.15 
  -5 -22  -3    0.75    0.25 
   5 -23  -3    3.88    0.41 
   4 -23  -3   -0.11    0.10 
   3 -23  -3    0.60    0.18 
   2 -23  -3    0.51    0.16 
   1 -23  -3    0.25    0.12 
   1 -23  -3    0.15    0.12 
   0 -23  -3    0.56    0.15 
  -1 -23  -3    0.06    0.12 
  -2 -23  -3    4.61    0.43 
  -3 -23  -3    0.35    0.19 
  -4 -23  -3    2.54    0.38 
  -5 -23  -3    0.51    0.24 
   5 -24  -3    0.24    0.19 
   4 -24  -3    2.98    0.35 
   3 -24  -3    0.55    0.18 
   2 -24  -3    1.77    0.26 
   1 -24  -3    0.11    0.12 
   0 -24  -3    2.53    0.30 
  -1 -24  -3    0.15    0.13 
  -2 -24  -3    0.47    0.19 
  -3 -24  -3    0.13    0.18 
  -4 -24  -3    2.32    0.39 
   4 -25  -3    0.00    0.14 
   3 -25  -3    1.02    0.23 
   2 -25  -3    0.31    0.15 
   1 -25  -3    0.05    0.13 
   0 -25  -3    2.22    0.30 
  -1 -25  -3    0.77    0.21 
  -2 -25  -3   -0.24    0.13 
  -3 -25  -3    1.79    0.34 
  -4 -25  -3    0.39    0.23 
   4 -26  -3    0.30    0.19 
   3 -26  -3    0.42    0.18 
   2 -26  -3    0.26    0.14 
   1 -26  -3    1.76    0.28 
   0 -26  -3    0.12    0.13 
  -1 -26  -3    1.32    0.26 
  -2 -26  -3    0.64    0.23 
  -3 -26  -3    1.52    0.33 
   3 -27  -3    0.18    0.16 
   2 -27  -3   -0.11    0.14 
   1 -27  -3    0.20    0.17 
   0 -27  -3    2.68    0.35 
  -1 -27  -3    1.41    0.29 
  -2 -27  -3    3.74    0.44 
   1 -28  -3    0.15    0.17 
   0 -28  -3    3.55    0.41 
  -2 -27   4    0.24    0.20 
  -1 -27   4    3.49    0.40 
  -1 -27   4    3.46    0.37 
   0 -27   4   -0.08    0.15 
   0 -27   4    0.00    0.14 
   1 -27   4    0.48    0.18 
   1 -27   4    0.79    0.23 
  -3 -26   4    0.07    0.18 
  -2 -26   4    0.80    0.22 
  -1 -26   4    0.47    0.18 
  -1 -26   4    0.73    0.22 
   0 -26   4    1.05    0.22 
   0 -26   4    0.55    0.19 
   1 -26   4    1.43    0.25 
   1 -26   4    1.32    0.26 
   2 -26   4    0.23    0.16 
  -4 -25   4    1.35    0.29 
  -3 -25   4   -0.16    0.13 
  -2 -25   4    0.79    0.24 
  -1 -25   4    0.10    0.13 
  -1 -25   4   -0.06    0.12 
   0 -25   4    1.01    0.22 
   0 -25   4    0.78    0.19 
   1 -25   4    0.06    0.12 
   1 -25   4    0.20    0.14 
   2 -25   4    0.37    0.17 
   3 -25   4    0.07    0.15 
  -5 -24   4    2.73    0.40 
  -4 -24   4    3.01    0.38 
  -3 -24   4    0.07    0.14 
  -2 -24   4    2.30    0.32 
  -1 -24   4    1.79    0.25 
  -1 -24   4    1.54    0.25 
   0 -24   4    0.14    0.12 
   0 -24   4    0.16    0.12 
   1 -24   4    1.90    0.26 
   1 -24   4    2.12    0.28 
   2 -24   4    0.04    0.12 
   2 -24   4   -0.05    0.11 
   3 -24   4    1.43    0.26 
   4 -24   4    0.30    0.17 
  -5 -23   4    0.20    0.19 
  -4 -23   4    2.14    0.33 
  -3 -23   4    3.51    0.38 
  -2 -23   4    0.17    0.13 
  -1 -23   4    2.46    0.30 
   0 -23   4    2.11    0.26 
   0 -23   4    2.40    0.29 
   1 -23   4    0.05    0.11 
   1 -23   4    0.11    0.12 
   2 -23   4    0.23    0.14 
   2 -23   4    0.00    0.11 
   3 -23   4    3.36    0.35 
   4 -23   4    0.19    0.16 
  -6 -22   4    0.04    0.20 
  -5 -22   4    0.48    0.19 
  -4 -22   4    1.41    0.28 
  -3 -22   4    0.02    0.12 
  -2 -22   4    2.79    0.33 
  -1 -22   4    0.21    0.12 
   0 -22   4    0.07    0.11 
   0 -22   4    0.10    0.10 
   1 -22   4    0.26    0.12 
   1 -22   4    0.01    0.11 
   2 -22   4    5.51    0.39 
   2 -22   4    5.96    0.41 
   3 -22   4    1.09    0.22 
   4 -22   4    4.05    0.38 
   5 -22   4    0.02    0.14 
  -6 -21   4    2.72    0.38 
  -5 -21   4    0.07    0.16 
  -4 -21   4    0.56    0.18 
  -3 -21   4    0.06    0.12 
  -2 -21   4    0.40    0.15 
  -1 -21   4    0.64    0.16 
   0 -21   4   -0.01    0.09 
   0 -21   4   -0.03    0.09 
   1 -21   4    0.40    0.13 
   1 -21   4    0.22    0.12 
   2 -21   4    2.84    0.29 
   2 -21   4    2.60    0.28 
   3 -21   4    3.78    0.34 
   4 -21   4    0.92    0.21 
   5 -21   4    0.47    0.18 
  -6 -20   4   -0.07    0.14 
  -5 -20   4    0.24    0.15 
  -4 -20   4    1.97    0.30 
  -3 -20   4    0.89    0.20 
  -2 -20   4    6.37    0.44 
  -1 -20   4    6.28    0.42 
   0 -20   4    0.33    0.14 
   0 -20   4    0.34    0.13 
   1 -20   4    1.28    0.21 
   1 -20   4    1.30    0.20 
   2 -20   4    0.20    0.11 
   2 -20   4    0.36    0.14 
   3 -20   4    0.03    0.11 
   3 -20   4    0.41    0.12 
   4 -20   4    0.25    0.14 
   5 -20   4    2.64    0.32 
   6 -20   4    0.02    0.15 
  -7 -19   4    0.08    0.17 
  -6 -19   4    1.13    0.24 
  -5 -19   4    2.37    0.31 
  -4 -19   4    0.17    0.13 
  -3 -19   4    6.95    0.46 
  -2 -19   4   -0.05    0.09 
  -1 -19   4    0.62    0.16 
   0 -19   4    1.72    0.21 
   0 -19   4    1.44    0.22 
   1 -19   4    0.17    0.11 
   1 -19   4    0.13    0.10 
   2 -19   4    5.01    0.36 
   2 -19   4    5.67    0.37 
   3 -19   4    1.23    0.20 
   3 -19   4    1.25    0.21 
   4 -19   4    0.52    0.17 
   5 -19   4    2.98    0.33 
   6 -19   4    0.16    0.16 
  -7 -18   4    0.31    0.19 
  -6 -18   4    1.22    0.25 
  -5 -18   4    0.44    0.16 
  -4 -18   4   20.69    0.96 
  -3 -18   4    3.12    0.31 
  -2 -18   4    3.17    0.30 
  -1 -18   4    2.00    0.25 
   0 -18   4    0.32    0.13 
   0 -18   4    0.51    0.13 
   1 -18   4    0.68    0.16 
   1 -18   4    0.54    0.14 
   2 -18   4    2.84    0.27 
   2 -18   4    2.75    0.27 
   3 -18   4    3.13    0.28 
   3 -18   4    2.86    0.28 
   4 -18   4   13.76    0.70 
   5 -18   4    0.09    0.14 
   6 -18   4    0.40    0.17 
  -7 -17   4    0.43    0.19 
  -6 -17   4    0.71    0.20 
  -5 -17   4    3.79    0.36 
  -4 -17   4    0.28    0.14 
  -3 -17   4    1.11    0.21 
  -2 -17   4    5.44    0.37 
  -1 -17   4   28.45    1.16 
   0 -17   4   12.40    0.57 
   0 -17   4   11.47    0.59 
   1 -17   4   31.37    1.24 
   1 -17   4   31.37    1.23 
   2 -17   4    6.93    0.41 
   2 -17   4    6.90    0.41 
   3 -17   4    3.01    0.27 
   3 -17   4    2.64    0.27 
   4 -17   4   -0.03    0.11 
   5 -17   4    4.37    0.36 
   6 -17   4    0.30    0.17 
  -8 -16   4    0.19    0.20 
  -7 -16   4    0.71    0.22 
  -6 -16   4   -0.17    0.11 
  -5 -16   4    0.22    0.13 
  -4 -16   4    2.41    0.27 
  -3 -16   4    0.66    0.17 
  -2 -16   4    2.05    0.24 
  -1 -16   4    4.47    0.32 
   0 -16   4    7.51    0.42 
   0 -16   4    6.99    0.38 
   1 -16   4   -0.10    0.09 
   1 -16   4    0.03    0.09 
   2 -16   4   10.42    0.53 
   2 -16   4    9.93    0.51 
   3 -16   4    6.29    0.39 
   3 -16   4    6.76    0.41 
   4 -16   4    0.68    0.16 
   4 -16   4    0.81    0.16 
   5 -16   4    1.33    0.23 
   6 -16   4    0.20    0.16 
   7 -16   4    0.81    0.23 
   8  15  -4    0.21    0.18 
  -8 -15   4   -0.05    0.18 
   7  15  -4    0.17    0.15 
  -7 -15   4   -0.06    0.13 
  -6 -15   4    0.90    0.20 
  -5 -15   4    0.34    0.14 
  -4 -15   4   10.98    0.58 
  -3 -15   4    1.75    0.23 
  -2 -15   4   17.76    0.79 
  -1 -15   4    0.33    0.11 
   0 -15   4    0.89    0.16 
   0 -15   4    0.77    0.13 
   1 -15   4    0.20    0.11 
   1 -15   4    0.36    0.10 
   2 -15   4   55.72    2.05 
   2 -15   4   57.36    2.07 
   3 -15   4    0.65    0.15 
   3 -15   4    0.91    0.16 
   4 -15   4    2.25    0.25 
   4 -15   4    2.01    0.22 
   5 -15   4    1.21    0.21 
   6 -15   4    5.09    0.40 
   7 -15   4    0.89    0.22 
   8  14  -4    0.00    0.16 
   7  14  -4    0.14    0.13 
  -7 -14   4    0.06    0.14 
   6  14  -4    0.24    0.14 
  -6 -14   4    0.10    0.12 
  -5 -14   4    0.89    0.19 
  -4 -14   4    0.26    0.13 
  -3 -14   4    1.43    0.21 
  -2 -14   4    1.71    0.21 
  -1 -14   4    5.79    0.35 
   0 -14   4    1.93    0.21 
   0 -14   4    1.87    0.17 
   1 -14   4    2.40    0.19 
   1 -14   4    2.49    0.23 
   2 -14   4    1.04    0.15 
   2 -14   4    1.10    0.17 
   3 -14   4    1.66    0.20 
   3 -14   4    1.47    0.20 
   4 -14   4    0.13    0.11 
   4 -14   4    0.17    0.09 
   5 -14   4    1.82    0.25 
   6 -14   4    1.41    0.24 
   7 -14   4    0.00    0.14 
   8  13  -4   -0.05    0.13 
   7  13  -4    0.30    0.16 
  -7 -13   4    0.77    0.19 
   6  13  -4    1.25    0.22 
  -6 -13   4    1.05    0.20 
  -5 -13   4    4.12    0.32 
  -4 -13   4    7.01    0.42 
  -3 -13   4    2.87    0.26 
  -2 -13   4    1.16    0.17 
  -1 -13   4    1.56    0.19 
   0 -13   4    7.51    0.40 
   0 -13   4    7.38    0.36 
   1 -13   4    1.93    0.17 
   1 -13   4    2.18    0.21 
   2 -13   4   23.84    0.97 
   2 -13   4   24.50    0.96 
   3 -13   4    1.14    0.17 
   3 -13   4    1.12    0.16 
   4 -13   4    3.46    0.25 
   4 -13   4    3.20    0.27 
   5 -13   4    4.57    0.34 
   6 -13   4    1.84    0.26 
   7 -13   4    0.42    0.17 
   8  12  -4    0.42    0.19 
   7  12  -4    1.94    0.28 
  -7 -12   4    2.25    0.28 
   6  12  -4    0.08    0.11 
  -6 -12   4    0.30    0.13 
   5  12  -4    3.01    0.27 
  -5 -12   4    2.32    0.26 
  -4 -12   4   21.07    0.90 
  -3 -12   4    1.79    0.21 
  -2 -12   4    4.98    0.31 
  -1 -12   4    2.18    0.20 
   0 -12   4   36.98    1.40 
   0 -12   4   38.46    1.37 
   1 -12   4    0.15    0.07 
   1 -12   4    0.24    0.08 
   2 -12   4    2.81    0.22 
   2 -12   4    2.65    0.20 
   3 -12   4    1.63    0.19 
   3 -12   4    1.53    0.18 
   4 -12   4    0.05    0.07 
   4 -12   4    0.24    0.10 
   5 -12   4    2.45    0.26 
   6 -12   4    0.67    0.17 
   7 -12   4    1.17    0.24 
   9  11  -4    0.01    0.16 
   8  11  -4    1.48    0.28 
   7  11  -4   -0.02    0.11 
  -7 -11   4    0.25    0.14 
   6  11  -4    2.21    0.26 
   6  11  -4    1.87    0.24 
  -6 -11   4    2.28    0.25 
   5  11  -4    0.68    0.16 
   5  11  -4    0.57    0.14 
  -5 -11   4    0.49    0.14 
   4  11  -4    4.48    0.30 
   4  11  -4    3.81    0.27 
  -4 -11   4    3.55    0.28 
  -3 -11   4    1.02    0.17 
  -2 -11   4    1.11    0.15 
  -1 -11   4    1.74    0.18 
   0 -11   4   12.43    0.51 
   0 -11   4   12.17    0.56 
   1 -11   4   -0.02    0.04 
   1 -11   4    0.07    0.07 
   2 -11   4   36.93    1.38 
   2 -11   4   36.98    1.37 
   3 -11   4    2.89    0.22 
   3 -11   4    2.61    0.21 
   4 -11   4   17.18    0.73 
   4 -11   4   17.23    0.76 
   5 -11   4    3.55    0.30 
   5 -11   4    3.68    0.27 
   6 -11   4    0.43    0.16 
   7 -11   4   -0.01    0.13 
   8 -11   4    3.71    0.41 
   9  10  -4    0.09    0.19 
   8  10  -4    0.45    0.19 
   7  10  -4    6.26    0.44 
  -7 -10   4    6.24    0.41 
   6  10  -4    1.51    0.21 
   6  10  -4    1.51    0.22 
  -6 -10   4    1.37    0.21 
   5  10  -4    0.21    0.10 
   5  10  -4    0.58    0.14 
  -5 -10   4    0.42    0.13 
   4  10  -4    0.11    0.07 
   4  10  -4   -0.05    0.07 
  -4 -10   4    0.11    0.10 
   3  10  -4    8.87    0.45 
  -3 -10   4    8.48    0.44 
  -2 -10   4   10.05    0.48 
  -1 -10   4    3.55    0.24 
   0 -10   4    0.87    0.09 
   0 -10   4    1.26    0.15 
   1 -10   4   12.14    0.51 
   1 -10   4   12.27    0.54 
   2 -10   4    0.11    0.07 
   2 -10   4    0.18    0.08 
   3 -10   4   45.04    1.64 
   3 -10   4   45.21    1.66 
   4 -10   4    0.36    0.11 
   4 -10   4    0.38    0.10 
   5 -10   4    3.46    0.26 
   5 -10   4    3.81    0.30 
   6 -10   4    0.89    0.19 
   7 -10   4    4.55    0.38 
   8 -10   4    1.51    0.28 
   9   9  -4   -0.03    0.16 
   8   9  -4    0.12    0.14 
   7   9  -4    0.73    0.18 
  -7  -9   4    0.70    0.18 
   6   9  -4    0.93    0.18 
   6   9  -4    0.66    0.16 
  -6  -9   4    0.45    0.14 
   5   9  -4    2.48    0.23 
   5   9  -4    2.20    0.23 
  -5  -9   4    2.07    0.22 
   4   9  -4    0.76    0.13 
   4   9  -4    0.44    0.11 
  -4  -9   4    0.41    0.11 
   3   9  -4   12.76    0.58 
  -3  -9   4   13.00    0.58 
  -2  -9   4    6.08    0.33 
  -1  -9   4    0.33    0.08 
   0  -9   4    3.66    0.23 
   1  -9   4    3.55    0.23 
   1  -9   4    3.12    0.19 
   2  -9   4    2.13    0.19 
   2  -9   4    2.19    0.17 
   3  -9   4    9.73    0.46 
   3  -9   4    9.81    0.46 
   4  -9   4    3.95    0.28 
   4  -9   4    4.09    0.27 
   5  -9   4    3.06    0.24 
   5  -9   4    3.21    0.28 
   6  -9   4    0.70    0.17 
   7  -9   4    0.92    0.21 
   8  -9   4    1.30    0.26 
   9   8  -4    0.19    0.18 
   8   8  -4    0.15    0.13 
   7   8  -4    0.71    0.18 
  -7  -8   4    0.25    0.15 
   6   8  -4    4.15    0.32 
   6   8  -4    4.22    0.31 
  -6  -8   4    4.20    0.30 
   5   8  -4   20.52    0.88 
   5   8  -4   21.56    0.87 
  -5  -8   4   21.00    0.86 
   4   8  -4   13.93    0.62 
   4   8  -4   14.25    0.63 
  -4  -8   4   15.00    0.63 
   3   8  -4    2.05    0.16 
   3   8  -4    2.00    0.19 
  -3  -8   4    2.01    0.19 
   2   8  -4   37.59    1.37 
  -2  -8   4   36.49    1.35 
  -1  -8   4   28.39    1.06 
   0  -8   4    3.87    0.24 
   0  -8   4    4.41    0.21 
   1  -8   4    8.45    0.40 
   2  -8   4    4.91    0.26 
   2  -8   4    4.69    0.28 
   3  -8   4    5.12    0.30 
   3  -8   4    6.02    0.32 
   4  -8   4    2.37    0.22 
   4  -8   4    2.52    0.20 
   5  -8   4    0.08    0.08 
   5  -8   4   -0.10    0.08 
   6  -8   4    4.23    0.34 
   7  -8   4    1.33    0.24 
   8  -8   4    0.48    0.19 
   9   7  -4   -0.17    0.15 
   8   7  -4    2.89    0.34 
   7   7  -4   -0.01    0.09 
   6   7  -4    0.86    0.17 
   6   7  -4    0.92    0.18 
  -6  -7   4    0.89    0.16 
   5   7  -4    1.26    0.17 
   5   7  -4    1.14    0.16 
  -5  -7   4    1.37    0.17 
   4   7  -4    1.99    0.19 
   4   7  -4    2.19    0.18 
  -4  -7   4    2.08    0.19 
   3   7  -4    6.41    0.31 
   3   7  -4    6.04    0.33 
  -3  -7   4    5.96    0.32 
   2   7  -4   12.43    0.55 
  -2  -7   4   12.76    0.54 
   1   7  -4   37.97    1.39 
  -1  -7   4   38.61    1.38 
   0  -7   4  100.06    3.44 
   0  -7   4  102.99    3.44 
   1  -7   4    2.78    0.16 
   2  -7   4   37.36    1.34 
   2  -7   4   37.12    1.36 
   3  -7   4    0.00    0.05 
   3  -7   4    0.01    0.05 
   4  -7   4    0.13    0.07 
   4  -7   4    0.15    0.08 
   5  -7   4    1.70    0.19 
   5  -7   4    2.14    0.23 
   6  -7   4    6.91    0.43 
   7  -7   4    2.85    0.32 
   8  -7   4    0.53    0.20 
   9   6  -4    1.60    0.28 
   8   6  -4    3.71    0.36 
   7   6  -4    0.14    0.13 
   7   6  -4    0.20    0.11 
   6   6  -4    1.22    0.19 
   6   6  -4    0.96    0.16 
  -6  -6   4    1.31    0.17 
   5   6  -4    0.58    0.13 
   5   6  -4    0.49    0.12 
  -5  -6   4    0.59    0.12 
   4   6  -4    1.89    0.19 
   4   6  -4    2.40    0.18 
  -4  -6   4    2.17    0.19 
   3   6  -4    2.50    0.19 
   3   6  -4    2.38    0.17 
  -3  -6   4    2.78    0.19 
   2   6  -4    6.07    0.32 
  -2  -6   4    6.31    0.31 
   1   6  -4   36.44    1.34 
  -1  -6   4   37.22    1.32 
   0  -6   4   93.49    3.18 
   0  -6   4   93.87    3.16 
   1  -6   4   40.21    1.45 
   1  -6   4   40.59    1.42 
   2  -6   4   20.04    0.79 
   2  -6   4   20.40    0.77 
   3  -6   4    0.07    0.06 
   3  -6   4    0.09    0.06 
   4  -6   4    9.66    0.46 
   4  -6   4    8.94    0.45 
   5  -6   4    2.22    0.23 
   5  -6   4    1.69    0.19 
   6  -6   4    0.57    0.14 
   6  -6   4    0.51    0.15 
   7  -6   4    3.73    0.35 
   8  -6   4    2.55    0.33 
   9   5  -4    1.85    0.30 
   8   5  -4   12.13    0.67 
   7   5  -4    0.02    0.11 
   7   5  -4    0.08    0.10 
   6   5  -4    1.16    0.18 
   6   5  -4    0.70    0.17 
  -6  -5   4    0.26    0.08 
   5   5  -4   18.48    0.78 
   5   5  -4   18.84    0.78 
  -5  -5   4   18.39    0.75 
   4   5  -4    2.29    0.19 
   4   5  -4    2.34    0.18 
  -4  -5   4    2.20    0.17 
   3   5  -4   32.26    1.19 
   3   5  -4   33.85    1.22 
  -3  -5   4   32.68    1.19 
   2   5  -4    1.59    0.15 
   2   5  -4    1.73    0.11 
  -2  -5   4    1.68    0.13 
   1   5  -4    8.13    0.37 
  -1  -5   4    7.75    0.36 
   0   5  -4   22.38    0.89 
   0  -5   4   24.29    0.89 
   0  -5   4   24.32    0.83 
   1  -5   4   -0.03    0.03 
   1  -5   4    0.00    0.04 
   2  -5   4    0.96    0.12 
   2  -5   4    0.92    0.10 
   3  -5   4   11.61    0.51 
   3  -5   4   11.97    0.53 
   4  -5   4    0.04    0.06 
   4  -5   4    0.12    0.07 
   5  -5   4   10.31    0.53 
   5  -5   4   10.27    0.50 
   6  -5   4    0.19    0.12 
   6  -5   4   -0.02    0.08 
   7  -5   4   -0.15    0.11 
   8  -5   4    0.20    0.16 
   9   4  -4    0.79    0.22 
   8   4  -4    0.76    0.19 
   7   4  -4    0.40    0.13 
   7   4  -4    0.38    0.14 
   6   4  -4   32.86    1.28 
   6   4  -4   31.92    1.24 
  -6  -4   4   31.76    1.20 
   5   4  -4    8.81    0.44 
   5   4  -4    8.72    0.44 
   4   4  -4   24.08    0.92 
   4   4  -4   23.48    0.92 
  -4  -4   4   23.77    0.90 
   3   4  -4    4.73    0.27 
   3   4  -4    5.00    0.24 
  -3  -4   4    4.81    0.25 
   2   4  -4    0.33    0.05 
   2   4  -4    0.30    0.07 
  -2  -4   4    0.28    0.07 
   1   4  -4    0.11    0.05 
  -1  -4   4    0.18    0.06 
   0   4  -4    2.00    0.15 
   0  -4   4    1.89    0.15 
   0  -4   4    2.37    0.11 
   1  -4   4    4.60    0.21 
   1  -4   4    4.64    0.26 
   2  -4   4   13.28    0.54 
   2  -4   4   14.03    0.58 
   3  -4   4    3.95    0.25 
   3  -4   4    4.20    0.24 
   4  -4   4   29.37    1.13 
   4  -4   4   29.01    1.12 
   5  -4   4    0.12    0.08 
   5  -4   4    0.15    0.10 
   6  -4   4    8.54    0.50 
   6  -4   4    8.88    0.47 
   7  -4   4    0.55    0.17 
   8  -4   4    0.26    0.17 
   9   3  -4    0.19    0.15 
   8   3  -4    2.06    0.27 
   7   3  -4    1.06    0.18 
   7   3  -4    1.45    0.22 
   6   3  -4   58.89    2.12 
   6   3  -4   59.14    2.17 
  -6  -3   4   59.12    2.07 
   5   3  -4    5.58    0.32 
   5   3  -4    5.24    0.31 
  -5  -3   4    5.61    0.29 
   4   3  -4   12.65    0.54 
   4   3  -4   12.61    0.55 
   3   3  -4    0.26    0.06 
   3   3  -4    0.29    0.08 
  -3  -3   4    0.31    0.07 
   2   3  -4   50.69    1.77 
   2   3  -4   50.56    1.74 
  -2  -3   4   50.90    1.75 
   1   3  -4    7.78    0.36 
  -1  -3   4    7.91    0.35 
   0   3  -4   12.66    0.53 
   0  -3   4   13.94    0.47 
   0  -3   4   12.75    0.53 
   1  -3   4   58.28    1.96 
   1  -3   4   56.04    1.98 
   2  -3   4   96.03    3.42 
   2  -3   4  104.93    3.42 
   3  -3   4    4.54    0.27 
   3  -3   4    4.64    0.26 
   4  -3   4    3.47    0.25 
   4  -3   4    3.89    0.25 
   5  -3   4    2.32    0.22 
   5  -3   4    2.50    0.24 
   6  -3   4    0.44    0.12 
   6  -3   4    0.40    0.14 
   7  -3   4    3.91    0.36 
   8  -3   4    0.02    0.15 
   9   2  -4    0.28    0.16 
   8   2  -4    0.39    0.16 
   7   2  -4    2.67    0.25 
   7   2  -4    2.09    0.26 
   6   2  -4   20.85    0.87 
   6   2  -4   19.54    0.84 
   5   2  -4    3.87    0.26 
   5   2  -4    4.06    0.26 
  -5  -2   4    3.87    0.22 
   4   2  -4    0.09    0.07 
   4   2  -4    0.17    0.08 
  -4  -2   4    0.22    0.06 
   3   2  -4   56.74    1.95 
   3   2  -4   55.87    1.93 
  -3  -2   4   53.98    1.90 
   2   2  -4   13.78    0.57 
   2   2  -4   14.45    0.52 
  -2  -2   4   14.70    0.56 
   1   2  -4   75.09    2.54 
  -1  -2   4   73.76    2.53 
   0   2  -4  103.00    3.58 
   0  -2   4  106.73    3.59 
   0  -2   4  110.28    3.60 
  -1   2  -4   22.56    0.84 
   1  -2   4   23.29    0.87 
   1  -2   4   23.53    0.82 
   2  -2   4   60.09    2.02 
   2  -2   4   55.05    1.99 
   3  -2   4    5.37    0.28 
   3  -2   4    5.28    0.30 
   4  -2   4    3.22    0.23 
   4  -2   4    3.34    0.24 
   5  -2   4    7.83    0.44 
   5  -2   4    9.32    0.47 
   6  -2   4    2.29    0.26 
   6  -2   4    2.13    0.23 
   7  -2   4   14.51    0.75 
   8  -2   4    1.04    0.23 
   9   1  -4    0.16    0.14 
   8   1  -4    0.08    0.13 
   7   1  -4    0.10    0.11 
   7   1  -4    0.18    0.11 
   6   1  -4    3.89    0.29 
   6   1  -4    5.24    0.33 
   5   1  -4    0.63    0.12 
   5   1  -4    0.62    0.12 
  -5  -1   4    0.65    0.09 
   4   1  -4    1.45    0.15 
   4   1  -4    1.48    0.16 
  -4  -1   4    1.40    0.12 
   3   1  -4    2.30    0.17 
   3   1  -4    2.09    0.14 
   2   1  -4    6.88    0.27 
   2   1  -4    6.52    0.32 
  -2  -1   4    6.64    0.30 
   1   1  -4   14.93    0.59 
  -1  -1   4   15.32    0.59 
   0   1  -4   21.56    0.80 
   0  -1   4   22.47    0.76 
   0  -1   4   21.76    0.82 
  -1   1  -4   36.09    1.25 
   1  -1   4   35.55    1.28 
   1  -1   4   35.45    1.24 
   2  -1   4    0.03    0.04 
   2  -1   4    0.04    0.06 
   3  -1   4   46.32    1.70 
   3  -1   4   48.08    1.69 
   4  -1   4    0.13    0.08 
   4  -1   4    0.05    0.07 
   5  -1   4   28.74    1.16 
   5  -1   4   30.08    1.18 
   6  -1   4    0.07    0.11 
   6  -1   4    0.00    0.07 
   7  -1   4    3.44    0.35 
   8  -1   4    0.05    0.13 
   9   0  -4    0.18    0.15 
   8   0  -4    0.11    0.12 
   7   0  -4    0.02    0.10 
   7   0  -4   -0.02    0.08 
   6   0  -4    7.77    0.44 
   6   0  -4    7.37    0.42 
   5   0  -4    0.02    0.06 
   5   0  -4    0.04    0.07 
  -5   0   4   -0.04    0.04 
   4   0  -4  132.61    4.53 
   4   0  -4  131.73    4.48 
  -4   0   4  133.61    4.41 
   3   0  -4    0.01    0.05 
   3   0  -4   -0.03    0.03 
  -3   0   4   -0.03    0.03 
   2   0  -4    0.48    0.08 
   2   0  -4    0.55    0.06 
  -2   0   4    0.49    0.07 
   1   0  -4    0.12    0.05 
   1   0  -4    0.03    0.01 
  -1   0   4   -0.03    0.03 
   0   0  -4    5.44    0.25 
   0   0   4    5.39    0.27 
  -1   0  -4   -0.02    0.03 
   1   0   4   -0.04    0.03 
   1   0   4   -0.01    0.02 
   2   0   4   35.53    1.31 
   2   0   4   36.26    1.29 
   3   0   4    0.08    0.06 
   3   0   4    0.07    0.07 
   4   0   4  147.26    4.93 
   4   0   4  139.54    4.86 
   5   0   4    0.02    0.09 
   5   0   4   -0.09    0.10 
   6   0   4    0.14    0.12 
   6   0   4    0.17    0.10 
   7   0   4   -0.09    0.12 
   7   0   4    0.17    0.12 
   8   0   4    2.37    0.32 
   9  -1  -4   -0.18    0.11 
   8  -1  -4    0.09    0.14 
   8  -1  -4    0.20    0.14 
   7  -1  -4    0.13    0.10 
   7  -1  -4    0.21    0.11 
   6  -1  -4    5.90    0.37 
   6  -1  -4    5.30    0.35 
   5  -1  -4    0.77    0.13 
   5  -1  -4    0.47    0.11 
  -5   1   4    0.80    0.08 
   4  -1  -4    1.51    0.15 
   4  -1  -4    1.29    0.16 
  -4   1   4    1.58    0.11 
   3  -1  -4    2.51    0.18 
   3  -1  -4    2.52    0.16 
  -3   1   4    2.36    0.14 
   2  -1  -4    7.38    0.28 
   2  -1  -4    6.22    0.32 
   1  -1  -4   13.99    0.57 
   1  -1  -4   15.97    0.53 
  -1   1   4   14.91    0.58 
   0  -1  -4   21.81    0.79 
   0   1   4   21.68    0.81 
  -1  -1  -4   36.14    1.23 
   1   1   4   33.97    1.27 
   1   1   4   36.02    1.24 
   2   1   4    0.11    0.06 
   2   1   4    0.12    0.05 
   3   1   4   47.09    1.70 
   3   1   4   46.60    1.68 
   4   1   4   -0.08    0.07 
   4   1   4    0.05    0.09 
   5   1   4   31.05    1.22 
   5   1   4   29.69    1.20 
   6   1   4    0.06    0.09 
   6   1   4   -0.11    0.08 
   7   1   4    3.33    0.34 
   7   1   4    3.55    0.32 
   8   1   4    0.25    0.15 
   9  -2  -4    0.12    0.14 
   8  -2  -4    0.14    0.12 
   8  -2  -4    0.44    0.16 
   7  -2  -4    2.37    0.25 
   7  -2  -4    2.56    0.26 
   6  -2  -4   21.70    0.91 
   6  -2  -4   21.90    0.93 
   5  -2  -4    3.98    0.27 
   5  -2  -4    4.28    0.27 
   4  -2  -4    0.31    0.09 
   4  -2  -4    0.31    0.08 
  -4   2   4    0.24    0.05 
   3  -2  -4   58.23    2.06 
   3  -2  -4   58.71    2.05 
  -3   2   4   60.07    1.99 
   2  -2  -4   14.12    0.59 
   2  -2  -4   15.27    0.55 
  -2   2   4   15.07    0.56 
   1  -2  -4   73.14    2.46 
   1  -2  -4   73.08    2.48 
  -1   2   4   72.82    2.47 
   0  -2  -4  109.20    3.60 
   0   2   4  106.55    3.63 
  -1  -2  -4   24.28    0.84 
   1   2   4   22.32    0.85 
   1   2   4   24.00    0.90 
  -2  -2  -4   58.35    1.95 
   2   2   4   59.87    2.03 
   2   2   4   56.18    2.04 
   3   2   4    5.23    0.29 
   3   2   4    5.37    0.32 
   4   2   4    3.54    0.26 
   4   2   4    3.85    0.27 
   5   2   4   10.24    0.52 
   5   2   4    9.67    0.52 
   6   2   4    2.25    0.26 
   6   2   4    1.92    0.24 
   7   2   4   12.75    0.66 
   7   2   4   12.30    0.67 
   8   2   4    1.04    0.25 
   9  -3  -4    0.11    0.15 
   8  -3  -4    2.05    0.28 
   8  -3  -4    2.28    0.26 
   7  -3  -4    1.13    0.19 
   7  -3  -4    1.37    0.21 
   6  -3  -4   60.15    2.14 
   6  -3  -4   58.46    2.18 
   5  -3  -4    5.19    0.32 
   5  -3  -4    5.80    0.33 
   4  -3  -4   13.80    0.58 
   4  -3  -4   12.51    0.58 
  -4   3   4   13.95    0.49 
   3  -3  -4    0.37    0.07 
   3  -3  -4    0.19    0.07 
  -3   3   4    0.31    0.05 
   2  -3  -4   52.59    1.82 
  -2   3   4   52.89    1.79 
   1  -3  -4    7.74    0.34 
   1  -3  -4    7.63    0.30 
  -1   3   4    7.62    0.33 
   0  -3  -4   13.17    0.51 
   0   3   4   13.42    0.54 
  -1  -3  -4   60.19    2.02 
   1   3   4   59.46    2.09 
  -2  -3  -4  102.03    3.45 
   2   3   4  105.37    3.56 
   2   3   4  105.72    3.57 
   3   3   4    3.97    0.24 
   3   3   4    4.34    0.28 
   4   3   4    3.74    0.27 
   4   3   4    3.15    0.24 
   5   3   4    2.42    0.25 
   5   3   4    2.46    0.25 
   6   3   4    0.57    0.15 
   6   3   4    0.28    0.14 
   7   3   4    3.85    0.35 
   7   3   4    4.33    0.39 
   8   3   4   -0.02    0.13 
   9  -4  -4    0.92    0.23 
   8  -4  -4    0.85    0.19 
   8  -4  -4    0.98    0.20 
   7  -4  -4    0.55    0.16 
   7  -4  -4    0.47    0.14 
   6  -4  -4   32.20    1.26 
   6  -4  -4   32.46    1.28 
   5  -4  -4    8.90    0.45 
   5  -4  -4    9.35    0.46 
   4  -4  -4   22.88    0.90 
   4  -4  -4   22.74    0.89 
   3  -4  -4    5.26    0.29 
   3  -4  -4    4.90    0.26 
  -3   4   4    5.39    0.22 
   2  -4  -4    0.35    0.06 
   2  -4  -4    0.25    0.07 
  -2   4   4    0.38    0.06 
   1  -4  -4    0.13    0.05 
   1  -4  -4    0.15    0.04 
  -1   4   4    0.12    0.05 
   0  -4  -4    2.09    0.13 
   0   4   4    1.76    0.14 
  -1  -4  -4    4.80    0.21 
   1   4   4    4.26    0.22 
   1   4   4    4.39    0.26 
  -2  -4  -4   14.04    0.51 
   2   4   4   14.67    0.59 
   2   4   4   14.03    0.61 
   3   4   4    4.22    0.26 
   3   4   4    4.33    0.28 
   4   4   4   25.16    1.15 
   4   4   4   34.44    1.19 
   5   4   4    0.08    0.10 
   5   4   4    0.08    0.09 
   6   4   4    7.87    0.47 
   6   4   4    7.80    0.48 
   7   4   4    0.52    0.15 
   7   4   4    0.54    0.18 
   8   4   4    0.18    0.15 
   9  -5  -4    2.02    0.30 
   8  -5  -4   11.75    0.62 
   8  -5  -4   12.01    0.66 
   7  -5  -4    0.10    0.09 
   7  -5  -4    0.14    0.12 
   6  -5  -4    0.90    0.17 
   6  -5  -4    0.80    0.17 
   5  -5  -4   18.77    0.81 
   5  -5  -4   20.07    0.82 
   4  -5  -4    2.68    0.20 
   3  -5  -4   33.29    1.25 
  -3   5   4   35.66    1.18 
   2  -5  -4    1.77    0.12 
  -2   5   4    1.79    0.12 
   1  -5  -4    8.34    0.34 
  -1   5   4    8.45    0.36 
   0  -5  -4   23.47    0.85 
   0   5   4   23.49    0.89 
  -1  -5  -4   -0.05    0.03 
   1   5   4   -0.07    0.04 
  -2  -5  -4    1.09    0.07 
   2   5   4    0.81    0.13 
   2   5   4    0.88    0.12 
   3   5   4   10.77    0.51 
   3   5   4   11.93    0.55 
   4   5   4   -0.12    0.05 
   4   5   4    0.09    0.09 
   5   5   4   11.10    0.57 
   5   5   4   10.64    0.56 
   6   5   4    0.09    0.11 
   6   5   4   -0.04    0.09 
   7   5   4   -0.07    0.12 
   7   5   4    0.14    0.12 
   8   5   4   -0.06    0.14 
   9  -6  -4    1.48    0.27 
   8  -6  -4    3.78    0.33 
   8  -6  -4    3.41    0.34 
   7  -6  -4    0.11    0.10 
   7  -6  -4    0.21    0.12 
   6  -6  -4    1.00    0.18 
   6  -6  -4    1.43    0.20 
   5  -6  -4    0.72    0.13 
   4  -6  -4    2.39    0.19 
   3  -6  -4    2.70    0.18 
  -3   6   4    2.75    0.14 
   2  -6  -4    6.78    0.31 
  -2   6   4    6.76    0.29 
  -1   6   4   38.58    1.36 
   0   6   4   90.39    3.08 
  -1  -6  -4   39.29    1.36 
   1   6   4   39.64    1.44 
  -2  -6  -4   19.37    0.67 
   2   6   4   17.83    0.78 
   2   6   4   19.76    0.77 
   3   6   4    0.22    0.08 
   3   6   4    0.06    0.06 
   4   6   4    8.70    0.49 
   4   6   4    9.69    0.49 
   5   6   4    2.12    0.25 
   5   6   4    1.66    0.22 
   6   6   4    0.54    0.15 
   6   6   4    0.42    0.15 
   7   6   4    4.53    0.41 
   7   6   4    4.52    0.37 
  -8  -6  -4    2.30    0.31 
   8   6   4    1.99    0.32 
   9  -7  -4    0.22    0.16 
   8  -7  -4    2.40    0.28 
   8  -7  -4    2.46    0.30 
   7  -7  -4    0.01    0.08 
   7  -7  -4    0.10    0.11 
   6  -7  -4    0.89    0.17 
   5  -7  -4    1.60    0.19 
   4  -7  -4    2.04    0.17 
   3  -7  -4    6.72    0.33 
  -3   7   4    6.52    0.26 
   2  -7  -4   12.70    0.53 
  -2   7   4   13.22    0.50 
  -1   7   4   40.23    1.42 
   0   7   4  101.99    3.47 
   1   7   4    7.12    0.37 
  -2  -7  -4   35.99    1.20 
   2   7   4   34.62    1.31 
   2   7   4   34.48    1.32 
   3   7   4    0.02    0.06 
   3   7   4    0.07    0.06 
   4   7   4    0.17    0.09 
   4   7   4    0.11    0.10 
   5   7   4    1.73    0.24 
   5   7   4    2.09    0.26 
   6   7   4    6.83    0.46 
   6   7   4    6.71    0.46 
   7   7   4    3.31    0.34 
   7   7   4    3.11    0.35 
  -8  -7  -4    0.50    0.20 
   8   7   4    0.65    0.23 
   9  -8  -4    0.54    0.19 
   8  -8  -4    0.31    0.14 
   8  -8  -4    0.17    0.14 
   7  -8  -4    0.33    0.13 
   6  -8  -4    4.19    0.31 
   5  -8  -4   20.33    0.85 
   4  -8  -4   15.61    0.67 
   3  -8  -4    2.16    0.11 
   3  -8  -4    2.25    0.17 
   2  -8  -4   37.33    1.35 
  -2   8   4   37.70    1.32 
  -1   8   4   29.47    1.08 
   0   8   4    4.28    0.26 
   1   8   4    8.43    0.42 
  -2  -8  -4    5.01    0.21 
   2   8   4    4.63    0.31 
   3   8   4    4.86    0.33 
   3   8   4    5.17    0.31 
   4   8   4    2.56    0.26 
   4   8   4    2.38    0.25 
   5   8   4    0.02    0.10 
   5   8   4    0.05    0.08 
   6   8   4    4.30    0.38 
   6   8   4    4.09    0.38 
  -7  -8  -4    1.06    0.22 
   7   8   4    1.00    0.24 
  -8  -8  -4    0.51    0.19 
   8   8   4    0.46    0.20 
   9  -9  -4   -0.23    0.12 
   8  -9  -4    0.29    0.15 
   8  -9  -4    0.06    0.11 
   7  -9  -4    0.68    0.16 
   6  -9  -4    0.80    0.16 
   5  -9  -4    2.66    0.24 
   4  -9  -4    0.54    0.12 
   3  -9  -4   13.45    0.56 
   3  -9  -4   12.51    0.47 
   2  -9  -4    5.81    0.30 
  -2   9   4    6.14    0.29 
  -1   9   4    0.46    0.09 
   0   9   4    3.29    0.22 
   1   9   4    2.67    0.21 
   2   9   4    1.90    0.21 
   3   9   4   10.23    0.51 
   3   9   4    9.56    0.52 
   4   9   4    3.98    0.31 
   4   9   4    3.73    0.31 
   5   9   4    3.10    0.32 
   5   9   4    3.36    0.32 
   6   9   4    0.85    0.20 
   6   9   4    0.98    0.21 
  -7  -9  -4    0.79    0.20 
   7   9   4    0.83    0.23 
  -8  -9  -4    1.15    0.24 
   8   9   4    1.61    0.31 
   9 -10  -4    0.06    0.16 
   8 -10  -4    0.22    0.15 
   8 -10  -4    0.35    0.17 
   7 -10  -4    6.93    0.45 
   6 -10  -4    1.45    0.20 
   5 -10  -4    0.67    0.15 
   4 -10  -4    0.11    0.08 
   3 -10  -4    8.50    0.42 
   3 -10  -4    8.60    0.34 
   2 -10  -4   10.41    0.46 
   2 -10  -4   10.04    0.42 
  -1  10   4    3.33    0.21 
   0  10   4    1.47    0.16 
   1  10   4   11.93    0.56 
   2  10   4    0.15    0.08 
   3  10   4   43.22    1.65 
   3  10   4   42.92    1.64 
   4  10   4    0.44    0.14 
   4  10   4    0.27    0.12 
   5  10   4    3.36    0.33 
   5  10   4    3.69    0.35 
  -6 -10  -4    0.72    0.19 
   6  10   4    0.87    0.21 
  -7 -10  -4    3.95    0.38 
   7  10   4    4.76    0.44 
  -8 -10  -4    1.89    0.30 
   8  10   4    1.25    0.29 
   9 -11  -4   -0.14    0.17 
   9 -11  -4   -0.01    0.15 
   8 -11  -4    2.00    0.29 
   7 -11  -4    0.12    0.10 
   6 -11  -4    1.96    0.23 
   5 -11  -4    0.38    0.12 
   4 -11  -4    3.84    0.27 
   3 -11  -4    1.41    0.10 
   3 -11  -4    1.09    0.15 
   2 -11  -4    1.16    0.14 
   2 -11  -4    1.04    0.11 
  -1  11   4    1.83    0.17 
   0  11   4   11.74    0.54 
   1  11   4    0.03    0.06 
   2  11   4   29.39    1.18 
   3  11   4    2.21    0.26 
   4  11   4   17.55    0.83 
   4  11   4   16.68    0.80 
   5  11   4    3.53    0.34 
  -6 -11  -4    0.31    0.15 
   6  11   4    0.00    0.11 
  -7 -11  -4    0.08    0.14 
   7  11   4   -0.01    0.13 
  -8 -11  -4    2.71    0.36 
   8  11   4    3.29    0.42 
   8 -12  -4    0.34    0.16 
   7 -12  -4    1.47    0.23 
   6 -12  -4    0.04    0.09 
   5 -12  -4    3.15    0.26 
   4 -12  -4   22.14    0.92 
   3 -12  -4    1.30    0.16 
   2 -12  -4    5.25    0.30 
   2 -12  -4    5.50    0.27 
   1 -12  -4    2.30    0.17 
   0  12   4   38.28    1.43 
   1  12   4    0.07    0.07 
   2  12   4    2.14    0.25 
   3  12   4    1.20    0.21 
   4  12   4    0.08    0.10 
   4  12   4    0.11    0.11 
  -5 -12  -4    2.60    0.30 
   5  12   4    2.40    0.29 
  -6 -12  -4    0.65    0.18 
   6  12   4    0.85    0.20 
  -7 -12  -4    1.28    0.26 
   7  12   4    1.44    0.28 
   8 -13  -4   -0.05    0.11 
   7 -13  -4    0.20    0.13 
   6 -13  -4    1.36    0.21 
   5 -13  -4    4.29    0.32 
   4 -13  -4    8.05    0.44 
   3 -13  -4    3.68    0.26 
   2 -13  -4    1.65    0.14 
   2 -13  -4    1.44    0.17 
   1 -13  -4    1.98    0.18 
   0 -13  -4    7.81    0.40 
  -1 -13  -4    1.90    0.21 
  -2 -13  -4   24.05    1.00 
  -3 -13  -4    0.99    0.20 
  -4 -13  -4    3.12    0.31 
  -5 -13  -4    4.08    0.37 
   5  13   4    4.41    0.40 
  -6 -13  -4    1.74    0.28 
   6  13   4    2.01    0.31 
  -7 -13  -4    0.34    0.18 
   7  13   4    0.31    0.18 
   8 -14  -4    0.06    0.15 
   7 -14  -4    0.16    0.12 
   6 -14  -4    0.06    0.10 
   5 -14  -4    0.82    0.17 
   4 -14  -4   -0.03    0.08 
   3 -14  -4    1.79    0.20 
   2 -14  -4    2.40    0.22 
   2 -14  -4    2.56    0.18 
   1 -14  -4    5.87    0.32 
   0 -14  -4    1.80    0.19 
  -1 -14  -4    2.53    0.24 
  -2 -14  -4    0.91    0.18 
  -3 -14  -4    1.08    0.20 
  -4 -14  -4    0.16    0.12 
  -5 -14  -4    2.23    0.30 
  -6 -14  -4    2.09    0.31 
   6  14   4    2.10    0.32 
  -7 -14  -4    0.16    0.18 
   7  14   4    0.17    0.18 
   8 -15  -4    0.19    0.17 
   7 -15  -4   -0.17    0.10 
   6 -15  -4    0.83    0.17 
   5 -15  -4    0.76    0.16 
   4 -15  -4   10.59    0.55 
   3 -15  -4    2.01    0.22 
   2 -15  -4   19.15    0.81 
   2 -15  -4   18.21    0.74 
   1 -15  -4    0.55    0.12 
   0 -15  -4    0.62    0.13 
  -1 -15  -4    0.32    0.12 
  -2 -15  -4   55.67    2.06 
  -3 -15  -4    0.60    0.17 
  -4 -15  -4    2.24    0.29 
  -5 -15  -4    1.05    0.23 
  -6 -15  -4    5.27    0.47 
  -7 -15  -4    0.59    0.23 
   7  15   4    0.60    0.23 
   8 -16  -4    0.18    0.16 
   7 -16  -4    0.72    0.19 
   6 -16  -4   -0.10    0.08 
   5 -16  -4    0.04    0.11 
   4 -16  -4    2.83    0.28 
   3 -16  -4    0.98    0.18 
   2 -16  -4    2.01    0.17 
   2 -16  -4    2.43    0.23 
   1 -16  -4    5.12    0.31 
   0 -16  -4    7.66    0.43 
  -1 -16  -4    0.09    0.10 
  -2 -16  -4   10.07    0.56 
  -3 -16  -4    6.53    0.44 
  -4 -16  -4    0.57    0.18 
  -5 -16  -4    1.53    0.27 
  -6 -16  -4   -0.01    0.15 
  -7 -16  -4    0.88    0.25 
   7 -17  -4    0.34    0.16 
   6 -17  -4    0.49    0.16 
   5 -17  -4    3.42    0.33 
   4 -17  -4    0.21    0.10 
   3 -17  -4    0.92    0.17 
   2 -17  -4    5.69    0.36 
   2 -17  -4    5.66    0.32 
   1 -17  -4   28.84    1.12 
   0 -17  -4   12.27    0.59 
  -1 -17  -4   33.76    1.34 
  -2 -17  -4    6.68    0.44 
  -3 -17  -4    3.07    0.33 
  -4 -17  -4    0.26    0.15 
  -5 -17  -4    4.24    0.42 
  -6 -17  -4    0.46    0.18 
   7 -18  -4    0.22    0.15 
   6 -18  -4    0.84    0.19 
   5 -18  -4    0.18    0.12 
   4 -18  -4   23.27    1.03 
   3 -18  -4    3.25    0.30 
   2 -18  -4    3.32    0.30 
   1 -18  -4    1.86    0.21 
   0 -18  -4    0.43    0.14 
  -1 -18  -4    0.44    0.15 
  -2 -18  -4    2.59    0.30 
  -3 -18  -4    2.68    0.32 
  -4 -18  -4   14.12    0.76 
  -5 -18  -4    0.22    0.16 
  -6 -18  -4    0.35    0.20 
   7 -19  -4   -0.08    0.13 
   6 -19  -4    1.36    0.24 
   5 -19  -4    1.83    0.27 
   4 -19  -4    0.06    0.11 
   3 -19  -4    8.45    0.50 
   2 -19  -4    0.26    0.11 
   1 -19  -4    0.57    0.14 
   0 -19  -4    1.30    0.20 
  -1 -19  -4   -0.14    0.09 
  -2 -19  -4    6.39    0.43 
  -3 -19  -4    1.17    0.23 
  -4 -19  -4    0.58    0.20 
  -5 -19  -4    3.10    0.38 
  -6 -19  -4    0.05    0.18 
   6 -20  -4    0.00    0.13 
   5 -20  -4    0.04    0.11 
   4 -20  -4    2.24    0.29 
   3 -20  -4    0.83    0.19 
   2 -20  -4    6.12    0.41 
   1 -20  -4    6.46    0.42 
   1 -20  -4    6.51    0.40 
   0 -20  -4    0.39    0.14 
  -1 -20  -4    1.21    0.22 
  -2 -20  -4    0.29    0.15 
  -3 -20  -4    0.29    0.16 
  -4 -20  -4    0.03    0.15 
  -5 -20  -4    1.95    0.33 
  -6 -20  -4    0.11    0.20 
   6 -21  -4    2.57    0.35 
   5 -21  -4   -0.06    0.11 
   4 -21  -4    0.58    0.17 
   3 -21  -4    0.23    0.14 
   2 -21  -4    0.37    0.13 
   1 -21  -4    0.88    0.19 
   1 -21  -4    0.90    0.17 
   0 -21  -4   -0.17    0.09 
  -1 -21  -4    0.15    0.12 
  -2 -21  -4    2.41    0.31 
  -3 -21  -4    4.17    0.42 
  -4 -21  -4    1.15    0.27 
  -5 -21  -4    0.66    0.24 
   6 -22  -4    0.11    0.18 
   5 -22  -4    0.40    0.17 
   4 -22  -4    1.77    0.27 
   3 -22  -4   -0.07    0.10 
   2 -22  -4    2.73    0.30 
   1 -22  -4    0.14    0.11 
   1 -22  -4    0.23    0.14 
   0 -22  -4    0.02    0.09 
  -1 -22  -4    0.23    0.13 
  -2 -22  -4    4.94    0.41 
  -3 -22  -4    1.18    0.26 
  -4 -22  -4    3.18    0.40 
  -5 -22  -4    0.17    0.19 
   5 -23  -4    0.22    0.17 
   4 -23  -4    1.84    0.30 
   3 -23  -4    3.42    0.36 
   2 -23  -4    0.33    0.13 
   1 -23  -4    2.76    0.32 
   0 -23  -4    2.15    0.29 
  -1 -23  -4   -0.05    0.11 
  -2 -23  -4    0.11    0.14 
  -3 -23  -4    3.16    0.39 
  -4 -23  -4    0.06    0.18 
   5 -24  -4    1.94    0.31 
   4 -24  -4    2.43    0.34 
   3 -24  -4    0.10    0.13 
   2 -24  -4    1.79    0.27 
   1 -24  -4    1.85    0.29 
   0 -24  -4    0.02    0.12 
  -1 -24  -4    2.66    0.33 
  -2 -24  -4   -0.02    0.14 
  -3 -24  -4    1.42    0.28 
  -4 -24  -4   -0.19    0.17 
   4 -25  -4    1.53    0.29 
   3 -25  -4   -0.14    0.12 
   2 -25  -4    0.68    0.19 
   1 -25  -4   -0.02    0.12 
   0 -25  -4    0.87    0.21 
  -1 -25  -4    0.19    0.16 
  -2 -25  -4    0.38    0.20 
  -3 -25  -4   -0.19    0.17 
   3 -26  -4    0.06    0.15 
   2 -26  -4    0.68    0.20 
   1 -26  -4    0.69    0.21 
   0 -26  -4    1.19    0.25 
  -1 -26  -4    1.22    0.27 
  -2 -26  -4    0.23    0.19 
   2 -27  -4    0.35    0.18 
   1 -27  -4    3.33    0.39 
  -1 -27  -4    0.98    0.26 
  -1 -27   5    0.24    0.19 
  -3 -26   5    0.82    0.26 
  -2 -26   5   -0.16    0.16 
  -1 -26   5    2.98    0.38 
   0 -26   5    0.54    0.20 
   0 -26   5    0.15    0.17 
   1 -26   5    3.63    0.37 
   1 -26   5    3.62    0.39 
  -4 -25   5   -0.17    0.14 
  -3 -25   5    0.34    0.21 
  -2 -25   5    1.36    0.28 
  -1 -25   5    0.49    0.18 
  -1 -25   5    0.81    0.22 
   0 -25   5    1.02    0.23 
   0 -25   5    1.12    0.22 
   1 -25   5    2.35    0.32 
   1 -25   5    1.76    0.27 
   2 -25   5    0.36    0.19 
   2 -25   5    0.38    0.19 
  -4 -24   5    4.45    0.47 
  -3 -24   5    0.50    0.19 
  -2 -24   5    1.13    0.24 
  -1 -24   5    0.03    0.11 
  -1 -24   5    0.24    0.13 
   0 -24   5    1.77    0.27 
   0 -24   5    1.87    0.25 
   1 -24   5    0.31    0.15 
   1 -24   5    0.39    0.15 
   2 -24   5    0.68    0.19 
   2 -24   5    1.07    0.22 
   3 -24   5    0.33    0.17 
  -5 -23   5    1.81    0.33 
  -4 -23   5    2.75    0.36 
  -3 -23   5    0.08    0.15 
  -2 -23   5    2.25    0.31 
  -1 -23   5    0.16    0.13 
  -1 -23   5    0.35    0.15 
   0 -23   5    1.94    0.25 
   0 -23   5    2.40    0.30 
   1 -23   5    0.00    0.10 
   1 -23   5    0.04    0.12 
   2 -23   5    9.19    0.55 
   2 -23   5    8.39    0.53 
   3 -23   5    0.45    0.17 
   4 -23   5    0.02    0.16 
  -5 -22   5   -0.02    0.14 
  -4 -22   5    6.42    0.49 
  -3 -22   5    4.45    0.41 
  -2 -22   5    5.09    0.40 
  -1 -22   5    3.07    0.33 
  -1 -22   5    2.88    0.28 
   0 -22   5    0.42    0.14 
   0 -22   5    0.44    0.15 
   1 -22   5    2.32    0.29 
   1 -22   5    2.66    0.28 
   2 -22   5    0.26    0.14 
   2 -22   5    0.28    0.13 
   3 -22   5    3.14    0.33 
   4 -22   5    0.11    0.14 
  -6 -21   5    0.22    0.20 
  -5 -21   5    2.88    0.37 
  -4 -21   5    7.94    0.54 
  -3 -21   5    2.39    0.31 
  -2 -21   5    2.51    0.31 
  -1 -21   5    0.02    0.10 
  -1 -21   5   -0.03    0.10 
   0 -21   5   -0.17    0.08 
   0 -21   5    0.01    0.10 
   1 -21   5    0.00    0.10 
   1 -21   5    0.17    0.10 
   2 -21   5    2.15    0.26 
   2 -21   5    1.26    0.22 
   3 -21   5    0.52    0.17 
   3 -21   5    0.75    0.19 
   4 -21   5    1.66    0.26 
   5 -21   5   -0.02    0.13 
  -6 -20   5    0.08    0.17 
  -5 -20   5    0.18    0.16 
  -4 -20   5    5.41    0.42 
  -3 -20   5    1.04    0.22 
  -2 -20   5    1.21    0.22 
  -1 -20   5   -0.15    0.08 
   0 -20   5    0.13    0.10 
   0 -20   5    0.11    0.11 
   1 -20   5    0.58    0.15 
   1 -20   5    0.51    0.14 
   2 -20   5    2.23    0.25 
   2 -20   5    2.07    0.26 
   3 -20   5    0.16    0.13 
   3 -20   5    0.26    0.13 
   4 -20   5    3.64    0.35 
   5 -20   5    0.45    0.18 
  -7 -19   5   -0.02    0.16 
  -6 -19   5   -0.02    0.14 
  -5 -19   5    2.04    0.31 
  -4 -19   5    0.06    0.13 
  -3 -19   5    1.02    0.21 
  -2 -19   5   10.43    0.59 
  -1 -19   5    0.45    0.15 
   0 -19   5    4.64    0.31 
   0 -19   5    3.60    0.31 
   1 -19   5   -0.07    0.09 
   1 -19   5    0.00    0.09 
   2 -19   5    0.23    0.11 
   2 -19   5    0.08    0.10 
   3 -19   5    9.52    0.53 
   3 -19   5    9.21    0.53 
   4 -19   5   -0.06    0.11 
   5 -19   5    1.27    0.24 
  -7 -18   5    0.19    0.19 
  -6 -18   5    0.24    0.17 
  -5 -18   5    0.77    0.20 
  -4 -18   5    0.35    0.16 
  -3 -18   5    0.31    0.15 
  -2 -18   5    6.16    0.42 
  -1 -18   5    4.62    0.35 
   0 -18   5    0.13    0.11 
   0 -18   5    0.20    0.10 
   1 -18   5    6.50    0.41 
   1 -18   5    6.41    0.38 
   2 -18   5    3.92    0.30 
   2 -18   5    4.02    0.31 
   3 -18   5    0.09    0.11 
   3 -18   5    0.11    0.10 
   4 -18   5    1.97    0.26 
   5 -18   5    1.00    0.22 
   6 -18   5    0.05    0.14 
  -7 -17   5    0.02    0.16 
  -6 -17   5    0.13    0.14 
  -5 -17   5    1.64    0.27 
  -4 -17   5    0.17    0.13 
  -3 -17   5    1.04    0.21 
  -2 -17   5   12.07    0.63 
  -1 -17   5    2.63    0.28 
   0 -17   5    1.13    0.20 
   0 -17   5    1.09    0.16 
   1 -17   5   22.42    0.98 
   1 -17   5   23.36    0.94 
   2 -17   5    0.09    0.09 
   2 -17   5    0.07    0.10 
   3 -17   5    0.47    0.13 
   3 -17   5    0.56    0.16 
   4 -17   5    0.03    0.11 
   5 -17   5    0.42    0.16 
   6 -17   5    2.78    0.34 
  -7 -16   5    1.03    0.24 
  -6 -16   5    1.37    0.25 
  -5 -16   5    1.49    0.25 
  -4 -16   5   22.30    0.99 
  -3 -16   5    4.90    0.36 
  -2 -16   5    5.74    0.38 
  -1 -16   5    0.80    0.16 
   0 -16   5   24.82    0.98 
   0 -16   5   24.60    1.03 
   1 -16   5   15.22    0.67 
   1 -16   5   14.67    0.70 
   2 -16   5    1.17    0.19 
   2 -16   5    1.14    0.18 
   3 -16   5    4.61    0.33 
   3 -16   5    4.24    0.32 
   4 -16   5    2.87    0.28 
   4 -16   5    2.85    0.28 
   5 -16   5    0.17    0.13 
   6 -16   5    1.83    0.28 
   8  15  -5    0.41    0.22 
  -7 -15   5    0.52    0.19 
  -6 -15   5    0.36    0.15 
  -5 -15   5    7.15    0.47 
  -4 -15   5    4.77    0.36 
  -3 -15   5   17.91    0.82 
  -2 -15   5    8.98    0.50 
  -1 -15   5    9.29    0.50 
   0 -15   5    3.48    0.29 
   0 -15   5    3.74    0.24 
   1 -15   5    8.02    0.42 
   1 -15   5    8.70    0.47 
   2 -15   5    2.06    0.21 
   2 -15   5    2.08    0.24 
   3 -15   5    3.80    0.29 
   3 -15   5    3.41    0.28 
   4 -15   5    0.84    0.18 
   4 -15   5    1.10    0.19 
   5 -15   5    5.60    0.40 
   6 -15   5    4.95    0.40 
   8  14  -5    0.45    0.21 
   7  14  -5    8.78    0.58 
  -7 -14   5    9.65    0.58 
  -6 -14   5   -0.03    0.12 
  -5 -14   5    1.24    0.22 
  -4 -14   5    2.79    0.29 
  -3 -14   5   12.15    0.61 
  -2 -14   5    2.06    0.24 
  -1 -14   5   39.86    1.52 
   0 -14   5   42.86    1.57 
   0 -14   5   43.97    1.63 
   1 -14   5   15.48    0.71 
   1 -14   5   16.29    0.68 
   2 -14   5    4.33    0.31 
   2 -14   5    4.80    0.30 
   3 -14   5    0.02    0.09 
   3 -14   5    0.09    0.08 
   4 -14   5    2.86    0.27 
   4 -14   5    3.25    0.29 
   5 -14   5    6.38    0.42 
   6 -14   5    2.87    0.32 
   7 -14   5    4.54    0.42 
   8  13  -5    3.40    0.38 
   7  13  -5    0.06    0.14 
  -7 -13   5    0.36    0.16 
   6  13  -5    6.65    0.45 
  -6 -13   5    7.00    0.46 
  -5 -13   5    1.19    0.21 
  -4 -13   5    0.04    0.10 
  -3 -13   5    1.20    0.19 
  -2 -13   5   13.33    0.63 
  -1 -13   5    6.40    0.38 
   0 -13   5    0.44    0.09 
   0 -13   5    0.69    0.14 
   1 -13   5   10.33    0.51 
   1 -13   5    9.77    0.46 
   2 -13   5    5.17    0.31 
   2 -13   5    5.22    0.34 
   3 -13   5    9.81    0.49 
   3 -13   5    9.96    0.51 
   4 -13   5    0.40    0.13 
   4 -13   5    0.51    0.13 
   5 -13   5   -0.07    0.10 
   6 -13   5    4.99    0.39 
   7 -13   5    0.84    0.23 
   8  12  -5    0.21    0.15 
   7  12  -5    2.32    0.30 
  -7 -12   5    2.07    0.28 
   6  12  -5    5.54    0.40 
   6  12  -5    6.10    0.41 
  -6 -12   5    5.96    0.41 
   5  12  -5    0.46    0.16 
  -5 -12   5    0.37    0.14 
  -4 -12   5   15.35    0.71 
  -3 -12   5    2.14    0.23 
  -2 -12   5    0.21    0.10 
  -1 -12   5    9.96    0.50 
   0 -12   5   18.14    0.78 
   1 -12   5    1.52    0.19 
   1 -12   5    1.55    0.15 
   2 -12   5   52.97    1.91 
   2 -12   5   51.58    1.89 
   3 -12   5   -0.02    0.08 
   3 -12   5    0.06    0.08 
   4 -12   5   20.42    0.87 
   4 -12   5   19.62    0.86 
   5 -12   5    1.01    0.19 
   6 -12   5    0.26    0.15 
   7 -12   5    1.00    0.23 
   8  11  -5    0.43    0.17 
   7  11  -5    0.22    0.13 
  -7 -11   5    0.15    0.13 
   6  11  -5    2.16    0.26 
   6  11  -5    2.57    0.28 
  -6 -11   5    3.11    0.29 
   5  11  -5   15.23    0.73 
   5  11  -5   15.29    0.71 
  -5 -11   5   15.64    0.72 
   4  11  -5    1.50    0.22 
  -4 -11   5    1.51    0.20 
  -3 -11   5   52.31    1.91 
  -2 -11   5    3.44    0.26 
  -1 -11   5    3.39    0.25 
   0 -11   5    1.23    0.17 
   0 -11   5    1.48    0.12 
   1 -11   5   23.89    0.96 
   2 -11   5    1.75    0.20 
   2 -11   5    2.17    0.18 
   3 -11   5   15.65    0.70 
   3 -11   5   15.66    0.68 
   4 -11   5    3.35    0.27 
   4 -11   5    3.70    0.28 
   5 -11   5    0.66    0.16 
   5 -11   5    0.90    0.16 
   6 -11   5    1.33    0.23 
   7 -11   5    0.16    0.15 
   9  10  -5    0.16    0.20 
   8  10  -5   -0.01    0.13 
   7  10  -5    1.23    0.22 
  -7 -10   5    0.83    0.20 
   6  10  -5    0.05    0.12 
   6  10  -5   -0.12    0.08 
  -6 -10   5    0.02    0.11 
   5  10  -5    0.43    0.15 
   5  10  -5    0.18    0.11 
  -5 -10   5    0.34    0.13 
   4  10  -5   11.74    0.59 
   4  10  -5   11.75    0.55 
  -4 -10   5   12.35    0.58 
   3  10  -5    7.34    0.42 
  -3 -10   5    6.85    0.39 
  -2 -10   5    5.53    0.33 
  -1 -10   5   13.10    0.59 
   0 -10   5    0.00    0.06 
   0 -10   5   -0.02    0.04 
   1 -10   5    3.61    0.21 
   2 -10   5    4.67    0.27 
   2 -10   5    5.23    0.32 
   3 -10   5    0.16    0.07 
   3 -10   5    0.13    0.09 
   4 -10   5    1.02    0.17 
   4 -10   5    0.83    0.15 
   5 -10   5    8.22    0.46 
   5 -10   5    7.44    0.43 
   6 -10   5   -0.19    0.10 
   7 -10   5    4.36    0.40 
   9   9  -5    0.12    0.18 
   8   9  -5    4.43    0.41 
   7   9  -5    0.04    0.11 
   7   9  -5    0.25    0.15 
  -7  -9   5    0.14    0.15 
   6   9  -5    5.96    0.39 
   6   9  -5    5.37    0.38 
  -6  -9   5    5.74    0.37 
   5   9  -5    0.51    0.15 
   5   9  -5    0.34    0.10 
  -5  -9   5    0.33    0.13 
   4   9  -5    7.79    0.43 
   4   9  -5    7.68    0.39 
  -4  -9   5    7.53    0.41 
   3   9  -5    8.15    0.43 
  -3  -9   5    7.29    0.40 
   2   9  -5    4.66    0.31 
  -2  -9   5    5.47    0.31 
  -1  -9   5    5.56    0.32 
   0  -9   5    1.96    0.19 
   0  -9   5    2.01    0.13 
   1  -9   5   28.28    1.09 
   1  -9   5   28.12    1.04 
   2  -9   5    2.55    0.21 
   2  -9   5    2.80    0.19 
   3  -9   5    1.91    0.20 
   3  -9   5    2.00    0.18 
   4  -9   5    0.35    0.12 
   4  -9   5    0.43    0.12 
   5  -9   5    6.01    0.38 
   5  -9   5    5.36    0.35 
   6  -9   5    3.97    0.33 
   7  -9   5   -0.13    0.11 
   9   8  -5    1.99    0.32 
   8   8  -5   -0.03    0.14 
   7   8  -5    7.65    0.49 
   7   8  -5    8.87    0.50 
   6   8  -5    5.80    0.38 
   6   8  -5    5.30    0.37 
  -6  -8   5    6.08    0.37 
   5   8  -5    1.23    0.17 
   5   8  -5    1.04    0.18 
  -5  -8   5    0.92    0.16 
   4   8  -5    3.00    0.21 
   4   8  -5    2.39    0.23 
  -4  -8   5    3.12    0.23 
   3   8  -5    1.30    0.17 
  -3  -8   5    1.64    0.17 
   2   8  -5    0.40    0.11 
  -2  -8   5    0.32    0.09 
  -1  -8   5   11.63    0.52 
   0  -8   5    3.71    0.25 
   0  -8   5    3.83    0.19 
   1  -8   5    0.32    0.07 
   1  -8   5    0.24    0.09 
   2  -8   5    5.12    0.27 
   3  -8   5    7.80    0.39 
   3  -8   5    8.18    0.42 
   4  -8   5   10.39    0.53 
   4  -8   5   11.48    0.53 
   5  -8   5    0.04    0.10 
   5  -8   5    0.06    0.10 
   6  -8   5    9.25    0.54 
   7  -8   5    0.18    0.15 
   8  -8   5    0.92    0.24 
   9   7  -5    0.84    0.23 
   8   7  -5   -0.13    0.12 
   7   7  -5    3.50    0.32 
   7   7  -5    3.18    0.30 
   6   7  -5    0.16    0.12 
   6   7  -5    0.21    0.12 
  -6  -7   5    0.24    0.12 
   5   7  -5   14.40    0.65 
   5   7  -5   14.73    0.68 
  -5  -7   5   14.75    0.64 
   4   7  -5    4.06    0.25 
   4   7  -5    4.38    0.29 
  -4  -7   5    4.17    0.27 
   3   7  -5    1.59    0.13 
   3   7  -5    1.50    0.17 
  -3  -7   5    1.61    0.17 
   2   7  -5   11.62    0.53 
  -2  -7   5   11.37    0.51 
   1   7  -5   16.24    0.67 
  -1  -7   5   14.88    0.64 
   0  -7   5    0.08    0.04 
   0  -7   5    0.11    0.06 
   1  -7   5   23.02    0.91 
   1  -7   5   23.28    0.85 
   2  -7   5   -0.01    0.03 
   2  -7   5    0.34    0.09 
   3  -7   5    3.94    0.25 
   3  -7   5    4.22    0.27 
   4  -7   5    0.33    0.11 
   4  -7   5    0.45    0.12 
   5  -7   5   10.91    0.56 
   5  -7   5   10.77    0.55 
   6  -7   5    2.24    0.27 
   7  -7   5    0.24    0.16 
   8  -7   5   -0.01    0.14 
   9   6  -5    0.27    0.17 
   8   6  -5    2.17    0.29 
   7   6  -5   -0.03    0.09 
   7   6  -5   -0.04    0.11 
   6   6  -5    2.27    0.24 
   6   6  -5    2.36    0.25 
  -6  -6   5    2.29    0.21 
   5   6  -5    8.27    0.46 
   5   6  -5    8.40    0.43 
  -5  -6   5    8.51    0.42 
   4   6  -5    4.36    0.26 
   4   6  -5    4.26    0.29 
  -4  -6   5    4.16    0.26 
   3   6  -5    0.84    0.10 
   3   6  -5    0.90    0.14 
  -3  -6   5    0.85    0.13 
   2   6  -5   10.44    0.48 
  -2  -6   5    9.78    0.45 
   1   6  -5    2.30    0.20 
  -1  -6   5    2.10    0.17 
   0  -6   5    3.79    0.24 
   0  -6   5    3.45    0.16 
   1  -6   5   55.16    1.97 
   1  -6   5   55.82    1.92 
   2  -6   5    0.63    0.12 
   3  -6   5    1.11    0.16 
   3  -6   5    0.95    0.12 
   4  -6   5    2.13    0.20 
   4  -6   5    2.43    0.23 
   5  -6   5    0.71    0.15 
   5  -6   5    0.54    0.14 
   6  -6   5    0.83    0.16 
   6  -6   5    0.49    0.16 
   7  -6   5    0.25    0.15 
   8  -6   5    1.40    0.27 
   9   5  -5    1.66    0.28 
   8   5  -5    0.67    0.18 
   7   5  -5    0.68    0.17 
   7   5  -5    0.83    0.19 
   6   5  -5    2.29    0.24 
   6   5  -5    2.03    0.23 
   5   5  -5   -0.15    0.09 
   5   5  -5    0.04    0.07 
  -5  -5   5   -0.05    0.06 
   4   5  -5    2.08    0.16 
   4   5  -5    2.03    0.20 
  -4  -5   5    1.85    0.17 
   3   5  -5    3.17    0.18 
   3   5  -5    2.93    0.22 
  -3  -5   5    3.40    0.22 
   2   5  -5   14.08    0.62 
  -2  -5   5   14.93    0.60 
   1   5  -5   24.93    0.95 
  -1  -5   5   24.66    0.94 
   0   5  -5    6.61    0.36 
   0  -5   5    7.68    0.28 
   0  -5   5    7.16    0.36 
   1  -5   5    5.47    0.30 
   1  -5   5    5.24    0.24 
   2  -5   5    2.78    0.17 
   3  -5   5    0.02    0.05 
   3  -5   5    0.03    0.06 
   4  -5   5    0.83    0.15 
   4  -5   5    0.64    0.13 
   5  -5   5    0.09    0.08 
   5  -5   5    0.02    0.10 
   6  -5   5    0.10    0.09 
   6  -5   5    0.04    0.11 
   7  -5   5    2.07    0.28 
   8  -5   5    0.42    0.19 
   9   4  -5    0.01    0.14 
   8   4  -5    5.14    0.40 
   7   4  -5    0.51    0.15 
   7   4  -5    0.46    0.15 
   6   4  -5    4.96    0.34 
   6   4  -5    4.91    0.32 
  -6  -4   5    4.47    0.28 
   5   4  -5   -0.07    0.06 
   5   4  -5    0.14    0.10 
  -5  -4   5    0.09    0.06 
   4   4  -5    1.00    0.15 
   4   4  -5    1.14    0.13 
  -4  -4   5    0.92    0.12 
   3   4  -5   10.88    0.45 
   3   4  -5   11.08    0.51 
  -3  -4   5   11.69    0.49 
   2   4  -5   14.01    0.52 
   2   4  -5   14.01    0.60 
  -2  -4   5   14.70    0.59 
   1   4  -5    5.16    0.29 
  -1  -4   5    5.10    0.28 
   0   4  -5   42.27    1.56 
   0  -4   5   45.48    1.48 
   0  -4   5   42.70    1.56 
   1  -4   5   19.64    0.77 
   1  -4   5   18.97    0.70 
   2  -4   5    0.58    0.08 
   2  -4   5    0.92    0.13 
   3  -4   5    0.24    0.09 
   3  -4   5    0.26    0.08 
   4  -4   5   15.70    0.67 
   4  -4   5   14.70    0.68 
   5  -4   5    1.02    0.17 
   5  -4   5    1.15    0.18 
   6  -4   5    0.48    0.13 
   6  -4   5    0.28    0.13 
   7  -4   5    0.14    0.13 
   8  -4   5    0.12    0.17 
   9   3  -5    0.44    0.18 
   8   3  -5    2.74    0.31 
   7   3  -5    0.34    0.14 
   7   3  -5    0.09    0.11 
   6   3  -5    0.60    0.14 
   6   3  -5    0.43    0.14 
   5   3  -5   10.61    0.55 
   5   3  -5   12.79    0.55 
  -5  -3   5   12.12    0.51 
   4   3  -5    6.56    0.32 
   4   3  -5    6.59    0.36 
  -4  -3   5    6.85    0.33 
   3   3  -5    2.61    0.16 
   3   3  -5    2.72    0.20 
  -3  -3   5    2.61    0.18 
   2   3  -5   18.90    0.67 
   2   3  -5   18.94    0.76 
  -2  -3   5   18.80    0.73 
   1   3  -5    1.65    0.15 
  -1  -3   5    1.75    0.14 
   0   3  -5    8.63    0.40 
   0  -3   5    8.44    0.40 
   0  -3   5    8.80    0.31 
   1  -3   5    3.82    0.18 
   1  -3   5    3.76    0.24 
   2  -3   5    0.32    0.09 
   2  -3   5    0.35    0.07 
   3  -3   5    2.05    0.20 
   3  -3   5    1.90    0.16 
   4  -3   5   16.34    0.71 
   4  -3   5   16.85    0.73 
   5  -3   5    0.68    0.15 
   5  -3   5    1.01    0.17 
   6  -3   5    5.02    0.35 
   6  -3   5    4.26    0.34 
   7  -3   5    1.50    0.25 
   8  -3   5    0.50    0.19 
   9   2  -5    0.11    0.14 
   8   2  -5   -0.14    0.11 
   8   2  -5    0.00    0.11 
   7   2  -5    0.23    0.12 
   7   2  -5    0.26    0.13 
   6   2  -5    0.05    0.10 
   6   2  -5    0.17    0.12 
   5   2  -5   -0.01    0.07 
   5   2  -5    0.02    0.07 
  -5  -2   5    0.06    0.06 
   4   2  -5    3.34    0.24 
   4   2  -5    3.42    0.21 
   3   2  -5    7.13    0.37 
   3   2  -5    7.38    0.32 
  -3  -2   5    7.31    0.34 
   2   2  -5    0.03    0.03 
   2   2  -5    0.03    0.06 
  -2  -2   5    0.06    0.05 
   1   2  -5   11.24    0.49 
  -1  -2   5   11.49    0.49 
   0   2  -5    1.00    0.12 
   0  -2   5    1.19    0.13 
  -1   2  -5    2.99    0.19 
   1  -2   5    3.19    0.22 
   1  -2   5    3.12    0.15 
   2  -2   5    3.06    0.21 
   2  -2   5    2.79    0.17 
   3  -2   5    5.38    0.29 
   3  -2   5    5.80    0.33 
   4  -2   5   26.71    1.07 
   4  -2   5   28.29    1.10 
   5  -2   5    2.45    0.25 
   5  -2   5    2.26    0.23 
   6  -2   5    0.32    0.13 
   6  -2   5    0.35    0.15 
   7  -2   5    3.03    0.33 
   8  -2   5    2.41    0.33 
   9   1  -5    0.07    0.14 
   8   1  -5    0.85    0.20 
   8   1  -5    1.01    0.19 
   7   1  -5    0.15    0.12 
   7   1  -5    0.10    0.12 
   6   1  -5    2.91    0.26 
   6   1  -5    2.68    0.24 
   5   1  -5    9.87    0.51 
   5   1  -5   11.50    0.51 
  -5  -1   5   11.01    0.46 
   4   1  -5    2.44    0.18 
   4   1  -5    2.47    0.20 
  -4  -1   5    2.72    0.17 
   3   1  -5    0.21    0.05 
   3   1  -5    0.15    0.07 
  -3  -1   5    0.25    0.06 
   2   1  -5  143.96    4.83 
   2   1  -5  142.84    4.82 
  -2  -1   5  144.94    4.80 
   1   1  -5    4.24    0.24 
  -1  -1   5    4.49    0.24 
   0   1  -5    0.04    0.04 
   0  -1   5    0.01    0.04 
  -1   1  -5    6.33    0.30 
   1  -1   5    6.44    0.33 
   1  -1   5    6.24    0.26 
   2  -1   5    2.00    0.14 
   2  -1   5    2.89    0.21 
   3  -1   5    9.02    0.46 
   3  -1   5    9.47    0.43 
   4  -1   5    2.38    0.21 
   4  -1   5    2.96    0.26 
   5  -1   5    1.71    0.22 
   5  -1   5    1.83    0.22 
   6  -1   5   19.96    0.90 
   6  -1   5   20.13    0.90 
   7  -1   5    0.16    0.12 
   7  -1   5    0.11    0.14 
   8  -1   5    1.24    0.26 
   9   0  -5    1.09    0.24 
   8   0  -5   -0.07    0.11 
   8   0  -5   -0.04    0.11 
   7   0  -5    7.15    0.43 
   7   0  -5    7.14    0.43 
   6   0  -5   -0.09    0.07 
   6   0  -5   -0.09    0.09 
   5   0  -5    5.45    0.31 
   5   0  -5    4.99    0.33 
  -5   0   5    5.33    0.26 
   4   0  -5    0.10    0.07 
   4   0  -5    0.05    0.05 
  -4   0   5    0.10    0.05 
   3   0  -5   24.30    0.85 
   3   0  -5   21.73    0.89 
   2   0  -5   -0.04    0.03 
   2   0  -5   -0.01    0.06 
  -2   0   5    0.00    0.05 
   1   0  -5   16.24    0.63 
  -1   0   5   15.09    0.62 
   0   0  -5    0.12    0.06 
   0   0   5   -0.03    0.03 
  -1   0  -5    1.77    0.13 
   1   0   5    1.84    0.17 
   1   0   5    1.88    0.11 
   2   0   5   -0.01    0.04 
   2   0   5    0.01    0.03 
   3   0   5    0.08    0.07 
   3   0   5   -0.02    0.05 
   4   0   5    0.04    0.07 
   4   0   5   -0.05    0.07 
   5   0   5   17.82    0.79 
   5   0   5   17.48    0.80 
   6   0   5   -0.18    0.09 
   6   0   5   -0.23    0.08 
   7   0   5    1.94    0.25 
   7   0   5    1.72    0.26 
   8   0   5    0.09    0.15 
   9  -1  -5    0.25    0.14 
   8  -1  -5    1.04    0.21 
   8  -1  -5    0.44    0.16 
   7  -1  -5    0.12    0.11 
   7  -1  -5    0.00    0.10 
   6  -1  -5    2.68    0.26 
   6  -1  -5    2.60    0.24 
   5  -1  -5   11.59    0.55 
   5  -1  -5   11.36    0.53 
   4  -1  -5    2.27    0.17 
   4  -1  -5    1.95    0.19 
  -4   1   5    2.42    0.15 
   3  -1  -5    0.31    0.09 
   3  -1  -5    0.30    0.06 
  -3   1   5    0.29    0.07 
   2  -1  -5  147.95    4.88 
   2  -1  -5  146.42    4.88 
  -2   1   5  141.37    4.83 
   1  -1  -5    4.81    0.18 
   1  -1  -5    4.30    0.24 
  -1   1   5    4.06    0.24 
   0  -1  -5    0.00    0.04 
   0   1   5    0.00    0.03 
  -1  -1  -5    6.04    0.28 
   1   1   5    6.12    0.32 
   1   1   5    6.23    0.27 
   2   1   5    2.67    0.21 
   3   1   5    8.78    0.42 
   3   1   5    9.14    0.46 
   4   1   5    2.70    0.25 
   4   1   5    2.42    0.22 
   5   1   5    1.50    0.22 
   5   1   5    1.68    0.21 
   6   1   5   21.06    0.96 
   6   1   5   22.23    0.97 
   7   1   5    0.20    0.13 
   7   1   5    0.25    0.15 
   8   1   5    1.07    0.25 
   9  -2  -5   -0.02    0.12 
   8  -2  -5    0.03    0.11 
   8  -2  -5    0.06    0.13 
   7  -2  -5    0.07    0.12 
   7  -2  -5    0.29    0.13 
   6  -2  -5    0.02    0.08 
   6  -2  -5   -0.09    0.10 
   5  -2  -5   -0.03    0.06 
   5  -2  -5    0.13    0.11 
   4  -2  -5    3.47    0.25 
   4  -2  -5    3.77    0.23 
  -4   2   5    3.54    0.19 
   3  -2  -5    7.97    0.39 
   3  -2  -5    8.26    0.35 
  -3   2   5    7.80    0.34 
   2  -2  -5    0.20    0.04 
   2  -2  -5    0.11    0.06 
  -2   2   5    0.03    0.04 
   1  -2  -5   11.36    0.47 
   1  -2  -5   11.47    0.41 
  -1   2   5   10.72    0.47 
   0  -2  -5    1.05    0.11 
   0   2   5    1.06    0.13 
  -1  -2  -5    3.32    0.18 
   1   2   5    3.46    0.23 
   1   2   5    3.31    0.18 
  -2  -2  -5    3.24    0.17 
   2   2   5    3.37    0.23 
   2   2   5    2.46    0.17 
   3   2   5    5.68    0.34 
   3   2   5    4.96    0.29 
   4   2   5   28.38    1.14 
   4   2   5   28.15    1.11 
   5   2   5    2.38    0.25 
   5   2   5    2.45    0.26 
   6   2   5    0.26    0.15 
   6   2   5    0.54    0.16 
   7   2   5    2.84    0.32 
   7   2   5    3.08    0.34 
   8   2   5    2.72    0.35 
   9  -3  -5    0.40    0.18 
   8  -3  -5    2.77    0.30 
   8  -3  -5    2.76    0.30 
   7  -3  -5    0.19    0.11 
   7  -3  -5   -0.07    0.10 
   6  -3  -5    0.49    0.13 
   6  -3  -5    0.37    0.14 
   5  -3  -5   12.34    0.57 
   5  -3  -5   12.69    0.60 
   4  -3  -5    6.83    0.35 
   4  -3  -5    6.75    0.37 
  -4   3   5    7.21    0.30 
   3  -3  -5    2.70    0.17 
   3  -3  -5    2.58    0.20 
  -3   3   5    2.65    0.16 
   2  -3  -5   19.24    0.75 
   2  -3  -5   18.84    0.70 
   1  -3  -5    1.72    0.10 
   1  -3  -5    1.70    0.14 
  -1   3   5    1.62    0.14 
   0  -3  -5    8.43    0.37 
   0   3   5    8.66    0.40 
  -1  -3  -5    3.50    0.19 
   1   3   5    3.77    0.24 
   1   3   5    3.58    0.19 
  -2  -3  -5    0.50    0.06 
   2   3   5    0.45    0.08 
   2   3   5    0.34    0.10 
   3   3   5    1.76    0.20 
   3   3   5    1.60    0.16 
   4   3   5   17.33    0.77 
   4   3   5   16.34    0.72 
   5   3   5    0.50    0.14 
   5   3   5    0.82    0.17 
   6   3   5    4.61    0.36 
   6   3   5    4.67    0.35 
   7   3   5    1.51    0.25 
   7   3   5    1.24    0.24 
   8   3   5    0.71    0.22 
   9  -4  -5    0.18    0.15 
   8  -4  -5    4.69    0.37 
   8  -4  -5    5.15    0.38 
   7  -4  -5    0.37    0.13 
   7  -4  -5    0.31    0.14 
   6  -4  -5    4.81    0.33 
   6  -4  -5    4.63    0.32 
   5  -4  -5    0.06    0.07 
   5  -4  -5   -0.07    0.09 
   4  -4  -5    0.73    0.14 
   4  -4  -5    1.08    0.13 
  -4   4   5    0.95    0.08 
   3  -4  -5   10.43    0.50 
   3  -4  -5   11.35    0.47 
  -3   4   5   11.78    0.45 
   2  -4  -5   15.03    0.56 
   2  -4  -5   14.08    0.60 
   1  -4  -5    5.65    0.29 
   1  -4  -5    5.73    0.24 
  -1   4   5    5.31    0.28 
   0  -4  -5   43.32    1.52 
   0   4   5   43.55    1.56 
  -1  -4  -5   19.13    0.70 
   1   4   5   18.73    0.77 
  -2  -4  -5    0.96    0.08 
   2   4   5    1.07    0.12 
   2   4   5    0.78    0.14 
   3   4   5    0.23    0.09 
   3   4   5    0.21    0.08 
   4   4   5   13.92    0.66 
   4   4   5   15.21    0.70 
   5   4   5    1.01    0.19 
   5   4   5    0.96    0.18 
   6   4   5    0.20    0.11 
   6   4   5    0.44    0.16 
   7   4   5    0.21    0.14 
   7   4   5    0.09    0.10 
   8   4   5    0.20    0.17 
   9  -5  -5    1.44    0.26 
   8  -5  -5    0.19    0.14 
   8  -5  -5    0.84    0.20 
   7  -5  -5    1.11    0.19 
   7  -5  -5    0.84    0.18 
   6  -5  -5    1.76    0.22 
   6  -5  -5    1.97    0.22 
   5  -5  -5    0.06    0.10 
   5  -5  -5    0.07    0.07 
   4  -5  -5    1.88    0.17 
   4  -5  -5    1.92    0.20 
  -4   5   5    1.98    0.11 
   3  -5  -5    3.23    0.22 
   3  -5  -5    3.08    0.19 
  -3   5   5    3.25    0.17 
   2  -5  -5   14.89    0.57 
   2  -5  -5   14.73    0.61 
  -2   5   5   14.29    0.57 
   1  -5  -5   24.87    0.92 
   1  -5  -5   24.52    0.88 
  -1   5   5   24.21    0.92 
   0  -5  -5    7.28    0.32 
   0   5   5    6.72    0.35 
  -1  -5  -5    5.44    0.25 
   1   5   5    5.01    0.31 
  -2  -5  -5    4.72    0.21 
   2   5   5    4.43    0.29 
   2   5   5    4.38    0.26 
   3   5   5    0.11    0.08 
   3   5   5    0.02    0.06 
   4   5   5    0.71    0.16 
   4   5   5    0.63    0.14 
   5   5   5    0.06    0.10 
   5   5   5   -0.02    0.08 
   6   5   5    0.11    0.11 
   6   5   5    0.01    0.11 
   7   5   5    1.57    0.27 
   7   5   5    1.99    0.29 
   8   5   5    0.45    0.21 
   8   5   5    0.58    0.23 
   9  -6  -5    0.21    0.14 
   8  -6  -5    1.56    0.25 
   8  -6  -5    2.32    0.28 
   7  -6  -5    0.09    0.12 
   7  -6  -5   -0.02    0.08 
   6  -6  -5    2.29    0.23 
   6  -6  -5    2.43    0.25 
   5  -6  -5    8.44    0.44 
   5  -6  -5    6.88    0.39 
   4  -6  -5    4.44    0.26 
   4  -6  -5    4.34    0.30 
   3  -6  -5    0.98    0.11 
  -3   6   5    0.92    0.09 
   2  -6  -5   10.04    0.42 
  -2   6   5   10.45    0.44 
   1  -6  -5    2.33    0.18 
  -1   6   5    2.59    0.18 
   0  -6  -5    3.77    0.21 
   0   6   5    3.58    0.23 
  -1  -6  -5   54.77    1.84 
   1   6   5   52.65    1.93 
  -2  -6  -5    0.80    0.07 
   2   6   5    0.59    0.10 
   2   6   5    0.41    0.11 
   3   6   5    1.29    0.19 
   3   6   5    1.40    0.16 
   4   6   5    2.44    0.26 
   4   6   5    2.30    0.24 
   5   6   5    0.36    0.14 
   5   6   5    0.65    0.17 
   6   6   5    0.50    0.17 
   6   6   5    0.41    0.14 
   7   6   5    0.23    0.16 
   7   6   5    0.03    0.12 
   8   6   5    0.64    0.22 
   8   6   5    1.00    0.24 
   9  -7  -5    0.29    0.20 
   9  -7  -5    0.41    0.19 
   8  -7  -5    0.12    0.12 
   8  -7  -5   -0.12    0.11 
   7  -7  -5    3.21    0.31 
   7  -7  -5    3.71    0.30 
   6  -7  -5    0.10    0.12 
   6  -7  -5    0.30    0.12 
   5  -7  -5   15.52    0.69 
   4  -7  -5    3.98    0.25 
   3  -7  -5    1.74    0.14 
  -3   7   5    1.42    0.11 
   2  -7  -5   11.10    0.47 
  -2   7   5   11.77    0.48 
  -1   7   5   17.85    0.71 
   0  -7  -5    0.05    0.05 
   0   7   5    0.11    0.07 
  -1  -7  -5   21.99    0.81 
   1   7   5   22.85    0.91 
  -2  -7  -5    0.26    0.05 
   2   7   5    0.42    0.11 
   3   7   5    3.73    0.26 
   3   7   5    3.88    0.29 
   4   7   5    0.40    0.14 
   4   7   5    0.52    0.14 
   5   7   5    9.19    0.54 
   5   7   5   10.30    0.57 
   6   7   5    2.65    0.32 
   6   7   5    3.16    0.33 
   7   7   5    0.26    0.14 
   7   7   5    0.41    0.17 
  -8  -7  -5   -0.04    0.16 
   8   7   5   -0.14    0.15 
   9  -8  -5    1.26    0.26 
   9  -8  -5    1.45    0.27 
   8  -8  -5    0.15    0.12 
   8  -8  -5    0.03    0.12 
   7  -8  -5    7.90    0.48 
   7  -8  -5    8.19    0.48 
   6  -8  -5    5.64    0.36 
   6  -8  -5    5.86    0.39 
   5  -8  -5    1.11    0.16 
   4  -8  -5    2.74    0.21 
   3  -8  -5    1.69    0.15 
  -3   8   5    1.61    0.12 
   2  -8  -5    0.47    0.09 
  -2   8   5    0.33    0.08 
  -1   8   5   12.20    0.53 
   0   8   5    3.44    0.23 
  -1  -8  -5    0.28    0.07 
   1   8   5    0.10    0.07 
  -2  -8  -5    8.88    0.35 
   2   8   5    8.45    0.46 
   3   8   5    8.24    0.46 
   3   8   5    7.04    0.40 
   4   8   5   11.88    0.62 
   4   8   5   11.27    0.58 
   5   8   5    0.19    0.13 
   5   8   5    0.26    0.12 
   6   8   5    9.68    0.59 
   6   8   5    9.68    0.59 
   7   8   5    0.07    0.12 
   7   8   5    0.17    0.16 
  -8  -8  -5    0.52    0.20 
   8   8   5    0.64    0.24 
   9  -9  -5   -0.16    0.14 
   9  -9  -5   -0.02    0.16 
   8  -9  -5    3.61    0.35 
   8  -9  -5    4.09    0.37 
   7  -9  -5    0.05    0.10 
   7  -9  -5    0.07    0.13 
   6  -9  -5    5.49    0.36 
   5  -9  -5    0.34    0.11 
   4  -9  -5    9.44    0.46 
   3  -9  -5    7.85    0.39 
  -3   9   5    8.04    0.34 
   2  -9  -5    5.82    0.30 
  -2   9   5    5.58    0.29 
  -1   9   5    5.94    0.32 
   0   9   5    1.96    0.19 
   1   9   5   24.06    0.98 
  -2  -9  -5    2.76    0.15 
   2   9   5    2.78    0.26 
   3   9   5    2.07    0.23 
   3   9   5    2.27    0.25 
   4   9   5    0.32    0.13 
   4   9   5    0.26    0.14 
   5   9   5    5.98    0.41 
   5   9   5    5.75    0.42 
   6   9   5    3.95    0.39 
   6   9   5    4.12    0.38 
   7   9   5    0.22    0.16 
   8   9   5    0.79    0.25 
   9 -10  -5    0.02    0.15 
   9 -10  -5    0.16    0.16 
   8 -10  -5    0.02    0.14 
   8 -10  -5    0.07    0.12 
   7 -10  -5    0.93    0.19 
   6 -10  -5    0.05    0.07 
   5 -10  -5    0.30    0.11 
   4 -10  -5   11.34    0.54 
   3 -10  -5    8.40    0.41 
   2 -10  -5    5.81    0.31 
  -2  10   5    6.12    0.31 
  -1  10   5   14.10    0.61 
   0  10   5    0.08    0.06 
   1  10   5    6.64    0.39 
  -2 -10  -5    4.47    0.22 
   2  10   5    4.58    0.33 
   3  10   5    0.16    0.11 
   4  10   5    0.87    0.18 
   4  10   5    0.62    0.16 
   5  10   5    8.67    0.52 
   5  10   5    7.66    0.51 
   6  10   5    0.08    0.15 
   6  10   5    0.11    0.12 
  -7 -10  -5    4.24    0.41 
   7  10   5    4.18    0.42 
   8 -11  -5    0.27    0.16 
   8 -11  -5    0.31    0.15 
   7 -11  -5    0.14    0.10 
   6 -11  -5    2.19    0.25 
   5 -11  -5   15.68    0.72 
   4 -11  -5    1.18    0.16 
   3 -11  -5   50.53    1.84 
   2 -11  -5    3.67    0.23 
  -2  11   5    3.43    0.23 
  -1  11   5    2.93    0.22 
   0  11   5    1.21    0.17 
   1  11   5   21.86    0.93 
   2  11   5    1.89    0.23 
   3  11   5   15.13    0.74 
   4  11   5    3.18    0.32 
   4  11   5    3.49    0.35 
   5  11   5    0.46    0.16 
   5  11   5    0.56    0.17 
   6  11   5    1.49    0.27 
   6  11   5    1.63    0.28 
  -7 -11  -5    0.02    0.16 
   7  11   5    0.14    0.16 
   8 -12  -5   -0.05    0.14 
   8 -12  -5    0.04    0.13 
   7 -12  -5    1.83    0.25 
   6 -12  -5    5.49    0.37 
   5 -12  -5    0.25    0.11 
   4 -12  -5   16.83    0.74 
   3 -12  -5    1.98    0.20 
   2 -12  -5    0.18    0.08 
   2 -12  -5    0.21    0.07 
  -1  12   5    8.30    0.42 
   0  12   5   17.78    0.77 
   1  12   5    1.47    0.21 
   2  12   5   47.39    1.81 
   3  12   5   -0.10    0.10 
   4  12   5   20.22    0.96 
   5  12   5    1.00    0.22 
   5  12   5    0.91    0.21 
  -6 -12  -5    0.17    0.15 
   6  12   5    0.06    0.14 
  -7 -12  -5    0.85    0.22 
   7  12   5    0.92    0.25 
   8 -13  -5    2.83    0.33 
   7 -13  -5    0.09    0.11 
   6 -13  -5    6.78    0.43 
   5 -13  -5    1.05    0.18 
   4 -13  -5    0.13    0.08 
   3 -13  -5    1.03    0.16 
   2 -13  -5   10.96    0.54 
   2 -13  -5   13.12    0.52 
   0  13   5    0.60    0.13 
   1  13   5    9.00    0.51 
   2  13   5    5.08    0.38 
   3  13   5    8.96    0.55 
   4  13   5    0.28    0.12 
  -5 -13  -5   -0.06    0.11 
  -6 -13  -5    3.93    0.40 
   6  13   5    4.37    0.43 
  -7 -13  -5    0.96    0.24 
   7  13   5    0.83    0.25 
   8 -14  -5    0.66    0.19 
   7 -14  -5    8.52    0.53 
   6 -14  -5    0.00    0.10 
   5 -14  -5    1.22    0.20 
   4 -14  -5    2.74    0.25 
   3 -14  -5   12.62    0.60 
   2 -14  -5    1.87    0.17 
   2 -14  -5    1.71    0.19 
   1 -14  -5   38.50    1.42 
   0 -14  -5   35.30    1.35 
   1  14   5   15.44    0.74 
   2  14   5    4.89    0.38 
   3  14   5    0.02    0.10 
  -4 -14  -5    2.91    0.32 
  -5 -14  -5    6.36    0.46 
  -6 -14  -5    2.67    0.35 
   7  14   5    5.40    0.53 
   8 -15  -5    0.84    0.23 
   7 -15  -5    0.72    0.18 
   6 -15  -5    0.46    0.14 
   5 -15  -5    7.36    0.45 
   4 -15  -5    5.53    0.37 
   3 -15  -5   18.74    0.82 
   2 -15  -5   10.85    0.49 
   2 -15  -5   10.90    0.54 
   1 -15  -5    9.86    0.48 
   0 -15  -5    3.71    0.29 
  -1 -15  -5    8.07    0.47 
  -2 -15  -5    1.95    0.25 
  -3 -15  -5    3.89    0.35 
  -4 -15  -5    0.92    0.21 
  -5 -15  -5    5.58    0.44 
  -6 -15  -5    4.29    0.44 
   7 -16  -5    0.77    0.20 
   6 -16  -5    1.99    0.27 
   5 -16  -5    1.31    0.22 
   4 -16  -5   22.76    0.99 
   3 -16  -5    5.50    0.37 
   2 -16  -5    6.36    0.34 
   2 -16  -5    5.87    0.37 
   1 -16  -5    1.15    0.16 
   0 -16  -5   24.95    1.03 
  -1 -16  -5   14.09    0.68 
  -2 -16  -5    1.14    0.21 
  -3 -16  -5    3.05    0.31 
  -4 -16  -5    2.43    0.31 
  -5 -16  -5    0.13    0.14 
  -6 -16  -5    1.47    0.29 
   7 -17  -5    0.24    0.14 
   6 -17  -5    0.02    0.10 
   5 -17  -5    1.07    0.20 
   4 -17  -5    0.06    0.09 
   3 -17  -5    1.38    0.21 
   2 -17  -5   11.99    0.60 
   1 -17  -5    2.65    0.25 
   0 -17  -5    1.00    0.18 
  -1 -17  -5   22.25    0.98 
  -2 -17  -5    0.10    0.11 
  -3 -17  -5    0.53    0.16 
  -4 -17  -5    0.04    0.13 
  -5 -17  -5    0.42    0.18 
  -6 -17  -5    2.55    0.37 
   7 -18  -5    0.26    0.16 
   6 -18  -5    0.51    0.17 
   5 -18  -5    1.03    0.19 
   4 -18  -5    0.39    0.13 
   3 -18  -5    0.14    0.10 
   2 -18  -5    6.02    0.39 
   1 -18  -5    4.86    0.33 
   0 -18  -5    0.35    0.13 
  -1 -18  -5    6.56    0.43 
  -2 -18  -5    4.35    0.36 
  -3 -18  -5    0.05    0.11 
  -4 -18  -5    2.19    0.32 
  -5 -18  -5    1.30    0.26 
  -6 -18  -5   -0.01    0.18 
   7 -19  -5    0.00    0.14 
   6 -19  -5    0.23    0.14 
   5 -19  -5    2.20    0.29 
   4 -19  -5    0.07    0.11 
   3 -19  -5    1.18    0.20 
   2 -19  -5   11.38    0.60 
   1 -19  -5    0.55    0.15 
   0 -19  -5    4.53    0.34 
  -1 -19  -5    0.08    0.12 
  -2 -19  -5   -0.07    0.11 
  -3 -19  -5    8.56    0.56 
  -4 -19  -5   -0.18    0.12 
  -5 -19  -5    1.15    0.26 
   6 -20  -5   -0.08    0.13 
   5 -20  -5    0.22    0.14 
   4 -20  -5    5.67    0.42 
   3 -20  -5    1.30    0.22 
   2 -20  -5    1.33    0.21 
   1 -20  -5    0.04    0.10 
   1 -20  -5    0.01    0.10 
   0 -20  -5    0.33    0.15 
  -1 -20  -5    0.78    0.19 
  -2 -20  -5    2.07    0.29 
  -3 -20  -5    0.18    0.14 
  -4 -20  -5    3.56    0.40 
  -5 -20  -5    0.35    0.22 
   6 -21  -5    0.19    0.17 
   5 -21  -5    1.97    0.30 
   4 -21  -5    7.81    0.51 
   3 -21  -5    2.04    0.28 
   2 -21  -5    2.41    0.27 
   1 -21  -5    0.07    0.09 
   1 -21  -5    0.03    0.10 
   0 -21  -5    0.00    0.10 
  -1 -21  -5    0.04    0.11 
  -2 -21  -5    1.31    0.25 
  -3 -21  -5    0.71    0.22 
  -4 -21  -5    1.11    0.28 
  -5 -21  -5    0.26    0.21 
   5 -22  -5    0.05    0.14 
   4 -22  -5    5.32    0.42 
   3 -22  -5    4.97    0.39 
   2 -22  -5    4.62    0.36 
   1 -22  -5    2.08    0.27 
   0 -22  -5    0.52    0.16 
  -1 -22  -5    2.64    0.33 
  -2 -22  -5    0.02    0.13 
  -3 -22  -5    3.12    0.39 
  -4 -22  -5    0.27    0.21 
   5 -23  -5    1.86    0.31 
   4 -23  -5    2.88    0.35 
   3 -23  -5    0.02    0.13 
   2 -23  -5    2.35    0.29 
   1 -23  -5    0.14    0.11 
   0 -23  -5    2.82    0.31 
  -1 -23  -5    0.10    0.14 
  -2 -23  -5    9.06    0.60 
  -3 -23  -5    0.20    0.19 
  -4 -23  -5    0.00    0.18 
   4 -24  -5    5.39    0.48 
   3 -24  -5    0.26    0.17 
   2 -24  -5    1.02    0.22 
   1 -24  -5    0.19    0.14 
   0 -24  -5    1.72    0.28 
  -1 -24  -5    0.25    0.16 
  -2 -24  -5    1.18    0.26 
  -3 -24  -5    0.30    0.22 
   4 -25  -5   -0.03    0.15 
   3 -25  -5    0.58    0.20 
   2 -25  -5    1.49    0.27 
   1 -25  -5    0.57    0.19 
   0 -25  -5    0.70    0.21 
  -1 -25  -5    2.31    0.34 
  -2 -25  -5    0.16    0.18 
   3 -26  -5    1.14    0.26 
   2 -26  -5    0.13    0.15 
   1 -26  -5    2.80    0.34 
  -1 -26  -5    4.13    0.44 
   1 -27  -5    0.17    0.18 
  -1 -26   6    1.21    0.28 
   0 -26   6    0.89    0.26 
  -3 -25   6    0.33    0.19 
  -2 -25   6    3.62    0.42 
  -1 -25   6    1.02    0.26 
   0 -25   6    0.32    0.17 
   1 -25   6    0.10    0.16 
  -4 -24   6    1.39    0.29 
  -3 -24   6    1.09    0.27 
  -2 -24   6    0.23    0.17 
  -1 -24   6    0.64    0.21 
   0 -24   6    0.01    0.13 
   1 -24   6    0.16    0.14 
   2 -24   6    0.52    0.18 
  -4 -23   6    0.14    0.17 
  -3 -23   6    3.71    0.41 
  -2 -23   6    1.98    0.30 
  -1 -23   6   -0.07    0.12 
   0 -23   6    0.28    0.14 
   1 -23   6    5.76    0.44 
   2 -23   6    1.54    0.26 
  -5 -22   6    0.00    0.17 
  -4 -22   6    2.53    0.35 
  -3 -22   6    0.33    0.17 
  -2 -22   6    0.70    0.19 
  -1 -22   6    0.87    0.21 
   0 -22   6    6.47    0.46 
   1 -22   6    0.34    0.14 
   2 -22   6    3.01    0.34 
  -5 -21   6    0.36    0.18 
  -4 -21   6    1.06    0.24 
  -3 -21   6    0.11    0.14 
  -2 -21   6    0.75    0.21 
  -1 -21   6    0.60    0.17 
   0 -21   6    0.65    0.17 
   1 -21   6    1.70    0.26 
   2 -21   6    0.08    0.11 
   3 -21   6    0.34    0.17 
  -6 -20   6   -0.08    0.15 
  -5 -20   6    0.49    0.18 
  -4 -20   6    2.85    0.34 
  -3 -20   6    8.36    0.53 
  -2 -20   6    0.15    0.13 
  -1 -20   6    4.34    0.39 
   0 -20   6    0.06    0.10 
   1 -20   6   -0.07    0.08 
   2 -20   6    0.77    0.18 
   3 -20   6    1.76    0.26 
  -6 -19   6    1.21    0.25 
  -5 -19   6    4.61    0.42 
  -4 -19   6    0.10    0.14 
  -3 -19   6    4.51    0.37 
  -2 -19   6    3.75    0.36 
  -1 -19   6    0.84    0.18 
   0 -19   6    1.43    0.20 
   0 -19   6    1.64    0.24 
   1 -19   6    0.33    0.13 
   1 -19   6    0.33    0.14 
   2 -19   6   -0.01    0.12 
   2 -19   6    0.06    0.09 
   3 -19   6    4.59    0.36 
  -7 -18   6    0.30    0.20 
  -6 -18   6    4.73    0.44 
  -5 -18   6    0.51    0.18 
  -4 -18   6    0.73    0.19 
  -3 -18   6    0.04    0.11 
  -2 -18   6   -0.19    0.09 
  -1 -18   6    0.06    0.10 
  -1 -18   6    0.05    0.10 
   0 -18   6    6.46    0.37 
   0 -18   6    5.81    0.41 
   1 -18   6    1.37    0.23 
   1 -18   6    1.80    0.21 
   2 -18   6   15.55    0.73 
   2 -18   6   15.70    0.77 
   3 -18   6    0.19    0.12 
   3 -18   6    0.09    0.11 
   4 -18   6    0.03    0.14 
  -7 -17   6    0.12    0.17 
  -6 -17   6    0.22    0.15 
  -5 -17   6    1.43    0.25 
  -4 -17   6    0.00    0.11 
  -3 -17   6    2.32    0.28 
  -2 -17   6    2.25    0.27 
  -1 -17   6   20.49    0.89 
  -1 -17   6   18.13    0.79 
   0 -17   6    2.70    0.29 
   0 -17   6    2.87    0.24 
   1 -17   6    4.90    0.35 
   1 -17   6    4.49    0.31 
   2 -17   6    0.50    0.14 
   2 -17   6    0.56    0.16 
   3 -17   6    5.47    0.38 
   3 -17   6    5.86    0.38 
   4 -17   6    0.15    0.13 
   4 -17   6    0.31    0.13 
   5 -17   6   -0.03    0.13 
  -7 -16   6    0.25    0.17 
  -6 -16   6    0.94    0.22 
  -5 -16   6    0.03    0.12 
  -4 -16   6    0.92    0.20 
  -3 -16   6    2.07    0.27 
  -2 -16   6    5.14    0.37 
  -1 -16   6    3.02    0.30 
   0 -16   6    7.28    0.38 
   1 -16   6    0.27    0.11 
   1 -16   6    0.18    0.10 
   2 -16   6    0.42    0.14 
   2 -16   6    0.49    0.14 
   3 -16   6   -0.06    0.10 
   3 -16   6   -0.08    0.07 
   4 -16   6    0.06    0.11 
   4 -16   6    0.24    0.13 
   5 -16   6    2.17    0.28 
   6 -16   6    0.56    0.21 
  -7 -15   6    0.74    0.22 
  -6 -15   6    0.81    0.20 
  -5 -15   6    3.96    0.36 
  -4 -15   6    6.70    0.44 
  -3 -15   6   -0.07    0.09 
  -2 -15   6    0.03    0.10 
  -1 -15   6    0.08    0.06 
  -1 -15   6    0.34    0.12 
   0 -15   6   11.15    0.58 
   1 -15   6    0.17    0.11 
   1 -15   6    0.05    0.07 
   2 -15   6    2.90    0.29 
   2 -15   6    3.20    0.26 
   3 -15   6    0.04    0.09 
   3 -15   6    0.02    0.10 
   4 -15   6    4.87    0.36 
   4 -15   6    5.15    0.36 
   5 -15   6    0.26    0.15 
   6 -15   6    1.85    0.28 
  -7 -14   6    0.20    0.17 
  -6 -14   6    2.02    0.27 
  -5 -14   6    3.86    0.34 
  -4 -14   6    0.13    0.11 
  -3 -14   6    7.89    0.47 
  -2 -14   6    3.21    0.29 
  -1 -14   6    1.06    0.13 
  -1 -14   6    0.84    0.17 
   0 -14   6    3.49    0.29 
   0 -14   6    3.44    0.23 
   2 -14   6    0.28    0.10 
   2 -14   6    0.35    0.12 
   3 -14   6    0.30    0.12 
   3 -14   6    0.40    0.13 
   4 -14   6    0.54    0.15 
   4 -14   6    0.45    0.14 
   5 -14   6    1.93    0.25 
   6 -14   6    1.46    0.26 
  -7 -13   6    0.56    0.20 
  -6 -13   6    0.39    0.15 
  -5 -13   6   -0.11    0.09 
  -4 -13   6   -0.05    0.10 
  -3 -13   6    1.67    0.23 
  -2 -13   6    3.97    0.30 
  -1 -13   6    3.09    0.28 
  -1 -13   6    3.11    0.20 
   0 -13   6   40.29    1.43 
   0 -13   6   37.69    1.50 
   1 -13   6    0.18    0.07 
   1 -13   6    0.18    0.11 
   2 -13   6   10.40    0.55 
   2 -13   6   10.84    0.50 
   3 -13   6    2.42    0.26 
   3 -13   6    2.51    0.23 
   4 -13   6    0.23    0.11 
   4 -13   6    0.29    0.12 
   5 -13   6    0.53    0.16 
   6 -13   6    2.65    0.31 
   7  12  -6    0.39    0.16 
   7  12  -6    0.41    0.20 
  -7 -12   6    0.56    0.17 
   6  12  -6    5.21    0.40 
   6  12  -6    5.21    0.38 
  -6 -12   6    4.80    0.36 
   5  12  -6    0.60    0.18 
  -5 -12   6    0.53    0.15 
   4  12  -6    6.94    0.45 
  -4 -12   6    7.18    0.43 
  -3 -12   6    1.15    0.19 
  -2 -12   6   17.70    0.79 
  -1 -12   6    1.62    0.21 
  -1 -12   6    2.06    0.15 
   0 -12   6    0.20    0.10 
   0 -12   6    0.19    0.07 
   1 -12   6    1.77    0.16 
   1 -12   6    1.41    0.20 
   2 -12   6    1.39    0.20 
   2 -12   6    0.53    0.11 
   3 -12   6   13.97    0.63 
   3 -12   6   13.71    0.66 
   4 -12   6    0.03    0.09 
   4 -12   6    0.05    0.10 
   5 -12   6    0.10    0.11 
   5 -12   6    0.34    0.12 
   6 -12   6    1.77    0.27 
   7 -12   6    2.17    0.32 
   7  11  -6    0.41    0.18 
   7  11  -6    0.23    0.14 
  -7 -11   6    0.60    0.18 
   6  11  -6    0.08    0.11 
   6  11  -6    0.14    0.14 
  -6 -11   6   -0.01    0.12 
   5  11  -6    1.46    0.23 
  -5 -11   6    1.29    0.21 
   4  11  -6    3.26    0.31 
  -4 -11   6    4.14    0.31 
   3  11  -6    0.46    0.15 
  -3 -11   6    0.76    0.16 
  -2 -11   6   36.47    1.40 
  -1 -11   6    0.10    0.10 
  -1 -11   6    0.24    0.07 
   0 -11   6    2.07    0.15 
   0 -11   6    1.89    0.21 
   1 -11   6    0.46    0.13 
   1 -11   6    0.30    0.09 
   2 -11   6    5.63    0.36 
   3 -11   6    2.37    0.25 
   3 -11   6    2.45    0.21 
   4 -11   6    6.42    0.41 
   4 -11   6    6.86    0.40 
   5 -11   6    0.43    0.14 
   5 -11   6    0.46    0.15 
   6 -11   6    9.75    0.57 
   7 -11   6    0.27    0.18 
   8  10  -6    0.28    0.18 
   7  10  -6    0.31    0.16 
   7  10  -6    0.40    0.15 
   6  10  -6    0.78    0.18 
   6  10  -6    0.89    0.17 
  -6 -10   6    0.96    0.19 
   5  10  -6    1.33    0.22 
   5  10  -6    1.42    0.18 
  -5 -10   6    1.39    0.20 
   4  10  -6   21.13    0.93 
  -4 -10   6   21.57    0.90 
   3  10  -6    6.53    0.41 
  -3 -10   6    7.03    0.40 
   2  10  -6    0.92    0.18 
  -2 -10   6    0.77    0.15 
  -1 -10   6    2.65    0.24 
  -1 -10   6    2.47    0.15 
   0 -10   6    5.17    0.33 
   0 -10   6    5.35    0.26 
   1 -10   6    4.19    0.29 
   1 -10   6    4.32    0.24 
   2 -10   6    0.13    0.09 
   2 -10   6    0.17    0.07 
   3 -10   6   22.07    0.92 
   3 -10   6   21.11    0.87 
   4 -10   6    2.80    0.27 
   4 -10   6    2.78    0.25 
   5 -10   6    2.76    0.27 
   5 -10   6    2.96    0.29 
   6 -10   6    0.70    0.19 
   7 -10   6    2.70    0.33 
   8   9  -6    0.74    0.22 
   7   9  -6   -0.07    0.12 
   7   9  -6    0.05    0.11 
   6   9  -6    0.01    0.10 
   6   9  -6    0.16    0.14 
  -6  -9   6    0.11    0.12 
   5   9  -6    6.48    0.37 
   5   9  -6    6.85    0.43 
  -5  -9   6    6.43    0.39 
   4   9  -6    2.24    0.25 
  -4  -9   6    2.40    0.24 
   3   9  -6    0.72    0.17 
  -3  -9   6    0.81    0.16 
   2   9  -6    1.15    0.18 
  -2  -9   6    1.39    0.18 
  -1  -9   6    9.83    0.51 
  -1  -9   6   11.19    0.42 
   0  -9   6    3.68    0.19 
   0  -9   6    3.58    0.26 
   1  -9   6    8.64    0.44 
   1  -9   6    7.59    0.35 
   2  -9   6    1.58    0.15 
   2  -9   6    1.39    0.18 
   3  -9   6    3.53    0.24 
   3  -9   6    3.40    0.27 
   4  -9   6   11.21    0.53 
   4  -9   6    9.62    0.53 
   5  -9   6    2.41    0.27 
   5  -9   6    2.51    0.26 
   6  -9   6    0.72    0.18 
   7  -9   6    0.71    0.21 
   8   8  -6    0.79    0.20 
   7   8  -6    3.21    0.32 
   7   8  -6    3.54    0.32 
   6   8  -6    1.57    0.24 
   6   8  -6    1.68    0.22 
  -6  -8   6    1.76    0.22 
   5   8  -6    2.09    0.20 
   5   8  -6    1.66    0.23 
  -5  -8   6    1.77    0.21 
   4   8  -6   29.97    1.19 
   4   8  -6   29.00    1.12 
  -4  -8   6   30.36    1.16 
   3   8  -6   28.92    1.13 
  -3  -8   6   27.58    1.10 
   2   8  -6    1.81    0.21 
  -2  -8   6    2.14    0.21 
   1   8  -6   29.65    1.17 
  -1  -8   6   30.64    1.06 
  -1  -8   6   29.52    1.15 
   0  -8   6   12.90    0.59 
   0  -8   6   13.04    0.50 
   1  -8   6    4.33    0.22 
   1  -8   6    3.92    0.28 
   2  -8   6    3.94    0.28 
   2  -8   6    4.40    0.24 
   3  -8   6    0.70    0.12 
   3  -8   6    0.82    0.15 
   4  -8   6    3.67    0.27 
   4  -8   6    3.26    0.27 
   5  -8   6    0.37    0.13 
   5  -8   6    0.17    0.11 
   6  -8   6    0.38    0.14 
   7  -8   6    0.08    0.14 
   9   7  -6   -0.09    0.17 
   8   7  -6    0.33    0.16 
   7   7  -6    0.11    0.13 
   7   7  -6    0.23    0.12 
   6   7  -6    0.60    0.17 
   6   7  -6    0.72    0.16 
  -6  -7   6    0.58    0.14 
   5   7  -6    0.07    0.08 
   5   7  -6    0.05    0.11 
  -5  -7   6    0.16    0.11 
   4   7  -6    4.62    0.33 
   4   7  -6    4.02    0.25 
  -4  -7   6    4.03    0.27 
   3   7  -6   17.45    0.77 
  -3  -7   6   18.15    0.75 
   2   7  -6  113.93    3.91 
  -2  -7   6  113.58    3.88 
   1   7  -6    6.09    0.36 
  -1  -7   6    5.85    0.24 
  -1  -7   6    5.78    0.33 
   0  -7   6   31.75    1.10 
   0  -7   6   30.88    1.20 
   1  -7   6    2.12    0.14 
   1  -7   6    2.42    0.22 
   2  -7   6    0.48    0.12 
   2  -7   6    0.20    0.06 
   3  -7   6    4.01    0.29 
   3  -7   6    3.73    0.24 
   4  -7   6   12.11    0.57 
   4  -7   6   12.54    0.61 
   5  -7   6    1.87    0.24 
   5  -7   6    1.61    0.21 
   6  -7   6    6.57    0.43 
   6  -7   6    6.51    0.43 
   7  -7   6    0.14    0.14 
   9   6  -6   -0.01    0.17 
   8   6  -6    0.34    0.16 
   7   6  -6    1.23    0.21 
   7   6  -6    1.03    0.21 
   6   6  -6    7.62    0.46 
   6   6  -6    7.28    0.42 
  -6  -6   6    7.17    0.40 
   5   6  -6    0.02    0.12 
   5   6  -6   -0.05    0.07 
  -5  -6   6    0.06    0.07 
   4   6  -6   10.15    0.52 
   4   6  -6   10.33    0.46 
  -4  -6   6   10.62    0.49 
   3   6  -6   44.48    1.59 
   3   6  -6   46.14    1.68 
  -3  -6   6   45.26    1.64 
   2   6  -6   11.67    0.56 
  -2  -6   6   12.56    0.55 
   1   6  -6   44.62    1.67 
  -1  -6   6   48.01    1.55 
  -1  -6   6   43.41    1.65 
   0   6  -6    1.12    0.16 
   0  -6   6    0.89    0.15 
   0  -6   6    1.20    0.08 
   1  -6   6    0.36    0.10 
   1  -6   6    0.47    0.07 
   2  -6   6    0.59    0.13 
   2  -6   6    0.57    0.09 
   3  -6   6    1.50    0.15 
   3  -6   6    1.93    0.21 
   4  -6   6    0.68    0.15 
   4  -6   6    0.68    0.14 
   5  -6   6    8.76    0.48 
   5  -6   6    8.43    0.49 
   6  -6   6    1.63    0.24 
   6  -6   6    2.31    0.27 
   7  -6   6    5.76    0.43 
   9   5  -6    0.08    0.16 
   8   5  -6    0.87    0.22 
   8   5  -6    0.75    0.18 
   7   5  -6    2.70    0.27 
   6   5  -6    0.79    0.16 
   6   5  -6    0.83    0.18 
   5   5  -6   52.37    1.93 
   5   5  -6   55.01    1.98 
  -5  -5   6   53.33    1.91 
   4   5  -6    0.51    0.14 
   4   5  -6    0.69    0.11 
  -4  -5   6    0.45    0.11 
   3   5  -6    5.67    0.26 
   3   5  -6    5.66    0.34 
  -3  -5   6    5.64    0.32 
   2   5  -6    9.57    0.48 
  -2  -5   6   10.50    0.47 
   1   5  -6   26.32    1.06 
  -1  -5   6   29.34    1.08 
   0   5  -6    0.08    0.07 
   0  -5   6    0.14    0.03 
   0  -5   6    0.19    0.07 
   1  -5   6   14.67    0.64 
   1  -5   6   14.33    0.54 
   2  -5   6    6.28    0.36 
   2  -5   6    6.16    0.29 
   3  -5   6    9.60    0.47 
   3  -5   6   12.71    0.56 
   4  -5   6    0.99    0.18 
   4  -5   6    0.78    0.14 
   5  -5   6    4.24    0.32 
   5  -5   6    4.51    0.33 
   6  -5   6    1.38    0.22 
   6  -5   6    1.11    0.20 
   7  -5   6    2.24    0.30 
   9   4  -6    0.01    0.15 
   8   4  -6    2.16    0.28 
   8   4  -6    2.34    0.31 
   7   4  -6    0.33    0.13 
   7   4  -6    0.11    0.14 
   6   4  -6   11.42    0.56 
   6   4  -6   10.93    0.58 
   5   4  -6    0.36    0.14 
   5   4  -6    0.23    0.09 
  -5  -4   6    0.33    0.10 
   4   4  -6   14.99    0.61 
   4   4  -6   15.79    0.69 
  -4  -4   6   14.53    0.63 
   3   4  -6   16.96    0.74 
   3   4  -6   17.88    0.66 
  -3  -4   6   17.98    0.72 
   2   4  -6    0.87    0.14 
  -2  -4   6    1.43    0.15 
   1   4  -6    2.10    0.19 
  -1  -4   6    1.81    0.18 
   0   4  -6   46.03    1.62 
   0  -4   6   43.45    1.62 
   1  -4   6   15.69    0.68 
   1  -4   6   16.03    0.59 
   2  -4   6    5.09    0.25 
   2  -4   6    5.04    0.32 
   3  -4   6    2.93    0.24 
   3  -4   6    2.06    0.17 
   4  -4   6   27.01    1.13 
   4  -4   6   28.66    1.10 
   5  -4   6    0.11    0.10 
   5  -4   6    0.25    0.12 
   6  -4   6    3.02    0.30 
   6  -4   6    2.72    0.29 
   7  -4   6    1.02    0.23 
   8  -4   6    1.06    0.25 
   9   3  -6    0.22    0.16 
   8   3  -6    7.96    0.51 
   8   3  -6    7.78    0.50 
   7   3  -6    0.11    0.13 
   7   3  -6    0.06    0.11 
   6   3  -6    3.24    0.26 
   6   3  -6    2.63    0.27 
   5   3  -6    2.31    0.19 
   5   3  -6    2.23    0.23 
   4   3  -6    1.90    0.21 
   4   3  -6    1.94    0.15 
  -4  -3   6    1.88    0.17 
   3   3  -6    2.58    0.15 
   3   3  -6    2.75    0.22 
  -3  -3   6    2.45    0.19 
   2   3  -6   54.70    1.95 
  -2  -3   6   54.34    1.92 
   1   3  -6   38.41    1.43 
  -1  -3   6   39.80    1.43 
   0   3  -6   46.45    1.68 
   0  -3   6   47.82    1.70 
  -1   3  -6    8.21    0.39 
   1  -3   6    7.84    0.32 
   1  -3   6    8.07    0.41 
   2  -3   6    0.21    0.09 
   2  -3   6    0.09    0.05 
   3  -3   6    0.25    0.10 
   3  -3   6    0.13    0.07 
   4  -3   6    0.05    0.08 
   4  -3   6   -0.03    0.06 
   5  -3   6   11.36    0.56 
   5  -3   6   10.22    0.56 
   6  -3   6    0.34    0.12 
   6  -3   6    0.24    0.14 
   7  -3   6    0.36    0.15 
   8  -3   6    0.10    0.17 
   9   2  -6    0.42    0.17 
   8   2  -6    1.67    0.25 
   8   2  -6    1.66    0.25 
   7   2  -6    1.77    0.25 
   7   2  -6    2.18    0.25 
   6   2  -6    1.35    0.21 
   6   2  -6    1.48    0.19 
   5   2  -6   -0.16    0.06 
   5   2  -6   -0.07    0.08 
  -5  -2   6    0.01    0.06 
   4   2  -6    1.03    0.17 
   4   2  -6    1.30    0.12 
  -4  -2   6    0.90    0.12 
   3   2  -6   51.59    1.79 
   3   2  -6   50.30    1.86 
  -3  -2   6   52.96    1.82 
   2   2  -6   16.54    0.71 
  -2  -2   6   18.03    0.70 
   1   2  -6    7.13    0.36 
  -1  -2   6    6.90    0.35 
   0   2  -6   15.28    0.63 
   0  -2   6   15.29    0.65 
  -1   2  -6    0.56    0.10 
   1  -2   6    0.59    0.12 
   1  -2   6    0.56    0.06 
   2  -2   6    2.41    0.22 
   2  -2   6    2.32    0.16 
   3  -2   6   30.80    1.13 
   3  -2   6   25.29    1.04 
   4  -2   6    0.85    0.17 
   4  -2   6    0.73    0.13 
   5  -2   6   19.37    0.86 
   5  -2   6   19.58    0.88 
   6  -2   6    2.19    0.27 
   6  -2   6    1.48    0.23 
   7  -2   6    1.24    0.24 
   7  -2   6    1.71    0.27 
   8  -2   6    1.13    0.26 
   9   1  -6    0.14    0.14 
   8   1  -6    1.20    0.21 
   8   1  -6    1.07    0.22 
   7   1  -6   -0.11    0.09 
   7   1  -6   -0.09    0.11 
   6   1  -6    0.91    0.16 
   6   1  -6    0.95    0.19 
   5   1  -6   12.83    0.57 
   5   1  -6   12.75    0.62 
  -5  -1   6   12.74    0.53 
   4   1  -6    2.40    0.23 
   4   1  -6    2.64    0.17 
  -4  -1   6    2.25    0.17 
   3   1  -6   14.24    0.64 
   3   1  -6   14.48    0.55 
  -3  -1   6   15.03    0.60 
   2   1  -6   -0.01    0.06 
   2   1  -6    0.06    0.02 
  -2  -1   6    0.03    0.05 
   1   1  -6    0.56    0.10 
  -1  -1   6    0.50    0.10 
   0   1  -6    0.27    0.08 
   0  -1   6    0.34    0.09 
  -1   1  -6    7.72    0.37 
   1  -1   6    7.34    0.39 
   1  -1   6    8.00    0.32 
   2  -1   6    0.00    0.04 
   2  -1   6    0.02    0.06 
   3  -1   6   46.85    1.71 
   3  -1   6   44.57    1.65 
   4  -1   6    2.78    0.22 
   4  -1   6    3.04    0.28 
   5  -1   6    2.16    0.24 
   5  -1   6    2.77    0.28 
   6  -1   6   -0.11    0.10 
   6  -1   6    0.25    0.12 
   7  -1   6    0.04    0.12 
   7  -1   6   -0.15    0.10 
   8  -1   6    1.00    0.25 
   9   0  -6    0.09    0.14 
   8   0  -6   -0.03    0.11 
   8   0  -6    0.01    0.12 
   7   0  -6   -0.02    0.09 
   7   0  -6   -0.07    0.10 
   6   0  -6   14.32    0.68 
   6   0  -6   13.78    0.64 
   5   0  -6    0.02    0.10 
   5   0  -6   -0.06    0.06 
  -5   0   6    0.11    0.06 
   4   0  -6    0.30    0.11 
   4   0  -6    0.72    0.10 
  -4   0   6    0.43    0.09 
   3   0  -6   -0.01    0.06 
   3   0  -6    0.05    0.04 
  -3   0   6   -0.04    0.04 
   2   0  -6   15.70    0.65 
   2   0  -6   15.83    0.55 
  -2   0   6   15.11    0.63 
   1   0  -6   -0.04    0.04 
  -1   0   6    0.04    0.05 
   0   0  -6   17.95    0.70 
   0   0   6   17.05    0.72 
  -1   0  -6   -0.01    0.05 
   1   0   6   -0.01    0.03 
   1   0   6    0.04    0.05 
   2   0   6   17.56    0.67 
   2   0   6   16.94    0.74 
   3   0   6   -0.05    0.08 
   3   0   6   -0.06    0.06 
   4   0   6    0.03    0.08 
   4   0   6    0.12    0.08 
   5   0   6    0.03    0.10 
   5   0   6   -0.04    0.09 
   6   0   6    1.93    0.26 
   6   0   6    1.90    0.25 
   7   0   6   -0.07    0.12 
   7   0   6   -0.06    0.11 
   8   0   6    0.12    0.16 
   9  -1  -6    0.32    0.17 
   8  -1  -6    1.48    0.23 
   8  -1  -6    0.96    0.20 
   7  -1  -6    0.12    0.10 
   7  -1  -6    0.05    0.11 
   6  -1  -6    1.05    0.16 
   6  -1  -6    1.01    0.19 
   5  -1  -6   12.74    0.55 
   5  -1  -6   11.42    0.58 
   4  -1  -6    2.66    0.18 
   4  -1  -6    2.37    0.23 
  -4   1   6    2.79    0.18 
   3  -1  -6   15.30    0.57 
   3  -1  -6   14.21    0.64 
   2  -1  -6    0.04    0.03 
   2  -1  -6    0.06    0.07 
  -2   1   6    0.00    0.05 
   1  -1  -6    0.42    0.09 
  -1   1   6    0.40    0.09 
   0  -1  -6    0.22    0.07 
   0   1   6    0.37    0.09 
  -1  -1  -6    7.79    0.36 
   1   1   6    8.23    0.42 
   1   1   6    8.05    0.33 
  -2  -1  -6    0.11    0.06 
   2   1   6   -0.06    0.06 
   2   1   6    0.09    0.05 
   3   1   6   45.05    1.66 
   3   1   6   46.33    1.72 
   4   1   6    2.53    0.23 
   4   1   6    2.76    0.27 
   5   1   6    1.96    0.25 
   5   1   6    2.28    0.25 
   6   1   6   -0.07    0.11 
   6   1   6    0.26    0.12 
   7   1   6    0.10    0.11 
   7   1   6    0.06    0.14 
   8   1   6    1.11    0.25 
   9  -2  -6    0.27    0.16 
   8  -2  -6    1.57    0.24 
   8  -2  -6    1.21    0.23 
   7  -2  -6    1.74    0.24 
   7  -2  -6    1.86    0.23 
   6  -2  -6    1.43    0.19 
   6  -2  -6    1.15    0.20 
   5  -2  -6   -0.03    0.10 
   5  -2  -6   -0.01    0.07 
   4  -2  -6    1.39    0.14 
   4  -2  -6    1.36    0.18 
  -4   2   6    1.29    0.12 
   3  -2  -6   53.73    1.85 
   3  -2  -6   51.93    1.90 
  -3   2   6   53.63    1.85 
   2  -2  -6   16.20    0.71 
   2  -2  -6   17.82    0.63 
  -2   2   6   17.83    0.69 
   1  -2  -6    7.38    0.27 
   1  -2  -6    6.86    0.35 
  -1   2   6    7.24    0.36 
   0  -2  -6   17.00    0.65 
   0   2   6   15.83    0.68 
  -1  -2  -6    0.51    0.09 
   1   2   6    0.60    0.08 
   1   2   6    0.38    0.10 
  -2  -2  -6    2.41    0.16 
   2   2   6    2.36    0.23 
   2   2   6    2.22    0.16 
   3   2   6   30.10    1.15 
   3   2   6   30.15    1.21 
   4   2   6    0.65    0.14 
   4   2   6    0.62    0.15 
   5   2   6   19.72    0.84 
   5   2   6   17.38    0.85 
   6   2   6    1.53    0.24 
   6   2   6    1.88    0.27 
   7   2   6    1.48    0.25 
   7   2   6    1.50    0.26 
   8   2   6    1.00    0.25 
   9  -3  -6    0.12    0.14 
   8  -3  -6    7.21    0.47 
   8  -3  -6    8.13    0.51 
   7  -3  -6    0.14    0.13 
   7  -3  -6    0.14    0.10 
   6  -3  -6    2.84    0.28 
   6  -3  -6    2.87    0.25 
   5  -3  -6    2.07    0.23 
   5  -3  -6    2.10    0.19 
   4  -3  -6    1.83    0.16 
   4  -3  -6    1.47    0.20 
  -4   3   6    1.92    0.14 
   3  -3  -6    2.91    0.18 
   3  -3  -6    3.04    0.23 
  -3   3   6    2.78    0.18 
   2  -3  -6   56.28    1.93 
   2  -3  -6   55.44    1.99 
  -2   3   6   56.98    1.96 
   1  -3  -6   37.72    1.34 
   1  -3  -6   40.17    1.41 
  -1   3   6   39.54    1.42 
   0  -3  -6   47.42    1.66 
   0   3   6   47.09    1.70 
  -1  -3  -6    7.62    0.35 
   1   3   6    7.75    0.41 
  -2  -3  -6    0.10    0.05 
   2   3   6    0.09    0.05 
   2   3   6    0.12    0.07 
   3   3   6    0.07    0.07 
   3   3   6    0.13    0.11 
   4   3   6   -0.11    0.08 
   4   3   6   -0.13    0.08 
   5   3   6   10.74    0.59 
   5   3   6   11.00    0.57 
   6   3   6    0.43    0.15 
   6   3   6    0.27    0.14 
   7   3   6    0.60    0.18 
   7   3   6    0.31    0.16 
   8   3   6   -0.12    0.16 
   9  -4  -6    0.00    0.16 
   9  -4  -6    0.14    0.14 
   8  -4  -6    2.34    0.28 
   8  -4  -6    2.54    0.30 
   7  -4  -6    0.22    0.12 
   7  -4  -6   -0.03    0.10 
   6  -4  -6   11.46    0.57 
   6  -4  -6   12.12    0.61 
   5  -4  -6    0.28    0.10 
   5  -4  -6    0.26    0.13 
   4  -4  -6   14.62    0.69 
   4  -4  -6   16.12    0.65 
  -4   4   6   16.20    0.60 
   3  -4  -6   18.35    0.70 
   3  -4  -6   17.77    0.76 
  -3   4   6   18.27    0.70 
   2  -4  -6    1.26    0.10 
   2  -4  -6    1.04    0.14 
  -2   4   6    1.12    0.13 
   1  -4  -6    1.64    0.16 
   1  -4  -6    1.84    0.11 
  -1   4   6    1.89    0.17 
   0  -4  -6   45.28    1.60 
   0   4   6   45.63    1.65 
  -1  -4  -6   15.01    0.58 
   1   4   6   14.49    0.65 
  -2  -4  -6    5.26    0.24 
   2   4   6    4.22    0.31 
   3   4   6    2.71    0.27 
   3   4   6    3.34    0.23 
   4   4   6   29.46    1.16 
   4   4   6   28.41    1.20 
   5   4   6    0.19    0.11 
   5   4   6    0.23    0.12 
   6   4   6    3.11    0.33 
   6   4   6    3.24    0.32 
   7   4   6    0.73    0.20 
   7   4   6    0.99    0.22 
   8   4   6    1.09    0.26 
   9  -5  -6    0.56    0.18 
   9  -5  -6    0.41    0.17 
   8  -5  -6    0.98    0.20 
   8  -5  -6    0.87    0.21 
   7  -5  -6    2.56    0.27 
   7  -5  -6    2.42    0.28 
   6  -5  -6    0.41    0.15 
   6  -5  -6    0.98    0.17 
   5  -5  -6   51.44    1.90 
   5  -5  -6   51.21    1.87 
   4  -5  -6    0.42    0.12 
   4  -5  -6    0.67    0.11 
   3  -5  -6    5.97    0.29 
   3  -5  -6    5.97    0.34 
  -3   5   6    5.84    0.29 
   2  -5  -6    9.84    0.39 
   2  -5  -6   10.10    0.45 
  -2   5   6    7.82    0.40 
   1  -5  -6   27.06    0.98 
   1  -5  -6   26.86    1.03 
  -1   5   6   28.16    1.04 
   0  -5  -6    0.09    0.06 
   0   5   6    0.17    0.07 
  -1  -5  -6   15.09    0.59 
   1   5   6   15.12    0.68 
  -2  -5  -6    6.23    0.29 
   2   5   6    6.88    0.34 
   2   5   6    6.56    0.39 
   3   5   6   12.77    0.58 
   3   5   6   12.68    0.63 
   4   5   6    0.90    0.19 
   4   5   6    0.91    0.17 
   5   5   6    4.28    0.34 
   5   5   6    4.88    0.36 
   6   5   6    0.94    0.20 
   6   5   6    1.43    0.24 
   7   5   6    1.95    0.29 
   7   5   6    2.23    0.31 
   9  -6  -6   -0.22    0.13 
   9  -6  -6    0.12    0.14 
   8  -6  -6    0.14    0.12 
   8  -6  -6    0.07    0.13 
   7  -6  -6    1.05    0.19 
   7  -6  -6    1.13    0.21 
   6  -6  -6    6.92    0.40 
   6  -6  -6    6.27    0.41 
   5  -6  -6    0.04    0.10 
   5  -6  -6    0.03    0.08 
   4  -6  -6    9.78    0.51 
   4  -6  -6   10.27    0.46 
   3  -6  -6   46.75    1.62 
   3  -6  -6   41.27    1.65 
  -3   6   6   47.28    1.59 
   2  -6  -6   13.63    0.59 
   2  -6  -6   13.50    0.54 
   1  -6  -6   44.47    1.56 
   1  -6  -6   44.69    1.59 
  -1   6   6   43.86    1.60 
   0  -6  -6    1.19    0.13 
   0   6   6    1.13    0.15 
  -1  -6  -6    0.62    0.09 
   1   6   6    0.75    0.14 
  -2  -6  -6    0.69    0.08 
   2   6   6    0.67    0.11 
   2   6   6    0.44    0.14 
   3   6   6    1.34    0.17 
   3   6   6    1.61    0.22 
   4   6   6    0.48    0.14 
   4   6   6    0.66    0.15 
   5   6   6    8.59    0.53 
   5   6   6    8.70    0.51 
   6   6   6    2.02    0.29 
   6   6   6    2.20    0.29 
   7   6   6    6.01    0.46 
   7   6   6    5.77    0.46 
   9  -7  -6    0.18    0.16 
   9  -7  -6   -0.04    0.13 
   8  -7  -6    0.31    0.15 
   8  -7  -6    0.27    0.14 
   7  -7  -6   -0.07    0.11 
   7  -7  -6   -0.01    0.09 
   6  -7  -6    0.64    0.15 
   6  -7  -6    0.64    0.16 
   5  -7  -6    0.03    0.10 
   5  -7  -6    0.14    0.09 
   4  -7  -6    4.02    0.25 
   4  -7  -6    4.08    0.30 
   3  -7  -6   17.98    0.74 
   3  -7  -6   19.17    0.80 
  -3   7   6   19.63    0.73 
   2  -7  -6  113.16    3.94 
   2  -7  -6  118.19    3.95 
   1  -7  -6    5.18    0.30 
  -1   7   6    5.61    0.31 
   0  -7  -6   29.74    1.07 
   0   7   6   28.07    1.12 
  -1  -7  -6    2.00    0.15 
   1   7   6    2.05    0.22 
  -2  -7  -6    0.31    0.06 
   2   7   6    0.04    0.09 
   3   7   6    4.10    0.28 
   3   7   6    3.99    0.32 
   4   7   6   12.67    0.62 
   4   7   6   12.42    0.66 
   5   7   6    1.78    0.26 
   5   7   6    1.96    0.26 
   6   7   6    5.72    0.43 
   6   7   6    5.63    0.44 
   7   7   6    0.51    0.18 
   7   7   6    0.49    0.19 
   9  -8  -6    0.03    0.14 
   9  -8  -6    0.00    0.15 
   8  -8  -6    0.57    0.17 
   8  -8  -6    0.68    0.19 
   7  -8  -6    3.05    0.32 
   7  -8  -6    3.52    0.31 
   6  -8  -6    1.79    0.21 
   6  -8  -6    1.43    0.22 
   5  -8  -6    1.73    0.23 
   5  -8  -6    1.77    0.19 
   4  -8  -6   28.14    1.14 
   4  -8  -6   28.87    1.10 
   3  -8  -6   27.34    1.06 
  -3   8   6   28.93    1.03 
   2  -8  -6    1.67    0.19 
   2  -8  -6    2.18    0.16 
   1  -8  -6   29.76    1.13 
  -1   8   6   30.50    1.15 
   0  -8  -6   12.44    0.52 
   0   8   6   12.04    0.57 
  -1  -8  -6    4.22    0.23 
   1   8   6    4.40    0.30 
   2   8   6    4.72    0.34 
   3   8   6    0.58    0.14 
   3   8   6    0.90    0.18 
   4   8   6    3.85    0.35 
   4   8   6    3.50    0.29 
   5   8   6    0.23    0.13 
   5   8   6    0.38    0.15 
   6   8   6    0.43    0.17 
   6   8   6    0.79    0.20 
   7   8   6    0.03    0.13 
   7   8   6    0.20    0.16 
   9  -9  -6    0.19    0.16 
   9  -9  -6    0.23    0.17 
   8  -9  -6    0.75    0.19 
   8  -9  -6    0.83    0.20 
   7  -9  -6    0.12    0.13 
   7  -9  -6    0.27    0.12 
   6  -9  -6    0.18    0.12 
   6  -9  -6    0.09    0.10 
   5  -9  -6    6.60    0.38 
   4  -9  -6    2.64    0.21 
   3  -9  -6    0.75    0.12 
  -3   9   6    0.82    0.11 
   2  -9  -6    1.45    0.14 
  -2   9   6    1.07    0.14 
  -1   9   6   10.98    0.51 
   0  -9  -6    3.64    0.22 
   0   9   6    3.29    0.25 
  -1  -9  -6    7.37    0.34 
   1   9   6    6.73    0.42 
   2   9   6    1.26    0.20 
   3   9   6    2.98    0.30 
   4   9   6   10.46    0.58 
   4   9   6   11.71    0.63 
   5   9   6    2.34    0.29 
   5   9   6    2.35    0.31 
   6   9   6    0.91    0.21 
   6   9   6    0.63    0.19 
   7   9   6    0.91    0.24 
   7   9   6    0.93    0.24 
   8 -10  -6    0.10    0.14 
   8 -10  -6    0.00    0.11 
   7 -10  -6    0.33    0.16 
   7 -10  -6    0.67    0.16 
   6 -10  -6    1.06    0.18 
   6 -10  -6    0.94    0.19 
   5 -10  -6    1.73    0.20 
   4 -10  -6   19.45    0.81 
   3 -10  -6    5.78    0.33 
  -3  10   6    6.40    0.31 
   2 -10  -6    0.68    0.11 
  -2  10   6    0.72    0.12 
  -1  10   6    2.60    0.21 
   0  10   6    4.83    0.31 
  -1 -10  -6    4.62    0.25 
   1  10   6    4.70    0.33 
   2  10   6    0.02    0.09 
   3  10   6   19.29    0.90 
   4  10   6    2.54    0.31 
   4  10   6    2.82    0.30 
   5  10   6    2.63    0.33 
   5  10   6    2.64    0.31 
   6  10   6    0.81    0.21 
   6  10   6    0.95    0.22 
   7  10   6    2.50    0.35 
   7  10   6    2.41    0.35 
   8 -11  -6    0.23    0.14 
   8 -11  -6    0.40    0.18 
   7 -11  -6    0.22    0.16 
   7 -11  -6    0.31    0.13 
   6 -11  -6    0.00    0.09 
   5 -11  -6    1.33    0.18 
   4 -11  -6    3.70    0.27 
   3 -11  -6    0.74    0.13 
   2 -11  -6   33.36    1.20 
  -2  11   6   29.72    1.18 
  -1  11   6    0.23    0.10 
   0  11   6    2.04    0.22 
  -1 -11  -6    0.48    0.10 
   1  11   6    0.46    0.14 
   2  11   6    5.94    0.40 
   3  11   6    2.27    0.29 
   4  11   6    6.50    0.46 
   5  11   6    0.24    0.13 
   5  11   6    0.37    0.15 
   6  11   6    9.98    0.65 
   6  11   6   10.25    0.63 
  -7 -11  -6    0.08    0.17 
   7  11   6    0.35    0.20 
   8 -12  -6    0.80    0.20 
   8 -12  -6    0.62    0.21 
   7 -12  -6    0.39    0.14 
   7 -12  -6    0.25    0.17 
   6 -12  -6    4.81    0.35 
   5 -12  -6    0.42    0.13 
   4 -12  -6    7.19    0.40 
   3 -12  -6    1.13    0.16 
   2 -12  -6   17.63    0.72 
  -2  12   6   16.66    0.72 
  -1  12   6    1.89    0.20 
   0  12   6    0.02    0.08 
   1  12   6    1.64    0.23 
   2  12   6    1.50    0.24 
   3  12   6   12.27    0.67 
   4  12   6    0.03    0.10 
   5  12   6    0.04    0.11 
   6  12   6    1.48    0.28 
   6  12   6    1.67    0.29 
  -7 -12  -6    1.93    0.33 
   7  12   6    1.98    0.34 
   8 -13  -6    0.10    0.14 
   8 -13  -6    0.55    0.19 
   7 -13  -6    0.35    0.15 
   6 -13  -6    0.37    0.13 
   5 -13  -6   -0.04    0.08 
   4 -13  -6    0.03    0.09 
   3 -13  -6    1.97    0.20 
   2 -13  -6    4.52    0.28 
  -2  13   6    4.06    0.28 
  -1  13   6    2.89    0.26 
   0  13   6   37.79    1.47 
   1  13   6    0.05    0.11 
   2  13   6    8.97    0.54 
   3  13   6    2.00    0.29 
   4  13   6    0.42    0.15 
   5  13   6    0.40    0.16 
  -6 -13  -6    2.37    0.34 
   8 -14  -6    0.06    0.19 
   8 -14  -6    0.58    0.19 
   7 -14  -6    0.49    0.16 
   6 -14  -6    2.02    0.25 
   5 -14  -6    4.49    0.33 
   4 -14  -6   -0.05    0.07 
   3 -14  -6    8.25    0.44 
   2 -14  -6    3.64    0.24 
   2 -14  -6    3.91    0.27 
  -1  14   6    0.88    0.16 
   0  14   6    3.20    0.30 
   1  14   6    4.98    0.38 
   2  14   6    0.44    0.16 
   3  14   6    0.38    0.16 
   4  14   6    0.30    0.15 
  -5 -14  -6    1.40    0.27 
  -6 -14  -6    1.11    0.26 
   7 -15  -6    0.71    0.18 
   6 -15  -6    0.52    0.15 
   5 -15  -6    3.68    0.31 
   4 -15  -6    6.52    0.40 
   3 -15  -6    0.03    0.08 
   2 -15  -6    0.19    0.09 
   2 -15  -6    0.16    0.07 
   1 -15  -6    0.07    0.09 
   0  15   6   11.28    0.60 
   1  15   6    0.06    0.13 
   2  15   6    3.23    0.34 
   3  15   6    0.04    0.11 
  -4 -15  -6    4.67    0.42 
  -5 -15  -6    0.19    0.14 
  -6 -15  -6    1.24    0.26 
   7 -16  -6    0.20    0.15 
   6 -16  -6    0.65    0.16 
   5 -16  -6    0.13    0.10 
   4 -16  -6    1.42    0.21 
   3 -16  -6    1.48    0.20 
   2 -16  -6    5.32    0.35 
   1 -16  -6    2.26    0.23 
   0 -16  -6   12.62    0.62 
  -1 -16  -6    0.16    0.13 
  -2 -16  -6    0.35    0.15 
  -3 -16  -6   -0.02    0.12 
  -4 -16  -6   -0.18    0.11 
  -5 -16  -6    1.94    0.31 
  -6 -16  -6    0.62    0.21 
   7 -17  -6    0.25    0.15 
   6 -17  -6    0.02    0.11 
   5 -17  -6    1.88    0.26 
   4 -17  -6    0.04    0.10 
   3 -17  -6    2.51    0.26 
   2 -17  -6    2.32    0.24 
   1 -17  -6   22.11    0.93 
   0 -17  -6    3.36    0.30 
  -1 -17  -6    4.46    0.34 
  -2 -17  -6    0.32    0.16 
  -3 -17  -6    4.76    0.39 
  -4 -17  -6    0.19    0.14 
  -5 -17  -6    0.15    0.15 
   7 -18  -6    0.08    0.14 
   6 -18  -6    4.28    0.39 
   5 -18  -6    0.17    0.12 
   4 -18  -6    0.69    0.15 
   3 -18  -6    0.26    0.12 
   2 -18  -6    0.07    0.07 
   1 -18  -6    0.20    0.12 
   0 -18  -6    6.40    0.42 
  -1 -18  -6    1.32    0.22 
  -2 -18  -6   14.04    0.73 
  -3 -18  -6    0.18    0.13 
  -4 -18  -6   -0.10    0.12 
  -5 -18  -6   -0.01    0.16 
   6 -19  -6    1.14    0.23 
   5 -19  -6    4.69    0.38 
   4 -19  -6   -0.06    0.09 
   3 -19  -6    4.98    0.37 
   2 -19  -6    3.99    0.31 
   1 -19  -6    1.28    0.21 
   1 -19  -6    1.17    0.20 
   0 -19  -6    1.92    0.25 
  -1 -19  -6    0.19    0.13 
  -2 -19  -6   -0.01    0.11 
  -3 -19  -6    4.43    0.43 
  -4 -19  -6    0.06    0.16 
  -5 -19  -6    0.06    0.18 
   6 -20  -6    0.22    0.15 
   5 -20  -6    0.36    0.15 
   4 -20  -6    2.44    0.29 
   3 -20  -6    9.96    0.57 
   2 -20  -6    0.19    0.11 
   1 -20  -6    4.96    0.36 
   1 -20  -6    4.83    0.35 
   0 -20  -6    0.12    0.10 
  -1 -20  -6    0.19    0.13 
  -2 -20  -6    1.06    0.23 
  -3 -20  -6    1.52    0.29 
  -4 -20  -6    0.05    0.17 
   6 -21  -6    0.40    0.20 
   5 -21  -6    0.41    0.17 
   4 -21  -6    1.60    0.26 
   3 -21  -6    0.21    0.13 
   2 -21  -6    0.87    0.18 
   1 -21  -6    0.72    0.17 
   0 -21  -6    0.51    0.17 
  -1 -21  -6    1.78    0.28 
  -2 -21  -6    0.02    0.14 
  -3 -21  -6    0.50    0.21 
  -4 -21  -6   -0.16    0.17 
   5 -22  -6    0.00    0.14 
   4 -22  -6    2.41    0.32 
   3 -22  -6    0.22    0.14 
   2 -22  -6    0.69    0.18 
   1 -22  -6    0.46    0.16 
   0 -22  -6    7.18    0.48 
  -1 -22  -6    0.40    0.18 
  -2 -22  -6    2.15    0.33 
  -3 -22  -6    0.72    0.23 
  -4 -22  -6    0.17    0.21 
   4 -23  -6   -0.01    0.14 
   3 -23  -6    3.95    0.39 
   2 -23  -6    1.57    0.26 
   1 -23  -6    0.11    0.13 
   0 -23  -6   -0.04    0.12 
  -1 -23  -6    4.75    0.44 
  -2 -23  -6    0.70    0.23 
  -3 -23  -6    4.07    0.47 
   4 -24  -6    1.28    0.27 
   3 -24  -6    1.18    0.24 
   2 -24  -6    0.35    0.16 
   1 -24  -6    1.16    0.24 
   0 -24  -6    0.12    0.16 
  -1 -24  -6    0.27    0.18 
  -2 -24  -6    0.17    0.18 
   3 -25  -6    0.23    0.17 
   2 -25  -6    2.92    0.35 
   1 -25  -6    1.02    0.23 
  -1 -25  -6    0.07    0.17 
   1 -26  -6    0.99    0.25 
  -1 -25   7    3.97    0.44 
  -3 -24   7    0.74    0.24 
  -2 -24   7    0.64    0.24 
  -1 -24   7    0.56    0.20 
   0 -24   7    1.87    0.31 
   1 -24   7    0.82    0.22 
  -4 -23   7    3.68    0.43 
  -3 -23   7    1.21    0.28 
  -2 -23   7    3.51    0.40 
  -1 -23   7    0.00    0.14 
   0 -23   7    5.18    0.43 
   1 -23   7    0.29    0.16 
   2 -23   7    0.44    0.19 
  -4 -22   7    1.11    0.25 
  -3 -22   7    5.53    0.45 
  -2 -22   7    0.18    0.15 
  -1 -22   7    4.35    0.41 
   0 -22   7    1.21    0.25 
   1 -22   7    1.09    0.23 
   2 -22   7    0.72    0.21 
   3 -22   7    0.23    0.20 
  -5 -21   7   -0.01    0.17 
  -4 -21   7    0.25    0.17 
  -3 -21   7    0.14    0.16 
  -2 -21   7    0.00    0.10 
  -1 -21   7    0.81    0.20 
   0 -21   7    1.84    0.29 
   1 -21   7    1.04    0.22 
   2 -21   7    1.27    0.24 
   3 -21   7   -0.06    0.13 
  -5 -20   7    0.15    0.16 
  -4 -20   7    0.83    0.22 
  -3 -20   7    0.87    0.22 
  -2 -20   7    0.69    0.18 
  -1 -20   7    0.26    0.12 
   0 -20   7    2.46    0.31 
   1 -20   7    0.25    0.13 
   2 -20   7    7.76    0.51 
   3 -20   7    1.01    0.22 
  -6 -19   7    1.60    0.29 
  -5 -19   7    1.38    0.27 
  -4 -19   7    4.01    0.39 
  -3 -19   7    1.05    0.22 
  -2 -19   7    1.64    0.26 
  -1 -19   7    0.15    0.12 
   0 -19   7    0.66    0.17 
   1 -19   7    3.20    0.34 
   2 -19   7    0.73    0.18 
   3 -19   7    0.01    0.12 
  -6 -18   7    0.12    0.16 
  -5 -18   7    0.25    0.17 
  -4 -18   7    4.29    0.40 
  -3 -18   7    2.53    0.31 
  -2 -18   7    0.44    0.15 
  -1 -18   7    1.24    0.22 
   0 -18   7    1.21    0.21 
   1 -18   7    2.40    0.29 
   2 -18   7    2.31    0.29 
   3 -18   7   -0.03    0.10 
  -7 -17   7    0.14    0.18 
  -6 -17   7    0.05    0.15 
  -5 -17   7    1.54    0.25 
  -4 -17   7    9.78    0.58 
  -3 -17   7    3.21    0.34 
  -2 -17   7    1.80    0.27 
  -1 -17   7    9.74    0.57 
   0 -17   7    0.13    0.12 
   1 -17   7    0.31    0.12 
   2 -17   7    1.30    0.23 
   3 -17   7    1.02    0.20 
   4 -17   7    2.44    0.30 
  -7 -16   7   -0.02    0.16 
  -6 -16   7    4.71    0.42 
  -5 -16   7   -0.01    0.12 
  -4 -16   7    9.95    0.58 
  -3 -16   7    0.46    0.17 
  -2 -16   7    5.76    0.41 
  -1 -16   7    3.65    0.34 
   0 -16   7    4.71    0.36 
   1 -16   7   -0.05    0.08 
   2 -16   7    2.15    0.27 
   3 -16   7    0.04    0.10 
   4 -16   7    0.15    0.13 
  -7 -15   7    2.01    0.31 
  -6 -15   7    0.39    0.16 
  -5 -15   7    6.07    0.44 
  -4 -15   7    2.08    0.27 
  -3 -15   7   10.87    0.60 
  -2 -15   7    2.82    0.30 
  -1 -15   7   23.61    1.03 
   0 -15   7    0.33    0.13 
   1 -15   7    4.68    0.35 
   2 -15   7    1.23    0.22 
   3 -15   7    5.49    0.39 
   4 -15   7    3.44    0.34 
  -7 -14   7    1.83    0.29 
  -6 -14   7    0.53    0.18 
  -5 -14   7    1.15    0.22 
  -4 -14   7    0.34    0.15 
  -3 -14   7   47.20    1.82 
  -2 -14   7   30.86    1.26 
  -1 -14   7   14.18    0.70 
   0 -14   7    9.84    0.54 
   1 -14   7    3.52    0.32 
   2 -14   7    4.61    0.34 
   3 -14   7    3.56    0.33 
   4 -14   7    0.84    0.19 
   7  13  -7    0.01    0.17 
  -7 -13   7    0.26    0.18 
   6  13  -7    1.69    0.27 
  -6 -13   7    1.89    0.27 
   5  13  -7    1.87    0.28 
  -5 -13   7    1.90    0.26 
  -4 -13   7   17.92    0.83 
  -3 -13   7    0.22    0.13 
  -2 -13   7    7.09    0.44 
  -1 -13   7    2.65    0.28 
   0 -13   7    4.19    0.33 
   1 -13   7   12.17    0.63 
   2 -13   7    0.42    0.13 
   3 -13   7    0.00    0.08 
   4 -13   7    1.52    0.24 
   5 -13   7    0.98    0.21 
   7  12  -7    0.99    0.24 
  -7 -12   7    0.89    0.23 
   6  12  -7    1.85    0.28 
  -6 -12   7    1.74    0.26 
   5  12  -7   -0.03    0.12 
  -5 -12   7    0.24    0.12 
   4  12  -7   -0.01    0.13 
  -4 -12   7    0.10    0.10 
  -3 -12   7   10.15    0.54 
  -2 -12   7    0.79    0.17 
  -1 -12   7    1.89    0.24 
   0 -12   7   41.13    1.58 
   1 -12   7    1.21    0.20 
   2 -12   7   18.29    0.84 
   3 -12   7    0.56    0.15 
   4 -12   7    0.28    0.13 
   5 -12   7    2.03    0.27 
   7  11  -7    0.97    0.23 
   6  11  -7   -0.05    0.13 
  -6 -11   7    0.13    0.12 
   5  11  -7   16.82    0.82 
  -5 -11   7   16.78    0.78 
   4  11  -7    9.35    0.55 
  -4 -11   7   10.41    0.54 
   3  11  -7   19.36    0.88 
  -3 -11   7   18.73    0.84 
  -2 -11   7    1.47    0.21 
  -1 -11   7   27.41    1.12 
   0 -11   7   -0.01    0.08 
   1 -11   7   45.85    1.74 
   2 -11   7    0.74    0.17 
   3 -11   7    7.26    0.44 
   4 -11   7    2.04    0.26 
   5 -11   7    0.22    0.12 
   7  10  -7   -0.11    0.13 
   6  10  -7    0.41    0.17 
  -6 -10   7    0.29    0.13 
   5  10  -7    0.18    0.13 
  -5 -10   7    0.08    0.11 
   4  10  -7    2.61    0.29 
  -4 -10   7    2.91    0.28 
   3  10  -7   16.99    0.79 
  -3 -10   7   16.55    0.75 
   2  10  -7    2.08    0.26 
  -2 -10   7    2.94    0.27 
  -1 -10   7    4.47    0.32 
   0 -10   7   14.43    0.68 
   1 -10   7    4.67    0.33 
   2 -10   7   27.62    1.14 
   3 -10   7    8.75    0.50 
   4 -10   7    0.18    0.11 
   5 -10   7    2.15    0.27 
   7   9  -7   -0.18    0.11 
   6   9  -7    1.86    0.27 
  -6  -9   7    2.72    0.27 
   5   9  -7    0.07    0.12 
  -5  -9   7   -0.03    0.09 
   4   9  -7    5.50    0.38 
  -4  -9   7    4.86    0.34 
   3   9  -7    4.64    0.36 
  -3  -9   7    4.52    0.32 
   2   9  -7   31.66    1.30 
  -2  -9   7   33.46    1.28 
  -1  -9   7    3.76    0.29 
   0  -9   7    1.81    0.22 
   1  -9   7    2.17    0.24 
   2  -9   7    0.04    0.08 
   3  -9   7   -0.02    0.08 
   4  -9   7    0.41    0.14 
   4  -9   7    0.63    0.15 
   5  -9   7    0.62    0.16 
   7   8  -7   -0.05    0.13 
   6   8  -7    0.32    0.15 
  -6  -8   7    0.39    0.12 
   5   8  -7    0.14    0.13 
  -5  -8   7   -0.05    0.09 
   4   8  -7    0.14    0.12 
  -4  -8   7    0.09    0.10 
   3   8  -7   32.76    1.31 
  -3  -8   7   33.30    1.28 
   2   8  -7    4.72    0.34 
  -2  -8   7    4.79    0.32 
   1   8  -7    7.41    0.44 
  -1  -8   7    7.94    0.43 
   0  -8   7    2.44    0.24 
   1  -8   7    0.07    0.09 
   2  -8   7   -0.10    0.07 
   3  -8   7    2.36    0.19 
   3  -8   7    2.56    0.26 
   4  -8   7   13.16    0.62 
   4  -8   7   12.93    0.66 
   5  -8   7    0.96    0.18 
   5  -8   7    0.87    0.18 
   6  -8   7    3.61    0.35 
   8   7  -7    0.23    0.19 
   7   7  -7    0.92    0.22 
   6   7  -7    0.18    0.12 
  -6  -7   7    0.33    0.13 
   5   7  -7    4.81    0.37 
  -5  -7   7    4.97    0.33 
   4   7  -7    0.68    0.17 
  -4  -7   7    0.47    0.13 
   3   7  -7    0.35    0.14 
  -3  -7   7    0.44    0.13 
   2   7  -7    0.06    0.10 
  -2  -7   7   -0.07    0.08 
   1   7  -7    7.11    0.42 
  -1  -7   7    7.02    0.40 
   0  -7   7    5.32    0.34 
   1  -7   7   10.86    0.54 
   2  -7   7    0.27    0.07 
   2  -7   7    0.19    0.09 
   3  -7   7    9.75    0.52 
   3  -7   7    9.05    0.44 
   4  -7   7    0.19    0.11 
   4  -7   7    0.20    0.11 
   5  -7   7    5.69    0.40 
   5  -7   7    5.23    0.36 
   6  -7   7    0.97    0.21 
   6  -7   7    0.99    0.21 
   8   6  -7   -0.16    0.13 
   7   6  -7    0.22    0.14 
   6   6  -7    0.44    0.15 
  -6  -6   7    0.25    0.13 
   5   6  -7    0.23    0.13 
  -5  -6   7   -0.03    0.09 
   4   6  -7    0.01    0.10 
  -4  -6   7    0.05    0.09 
   3   6  -7   -0.02    0.09 
  -3  -6   7    0.09    0.08 
   2   6  -7    4.05    0.29 
  -2  -6   7    4.07    0.27 
   1   6  -7   23.39    0.95 
  -1  -6   7   22.16    0.93 
   0   6  -7   18.88    0.81 
   0  -6   7   19.54    0.82 
   1  -6   7    3.47    0.26 
   2  -6   7    0.32    0.11 
   2  -6   7    0.26    0.07 
   3  -6   7    1.20    0.14 
   3  -6   7    1.21    0.20 
   4  -6   7    0.03    0.09 
   4  -6   7    0.06    0.09 
   5  -6   7    0.10    0.11 
   5  -6   7    0.00    0.11 
   6  -6   7    0.20    0.12 
   6  -6   7    0.03    0.13 
   8   5  -7    0.01    0.15 
   7   5  -7    0.44    0.16 
   6   5  -7    0.01    0.11 
   5   5  -7    0.84    0.18 
  -5  -5   7    0.64    0.13 
   4   5  -7    0.19    0.11 
  -4  -5   7    0.04    0.07 
   3   5  -7    0.04    0.09 
  -3  -5   7    0.09    0.07 
   2   5  -7    8.00    0.44 
  -2  -5   7    8.48    0.43 
   1   5  -7    0.27    0.10 
  -1  -5   7    0.02    0.06 
   0   5  -7   14.11    0.61 
   0  -5   7   12.20    0.60 
   1  -5   7    3.33    0.26 
   2  -5   7    0.01    0.05 
   2  -5   7    0.07    0.08 
   3  -5   7    5.93    0.37 
   3  -5   7    5.41    0.30 
   4  -5   7    0.74    0.14 
   4  -5   7    0.40    0.13 
   5  -5   7    6.40    0.42 
   5  -5   7    5.85    0.38 
   6  -5   7    0.49    0.15 
   6  -5   7    0.11    0.14 
   7  -5   7    0.20    0.18 
   8   4  -7    0.34    0.16 
   7   4  -7    0.02    0.13 
   6   4  -7    0.94    0.20 
   5   4  -7   -0.11    0.10 
  -5  -4   7    0.19    0.08 
   4   4  -7    1.39    0.21 
  -4  -4   7    1.17    0.15 
   3   4  -7    0.04    0.09 
  -3  -4   7    0.03    0.06 
   2   4  -7   22.55    0.93 
  -2  -4   7   22.94    0.91 
   1   4  -7   11.28    0.52 
  -1  -4   7   10.13    0.50 
   0   4  -7    1.58    0.18 
   0  -4   7    1.32    0.17 
   1  -4   7    0.16    0.09 
   2  -4   7   16.43    0.65 
   2  -4   7   17.54    0.77 
   3  -4   7    2.42    0.26 
   3  -4   7    2.39    0.18 
   4  -4   7    2.90    0.29 
   4  -4   7    2.47    0.23 
   5  -4   7   -0.12    0.10 
   5  -4   7    0.04    0.10 
   6  -4   7    0.22    0.12 
   6  -4   7    0.13    0.13 
   7  -4   7    0.60    0.20 
   8   3  -7    0.08    0.14 
   7   3  -7   -0.10    0.11 
   6   3  -7    1.19    0.21 
   5   3  -7    3.75    0.24 
   5   3  -7    3.42    0.31 
   4   3  -7    1.03    0.18 
  -4  -3   7    1.09    0.15 
   3   3  -7    0.45    0.13 
  -3  -3   7    0.60    0.12 
   2   3  -7    0.74    0.14 
  -2  -3   7    0.73    0.13 
   1   3  -7    0.03    0.06 
  -1  -3   7   -0.02    0.05 
   0   3  -7    7.15    0.38 
   0  -3   7    7.50    0.40 
  -1   3  -7    2.41    0.21 
   1  -3   7    2.25    0.13 
   1  -3   7    2.29    0.23 
   2  -3   7   56.05    2.03 
   2  -3   7   54.61    1.93 
   3  -3   7    1.45    0.21 
   3  -3   7    1.47    0.15 
   4  -3   7    7.51    0.45 
   4  -3   7    6.18    0.37 
   5  -3   7    5.82    0.40 
   5  -3   7    5.29    0.36 
   6  -3   7    0.05    0.12 
   6  -3   7    0.16    0.11 
   7  -3   7    1.65    0.27 
   8   2  -7    0.06    0.14 
   7   2  -7    0.48    0.17 
   6   2  -7    5.28    0.34 
   6   2  -7    5.92    0.40 
   5   2  -7    0.00    0.10 
   5   2  -7    0.24    0.08 
  -5  -2   7    0.16    0.08 
   4   2  -7    8.73    0.47 
   4   2  -7    8.68    0.38 
  -4  -2   7    8.21    0.41 
   3   2  -7    7.52    0.43 
  -3  -2   7    8.06    0.40 
   2   2  -7    3.83    0.27 
  -2  -2   7    3.82    0.25 
   1   2  -7    0.90    0.14 
  -1  -2   7    1.28    0.16 
   0   2  -7    2.35    0.20 
   0  -2   7    2.52    0.21 
  -1   2  -7    1.79    0.18 
   1  -2   7    1.85    0.11 
   1  -2   7    1.88    0.21 
   2  -2   7   10.21    0.43 
   2  -2   7    9.98    0.53 
   3  -2   7    4.07    0.24 
   3  -2   7    3.63    0.30 
   4  -2   7   -0.03    0.10 
   4  -2   7   -0.06    0.08 
   5  -2   7    2.15    0.24 
   5  -2   7    2.60    0.30 
   6  -2   7    0.78    0.18 
   6  -2   7    0.94    0.20 
   7  -2   7    0.61    0.20 
   7  -2   7    0.58    0.19 
   8   1  -7    0.03    0.14 
   7   1  -7    1.30    0.21 
   7   1  -7    1.60    0.25 
   6   1  -7    0.16    0.10 
   6   1  -7    0.05    0.11 
   5   1  -7    4.12    0.26 
   5   1  -7    4.16    0.31 
  -5  -1   7    3.69    0.24 
   4   1  -7   14.66    0.60 
   4   1  -7   15.29    0.69 
   3   1  -7    0.74    0.15 
  -3  -1   7    0.95    0.13 
   2   1  -7   14.92    0.67 
  -2  -1   7   16.05    0.66 
   1   1  -7   11.05    0.52 
  -1  -1   7   11.30    0.52 
   0   1  -7    1.57    0.16 
   0  -1   7    1.40    0.17 
  -1   1  -7    2.33    0.19 
   1  -1   7    2.00    0.12 
   1  -1   7    1.76    0.21 
   2  -1   7    6.34    0.39 
   2  -1   7    6.36    0.31 
   3  -1   7    0.10    0.06 
   3  -1   7   -0.07    0.07 
   4  -1   7   34.19    1.35 
   4  -1   7   32.02    1.27 
   5  -1   7    1.01    0.20 
   5  -1   7    0.84    0.17 
   6  -1   7    2.93    0.33 
   6  -1   7    3.59    0.33 
   7  -1   7    1.62    0.27 
   7  -1   7    1.46    0.26 
   8   0  -7   -0.05    0.14 
   7   0  -7    0.97    0.21 
   7   0  -7    1.44    0.21 
   6   0  -7   -0.01    0.08 
   6   0  -7   -0.06    0.09 
   5   0  -7    1.30    0.20 
   5   0  -7    1.22    0.15 
   4   0  -7   -0.02    0.05 
   4   0  -7   -0.04    0.09 
  -4   0   7    0.05    0.06 
   3   0  -7   18.49    0.81 
   3   0  -7   19.36    0.70 
  -3   0   7   19.31    0.76 
   2   0  -7    0.00    0.06 
  -2   0   7    0.06    0.06 
   1   0  -7    7.24    0.38 
  -1   0   7    7.35    0.38 
   0   0  -7   -0.03    0.06 
   0   0   7    0.06    0.06 
  -1   0  -7    4.96    0.28 
   1   0   7    4.03    0.30 
   1   0   7    4.84    0.22 
   2   0   7   -0.01    0.07 
   2   0   7    0.02    0.05 
   3   0   7    9.01    0.42 
   4   0   7   -0.02    0.11 
   4   0   7   -0.16    0.09 
   5   0   7    0.89    0.19 
   5   0   7    0.90    0.18 
   6   0   7    0.12    0.13 
   6   0   7    0.07    0.11 
   7   0   7    1.19    0.24 
   7   0   7    1.43    0.26 
   9  -1  -7    0.02    0.17 
   8  -1  -7    0.12    0.15 
   7  -1  -7    1.55    0.24 
   7  -1  -7    1.29    0.19 
   6  -1  -7    0.23    0.10 
   6  -1  -7   -0.04    0.10 
   5  -1  -7    3.80    0.24 
   5  -1  -7    3.79    0.30 
   4  -1  -7   14.52    0.58 
   4  -1  -7   14.29    0.66 
  -4   1   7   13.83    0.59 
   3  -1  -7    1.01    0.09 
   3  -1  -7    0.70    0.15 
  -3   1   7    0.99    0.13 
   2  -1  -7   14.28    0.65 
   2  -1  -7   16.11    0.55 
  -2   1   7   14.84    0.64 
   1  -1  -7   10.50    0.48 
  -1   1   7   10.26    0.49 
   0  -1  -7    1.57    0.16 
   0   1   7    1.41    0.17 
  -1  -1  -7    2.42    0.18 
   1   1   7    1.80    0.21 
  -2  -1  -7    6.69    0.33 
   2   1   7    6.24    0.40 
   2   1   7    6.77    0.32 
   3   1   7    0.04    0.04 
   3   1   7    0.00    0.09 
   4   1   7   34.52    1.35 
   4   1   7   36.06    1.43 
   5   1   7    0.85    0.17 
   5   1   7    0.83    0.18 
   6   1   7    3.09    0.31 
   6   1   7    3.20    0.34 
   7   1   7    1.42    0.26 
   7   1   7    1.36    0.25 
   9  -2  -7    0.11    0.17 
   8  -2  -7    0.26    0.14 
   8  -2  -7    0.10    0.13 
   7  -2  -7    0.62    0.15 
   7  -2  -7    0.28    0.15 
   6  -2  -7    5.30    0.38 
   6  -2  -7    5.26    0.33 
   5  -2  -7    0.20    0.08 
   5  -2  -7   -0.01    0.11 
   4  -2  -7    8.72    0.40 
   4  -2  -7    8.52    0.47 
  -4   2   7    8.75    0.40 
   3  -2  -7    8.58    0.36 
   3  -2  -7    8.93    0.46 
   2  -2  -7    3.88    0.17 
   2  -2  -7    3.43    0.25 
  -2   2   7    4.26    0.25 
   1  -2  -7    1.17    0.07 
   1  -2  -7    0.90    0.14 
  -1   2   7    0.97    0.14 
   0  -2  -7    2.31    0.18 
   0   2   7    2.21    0.21 
  -1  -2  -7    1.86    0.16 
   1   2   7    1.65    0.21 
  -2  -2  -7   10.25    0.45 
   2   2   7    9.62    0.44 
   2   2   7   10.38    0.54 
   3   2   7    3.72    0.31 
   4   2   7   -0.06    0.10 
   4   2   7    0.05    0.10 
   5   2   7    3.13    0.33 
   5   2   7    2.39    0.26 
   6   2   7    0.79    0.19 
   6   2   7    1.30    0.23 
   7   2   7    1.04    0.22 
   7   2   7    1.08    0.24 
   9  -3  -7    0.21    0.16 
   8  -3  -7    0.02    0.13 
   8  -3  -7    0.19    0.12 
   7  -3  -7    0.01    0.09 
   7  -3  -7   -0.17    0.09 
   6  -3  -7    1.50    0.19 
   6  -3  -7    1.32    0.22 
   5  -3  -7    3.81    0.25 
   5  -3  -7    3.82    0.31 
   4  -3  -7    1.29    0.19 
   4  -3  -7    1.31    0.13 
  -4   3   7    1.22    0.13 
   3  -3  -7    0.55    0.14 
   3  -3  -7    0.51    0.08 
   2  -3  -7    0.68    0.07 
   2  -3  -7    0.48    0.13 
  -2   3   7    0.60    0.11 
   1  -3  -7    0.01    0.06 
   1  -3  -7    0.05    0.03 
  -1   3   7   -0.03    0.05 
   0  -3  -7    8.25    0.38 
   0   3   7    7.19    0.40 
  -1  -3  -7    2.38    0.18 
  -1  -3  -7    2.40    0.18 
   1   3   7    1.94    0.22 
  -2  -3  -7   52.84    1.85 
   2   3   7   54.09    1.89 
   2   3   7   52.03    1.97 
   3   3   7    1.28    0.21 
   3   3   7    1.27    0.16 
   4   3   7    6.76    0.40 
   4   3   7    7.05    0.46 
   5   3   7    4.89    0.36 
   5   3   7    5.47    0.41 
   6   3   7   -0.01    0.09 
   6   3   7    0.19    0.13 
   7   3   7    1.23    0.26 
   7   3   7    1.29    0.26 
   9  -4  -7   -0.01    0.15 
   8  -4  -7    0.01    0.13 
   8  -4  -7    0.36    0.13 
   7  -4  -7   -0.02    0.09 
   7  -4  -7    0.18    0.14 
   6  -4  -7    0.67    0.17 
   6  -4  -7    0.73    0.14 
   5  -4  -7   -0.07    0.10 
   5  -4  -7    0.13    0.07 
   4  -4  -7    1.20    0.13 
   4  -4  -7    1.05    0.18 
  -4   4   7    1.17    0.13 
   3  -4  -7    0.05    0.05 
   3  -4  -7   -0.02    0.08 
  -3   4   7    0.01    0.05 
   2  -4  -7   23.84    0.86 
   2  -4  -7   23.51    0.95 
  -2   4   7   24.30    0.93 
   1  -4  -7   10.74    0.48 
   1  -4  -7   10.13    0.40 
  -1   4   7   10.41    0.49 
   0  -4  -7    1.76    0.16 
   0   4   7    1.46    0.18 
  -1  -4  -7    0.13    0.07 
   1   4   7    0.33    0.12 
  -2  -4  -7   17.08    0.65 
   2   4   7   15.01    0.75 
   2   4   7   16.89    0.68 
   3   4   7    2.63    0.28 
   3   4   7    2.29    0.21 
   4   4   7    2.41    0.29 
   4   4   7    2.73    0.26 
   5   4   7    0.08    0.12 
   5   4   7    0.01    0.10 
   6   4   7    0.02    0.13 
   6   4   7    0.16    0.12 
   7   4   7    0.45    0.19 
   7   4   7    0.76    0.22 
   9  -5  -7   -0.03    0.14 
   8  -5  -7    0.37    0.16 
   8  -5  -7    0.04    0.11 
   7  -5  -7    0.08    0.13 
   7  -5  -7    0.22    0.12 
   6  -5  -7   -0.02    0.08 
   6  -5  -7    0.15    0.11 
   5  -5  -7    0.92    0.18 
   5  -5  -7    0.75    0.13 
   4  -5  -7   -0.01    0.09 
   4  -5  -7    0.00    0.06 
   3  -5  -7   -0.03    0.04 
   3  -5  -7    0.05    0.10 
  -3   5   7   -0.02    0.05 
   2  -5  -7    8.11    0.41 
   2  -5  -7    7.66    0.34 
  -2   5   7    7.95    0.40 
   1  -5  -7    0.21    0.08 
   1  -5  -7    0.17    0.05 
  -1   5   7    0.13    0.08 
   0  -5  -7   14.97    0.62 
   0   5   7   14.54    0.66 
  -1  -5  -7    3.29    0.21 
   1   5   7    3.56    0.28 
   2   5   7   -0.05    0.09 
   3   5   7    5.63    0.39 
   3   5   7    5.50    0.33 
   4   5   7    0.84    0.17 
   4   5   7    0.64    0.16 
   5   5   7    6.62    0.47 
   5   5   7    6.58    0.43 
   6   5   7    0.03    0.14 
   6   5   7    0.17    0.11 
   7   5   7    0.02    0.15 
   7   5   7    0.02    0.14 
   9  -6  -7    0.31    0.18 
   9  -6  -7    0.37    0.20 
   8  -6  -7    0.32    0.16 
   8  -6  -7    0.37    0.15 
   7  -6  -7    0.21    0.10 
   7  -6  -7   -0.14    0.12 
   6  -6  -7    0.41    0.13 
   6  -6  -7    0.50    0.16 
   5  -6  -7    0.00    0.11 
   5  -6  -7    0.07    0.08 
   4  -6  -7   -0.11    0.07 
   4  -6  -7    0.00    0.06 
   3  -6  -7    0.40    0.09 
   3  -6  -7    0.05    0.09 
  -3   6   7    0.13    0.07 
   2  -6  -7    3.84    0.21 
   2  -6  -7    4.07    0.28 
  -2   6   7    4.11    0.26 
   1  -6  -7   25.18    0.92 
   1  -6  -7   25.80    0.98 
  -1   6   7   24.13    0.99 
   0  -6  -7   20.73    0.80 
   0   6   7   19.67    0.85 
  -1  -6  -7    3.69    0.23 
   1   6   7    4.00    0.30 
   2   6   7    0.34    0.13 
   3   6   7    1.13    0.16 
   3   6   7    1.04    0.20 
   4   6   7    0.03    0.10 
   4   6   7   -0.03    0.07 
   5   6   7    0.31    0.14 
   5   6   7    0.08    0.11 
   6   6   7    0.03    0.13 
   6   6   7    0.16    0.13 
   7   6   7    0.38    0.19 
   7   6   7    0.22    0.16 
   8  -7  -7    0.03    0.11 
   8  -7  -7    0.21    0.14 
   7  -7  -7    1.48    0.21 
   7  -7  -7    1.05    0.22 
   6  -7  -7    0.33    0.15 
   6  -7  -7    0.27    0.11 
   5  -7  -7    4.86    0.31 
   5  -7  -7    4.69    0.34 
   4  -7  -7    0.53    0.11 
   4  -7  -7    0.75    0.16 
   3  -7  -7    0.45    0.10 
   3  -7  -7    0.46    0.13 
  -3   7   7    0.58    0.11 
   2  -7  -7   -0.05    0.08 
   2  -7  -7    0.04    0.05 
  -2   7   7    0.00    0.07 
   1  -7  -7    6.86    0.37 
   1  -7  -7    6.99    0.32 
  -1   7   7    6.66    0.38 
   0  -7  -7    5.66    0.31 
   0   7   7    6.41    0.37 
  -1  -7  -7   10.34    0.45 
   1   7   7   10.69    0.55 
   2   7   7    0.14    0.11 
   3   7   7    8.82    0.48 
   3   7   7    9.14    0.53 
   4   7   7    0.41    0.14 
   4   7   7    0.30    0.14 
   5   7   7    6.12    0.44 
   5   7   7    4.97    0.38 
   6   7   7    1.12    0.24 
   6   7   7    1.32    0.24 
   7   7   7    0.15    0.17 
   7   7   7   -0.06    0.15 
   8  -8  -7    0.62    0.20 
   8  -8  -7    0.68    0.18 
   7  -8  -7    0.08    0.13 
   7  -8  -7    0.09    0.10 
   6  -8  -7    0.27    0.13 
   6  -8  -7    0.32    0.12 
   5  -8  -7    0.09    0.11 
   5  -8  -7    0.04    0.08 
   4  -8  -7    0.13    0.08 
   4  -8  -7    0.08    0.11 
   3  -8  -7   32.77    1.23 
   3  -8  -7   33.64    1.29 
  -3   8   7   33.46    1.22 
   2  -8  -7    4.43    0.24 
   2  -8  -7    4.55    0.30 
  -2   8   7    4.16    0.27 
   1  -8  -7    6.80    0.33 
   1  -8  -7    7.02    0.37 
  -1   8   7    7.05    0.39 
   0  -8  -7    2.37    0.19 
   0   8   7    2.25    0.23 
  -1  -8  -7    0.04    0.06 
   1   8   7    0.04    0.10 
   2   8   7   -0.02    0.08 
   3   8   7    2.90    0.32 
   4   8   7   11.74    0.62 
   4   8   7   12.00    0.66 
   5   8   7    1.02    0.22 
   5   8   7    1.45    0.24 
   6   8   7    3.85    0.38 
   6   8   7    3.54    0.40 
   7   8   7    0.42    0.20 
   7   8   7    0.64    0.21 
   8  -9  -7    0.42    0.18 
   8  -9  -7    0.58    0.16 
   7  -9  -7    0.02    0.13 
   7  -9  -7    0.07    0.10 
   6  -9  -7    2.89    0.26 
   6  -9  -7    2.12    0.27 
   5  -9  -7   -0.02    0.07 
   5  -9  -7   -0.04    0.09 
   4  -9  -7    6.39    0.34 
   4  -9  -7    5.72    0.38 
   3  -9  -7    4.87    0.33 
   3  -9  -7    4.84    0.28 
  -3   9   7    4.36    0.27 
   2  -9  -7   33.14    1.21 
   2  -9  -7   30.72    1.15 
  -2   9   7   29.15    1.17 
   1  -9  -7    3.62    0.25 
  -1   9   7    4.06    0.28 
   0  -9  -7    1.56    0.16 
   0   9   7    1.83    0.22 
  -1  -9  -7    2.06    0.16 
   1   9   7    1.90    0.24 
   2   9   7   -0.14    0.09 
   3   9   7    0.19    0.12 
   4   9   7    0.32    0.14 
   4   9   7    0.18    0.13 
   5   9   7    0.71    0.19 
   5   9   7    0.46    0.18 
   6   9   7    1.02    0.24 
   6   9   7    1.23    0.25 
   7   9   7   -0.05    0.17 
   7   9   7    0.25    0.18 
   8 -10  -7    0.10    0.13 
   8 -10  -7    0.47    0.18 
   7 -10  -7    0.02    0.12 
   7 -10  -7    0.08    0.10 
   6 -10  -7    0.24    0.12 
   6 -10  -7    0.24    0.13 
   5 -10  -7    0.16    0.12 
   5 -10  -7   -0.07    0.07 
   4 -10  -7    3.04    0.23 
   4 -10  -7    3.11    0.29 
   3 -10  -7   16.30    0.70 
   3 -10  -7   17.89    0.77 
   2 -10  -7    2.58    0.23 
   2 -10  -7    2.63    0.19 
  -2  10   7    1.69    0.19 
   1 -10  -7    3.86    0.27 
  -1  10   7    4.31    0.29 
   0 -10  -7   13.51    0.59 
   0  10   7   13.98    0.67 
  -1 -10  -7    5.18    0.29 
   1  10   7    5.23    0.37 
   2  10   7   24.01    1.06 
   3  10   7    7.64    0.50 
   4  10   7   -0.01    0.10 
   5  10   7    3.14    0.33 
   5  10   7    2.87    0.36 
   6  10   7    0.49    0.19 
   6  10   7    0.43    0.18 
   8 -11  -7    0.26    0.16 
   8 -11  -7    0.33    0.15 
   7 -11  -7    1.09    0.23 
   7 -11  -7    1.22    0.21 
   6 -11  -7    0.20    0.09 
   6 -11  -7    0.21    0.12 
   5 -11  -7   15.11    0.76 
   5 -11  -7   16.33    0.72 
   4 -11  -7   10.37    0.51 
   3 -11  -7   19.55    0.81 
   2 -11  -7    1.47    0.16 
   1 -11  -7   27.63    1.07 
  -1  11   7   26.76    1.09 
   0 -11  -7   -0.05    0.06 
   0  11   7    0.00    0.09 
  -1 -11  -7   39.61    1.44 
   1  11   7   40.10    1.57 
   2  11   7    0.67    0.18 
   3  11   7    5.86    0.43 
   4  11   7    1.64    0.28 
   5  11   7   -0.11    0.10 
   6  11   7   -0.05    0.14 
   6  11   7   -0.04    0.13 
   8 -12  -7    1.35    0.27 
   8 -12  -7    1.12    0.23 
   7 -12  -7    1.25    0.22 
   7 -12  -7    1.03    0.23 
   6 -12  -7    1.96    0.24 
   6 -12  -7    1.48    0.25 
   5 -12  -7   -0.03    0.09 
   4 -12  -7   -0.09    0.08 
   3 -12  -7   11.05    0.53 
   2 -12  -7    0.67    0.12 
  -2  12   7    0.12    0.07 
  -1  12   7    2.14    0.23 
   0 -12  -7   37.48    1.41 
   0  12   7   39.30    1.51 
  -1 -12  -7    0.89    0.12 
   1  12   7    0.99    0.20 
   2  12   7   16.97    0.84 
   3  12   7    0.68    0.20 
   4  12   7    0.36    0.16 
   5  12   7    1.55    0.28 
   6  12   7    1.49    0.32 
   8 -13  -7    2.07    0.30 
   8 -13  -7    1.95    0.32 
   7 -13  -7    0.07    0.11 
   7 -13  -7    0.33    0.17 
   6 -13  -7    1.59    0.22 
   6 -13  -7    1.24    0.24 
   5 -13  -7    1.73    0.21 
   4 -13  -7   16.24    0.73 
   3 -13  -7    0.22    0.11 
   2 -13  -7    7.38    0.40 
  -1  13   7    2.75    0.27 
   0  13   7    3.69    0.33 
   1  13   7   12.11    0.65 
   2  13   7    0.29    0.14 
   3  13   7    0.01    0.11 
   4  13   7    0.91    0.22 
   5  13   7    1.08    0.24 
   6  13   7    1.19    0.29 
   7 -14  -7    2.27    0.29 
   7 -14  -7    2.43    0.33 
   6 -14  -7    0.39    0.12 
   5 -14  -7    1.27    0.20 
   4 -14  -7    0.15    0.10 
   3 -14  -7   48.43    1.81 
   2 -14  -7   33.85    1.31 
  -1  14   7   14.96    0.71 
   0  14   7   10.29    0.57 
   1  14   7    3.72    0.36 
   2  14   7    5.35    0.42 
   3  14   7    3.48    0.38 
   4  14   7    0.68    0.21 
   5  14   7    8.57    0.61 
  -6 -14  -7    0.23    0.19 
   7 -15  -7    1.50    0.24 
   7 -15  -7    1.44    0.28 
   6 -15  -7    0.05    0.10 
   5 -15  -7    5.37    0.38 
   4 -15  -7    2.04    0.23 
   3 -15  -7    9.86    0.52 
   2 -15  -7    3.57    0.28 
  -1  15   7   25.13    1.07 
   0  15   7    0.13    0.14 
   1  15   7    4.53    0.40 
   2  15   7    0.88    0.22 
   3  15   7    4.97    0.46 
   4  15   7    3.38    0.41 
  -5 -15  -7    0.34    0.17 
   7 -16  -7   -0.04    0.11 
   6 -16  -7    4.84    0.37 
   5 -16  -7    0.02    0.10 
   4 -16  -7    9.50    0.52 
   3 -16  -7    0.32    0.11 
   2 -16  -7    6.01    0.38 
   1 -16  -7    3.06    0.28 
   0  16   7    3.92    0.36 
   1  16   7    0.08    0.11 
   2  16   7    2.15    0.32 
   3  16   7    0.07    0.14 
  -4 -16  -7    0.13    0.15 
  -5 -16  -7   -0.01    0.12 
   7 -17  -7   -0.08    0.12 
   6 -17  -7    0.06    0.11 
   5 -17  -7    1.01    0.20 
   4 -17  -7   10.67    0.58 
   3 -17  -7    3.39    0.28 
   2 -17  -7    2.30    0.25 
   1 -17  -7    9.59    0.52 
   1 -17  -7   10.06    0.53 
   0 -17  -7    0.14    0.11 
  -1 -17  -7   -0.07    0.09 
  -2 -17  -7    1.07    0.23 
  -3 -17  -7    0.94    0.23 
  -4 -17  -7    2.42    0.35 
  -5 -17  -7   -0.04    0.16 
   6 -18  -7    0.11    0.13 
   5 -18  -7    0.35    0.14 
   4 -18  -7    4.93    0.36 
   3 -18  -7    2.56    0.27 
   2 -18  -7    0.81    0.17 
   1 -18  -7    1.25    0.19 
   1 -18  -7    1.21    0.20 
   0 -18  -7    1.42    0.22 
  -1 -18  -7    1.88    0.26 
  -2 -18  -7    1.89    0.28 
  -3 -18  -7   -0.05    0.14 
  -4 -18  -7    0.45    0.20 
  -5 -18  -7    2.15    0.35 
   6 -19  -7    1.15    0.24 
   5 -19  -7    1.16    0.22 
   4 -19  -7    5.26    0.39 
   3 -19  -7    1.14    0.20 
   2 -19  -7    1.90    0.25 
   1 -19  -7    0.00    0.11 
   1 -19  -7   -0.03    0.10 
   0 -19  -7    0.77    0.18 
  -1 -19  -7    2.65    0.31 
  -2 -19  -7    0.69    0.20 
  -3 -19  -7    0.02    0.15 
  -4 -19  -7    0.95    0.26 
   5 -20  -7    0.03    0.11 
   4 -20  -7    0.96    0.19 
   3 -20  -7    0.97    0.19 
   2 -20  -7    0.75    0.18 
   1 -20  -7    0.33    0.13 
   0 -20  -7    2.10    0.28 
  -1 -20  -7    0.31    0.14 
  -2 -20  -7    6.20    0.47 
  -3 -20  -7    0.98    0.26 
  -4 -20  -7   -0.17    0.17 
   5 -21  -7   -0.14    0.13 
   4 -21  -7    0.20    0.14 
   3 -21  -7    0.47    0.15 
   2 -21  -7    0.13    0.12 
   1 -21  -7    0.69    0.18 
   0 -21  -7    1.89    0.27 
  -1 -21  -7    1.09    0.23 
  -2 -21  -7    0.84    0.23 
  -3 -21  -7    0.11    0.18 
   4 -22  -7    0.94    0.21 
   3 -22  -7    5.82    0.43 
   2 -22  -7   -0.10    0.10 
   1 -22  -7    4.56    0.37 
   0 -22  -7    1.39    0.26 
  -1 -22  -7    0.98    0.24 
  -2 -22  -7    0.80    0.24 
  -3 -22  -7    0.35    0.23 
   4 -23  -7    3.30    0.37 
   3 -23  -7    0.86    0.21 
   2 -23  -7    3.50    0.36 
   1 -23  -7   -0.04    0.13 
   0 -23  -7    5.75    0.46 
  -1 -23  -7    0.18    0.19 
  -2 -23  -7    0.45    0.23 
   3 -24  -7    0.85    0.22 
   2 -24  -7    0.35    0.18 
   1 -24  -7    0.91    0.23 
  -1 -24  -7    0.72    0.25 
   1 -25  -7    4.27    0.41 
  -3 -23   8    0.89    0.24 
  -2 -23   8   -0.18    0.15 
  -1 -23   8    6.36    0.51 
   0 -23   8    0.12    0.18 
   1 -23   8    9.70    0.65 
  -4 -22   8   -0.14    0.15 
  -3 -22   8    1.45    0.29 
  -2 -22   8    2.56    0.37 
  -1 -22   8    0.10    0.15 
   0 -22   8    2.09    0.33 
   1 -22   8    0.27    0.17 
   2 -22   8    0.06    0.17 
  -4 -21   8    0.80    0.25 
  -3 -21   8    0.22    0.15 
  -2 -21   8    0.88    0.23 
  -1 -21   8    1.21    0.26 
   0 -21   8    0.05    0.15 
   1 -21   8    0.81    0.21 
   2 -21   8    0.06    0.16 
  -5 -20   8    1.08    0.28 
  -4 -20   8    0.01    0.15 
  -3 -20   8    7.38    0.52 
  -2 -20   8    0.35    0.15 
  -1 -20   8    0.94    0.21 
   0 -20   8    0.52    0.18 
   1 -20   8    2.52    0.33 
   2 -20   8    0.39    0.16 
   3 -20   8    4.60    0.43 
  -5 -19   8    0.72    0.22 
  -4 -19   8    2.58    0.34 
  -3 -19   8    0.36    0.17 
  -2 -19   8    1.43    0.26 
  -1 -19   8    2.32    0.31 
   0 -19   8    0.10    0.12 
   1 -19   8    4.43    0.41 
   2 -19   8   -0.12    0.10 
   3 -19   8    0.51    0.19 
  -6 -18   8    0.15    0.18 
  -5 -18   8    0.06    0.16 
  -4 -18   8    0.35    0.18 
  -3 -18   8    0.00    0.11 
  -2 -18   8    0.66    0.19 
  -1 -18   8    0.17    0.13 
   0 -18   8    9.59    0.58 
   1 -18   8    0.88    0.21 
   2 -18   8    0.20    0.14 
   3 -18   8    0.25    0.14 
   4 -18   8   -0.06    0.16 
  -6 -17   8    0.16    0.18 
  -5 -17   8    0.11    0.14 
  -4 -17   8    0.06    0.14 
  -3 -17   8   -0.11    0.10 
  -2 -17   8    3.92    0.37 
  -1 -17   8    3.75    0.37 
   0 -17   8    0.21    0.12 
   1 -17   8    7.71    0.50 
   2 -17   8    0.16    0.12 
   3 -17   8    0.07    0.11 
   4 -17   8    0.05    0.15 
  -6 -16   8    1.33    0.26 
  -5 -16   8   -0.09    0.12 
  -4 -16   8    4.84    0.39 
  -3 -16   8    0.07    0.13 
  -2 -16   8    7.79    0.50 
  -1 -16   8    2.44    0.30 
   0 -16   8    0.33    0.13 
   1 -16   8    1.53    0.25 
   2 -16   8    0.54    0.16 
   3 -16   8    0.54    0.16 
   4 -16   8    0.92    0.22 
  -7 -15   8    1.50    0.29 
  -6 -15   8    0.05    0.13 
  -5 -15   8    0.08    0.12 
  -4 -15   8   -0.03    0.12 
  -3 -15   8    0.53    0.17 
  -2 -15   8    4.87    0.38 
  -1 -15   8    0.27    0.14 
   0 -15   8    1.47    0.23 
   1 -15   8    0.64    0.17 
   2 -15   8    6.92    0.46 
   3 -15   8    0.24    0.12 
   4 -15   8    0.44    0.16 
  -7 -14   8    0.94    0.25 
  -6 -14   8    0.18    0.16 
  -5 -14   8    1.80    0.27 
  -4 -14   8    5.54    0.40 
  -3 -14   8    1.37    0.24 
  -2 -14   8   -0.08    0.11 
  -1 -14   8    7.77    0.48 
   0 -14   8    0.45    0.15 
   1 -14   8    1.22    0.21 
   2 -14   8    0.33    0.13 
   3 -14   8    3.70    0.35 
   4 -14   8    0.35    0.16 
   7  13  -8    0.39    0.20 
   6  13  -8    0.13    0.16 
  -6 -13   8    0.01    0.13 
   5  13  -8    0.25    0.16 
  -5 -13   8    0.32    0.15 
  -4 -13   8    2.11    0.27 
  -3 -13   8    0.71    0.19 
  -2 -13   8    3.76    0.34 
  -1 -13   8    1.48    0.23 
   0 -13   8    8.84    0.52 
   1 -13   8    6.79    0.44 
   2 -13   8    0.40    0.13 
   3 -13   8    0.14    0.10 
   4 -13   8    0.81    0.19 
   5 -13   8    0.51    0.20 
   7  12  -8    0.06    0.17 
   6  12  -8    0.14    0.15 
  -6 -12   8    0.22    0.15 
   5  12  -8   -0.12    0.12 
  -5 -12   8    0.08    0.13 
   4  12  -8    3.28    0.35 
  -4 -12   8    2.86    0.30 
  -3 -12   8    0.97    0.19 
  -2 -12   8    1.48    0.23 
  -1 -12   8    1.02    0.20 
   0 -12   8    9.47    0.54 
   1 -12   8    1.13    0.20 
   2 -12   8    0.99    0.18 
   3 -12   8   -0.08    0.09 
   4 -12   8    1.04    0.21 
   5 -12   8    2.42    0.30 
   7  11  -8    0.21    0.17 
   6  11  -8   -0.03    0.14 
  -6 -11   8   -0.13    0.11 
   5  11  -8    1.61    0.26 
  -5 -11   8    1.37    0.23 
   4  11  -8   19.30    0.92 
  -4 -11   8   19.30    0.87 
   3  11  -8    0.36    0.16 
  -3 -11   8    0.46    0.15 
  -2 -11   8    4.52    0.34 
  -1 -11   8    2.07    0.26 
   0 -11   8    5.54    0.38 
   1 -11   8    2.19    0.26 
   2 -11   8    0.06    0.08 
   3 -11   8    0.07    0.10 
   4 -11   8    6.07    0.43 
   5 -11   8    0.20    0.13 
   8  10  -8   -0.01    0.20 
   7  10  -8    1.39    0.28 
   6  10  -8    4.30    0.40 
  -6 -10   8    5.32    0.37 
   5  10  -8    2.99    0.33 
  -5 -10   8    3.72    0.30 
   4  10  -8    0.95    0.22 
  -4 -10   8    1.26    0.21 
   3  10  -8    9.80    0.56 
  -3 -10   8    9.74    0.53 
   2  10  -8    4.02    0.33 
  -2 -10   8    3.89    0.30 
  -1 -10   8    0.52    0.16 
   0 -10   8    8.37    0.48 
   1 -10   8   -0.01    0.09 
   2 -10   8    7.69    0.47 
   3 -10   8    0.85    0.18 
   4 -10   8    0.06    0.10 
   5 -10   8    2.03    0.28 
   8   9  -8    0.13    0.18 
   7   9  -8   -0.15    0.11 
   6   9  -8    0.13    0.14 
  -6  -9   8    0.23    0.13 
   5   9  -8    0.03    0.12 
  -5  -9   8    0.02    0.11 
   4   9  -8    4.27    0.35 
  -4  -9   8    4.74    0.34 
   3   9  -8    0.14    0.13 
  -3  -9   8    0.42    0.14 
   2   9  -8    1.35    0.22 
  -2  -9   8    1.63    0.22 
  -1  -9   8    9.50    0.52 
   0  -9   8    1.83    0.23 
   1  -9   8    9.03    0.51 
   2  -9   8    9.27    0.52 
   3  -9   8    0.96    0.19 
   4  -9   8    2.15    0.28 
   5  -9   8    0.93    0.21 
   8   8  -8    0.44    0.21 
   7   8  -8    0.23    0.17 
   6   8  -8    4.20    0.38 
  -6  -8   8    4.12    0.32 
   5   8  -8    0.80    0.20 
  -5  -8   8    1.00    0.19 
   4   8  -8    1.29    0.22 
  -4  -8   8    1.40    0.21 
   3   8  -8    6.93    0.45 
  -3  -8   8    7.34    0.42 
   2   8  -8    0.58    0.16 
  -2  -8   8    0.61    0.16 
   1   8  -8   23.27    0.99 
  -1  -8   8   22.47    0.97 
   0  -8   8    8.16    0.46 
   1  -8   8    0.53    0.14 
   2  -8   8    7.75    0.47 
   3  -8   8    3.72    0.34 
   4  -8   8    0.03    0.11 
   5  -8   8    1.66    0.26 
   6  -8   8    0.90    0.23 
   8   7  -8    0.26    0.19 
   7   7  -8    0.11    0.16 
   6   7  -8    0.21    0.15 
  -6  -7   8    0.10    0.12 
   5   7  -8    0.10    0.13 
  -5  -7   8   -0.09    0.09 
   4   7  -8   12.08    0.63 
  -4  -7   8   12.03    0.59 
   3   7  -8    2.09    0.25 
  -3  -7   8    2.39    0.24 
   2   7  -8   27.30    1.14 
  -2  -7   8   28.09    1.13 
   1   7  -8    1.21    0.20 
  -1  -7   8    1.25    0.20 
   0  -7   8    0.71    0.16 
   1  -7   8    7.39    0.44 
   2  -7   8   16.98    0.79 
   3  -7   8    4.58    0.35 
   4  -7   8   16.76    0.82 
   5  -7   8    0.96    0.21 
   6  -7   8    0.78    0.20 
   8   6  -8    0.87    0.25 
   7   6  -8   -0.04    0.14 
   6   6  -8    3.27    0.34 
   5   6  -8    1.98    0.26 
  -5  -6   8    2.58    0.25 
   4   6  -8    6.79    0.45 
  -4  -6   8    7.68    0.42 
   3   6  -8   22.25    0.96 
  -3  -6   8   22.39    0.93 
   2   6  -8    6.96    0.43 
  -2  -6   8    7.61    0.43 
   1   6  -8    3.93    0.31 
  -1  -6   8    3.30    0.29 
   0   6  -8    1.52    0.20 
   0  -6   8    1.26    0.20 
   1  -6   8    4.78    0.34 
   2  -6   8    0.80    0.17 
   3  -6   8   10.18    0.56 
   4  -6   8    0.47    0.15 
   5  -6   8    5.41    0.41 
   6  -6   8    0.36    0.15 
   8   5  -8    0.68    0.21 
   7   5  -8    5.95    0.45 
   6   5  -8    0.35    0.16 
   5   5  -8   10.49    0.58 
  -5  -5   8   10.57    0.53 
   4   5  -8    5.45    0.39 
  -4  -5   8    5.28    0.34 
   3   5  -8    8.31    0.47 
  -3  -5   8    8.04    0.44 
   2   5  -8    2.33    0.25 
  -2  -5   8    2.48    0.24 
   1   5  -8   48.28    1.79 
  -1  -5   8   48.11    1.79 
   0   5  -8   18.13    0.80 
   0  -5   8   18.12    0.80 
   1  -5   8   23.04    0.98 
   2  -5   8    2.31    0.26 
   3  -5   8    0.54    0.15 
   4  -5   8    1.71    0.26 
   5  -5   8    0.04    0.10 
   6  -5   8    0.63    0.18 
   8   4  -8    0.85    0.23 
   7   4  -8    0.74    0.22 
   6   4  -8    3.49    0.35 
   5   4  -8    4.69    0.37 
  -5  -4   8    4.23    0.30 
   4   4  -8    4.75    0.35 
  -4  -4   8    5.56    0.34 
   3   4  -8    0.07    0.10 
  -3  -4   8    0.03    0.09 
   2   4  -8   21.09    0.90 
  -2  -4   8   20.96    0.88 
   1   4  -8   13.28    0.63 
  -1  -4   8   13.02    0.62 
   0   4  -8   12.38    0.61 
   0  -4   8   14.10    0.64 
   1  -4   8    8.34    0.47 
   2  -4   8   18.41    0.84 
   3  -4   8    4.85    0.36 
   4  -4   8    5.00    0.38 
   5  -4   8    0.85    0.20 
   6  -4   8    1.40    0.24 
   8   3  -8    0.25    0.17 
   7   3  -8   -0.02    0.12 
   6   3  -8    1.07    0.22 
   5   3  -8    7.22    0.46 
  -5  -3   8    6.82    0.38 
   4   3  -8    3.50    0.32 
  -4  -3   8    3.54    0.25 
   3   3  -8    0.04    0.10 
  -3  -3   8    0.15    0.08 
   2   3  -8   35.03    1.34 
  -2  -3   8   33.81    1.32 
   1   3  -8   10.32    0.52 
  -1  -3   8    9.77    0.51 
   0   3  -8    3.25    0.25 
   0  -3   8    2.70    0.26 
  -1   3  -8    0.30    0.11 
   1  -3   8    0.70    0.16 
   2  -3   8    3.32    0.30 
   3  -3   8    9.48    0.54 
   4  -3   8    0.34    0.13 
   5  -3   8    0.24    0.12 
   6  -3   8    0.24    0.14 
   8   2  -8    0.63    0.21 
   7   2  -8    0.21    0.16 
   6   2  -8    0.29    0.14 
   4   2  -8    0.35    0.13 
  -4  -2   8    0.33    0.10 
   3   2  -8    7.95    0.45 
  -3  -2   8    7.75    0.41 
   2   2  -8    0.44    0.14 
  -2  -2   8    0.64    0.13 
   1   2  -8   26.29    1.05 
  -1  -2   8   26.71    1.06 
   0   2  -8   10.57    0.51 
   0  -2   8   10.71    0.54 
  -1   2  -8   29.19    1.12 
   1  -2   8   28.34    1.17 
   2  -2   8    1.59    0.22 
   3  -2   8   30.56    1.27 
   4  -2   8    0.50    0.15 
   5  -2   8    0.90    0.20 
   6  -2   8    1.74    0.27 
   7  -2   8    0.98    0.25 
   9   1  -8   -0.18    0.17 
   8   1  -8    0.44    0.18 
   7   1  -8    2.81    0.32 
   6   1  -8    1.30    0.23 
   5   1  -8   -0.03    0.10 
   4   1  -8    0.00    0.10 
  -4  -1   8    0.15    0.08 
   3   1  -8   -0.11    0.08 
  -3  -1   8   -0.02    0.06 
   2   1  -8   18.16    0.78 
  -2  -1   8   17.85    0.76 
   1   1  -8   10.12    0.52 
  -1  -1   8   11.12    0.53 
   0   1  -8    5.66    0.33 
   0  -1   8    5.45    0.36 
  -1   1  -8   62.15    2.17 
   1  -1   8   59.62    2.22 
   2  -1   8    3.68    0.33 
   3  -1   8    9.53    0.55 
   4  -1   8   -0.07    0.08 
   5  -1   8    0.56    0.16 
   6  -1   8    0.96    0.22 
   7  -1   8    0.32    0.18 
   9   0  -8    0.33    0.19 
   8   0  -8    2.54    0.33 
   7   0  -8    0.01    0.14 
   6   0  -8   -0.04    0.11 
   5   0  -8    0.02    0.09 
   4   0  -8    3.06    0.28 
  -4   0   8    2.37    0.20 
   3   0  -8   -0.04    0.08 
  -3   0   8   -0.02    0.05 
   2   0  -8    3.11    0.26 
  -2   0   8    3.71    0.26 
   1   0  -8   -0.16    0.06 
  -1   0   8   -0.08    0.07 
   0   0  -8    9.11    0.45 
   0   0   8    9.04    0.49 
  -1   0  -8   -0.14    0.07 
   1   0   8   -0.08    0.10 
   2   0   8   12.53    0.64 
   3   0   8    0.03    0.11 
   4   0   8    0.32    0.12 
   5   0   8    0.14    0.11 
   6   0   8    0.10    0.12 
   7   0   8   -0.04    0.15 
   9  -1  -8    0.30    0.19 
   8  -1  -8    0.39    0.17 
   7  -1  -8    2.84    0.33 
   6  -1  -8    1.33    0.23 
   5  -1  -8    0.04    0.11 
   4  -1  -8    0.04    0.10 
  -4   1   8   -0.07    0.04 
   3  -1  -8    0.06    0.10 
  -3   1   8    0.00    0.06 
   2  -1  -8   18.08    0.79 
  -2   1   8   18.87    0.78 
   1  -1  -8   10.93    0.53 
  -1   1   8   11.66    0.55 
   0  -1  -8    5.80    0.34 
   0   1   8    6.20    0.38 
  -1  -1  -8   60.80    2.18 
   1   1   8   63.62    2.28 
  -2  -1  -8    4.34    0.27 
   2   1   8    3.90    0.32 
   3   1   8    8.42    0.51 
   4   1   8   -0.02    0.09 
   5   1   8    0.30    0.13 
   6   1   8    0.90    0.21 
   7   1   8    0.57    0.20 
   8  -2  -8    0.74    0.20 
   7  -2  -8    0.10    0.14 
   6  -2  -8    0.30    0.13 
   5  -2  -8    4.56    0.35 
   4  -2  -8    0.13    0.11 
  -4   2   8    0.25    0.08 
   3  -2  -8    7.34    0.43 
  -3   2   8    7.52    0.39 
   2  -2  -8    0.42    0.13 
  -2   2   8    0.71    0.13 
   1  -2  -8   27.30    1.07 
  -1   2   8   27.28    1.08 
   0  -2  -8   11.34    0.53 
   0   2   8   11.96    0.58 
  -1  -2  -8   28.86    1.12 
   1   2   8   31.13    1.23 
  -2  -2  -8    1.58    0.16 
   2   2   8    1.46    0.23 
   3   2   8   28.78    1.22 
   4   2   8    0.47    0.16 
   5   2   8    0.92    0.21 
   6   2   8    1.14    0.23 
   7   2   8    0.84    0.25 
   8  -3  -8   -0.02    0.13 
   7  -3  -8    0.20    0.13 
   6  -3  -8    0.78    0.19 
   5  -3  -8    7.03    0.45 
   4  -3  -8    3.54    0.31 
  -4   3   8    3.78    0.24 
   3  -3  -8    0.18    0.10 
  -3   3   8    0.18    0.08 
   2  -3  -8   37.23    1.38 
  -2   3   8   34.73    1.35 
   1  -3  -8   10.31    0.50 
  -1   3   8   10.02    0.51 
   0  -3  -8    3.44    0.24 
   0   3   8    2.92    0.27 
  -1  -3  -8    0.54    0.11 
   1   3   8    0.42    0.15 
   2   3   8    3.25    0.31 
   3   3   8    9.65    0.56 
   4   3   8    0.10    0.11 
   5   3   8    0.17    0.12 
   6   3   8    0.35    0.17 
   8  -4  -8    1.16    0.24 
   7  -4  -8    0.60    0.18 
   6  -4  -8    3.48    0.34 
   5  -4  -8    4.95    0.37 
   4  -4  -8    4.47    0.33 
   3  -4  -8    0.08    0.10 
  -3   4   8    0.00    0.06 
   2  -4  -8   20.09    0.84 
  -2   4   8   19.78    0.83 
   1  -4  -8   13.71    0.62 
  -1   4   8   13.55    0.63 
   0  -4  -8   12.91    0.58 
   0   4   8   13.76    0.65 
  -1  -4  -8    8.02    0.39 
   1   4   8    8.12    0.48 
   2   4   8   17.82    0.83 
   3   4   8    4.14    0.37 
   4   4   8    4.14    0.39 
   4   4   8    4.79    0.34 
   5   4   8    0.57    0.17 
   6   4   8    1.36    0.25 
   8  -5  -8    0.46    0.19 
   7  -5  -8    5.70    0.43 
   6  -5  -8    0.05    0.12 
   5  -5  -8    9.28    0.53 
   4  -5  -8    5.33    0.37 
   2  -5  -8    2.80    0.26 
  -2   5   8    2.72    0.23 
   1  -5  -8   47.34    1.72 
  -1   5   8   47.05    1.75 
   0  -5  -8   17.15    0.71 
   0   5   8   16.97    0.77 
  -1  -5  -8   21.95    0.85 
   1   5   8   21.48    0.95 
   2   5   8    2.65    0.30 
   3   5   8    0.35    0.14 
   3   5   8    0.10    0.06 
   4   5   8    1.56    0.25 
   4   5   8    1.74    0.22 
   5   5   8    0.12    0.12 
   5   5   8    0.13    0.13 
   6   5   8    0.47    0.18 
   8  -6  -8    1.15    0.25 
   7  -6  -8    0.07    0.15 
   6  -6  -8    2.93    0.32 
   5  -6  -8    2.58    0.28 
   4  -6  -8    7.37    0.45 
   3  -6  -8   22.32    0.93 
  -3   6   8   21.30    0.87 
   2  -6  -8    6.85    0.40 
  -2   6   8    6.92    0.38 
   1  -6  -8    2.96    0.24 
  -1   6   8    3.53    0.27 
   0  -6  -8    1.36    0.16 
   0   6   8    1.30    0.20 
  -1  -6  -8    4.94    0.28 
   1   6   8    5.09    0.36 
   2   6   8    1.08    0.22 
   3   6   8    9.85    0.58 
   3   6   8    9.48    0.50 
   4   6   8    0.45    0.15 
   4   6   8    0.49    0.16 
   5   6   8    4.90    0.38 
   5   6   8    5.16    0.42 
   6   6   8    0.46    0.18 
   8  -7  -8    0.27    0.17 
   7  -7  -8    0.00    0.13 
   6  -7  -8    0.04    0.13 
   5  -7  -8    0.09    0.12 
   4  -7  -8   13.21    0.66 
   3  -7  -8    2.34    0.26 
  -3   7   8    2.58    0.21 
   2  -7  -8   27.50    1.12 
  -2   7   8   29.02    1.11 
   1  -7  -8    1.81    0.20 
  -1   7   8    1.06    0.18 
   0  -7  -8    0.79    0.13 
   0   7   8    1.04    0.19 
  -1  -7  -8    6.32    0.34 
   1   7   8    7.03    0.44 
   2   7   8   16.37    0.80 
   3   7   8    4.00    0.38 
   4   7   8   16.53    0.77 
   4   7   8   15.26    0.82 
   5   7   8    1.02    0.22 
   5   7   8    1.35    0.23 
   6   7   8    0.61    0.22 
   6   7   8    0.34    0.16 
   8  -8  -8   -0.04    0.14 
   7  -8  -8   -0.13    0.12 
   6  -8  -8    4.81    0.38 
   5  -8  -8    1.06    0.21 
   4  -8  -8    1.20    0.21 
   3  -8  -8    7.07    0.42 
  -3   8   8    7.22    0.38 
   2  -8  -8    0.63    0.10 
   2  -8  -8    0.55    0.14 
  -2   8   8    0.70    0.14 
   1  -8  -8   24.26    0.96 
   1  -8  -8   23.64    0.90 
  -1   8   8   23.48    0.99 
   0  -8  -8    8.59    0.43 
   0   8   8    8.75    0.50 
  -1  -8  -8    0.40    0.10 
   1   8   8    0.19    0.13 
   2   8   8    8.58    0.53 
   3   8   8    3.31    0.36 
   4   8   8   -0.09    0.11 
   4   8   8    0.10    0.12 
   5   8   8    2.13    0.29 
   5   8   8    1.63    0.28 
   6   8   8    0.77    0.23 
   6   8   8    0.85    0.25 
   8  -9  -8    0.20    0.16 
   7  -9  -8    0.10    0.15 
   6  -9  -8    0.21    0.14 
   5  -9  -8    0.01    0.11 
   4  -9  -8    4.61    0.28 
   4  -9  -8    4.32    0.33 
   3  -9  -8    0.29    0.08 
   3  -9  -8    0.20    0.12 
   2  -9  -8    1.31    0.19 
   2  -9  -8    1.76    0.15 
  -2   9   8    1.46    0.19 
   1  -9  -8    9.48    0.48 
   1  -9  -8    9.15    0.42 
  -1   9   8    9.65    0.51 
   0  -9  -8    2.23    0.20 
   0   9   8    2.00    0.25 
  -1  -9  -8    9.39    0.44 
   1   9   8    9.33    0.54 
   2   9   8    9.11    0.55 
   3   9   8    1.68    0.28 
   4   9   8    2.19    0.31 
   5   9   8    0.99    0.23 
   5   9   8    0.76    0.21 
   6   9   8    1.03    0.27 
   6   9   8    0.68    0.21 
   8 -10  -8    0.10    0.16 
   7 -10  -8    1.15    0.24 
   6 -10  -8    4.16    0.38 
   5 -10  -8    3.13    0.25 
   5 -10  -8    3.25    0.32 
   4 -10  -8    0.94    0.15 
   4 -10  -8    0.93    0.19 
   3 -10  -8   10.13    0.54 
   3 -10  -8   10.67    0.48 
   2 -10  -8    3.51    0.28 
   2 -10  -8    4.11    0.24 
  -2  10   8    3.97    0.28 
   1 -10  -8    0.43    0.12 
   1 -10  -8    0.55    0.10 
  -1  10   8    0.33    0.14 
   0 -10  -8    8.55    0.43 
   0  10   8    8.34    0.49 
   1  10   8    0.02    0.11 
   2  10   8    8.57    0.54 
   3  10   8    1.02    0.22 
   4  10   8    0.21    0.13 
   5  10   8    2.33    0.34 
   6  10   8    0.45    0.22 
   6  10   8    0.45    0.22 
   8 -11  -8   -0.13    0.15 
   7 -11  -8   -0.10    0.14 
   6 -11  -8   -0.05    0.11 
   5 -11  -8    1.28    0.23 
   5 -11  -8    1.11    0.17 
   4 -11  -8   22.39    0.89 
   4 -11  -8   19.45    0.92 
   3 -11  -8    0.52    0.11 
   3 -11  -8    0.48    0.15 
   2 -11  -8    4.14    0.26 
   2 -11  -8    3.71    0.29 
  -2  11   8    4.60    0.30 
   1 -11  -8    2.01    0.18 
   1 -11  -8    2.05    0.21 
  -1  11   8    1.95    0.24 
   0 -11  -8    4.54    0.30 
   0  11   8    5.20    0.37 
   1  11   8    2.00    0.27 
   2  11   8    0.11    0.12 
   3  11   8   -0.04    0.10 
   4  11   8    5.91    0.47 
   5  11   8    0.05    0.13 
   6  11   8    3.83    0.47 
   7 -12  -8   -0.01    0.14 
   6 -12  -8    0.18    0.14 
   6 -12  -8    0.10    0.10 
   5 -12  -8    0.16    0.10 
   5 -12  -8    0.05    0.12 
   4 -12  -8    3.20    0.31 
   4 -12  -8    2.70    0.25 
   3 -12  -8    1.02    0.15 
   3 -12  -8    1.04    0.18 
   2 -12  -8    1.69    0.21 
   2 -12  -8    1.81    0.18 
  -2  12   8    1.81    0.21 
   1 -12  -8    1.04    0.14 
   1 -12  -8    1.09    0.17 
  -1  12   8    1.14    0.20 
   0 -12  -8    8.45    0.43 
   0  12   8    7.99    0.49 
   1  12   8    1.00    0.20 
   2  12   8    1.08    0.22 
   3  12   8    0.05    0.12 
   4  12   8    0.92    0.23 
   5  12   8    2.63    0.38 
   7 -13  -8    0.64    0.21 
   6 -13  -8    0.21    0.11 
   6 -13  -8    0.05    0.12 
   5 -13  -8    0.41    0.16 
   5 -13  -8    0.24    0.12 
   4 -13  -8    1.43    0.24 
   4 -13  -8    2.18    0.22 
   3 -13  -8    0.75    0.14 
   3 -13  -8    0.71    0.18 
   2 -13  -8    4.34    0.28 
   2 -13  -8    3.52    0.29 
  -2  13   8    4.18    0.32 
   1 -13  -8    1.39    0.17 
   1 -13  -8    1.50    0.20 
  -1  13   8    1.39    0.22 
   0 -13  -8    8.14    0.43 
   0  13   8    7.88    0.50 
   1  13   8    6.19    0.44 
   2  13   8    0.27    0.15 
   3  13   8    0.17    0.14 
   4  13   8    0.38    0.18 
   5  13   8    0.50    0.23 
   7 -14  -8    1.37    0.28 
   6 -14  -8    0.14    0.12 
   6 -14  -8   -0.04    0.13 
   5 -14  -8    2.09    0.29 
   5 -14  -8    1.88    0.23 
   4 -14  -8    5.92    0.37 
   4 -14  -8    5.53    0.41 
   3 -14  -8    1.46    0.22 
   3 -14  -8    1.56    0.19 
   2 -14  -8    0.10    0.09 
   2 -14  -8    0.05    0.10 
   1 -14  -8    7.75    0.43 
   1 -14  -8    7.96    0.45 
  -1  14   8    9.09    0.51 
   0 -14  -8    0.55    0.13 
   0  14   8    0.53    0.18 
   1  14   8    1.12    0.22 
   2  14   8    0.52    0.18 
   3  14   8    3.28    0.39 
   4  14   8    0.36    0.19 
   5  14   8    0.93    0.27 
   7 -15  -8    1.20    0.27 
   6 -15  -8    0.25    0.16 
   6 -15  -8   -0.05    0.11 
   5 -15  -8    0.23    0.17 
   5 -15  -8    0.29    0.12 
   4 -15  -8    0.04    0.09 
   3 -15  -8    0.31    0.11 
   2 -15  -8    4.94    0.33 
   1 -15  -8    0.38    0.12 
   1 -15  -8    0.20    0.12 
  -1  15   8    0.42    0.17 
   0 -15  -8    1.05    0.17 
   0  15   8    1.46    0.24 
   1  15   8    0.57    0.18 
   2  15   8    6.68    0.50 
   3  15   8    0.29    0.17 
   4  15   8    0.66    0.23 
   5  15   8    0.47    0.22 
   6 -16  -8    1.32    0.28 
   6 -16  -8    1.17    0.22 
   5 -16  -8    0.12    0.11 
   4 -16  -8    5.37    0.37 
   3 -16  -8    0.00    0.08 
   2 -16  -8    7.89    0.44 
   1 -16  -8    2.60    0.25 
  -1  16   8    2.31    0.29 
   0 -16  -8    0.38    0.14 
   0  16   8    0.39    0.16 
   1  16   8    1.56    0.28 
   2  16   8    0.56    0.20 
   3  16   8    0.33    0.18 
   4  16   8    0.68    0.24 
  -5 -16  -8    0.04    0.16 
   6 -17  -8    0.10    0.13 
   6 -17  -8    0.29    0.20 
   5 -17  -8    0.14    0.12 
   4 -17  -8    0.16    0.11 
   3 -17  -8   -0.05    0.08 
   2 -17  -8    4.53    0.32 
   1 -17  -8    3.53    0.28 
   1 -17  -8    3.42    0.31 
   0  17   8    0.25    0.15 
   1  17   8    8.15    0.56 
   2  17   8    0.03    0.13 
   3  17   8    0.01    0.15 
  -4 -17  -8    0.05    0.17 
   6 -18  -8    0.23    0.16 
   5 -18  -8    0.14    0.13 
   4 -18  -8    0.45    0.15 
   3 -18  -8    0.05    0.09 
   2 -18  -8    0.70    0.16 
   1 -18  -8    0.23    0.12 
   1 -18  -8    0.17    0.11 
   0 -18  -8    9.01    0.53 
  -1 -18  -8    1.38    0.24 
  -2 -18  -8    0.39    0.16 
  -3 -18  -8    0.36    0.19 
  -4 -18  -8    0.16    0.19 
   5 -19  -8    0.45    0.18 
   4 -19  -8    3.53    0.33 
   3 -19  -8    0.33    0.13 
   2 -19  -8    1.45    0.22 
   1 -19  -8    2.18    0.26 
   0 -19  -8    0.15    0.12 
  -1 -19  -8    4.18    0.39 
  -2 -19  -8   -0.08    0.12 
  -3 -19  -8    0.03    0.17 
   5 -20  -8    1.66    0.27 
   4 -20  -8    0.05    0.12 
   3 -20  -8    7.32    0.47 
   2 -20  -8    0.64    0.16 
   1 -20  -8    0.92    0.19 
   0 -20  -8    0.46    0.16 
  -1 -20  -8    2.26    0.30 
  -2 -20  -8    0.24    0.17 
  -3 -20  -8    3.86    0.43 
   4 -21  -8    1.23    0.23 
   3 -21  -8   -0.06    0.11 
   2 -21  -8    1.07    0.21 
   1 -21  -8    1.27    0.22 
   0 -21  -8    0.07    0.14 
  -1 -21  -8    0.47    0.19 
  -2 -21  -8    0.11    0.17 
   4 -22  -8    0.13    0.15 
   3 -22  -8    1.79    0.27 
   2 -22  -8    2.70    0.31 
   1 -22  -8    0.07    0.11 
  -1 -22  -8    0.15    0.19 
  -2 -22  -8   -0.16    0.18 
   3 -23  -8    0.72    0.20 
   2 -23  -8    0.02    0.14 
   1 -23  -8    5.34    0.41 
  -1 -23  -8   10.97    0.70 
  -2 -22   9    0.05    0.17 
  -1 -22   9    0.72    0.24 
   0 -22   9    1.71    0.32 
  -3 -21   9    0.13    0.19 
  -2 -21   9    2.71    0.38 
  -1 -21   9    1.83    0.32 
   0 -21   9    0.32    0.20 
   1 -21   9    1.67    0.32 
  -4 -20   9    0.56    0.22 
  -3 -20   9    0.76    0.23 
  -2 -20   9    0.44    0.19 
  -1 -20   9    0.03    0.14 
   0 -20   9   18.35    0.95 
   1 -20   9    0.27    0.19 
   2 -20   9    0.43    0.21 
  -4 -19   9    1.13    0.26 
  -3 -19   9    0.49    0.21 
  -2 -19   9    0.86    0.23 
  -1 -19   9    2.82    0.36 
   0 -19   9    2.07    0.32 
   1 -19   9    0.51    0.19 
   2 -19   9    4.07    0.43 
  -5 -18   9    0.74    0.21 
  -4 -18   9    0.11    0.15 
  -3 -18   9    3.49    0.39 
  -2 -18   9    0.05    0.14 
  -1 -18   9   -0.06    0.12 
   0 -18   9    0.65    0.19 
   1 -18   9    0.03    0.14 
   2 -18   9    1.21    0.26 
   3 -18   9    4.70    0.45 
  -5 -17   9    2.58    0.35 
  -4 -17   9    2.39    0.33 
  -3 -17   9    0.82    0.21 
  -2 -17   9    2.28    0.31 
  -1 -17   9    0.00    0.12 
   0 -17   9    0.61    0.18 
   1 -17   9    4.31    0.41 
   2 -17   9    5.07    0.42 
   3 -17   9    0.04    0.14 
  -6 -16   9    2.05    0.32 
  -5 -16   9    0.34    0.18 
  -4 -16   9    0.45    0.17 
  -3 -16   9   -0.01    0.13 
  -2 -16   9    0.43    0.17 
  -1 -16   9    1.10    0.21 
   0 -16   9    5.82    0.44 
   1 -16   9    0.62    0.18 
   2 -16   9    0.58    0.17 
   3 -16   9    0.57    0.19 
   4 -16   9    1.06    0.26 
  -6 -15   9    0.22    0.17 
  -5 -15   9    1.09    0.23 
  -4 -15   9    0.91    0.21 
  -3 -15   9    4.59    0.41 
  -2 -15   9    1.75    0.27 
  -1 -15   9    2.72    0.33 
   0 -15   9    0.62    0.18 
   1 -15   9    5.98    0.44 
   2 -15   9    2.50    0.31 
   3 -15   9    0.15    0.14 
   4 -15   9    1.06    0.24 
  -6 -14   9    0.11    0.15 
  -5 -14   9    8.68    0.55 
  -4 -14   9    9.51    0.58 
  -3 -14   9   13.23    0.71 
  -2 -14   9    2.68    0.32 
  -1 -14   9    0.45    0.17 
   0 -14   9    6.30    0.45 
   1 -14   9    4.76    0.38 
   2 -14   9    0.48    0.15 
   3 -14   9    5.55    0.43 
   4 -14   9    0.21    0.15 
   7  13  -9    0.46    0.23 
   6  13  -9    2.55    0.37 
  -6 -13   9    2.53    0.32 
   5  13  -9   -0.02    0.15 
  -5 -13   9   -0.04    0.12 
  -4 -13   9    4.24    0.38 
  -3 -13   9   -0.02    0.13 
  -2 -13   9   10.06    0.58 
  -1 -13   9    4.16    0.38 
   0 -13   9    0.01    0.09 
   1 -13   9    1.55    0.25 
   2 -13   9    4.33    0.36 
   3 -13   9    0.28    0.13 
   4 -13   9    0.57    0.18 
   7  12  -9    0.15    0.20 
   6  12  -9    0.78    0.23 
  -6 -12   9    0.64    0.20 
   5  12  -9    0.38    0.20 
  -5 -12   9    0.58    0.17 
   4  12  -9    0.65    0.21 
  -4 -12   9    0.56    0.18 
  -3 -12   9    5.72    0.41 
  -2 -12   9    4.33    0.35 
  -1 -12   9    0.11    0.13 
   0 -12   9   15.04    0.76 
   1 -12   9    0.20    0.12 
   2 -12   9    0.16    0.13 
   3 -12   9    1.04    0.20 
   4 -12   9    3.08    0.35 
   5 -12   9    0.29    0.19 
   7  11  -9    1.19    0.27 
   6  11  -9    1.77    0.31 
  -6 -11   9    1.65    0.26 
   5  11  -9    3.21    0.37 
  -5 -11   9    3.32    0.33 
   4  11  -9    0.14    0.14 
  -4 -11   9    0.26    0.14 
   3  11  -9    0.83    0.21 
  -3 -11   9    0.48    0.16 
  -2 -11   9    0.02    0.11 
  -1 -11   9   21.61    0.98 
   0 -11   9    0.24    0.13 
   1 -11   9   21.88    0.99 
   2 -11   9    3.35    0.34 
   3 -11   9    0.15    0.13 
   4 -11   9    0.25    0.13 
   5 -11   9    1.53    0.27 
   7  10  -9    0.06    0.18 
   6  10  -9    0.20    0.16 
  -6 -10   9    0.24    0.15 
   5  10  -9    4.20    0.40 
  -5 -10   9    3.70    0.34 
   4  10  -9    1.12    0.24 
  -4 -10   9    0.90    0.20 
   3  10  -9    2.56    0.31 
  -3 -10   9    3.31    0.31 
   2  10  -9    0.10    0.12 
  -2 -10   9   -0.08    0.09 
  -1 -10   9    0.18    0.12 
   0 -10   9   38.90    1.55 
   1 -10   9    7.60    0.48 
   2 -10   9    5.64    0.41 
   3 -10   9    1.94    0.28 
   4 -10   9    2.10    0.30 
   5 -10   9   -0.04    0.12 
   7   9  -9    0.01    0.16 
   6   9  -9    0.34    0.18 
  -6  -9   9    0.34    0.15 
   5   9  -9    0.50    0.19 
  -5  -9   9    0.47    0.15 
   4   9  -9   12.12    0.67 
  -4  -9   9   12.47    0.63 
   3   9  -9    1.09    0.23 
  -3  -9   9    1.10    0.20 
   2   9  -9    7.76    0.49 
  -2  -9   9    7.31    0.46 
  -1  -9   9   -0.04    0.09 
   0  -9   9    3.46    0.33 
   1  -9   9    3.53    0.33 
   2  -9   9    4.41    0.36 
   3  -9   9    0.95    0.20 
   4  -9   9    2.99    0.34 
   5  -9   9    1.16    0.24 
   8   8  -9   -0.12    0.18 
   7   8  -9    0.65    0.22 
   6   8  -9    0.13    0.17 
   5   8  -9    4.23    0.39 
  -5  -8   9    4.21    0.32 
   4   8  -9    0.04    0.11 
  -4  -8   9   -0.07    0.09 
   3   8  -9   13.39    0.69 
  -3  -8   9   12.71    0.65 
   2   8  -9   15.28    0.75 
  -2  -8   9   14.27    0.71 
   1   8  -9   -0.12    0.11 
  -1  -8   9    0.08    0.11 
   0  -8   9    0.44    0.14 
   1  -8   9    0.98    0.20 
   2  -8   9    0.93    0.19 
   3  -8   9    3.79    0.36 
   4  -8   9    1.32    0.23 
   5  -8   9    0.86    0.22 
   8   7  -9    0.42    0.21 
   7   7  -9    0.79    0.23 
   6   7  -9    1.29    0.25 
   5   7  -9    0.03    0.12 
  -5  -7   9    0.05    0.12 
   4   7  -9    2.72    0.30 
  -4  -7   9    2.77    0.28 
   3   7  -9    7.83    0.49 
  -3  -7   9    7.84    0.46 
   2   7  -9    1.45    0.23 
  -2  -7   9    1.66    0.23 
   1   7  -9   27.42    1.16 
  -1  -7   9   28.05    1.16 
   0  -7   9    3.37    0.31 
   1  -7   9   18.01    0.84 
   2  -7   9    0.39    0.14 
   3  -7   9    0.60    0.17 
   4  -7   9    0.09    0.12 
   5  -7   9    0.24    0.14 
   6  -7   9    0.37    0.19 
   8   6  -9   -0.05    0.17 
   7   6  -9    0.56    0.19 
   6   6  -9   -0.02    0.13 
   5   6  -9    0.18    0.15 
  -5  -6   9    0.37    0.13 
   4   6  -9    0.26    0.14 
  -4  -6   9    0.06    0.11 
   3   6  -9    0.15    0.12 
  -3  -6   9    0.34    0.14 
   2   6  -9   22.23    0.98 
  -2  -6   9   23.07    0.97 
   1   6  -9    8.16    0.48 
  -1  -6   9    7.69    0.47 
   0   6  -9    3.32    0.30 
   0  -6   9    2.83    0.29 
   1  -6   9    4.17    0.33 
   2  -6   9    0.82    0.19 
   3  -6   9    2.27    0.28 
   4  -6   9    0.25    0.14 
   5  -6   9    0.26    0.14 
   6  -6   9    0.04    0.16 
   8   5  -9    0.86    0.26 
   7   5  -9    0.17    0.16 
   6   5  -9    0.54    0.18 
   5   5  -9    0.70    0.19 
  -5  -5   9    0.41    0.15 
   4   5  -9   -0.09    0.10 
  -4  -5   9    0.06    0.10 
   3   5  -9    2.18    0.27 
  -3  -5   9    2.19    0.24 
   2   5  -9   27.83    1.18 
  -2  -5   9   29.48    1.17 
   1   5  -9    3.06    0.29 
  -1  -5   9    3.45    0.28 
   0   5  -9    0.08    0.11 
   0  -5   9    0.05    0.11 
   1  -5   9    4.28    0.34 
   2  -5   9    7.68    0.48 
   3  -5   9    4.29    0.35 
   4  -5   9    3.97    0.39 
   5  -5   9    1.00    0.22 
   6  -5   9    3.19    0.38 
   8   4  -9    0.26    0.19 
   7   4  -9    0.76    0.21 
   6   4  -9    0.42    0.17 
   5   4  -9    0.11    0.12 
  -5  -4   9   -0.02    0.11 
   4   4  -9    0.46    0.15 
  -4  -4   9    0.59    0.15 
   3   4  -9    1.90    0.25 
  -3  -4   9    1.91    0.22 
   2   4  -9    0.12    0.12 
  -2  -4   9    0.30    0.12 
   1   4  -9   13.88    0.68 
  -1  -4   9   14.80    0.69 
   0   4  -9   18.10    0.82 
   0  -4   9   18.24    0.83 
   1  -4   9    3.82    0.31 
   2  -4   9    3.12    0.31 
   3  -4   9    4.66    0.37 
   4  -4   9    0.21    0.14 
   5  -4   9    0.35    0.15 
   6  -4   9    0.66    0.21 
   8   3  -9    1.43    0.30 
   7   3  -9    0.26    0.16 
   6   3  -9    0.22    0.16 
   5   3  -9    1.91    0.28 
  -5  -3   9    1.58    0.21 
   4   3  -9    0.42    0.14 
  -4  -3   9    0.33    0.12 
   3   3  -9    2.32    0.27 
  -3  -3   9    2.59    0.25 
   2   3  -9    0.92    0.19 
  -2  -3   9    1.08    0.18 
   1   3  -9    0.65    0.16 
  -1  -3   9    0.86    0.18 
   0   3  -9   36.41    1.39 
   0  -3   9   35.05    1.41 
  -1   3  -9   -0.01    0.09 
   1  -3   9   -0.02    0.09 
   2  -3   9    6.72    0.44 
   3  -3   9    0.02    0.09 
   4  -3   9    0.82    0.20 
   5  -3   9    0.08    0.12 
   6  -3   9    0.35    0.18 
   8   2  -9    1.33    0.27 
   7   2  -9    0.65    0.20 
   6   2  -9    0.35    0.16 
   5   2  -9    2.14    0.28 
   4   2  -9    1.15    0.21 
  -4  -2   9    1.18    0.18 
   3   2  -9    0.54    0.16 
  -3  -2   9    0.71    0.15 
   2   2  -9    1.91    0.24 
  -2  -2   9    2.48    0.24 
   1   2  -9   -0.04    0.09 
  -1  -2   9    0.11    0.11 
   0   2  -9   22.64    0.94 
   0  -2   9   22.56    0.97 
  -1   2  -9    3.82    0.29 
   1  -2   9    4.01    0.32 
   2  -2   9   -0.10    0.07 
   3  -2   9    1.63    0.25 
   4  -2   9    0.12    0.12 
   5  -2   9    1.04    0.23 
   6  -2   9    0.48    0.18 
   8   1  -9    0.14    0.17 
   7   1  -9    0.60    0.18 
   6   1  -9    1.60    0.26 
   5   1  -9    0.06    0.12 
   4   1  -9    0.08    0.11 
  -4  -1   9    0.00    0.08 
   3   1  -9    1.04    0.20 
  -3  -1   9    0.85    0.16 
   2   1  -9    2.23    0.25 
  -2  -1   9    2.43    0.24 
   1   1  -9    1.13    0.18 
  -1  -1   9    0.98    0.18 
   0   1  -9    0.03    0.10 
   0  -1   9   -0.19    0.09 
  -1   1  -9    0.23    0.11 
   1  -1   9    0.21    0.13 
   2  -1   9   19.66    0.91 
   3  -1   9    0.49    0.16 
   4  -1   9    5.99    0.44 
   5  -1   9    1.18    0.24 
   6  -1   9    0.40    0.19 
   8   0  -9   -0.10    0.15 
   7   0  -9    0.57    0.19 
   6   0  -9    0.00    0.11 
   5   0  -9    0.14    0.12 
   4   0  -9   -0.03    0.10 
  -4   0   9    0.07    0.08 
   3   0  -9    0.02    0.10 
  -3   0   9    0.13    0.11 
   2   0  -9    0.15    0.11 
  -2   0   9   -0.09    0.07 
   1   0  -9    1.45    0.20 
  -1   0   9    1.41    0.21 
   0   0  -9   -0.04    0.08 
   0   0   9    0.08    0.11 
  -1   0  -9    7.71    0.41 
   1   0   9    7.16    0.46 
   2   0   9   -0.12    0.07 
   3   0   9    2.57    0.31 
   4   0   9   -0.03    0.10 
   5   0   9    1.08    0.23 
   6   0   9    0.18    0.16 
   8  -1  -9    0.13    0.17 
   7  -1  -9    0.29    0.16 
   6  -1  -9    1.66    0.26 
   5  -1  -9   -0.01    0.11 
   4  -1  -9   -0.12    0.08 
  -4   1   9    0.10    0.07 
   3  -1  -9    0.88    0.17 
  -3   1   9    0.89    0.16 
   2  -1  -9    2.72    0.27 
  -2   1   9    2.99    0.27 
   1  -1  -9    1.08    0.18 
  -1   1   9    0.85    0.17 
   0  -1  -9   -0.01    0.09 
   0   1   9    0.17    0.12 
  -1  -1  -9    0.20    0.09 
   1   1   9    0.28    0.14 
   2   1   9   18.33    0.87 
   3   1   9    0.39    0.15 
   4   1   9    5.77    0.44 
   5   1   9    1.20    0.24 
   6   1   9    0.38    0.20 
   8  -2  -9    1.47    0.29 
   7  -2  -9    0.50    0.20 
   6  -2  -9    0.23    0.14 
   5  -2  -9    2.10    0.28 
   4  -2  -9    0.93    0.20 
   3  -2  -9    0.50    0.15 
  -3   2   9    0.77    0.15 
   2  -2  -9    2.31    0.25 
  -2   2   9    2.29    0.23 
   1  -2  -9    0.03    0.10 
  -1   2   9    0.06    0.10 
   0  -2  -9   24.28    0.98 
   0   2   9   23.82    1.03 
  -1  -2  -9    3.53    0.25 
   1   2   9    4.08    0.35 
   2   2   9   -0.19    0.09 
   3   2   9    1.47    0.25 
   4   2   9    0.12    0.11 
   5   2   9    1.23    0.25 
   6   2   9    0.29    0.18 
   8  -3  -9    1.41    0.28 
   7  -3  -9    0.24    0.16 
   6  -3  -9    0.25    0.14 
   5  -3  -9    1.55    0.24 
   4  -3  -9    0.12    0.12 
   3  -3  -9    2.58    0.28 
  -3   3   9    2.48    0.23 
   2  -3  -9    1.19    0.20 
  -2   3   9    1.44    0.20 
   1  -3  -9    1.08    0.18 
  -1   3   9    0.77    0.17 
   0  -3  -9   36.36    1.38 
   0   3   9   36.22    1.44 
  -1  -3  -9    0.10    0.08 
   1   3   9    0.07    0.12 
   2   3   9    6.30    0.44 
   3   3   9    0.33    0.14 
   4   3   9    0.73    0.19 
   5   3   9    0.24    0.14 
   6   3   9   -0.04    0.15 
   8  -4  -9    0.13    0.15 
   7  -4  -9    0.57    0.19 
   6  -4  -9    0.50    0.16 
   5  -4  -9    0.15    0.12 
   4  -4  -9    0.46    0.16 
   3  -4  -9    1.94    0.24 
  -3   4   9    1.94    0.20 
   2  -4  -9    0.25    0.12 
  -2   4   9    0.38    0.13 
   1  -4  -9   15.75    0.70 
  -1   4   9   14.95    0.72 
   0  -4  -9   18.06    0.78 
   0   4   9   18.54    0.84 
  -1  -4  -9    4.03    0.26 
   1   4   9    3.63    0.34 
   2   4   9    2.65    0.31 
   3   4   9    4.47    0.37 
   4   4   9    0.11    0.12 
   5   4   9    0.12    0.12 
   6   4   9    0.70    0.23 
   8  -5  -9    0.59    0.23 
   7  -5  -9    0.02    0.14 
   6  -5  -9    0.16    0.12 
   5  -5  -9    0.30    0.15 
   4  -5  -9   -0.12    0.08 
   3  -5  -9    2.16    0.25 
  -3   5   9    2.13    0.21 
   2  -5  -9   29.85    1.19 
  -2   5   9   29.24    1.18 
   1  -5  -9    4.21    0.30 
  -1   5   9    3.80    0.31 
   0  -5  -9    0.07    0.09 
   0   5   9    0.29    0.14 
  -1  -5  -9    4.10    0.27 
   1   5   9    4.19    0.35 
   2   5   9    8.26    0.52 
   3   5   9    4.28    0.40 
   4   5   9    4.24    0.42 
   5   5   9    0.54    0.19 
   6   5   9    2.21    0.36 
   8  -6  -9    0.14    0.17 
   7  -6  -9    0.94    0.23 
   6  -6  -9    0.08    0.11 
   5  -6  -9    0.18    0.13 
   4  -6  -9    0.06    0.12 
   3  -6  -9    0.31    0.13 
  -3   6   9    0.11    0.08 
   2  -6  -9   23.16    0.98 
  -2   6   9   23.23    0.97 
   1  -6  -9    8.17    0.45 
  -1   6   9    7.89    0.47 
   0  -6  -9    3.15    0.25 
   0   6   9    2.97    0.30 
  -1  -6  -9    4.17    0.27 
   1   6   9    3.94    0.36 
   2   6   9    0.42    0.16 
   3   6   9    2.27    0.32 
   4   6   9    0.48    0.16 
   5   6   9    0.09    0.14 
   6   6   9    0.29    0.19 
   8  -7  -9    0.23    0.20 
   7  -7  -9    0.73    0.20 
   6  -7  -9    1.48    0.26 
   5  -7  -9    0.07    0.13 
   4  -7  -9    2.60    0.29 
   3  -7  -9    7.47    0.45 
   2  -7  -9    1.42    0.21 
  -2   7   9    1.65    0.22 
   1  -7  -9   27.74    1.10 
  -1   7   9   27.47    1.14 
   0  -7  -9    3.60    0.27 
   0   7   9    3.86    0.34 
   1   7   9   16.56    0.81 
   2   7   9    0.53    0.17 
   3   7   9    0.61    0.20 
   4   7   9   -0.05    0.12 
   5   7   9    0.01    0.14 
   6   7   9    0.60    0.24 
   8  -8  -9   -0.22    0.16 
   7  -8  -9    0.51    0.19 
   6  -8  -9    0.08    0.12 
   5  -8  -9    4.05    0.37 
   4  -8  -9   -0.02    0.10 
   3  -8  -9   12.71    0.64 
   2  -8  -9   13.90    0.67 
  -2   8   9   14.74    0.68 
   1  -8  -9    0.00    0.09 
  -1   8   9   -0.09    0.10 
   0  -8  -9    0.33    0.11 
   0   8   9    0.23    0.13 
   1   8   9    0.73    0.18 
   2   8   9    0.22    0.15 
   3   8   9    3.95    0.41 
   4   8   9    1.44    0.27 
   5   8   9    0.61    0.21 
   7  -9  -9   -0.12    0.13 
   6  -9  -9    0.37    0.16 
   5  -9  -9    0.58    0.17 
   4  -9  -9   11.88    0.64 
   3  -9  -9    1.22    0.21 
   2  -9  -9    7.73    0.44 
  -2   9   9    7.00    0.43 
   1  -9  -9   -0.07    0.09 
  -1   9   9    0.18    0.12 
   0  -9  -9    3.18    0.26 
   0   9   9    3.60    0.34 
   1   9   9    4.19    0.39 
   2   9   9    4.27    0.40 
   3   9   9    0.90    0.22 
   4   9   9    2.27    0.34 
   5   9   9    1.19    0.27 
   7 -10  -9    0.14    0.15 
   6 -10  -9    0.18    0.14 
   5 -10  -9    3.62    0.36 
   4 -10  -9    0.92    0.20 
   3 -10  -9    3.48    0.32 
   2 -10  -9    0.11    0.11 
  -2  10   9   -0.10    0.10 
   1 -10  -9   -0.12    0.08 
  -1  10   9   -0.17    0.09 
   0 -10  -9   35.29    1.34 
   0  10   9   35.32    1.44 
   1  10   9    6.78    0.47 
   2  10   9    4.86    0.44 
   3  10   9    2.34    0.33 
   4  10   9    1.44    0.28 
   5  10   9    0.05    0.17 
   7 -11  -9    1.39    0.28 
   6 -11  -9    1.73    0.29 
   5 -11  -9    2.78    0.32 
   4 -11  -9    0.05    0.11 
   3 -11  -9    0.52    0.16 
   2 -11  -9    0.22    0.12 
  -2  11   9    0.26    0.13 
   1 -11  -9   21.24    0.92 
  -1  11   9   22.26    0.97 
   0 -11  -9    0.19    0.12 
   0  11   9    0.25    0.15 
   1  11   9   23.24    1.07 
   2  11   9    3.07    0.36 
   3  11   9    0.10    0.13 
   4  11   9   -0.09    0.14 
   5  11   9    1.12    0.31 
   7 -12  -9    0.17    0.19 
   6 -12  -9    0.63    0.19 
   5 -12  -9    0.69    0.19 
   4 -12  -9    0.64    0.17 
   3 -12  -9    4.17    0.33 
   2 -12  -9    3.53    0.30 
  -2  12   9    4.26    0.33 
   1 -12  -9    0.19    0.12 
  -1  12   9    0.12    0.13 
   0 -12  -9   14.77    0.66 
   0  12   9   13.99    0.73 
   1  12   9    0.38    0.15 
   2  12   9   -0.03    0.13 
   3  12   9    0.89    0.24 
   4  12   9    3.11    0.40 
   5  12   9   -0.01    0.18 
   7 -13  -9    0.28    0.20 
   6 -13  -9    2.52    0.33 
   5 -13  -9   -0.05    0.12 
   4 -13  -9    3.40    0.34 
   3 -13  -9    0.17    0.13 
   2 -13  -9    9.91    0.54 
   1 -13  -9    4.55    0.33 
  -1  13   9    5.28    0.39 
   0  13   9    0.05    0.12 
   1  13   9    1.38    0.25 
   2  13   9    3.89    0.41 
   3  13   9    0.50    0.19 
   4  13   9    0.19    0.17 
   6 -14  -9    0.02    0.14 
   5 -14  -9    7.55    0.51 
   4 -14  -9    9.77    0.58 
   3 -14  -9   11.70    0.63 
   2 -14  -9    2.67    0.28 
   1 -14  -9    0.27    0.11 
  -1  14   9    0.45    0.17 
   0  14   9    5.53    0.42 
   1  14   9    5.13    0.45 
   2  14   9    0.45    0.20 
   3  14   9    6.50    0.52 
   4  14   9    0.19    0.18 
   6 -15  -9    0.11    0.18 
   5 -15  -9    0.96    0.23 
   4 -15  -9    0.64    0.19 
   3 -15  -9    5.02    0.38 
   2 -15  -9    1.30    0.22 
   1 -15  -9    2.74    0.26 
  -1  15   9    2.34    0.30 
   0  15   9    0.67    0.20 
   1  15   9    6.31    0.48 
   2  15   9    1.28    0.27 
   3  15   9    0.19    0.17 
   4  15   9    0.49    0.23 
   6 -16  -9    2.08    0.34 
   5 -16  -9    0.11    0.15 
   4 -16  -9    0.73    0.19 
   3 -16  -9   -0.10    0.09 
   2 -16  -9    0.51    0.16 
   1 -16  -9    0.87    0.18 
  -1  16   9    0.73    0.19 
   0  16   9    6.14    0.46 
   1  16   9    0.59    0.20 
   2  16   9    0.49    0.19 
   3  16   9    0.54    0.22 
   4  16   9    0.90    0.28 
   5 -17  -9    2.63    0.35 
   4 -17  -9    2.39    0.32 
   3 -17  -9    0.69    0.20 
   2 -17  -9    2.22    0.27 
   1 -17  -9    0.12    0.12 
   0  17   9    0.54    0.20 
   1  17   9    4.97    0.47 
   2  17   9    5.01    0.49 
   3  17   9    0.14    0.19 
   5 -18  -9    0.12    0.20 
   4 -18  -9    0.06    0.16 
   3 -18  -9    2.50    0.31 
   2 -18  -9    0.08    0.12 
   1 -18  -9    0.06    0.12 
   0  18   9    0.37    0.20 
   1  18   9   -0.12    0.12 
   2  18   9    0.66    0.23 
   3  18   9    4.31    0.50 
   5 -19  -9    0.04    0.20 
   4 -19  -9    1.18    0.27 
   3 -19  -9    0.25    0.18 
   2 -19  -9    0.29    0.15 
   0 -19  -9    2.34    0.30 
  -1 -19  -9    0.47    0.19 
  -2 -19  -9    3.70    0.41 
   0 -20  -9   16.76    0.84 
  -1 -20  -9    0.07    0.15 
  -2 -20  -9    0.71    0.24 
  -1 -21  -9    1.89    0.32 
  -2 -20  10    0.16    0.18 
  -1 -20  10    0.40    0.21 
   0 -20  10    0.22    0.21 
  -3 -19  10    0.24    0.20 
  -2 -19  10   -0.06    0.16 
  -1 -19  10    0.26    0.17 
   0 -19  10   -0.02    0.18 
   1 -19  10    0.25    0.19 
  -4 -18  10    0.21    0.19 
  -3 -18  10    0.43    0.19 
  -2 -18  10    0.28    0.15 
  -1 -18  10    0.74    0.23 
   0 -18  10    1.06    0.26 
   1 -18  10   -0.11    0.13 
   2 -18  10   -0.03    0.15 
  -4 -17  10    0.88    0.23 
  -3 -17  10    0.06    0.15 
  -2 -17  10    1.77    0.29 
  -1 -17  10    5.61    0.47 
   0 -17  10    0.02    0.13 
   1 -17  10    0.17    0.18 
   2 -17  10    0.59    0.20 
  -5 -16  10    0.19    0.19 
  -4 -16  10    2.01    0.30 
  -3 -16  10    5.38    0.44 
  -2 -16  10   -0.17    0.10 
  -1 -16  10    0.06    0.14 
   0 -16  10    1.55    0.28 
   1 -16  10    0.38    0.20 
   2 -16  10    0.77    0.22 
   3 -16  10    0.01    0.17 
  -5 -15  10    0.11    0.16 
  -4 -15  10    1.06    0.23 
  -3 -15  10    0.09    0.14 
  -2 -15  10    0.53    0.17 
  -1 -15  10    0.38    0.16 
   0 -15  10    2.26    0.32 
   1 -15  10    0.32    0.16 
   2 -15  10    2.59    0.34 
   3 -15  10    1.86    0.31 
  -6 -14  10    0.35    0.19 
  -5 -14  10    0.43    0.19 
  -4 -14  10    0.18    0.15 
  -3 -14  10    5.52    0.43 
  -2 -14  10   -0.12    0.11 
  -1 -14  10    1.38    0.26 
   0 -14  10    3.90    0.38 
   1 -14  10    2.63    0.34 
   2 -14  10    1.38    0.26 
   3 -14  10    2.42    0.34 
   6  13 -10    2.07    0.35 
  -6 -13  10    2.15    0.31 
   5  13 -10    0.13    0.17 
  -5 -13  10    0.31    0.16 
  -4 -13  10   -0.21    0.12 
  -3 -13  10    0.10    0.15 
  -2 -13  10    0.21    0.15 
  -1 -13  10    3.02    0.34 
   0 -13  10    0.64    0.17 
   1 -13  10    2.99    0.34 
   2 -13  10    0.09    0.13 
   3 -13  10    0.91    0.22 
   4 -13  10    0.80    0.22 
   6  12 -10   -0.02    0.17 
  -6 -12  10    0.15    0.16 
   5  12 -10    0.57    0.23 
  -5 -12  10    0.94    0.22 
   4  12 -10    4.31    0.43 
  -4 -12  10    4.05    0.38 
  -3 -12  10    0.01    0.11 
  -2 -12  10    0.92    0.22 
  -1 -12  10    0.26    0.15 
   0 -12  10    3.19    0.35 
   1 -12  10    2.53    0.31 
   2 -12  10    1.93    0.29 
   3 -12  10    4.99    0.45 
   4 -12  10    0.56    0.21 
   7  11 -10    0.42    0.24 
   6  11 -10    3.25    0.40 
  -6 -11  10    3.12    0.35 
   5  11 -10    0.40    0.21 
  -5 -11  10    0.50    0.17 
   4  11 -10    0.50    0.20 
  -4 -11  10    0.31    0.15 
   3  11 -10    1.48    0.27 
  -3 -11  10    1.12    0.22 
  -2 -11  10    1.87    0.28 
  -1 -11  10    0.27    0.15 
   0 -11  10    3.59    0.36 
   1 -11  10    0.14    0.12 
   2 -11  10   11.83    0.68 
   3 -11  10    1.76    0.30 
   4 -11  10    1.52    0.28 
   7  10 -10    0.76    0.26 
   6  10 -10    1.04    0.26 
   5  10 -10    3.17    0.37 
  -5 -10  10    2.54    0.31 
   4  10 -10    0.60    0.19 
  -4 -10  10    0.33    0.15 
   3  10 -10    0.12    0.14 
  -3 -10  10    0.00    0.12 
   2  10 -10    3.93    0.38 
  -2 -10  10    3.34    0.34 
  -1 -10  10    4.38    0.36 
   0 -10  10   12.56    0.68 
   1 -10  10    5.49    0.42 
   2 -10  10    0.02    0.12 
   3 -10  10    5.00    0.41 
   4 -10  10    0.54    0.20 
   7   9 -10    0.30    0.20 
   6   9 -10    1.46    0.30 
   5   9 -10    0.81    0.22 
  -5  -9  10    0.74    0.18 
   4   9 -10    1.18    0.24 
  -4  -9  10    1.88    0.26 
   3   9 -10   -0.02    0.13 
  -3  -9  10   -0.03    0.10 
   2   9 -10    0.68    0.20 
  -2  -9  10    1.10    0.21 
  -1  -9  10    2.72    0.31 
   0  -9  10    1.24    0.23 
   1  -9  10    6.76    0.47 
   2  -9  10    1.92    0.28 
   3  -9  10    1.11    0.23 
   4  -9  10   -0.10    0.13 
   7   8 -10    0.50    0.22 
   6   8 -10    0.74    0.22 
   5   8 -10    0.25    0.16 
  -5  -8  10   -0.05    0.12 
   4   8 -10   -0.06    0.11 
  -4  -8  10    0.11    0.12 
   3   8 -10    0.74    0.19 
  -3  -8  10    0.92    0.20 
   2   8 -10    0.77    0.19 
  -2  -8  10    0.35    0.14 
   1   8 -10    1.48    0.24 
  -1  -8  10    1.36    0.23 
   0  -8  10   11.82    0.64 
   1  -8  10    5.64    0.42 
   2  -8  10    2.25    0.30 
   3  -8  10    7.36    0.51 
   4  -8  10    0.51    0.19 
   5  -8  10    2.02    0.34 
   7   7 -10    0.82    0.24 
   6   7 -10    1.54    0.29 
   5   7 -10    0.83    0.22 
  -5  -7  10    0.99    0.20 
   4   7 -10    0.05    0.14 
  -4  -7  10    0.00    0.11 
   3   7 -10    0.27    0.15 
  -3  -7  10    0.27    0.12 
   2   7 -10    6.38    0.46 
  -2  -7  10    7.05    0.45 
   1   7 -10    0.69    0.18 
  -1  -7  10    0.78    0.18 
   0  -7  10    1.06    0.21 
   1  -7  10    6.40    0.44 
   2  -7  10   21.64    1.01 
   3  -7  10    0.59    0.18 
   4  -7  10    1.35    0.26 
   5  -7  10    0.63    0.23 
   7   6 -10    0.35    0.21 
   6   6 -10    1.00    0.24 
   5   6 -10    0.92    0.22 
  -5  -6  10    1.07    0.20 
   4   6 -10    0.64    0.18 
  -4  -6  10    0.62    0.17 
   3   6 -10    0.78    0.21 
  -3  -6  10    1.12    0.20 
   2   6 -10    5.16    0.40 
  -2  -6  10    4.79    0.36 
   1   6 -10    0.27    0.14 
  -1  -6  10    0.21    0.13 
   0  -6  10    0.18    0.13 
   1  -6  10    4.11    0.37 
   2  -6  10    1.69    0.27 
   3  -6  10    6.77    0.48 
   4  -6  10    0.25    0.16 
   5  -6  10    0.29    0.18 
   7   5 -10    1.52    0.30 
   6   5 -10    0.86    0.23 
   5   5 -10    1.05    0.22 
  -5  -5  10    0.56    0.17 
   4   5 -10   -0.09    0.10 
  -4  -5  10    0.26    0.12 
   3   5 -10   13.03    0.71 
  -3  -5  10   14.72    0.70 
   2   5 -10   20.56    0.92 
  -2  -5  10   19.79    0.90 
   1   5 -10   17.52    0.83 
  -1  -5  10   17.64    0.82 
   0   5 -10    4.60    0.37 
   0  -5  10    4.26    0.37 
   1  -5  10    0.19    0.14 
   2  -5  10    3.25    0.34 
   3  -5  10    0.25    0.15 
   4  -5  10    1.25    0.25 
   5  -5  10    0.66    0.22 
   7   4 -10    0.97    0.25 
   6   4 -10    0.40    0.18 
   5   4 -10    0.15    0.14 
  -5  -4  10    0.15    0.14 
   4   4 -10    1.29    0.24 
  -4  -4  10    0.88    0.18 
   3   4 -10    0.08    0.13 
  -3  -4  10    0.24    0.13 
   2   4 -10    3.88    0.35 
  -2  -4  10    3.81    0.31 
   1   4 -10    2.36    0.27 
  -1  -4  10    2.02    0.26 
   0   4 -10   20.08    0.88 
   0  -4  10   18.47    0.88 
   1  -4  10    6.39    0.45 
   2  -4  10    3.33    0.35 
   3  -4  10    0.17    0.12 
   4  -4  10    4.16    0.42 
   5  -4  10    2.39    0.35 
   8   3 -10    0.87    0.27 
   7   3 -10    1.48    0.29 
   6   3 -10    1.62    0.28 
   5   3 -10    0.12    0.13 
   4   3 -10    2.43    0.30 
  -4  -3  10    2.28    0.25 
   3   3 -10    4.62    0.36 
  -3  -3  10    4.11    0.32 
   2   3 -10    1.28    0.22 
  -2  -3  10    1.63    0.23 
   1   3 -10    1.37    0.22 
  -1  -3  10    1.41    0.23 
   0   3 -10    2.65    0.28 
   0  -3  10    2.34    0.28 
   1  -3  10    9.41    0.55 
   2  -3  10    4.56    0.37 
   3  -3  10    0.51    0.17 
   4  -3  10   -0.13    0.10 
   5  -3  10    0.40    0.18 
   8   2 -10    0.10    0.20 
   7   2 -10    3.13    0.39 
   6   2 -10    0.63    0.20 
   5   2 -10    5.63    0.44 
   4   2 -10    0.62    0.18 
  -4  -2  10    0.55    0.16 
   3   2 -10   11.80    0.63 
  -3  -2  10   11.72    0.60 
   2   2 -10   11.31    0.60 
  -2  -2  10   11.18    0.59 
   1   2 -10   -0.11    0.10 
  -1  -2  10    0.08    0.12 
   0   2 -10    0.03    0.10 
   0  -2  10    0.03    0.12 
  -1   2 -10   17.11    0.80 
   1  -2  10   18.38    0.86 
   2  -2  10    0.64    0.18 
   3  -2  10    3.52    0.38 
   4  -2  10   -0.10    0.10 
   5  -2  10    2.30    0.36 
   8   1 -10    0.09    0.20 
   7   1 -10    0.04    0.17 
   6   1 -10    1.23    0.26 
   5   1 -10    0.06    0.13 
   4   1 -10    9.80    0.57 
  -4  -1  10    9.20    0.50 
   3   1 -10    2.52    0.30 
  -3  -1  10    2.49    0.26 
   2   1 -10   16.41    0.77 
  -2  -1  10   15.43    0.74 
   1   1 -10   65.40    2.32 
  -1  -1  10   60.72    2.32 
   0   1 -10    5.08    0.35 
   0  -1  10    5.25    0.38 
  -1   1 -10    0.16    0.12 
   1  -1  10   -0.02    0.11 
   2  -1  10    2.67    0.32 
   3  -1  10    0.16    0.12 
   4  -1  10    2.10    0.31 
   5  -1  10    1.78    0.32 
   8   0 -10    1.00    0.27 
   7   0 -10    0.01    0.14 
   6   0 -10    1.05    0.23 
   5   0 -10    0.13    0.13 
   4   0 -10    0.42    0.17 
  -4   0  10    0.58    0.16 
   3   0 -10    0.10    0.11 
  -3   0  10    0.05    0.11 
   2   0 -10    8.86    0.52 
  -2   0  10    9.61    0.53 
   1   0 -10    0.09    0.14 
  -1   0  10   -0.06    0.13 
   0   0 -10   -0.14    0.09 
   0   0  10    0.02    0.10 
  -1   0 -10    0.00    0.10 
   1   0  10   -0.07    0.10 
   2   0  10    3.87    0.38 
   3   0  10    0.07    0.12 
   4   0  10    5.19    0.47 
   5   0  10   -0.04    0.14 
   8  -1 -10    0.09    0.19 
   7  -1 -10   -0.02    0.15 
   6  -1 -10    1.11    0.24 
   5  -1 -10   -0.12    0.10 
   4  -1 -10    9.65    0.56 
  -4   1  10    9.31    0.51 
   3  -1 -10    2.30    0.28 
  -3   1  10    2.34    0.25 
   2  -1 -10   16.00    0.75 
  -2   1  10   14.52    0.72 
   1  -1 -10   63.46    2.28 
  -1   1  10   60.70    2.29 
   0  -1 -10    5.31    0.36 
   0   1  10    5.39    0.40 
  -1  -1 -10    0.19    0.12 
   1   1  10    0.21    0.15 
   2   1  10    2.99    0.34 
   3   1  10    0.23    0.13 
   4   1  10    2.86    0.36 
   5   1  10    1.55    0.30 
   8  -2 -10   -0.09    0.18 
   7  -2 -10    3.31    0.39 
   6  -2 -10    0.25    0.16 
   5  -2 -10    5.32    0.42 
   4  -2 -10    0.71    0.19 
   3  -2 -10   12.01    0.62 
  -3   2  10   10.98    0.57 
   2  -2 -10   12.02    0.61 
  -2   2  10   10.84    0.59 
   1  -2 -10    0.15    0.13 
  -1   2  10    0.08    0.14 
   0  -2 -10    0.16    0.11 
   0   2  10    0.12    0.12 
  -1  -2 -10   17.45    0.76 
   1   2  10   17.73    0.86 
   2   2  10    0.51    0.18 
   3   2  10    3.07    0.35 
   4   2  10    0.03    0.11 
   5   2  10    2.02    0.34 
   8  -3 -10    0.68    0.25 
   7  -3 -10    1.70    0.31 
   6  -3 -10    1.34    0.25 
   5  -3 -10    0.09    0.13 
   4  -3 -10    2.41    0.30 
   3  -3 -10    3.92    0.35 
  -3   3  10    4.89    0.35 
   2  -3 -10    1.68    0.23 
  -2   3  10    1.65    0.24 
   1  -3 -10    1.31    0.20 
  -1   3  10    1.19    0.22 
   0  -3 -10    2.31    0.24 
   0   3  10    2.25    0.29 
   1   3  10    9.24    0.57 
   2   3  10    4.89    0.43 
   3   3  10    0.55    0.18 
   4   3  10   -0.09    0.12 
   5   3  10    0.21    0.17 
   7  -4 -10    0.99    0.24 
   6  -4 -10    0.49    0.17 
   5  -4 -10   -0.07    0.10 
   4  -4 -10    0.78    0.19 
   3  -4 -10    0.10    0.11 
  -3   4  10    0.12    0.12 
   2  -4 -10    3.81    0.32 
  -2   4  10    4.06    0.33 
   1  -4 -10    2.00    0.24 
  -1   4  10    1.97    0.26 
   0  -4 -10   20.37    0.87 
   0   4  10   20.91    0.95 
   1   4  10    5.84    0.43 
   2   4  10    3.30    0.37 
   3   4  10    0.27    0.13 
   4   4  10    4.36    0.45 
   5   4  10    2.84    0.40 
   7  -5 -10    2.02    0.31 
   6  -5 -10    0.56    0.20 
   5  -5 -10    0.57    0.17 
   4  -5 -10    0.04    0.13 
   3  -5 -10   13.76    0.71 
  -3   5  10   14.59    0.69 
   2  -5 -10   20.40    0.89 
  -2   5  10   19.14    0.87 
   1  -5 -10   17.90    0.80 
  -1   5  10   17.83    0.84 
   0  -5 -10    4.23    0.31 
   0   5  10    4.36    0.36 
   1   5  10    0.43    0.18 
   2   5  10    4.03    0.40 
   3   5  10    0.10    0.15 
   4   5  10    0.54    0.20 
   5   5  10    1.26    0.30 
   7  -6 -10    0.66    0.21 
   6  -6 -10    1.55    0.27 
   5  -6 -10    1.23    0.23 
   4  -6 -10    0.51    0.18 
   3  -6 -10    0.65    0.17 
  -3   6  10    0.53    0.17 
   2  -6 -10    4.78    0.36 
  -2   6  10    4.40    0.35 
   1  -6 -10    0.24    0.13 
  -1   6  10   -0.11    0.10 
   0  -6 -10    0.01    0.10 
   0   6  10    0.08    0.12 
   1   6  10    4.76    0.39 
   2   6  10    1.30    0.25 
   3   6  10    6.36    0.49 
   4   6  10    0.19    0.16 
   5   6  10    0.33    0.21 
   7  -7 -10    0.52    0.20 
   6  -7 -10    1.07    0.23 
   5  -7 -10    0.53    0.18 
   4  -7 -10   -0.09    0.10 
   3  -7 -10    0.34    0.15 
   2  -7 -10    6.77    0.43 
  -2   7  10    6.90    0.43 
   1  -7 -10    0.80    0.17 
  -1   7  10    0.79    0.19 
   0  -7 -10    1.38    0.20 
   0   7  10    1.32    0.24 
   1   7  10    6.35    0.46 
   2   7  10   20.32    0.99 
   3   7  10    0.36    0.17 
   4   7  10    1.27    0.28 
   5   7  10    1.04    0.29 
   7  -8 -10    0.21    0.17 
   6  -8 -10    0.44    0.17 
   5  -8 -10    0.08    0.14 
   4  -8 -10   -0.12    0.10 
   3  -8 -10    1.20    0.22 
   2  -8 -10    0.28    0.13 
  -2   8  10    0.51    0.17 
   1  -8 -10    1.56    0.22 
  -1   8  10    1.33    0.24 
   0  -8 -10   13.54    0.64 
   0   8  10   13.38    0.71 
   1   8  10    5.50    0.43 
   2   8  10    2.41    0.34 
   3   8  10    7.17    0.53 
   4   8  10    0.44    0.21 
   5   8  10    1.79    0.35 
   7  -9 -10    0.62    0.21 
   6  -9 -10    1.45    0.26 
   5  -9 -10    0.34    0.17 
   4  -9 -10    1.57    0.25 
   3  -9 -10   -0.07    0.11 
   2  -9 -10    1.08    0.20 
  -2   9  10    1.04    0.20 
   1  -9 -10    3.02    0.29 
  -1   9  10    3.47    0.33 
   0  -9 -10    1.39    0.21 
   0   9  10    1.51    0.26 
   1   9  10    6.40    0.48 
   2   9  10    1.93    0.30 
   3   9  10    0.74    0.23 
   4   9  10   -0.09    0.14 
   7 -10 -10    0.95    0.27 
   6 -10 -10    0.68    0.22 
   5 -10 -10    2.39    0.31 
   4 -10 -10    0.20    0.14 
   3 -10 -10    0.01    0.12 
   2 -10 -10    3.54    0.32 
  -2  10  10    2.99    0.31 
   1 -10 -10    4.32    0.32 
  -1  10  10    4.15    0.37 
   0  10  10   10.78    0.63 
   1  10  10    5.82    0.45 
   2  10  10   -0.06    0.14 
   3  10  10    4.87    0.47 
   4  10  10    0.50    0.20 
   7 -11 -10    0.07    0.17 
   6 -11 -10    2.51    0.34 
   5 -11 -10    0.30    0.17 
   4 -11 -10    0.35    0.16 
   3 -11 -10    1.13    0.22 
   2 -11 -10    2.02    0.25 
  -2  11  10    2.09    0.27 
   1 -11 -10    0.15    0.12 
  -1  11  10    0.02    0.11 
   0  11  10    3.37    0.36 
   1  11  10    0.07    0.13 
   2  11  10   10.76    0.67 
   3  11  10    1.41    0.30 
   4  11  10    0.79    0.26 
   6 -12 -10    0.20    0.18 
   5 -12 -10    0.69    0.20 
   4 -12 -10    3.94    0.38 
   3 -12 -10    0.12    0.14 
   2 -12 -10    0.55    0.16 
   1 -12 -10    0.31    0.13 
  -1  12  10    0.25    0.14 
   0  12  10    2.31    0.30 
   1  12  10    1.83    0.30 
   2  12  10    1.70    0.30 
   3  12  10    4.63    0.48 
   4  12  10    0.75    0.27 
   6 -13 -10    1.34    0.29 
   5 -13 -10   -0.03    0.15 
   4 -13 -10   -0.07    0.13 
   3 -13 -10    0.19    0.14 
   2 -13 -10    0.32    0.14 
   1 -13 -10    2.26    0.25 
  -1  13  10    2.18    0.29 
   0  13  10    0.11    0.15 
   1  13  10    3.10    0.37 
   2  13  10   -0.17    0.10 
   3  13  10    0.94    0.25 
   4  13  10    0.70    0.26 
   6 -14 -10    0.40    0.21 
   5 -14 -10    0.09    0.18 
   4 -14 -10   -0.07    0.13 
   3 -14 -10    5.28    0.40 
   2 -14 -10   -0.04    0.10 
   1 -14 -10    1.57    0.23 
  -1  14  10    1.27    0.24 
   0  14  10    4.29    0.41 
   1  14  10    3.50    0.39 
   2  14  10    1.65    0.31 
   3  14  10    3.08    0.42 
   5 -15 -10    0.14    0.17 
   4 -15 -10    0.78    0.21 
   3 -15 -10    0.23    0.15 
   2 -15 -10    0.63    0.18 
   1 -15 -10    0.65    0.17 
  -1  15  10    0.79    0.21 
   0  15  10    1.85    0.31 
   1  15  10    0.37    0.19 
   2  15  10    2.32    0.36 
   3  15  10    1.29    0.31 
   5 -16 -10    0.30    0.20 
   4 -16 -10    1.44    0.26 
   3 -16 -10    5.48    0.42 
   2 -16 -10    0.15    0.12 
   0  16  10    2.01    0.31 
   1  16  10    0.59    0.20 
   2  16  10    0.91    0.24 
   3  16  10    0.13    0.22 
   5 -17 -10    0.90    0.26 
   4 -17 -10    0.57    0.20 
   3 -17 -10    0.34    0.17 
   2 -17 -10    1.72    0.26 
   0  17  10    0.20    0.16 
   1  17  10    0.86    0.25 
   2  17  10    0.62    0.23 
   4 -18 -10    0.04    0.18 
   3 -18 -10    0.35    0.18 
   2 -18 -10    0.10    0.13 
   0  18  10    0.80    0.24 
   1  18  10   -0.01    0.18 
   2  18  10   -0.09    0.20 
   3 -19 -10    0.23    0.18 
   2 -19 -10    0.07    0.15 
   0 -19 -10   -0.06    0.16 
   1  19  10    0.17    0.20 
   2 -20 -10    0.15    0.18 
  -2 -18  11    0.05    0.16 
  -1 -18  11    0.14    0.17 
  -3 -17  11    0.74    0.24 
  -2 -17  11    0.65    0.23 
  -1 -17  11    2.68    0.38 
   0 -17  11    3.44    0.43 
  -4 -16  11    1.71    0.32 
  -3 -16  11    0.36    0.20 
  -2 -16  11    1.10    0.25 
  -1 -16  11    0.08    0.15 
   0 -16  11    1.70    0.31 
   1 -16  11    0.39    0.20 
  -4 -15  11    0.43    0.20 
  -3 -15  11    0.09    0.16 
  -2 -15  11    0.05    0.16 
  -1 -15  11    1.06    0.24 
   0 -15  11    0.49    0.20 
   1 -15  11    0.56    0.20 
   2 -15  11    0.31    0.22 
  -5 -14  11    2.47    0.35 
  -4 -14  11    1.49    0.28 
  -3 -14  11    0.37    0.17 
  -2 -14  11    0.49    0.19 
  -1 -14  11    0.71    0.20 
   0 -14  11    0.00    0.14 
   1 -14  11    3.17    0.38 
   2 -14  11   -0.10    0.16 
   5  13 -11    0.04    0.20 
  -5 -13  11   -0.02    0.15 
  -4 -13  11    2.37    0.33 
  -3 -13  11    0.45    0.19 
  -2 -13  11    1.40    0.26 
  -1 -13  11    1.50    0.27 
   0 -13  11    3.86    0.41 
   1 -13  11    0.62    0.20 
   2 -13  11    3.25    0.39 
   5  12 -11    0.45    0.22 
  -5 -12  11    0.48    0.20 
   4  12 -11    0.57    0.20 
  -4 -12  11    0.49    0.19 
  -3 -12  11    0.74    0.20 
  -2 -12  11    1.29    0.24 
  -1 -12  11    0.04    0.13 
   0 -12  11    2.07    0.30 
   1 -12  11    1.27    0.26 
   2 -12  11    0.43    0.18 
   3 -12  11    0.51    0.21 
   6  11 -11    0.33    0.23 
   5  11 -11    0.87    0.25 
  -5 -11  11    0.89    0.21 
   4  11 -11    0.10    0.18 
  -4 -11  11    0.02    0.13 
   3  11 -11    1.98    0.32 
  -3 -11  11    2.15    0.29 
  -2 -11  11    0.05    0.13 
  -1 -11  11    4.19    0.40 
   0 -11  11    3.70    0.38 
   1 -11  11    2.29    0.32 
   2 -11  11    0.47    0.19 
   3 -11  11    0.77    0.23 
   6  10 -11    0.24    0.21 
   5  10 -11    1.87    0.33 
  -5 -10  11    2.57    0.32 
   4  10 -11    0.00    0.14 
  -4 -10  11    0.14    0.14 
   3  10 -11    0.02    0.16 
  -3 -10  11    0.08    0.14 
  -2 -10  11    1.87    0.28 
  -1 -10  11   -0.02    0.12 
   0 -10  11    3.10    0.35 
   1 -10  11    0.85    0.21 
   2 -10  11    0.49    0.19 
   3 -10  11    0.89    0.22 
   6   9 -11    4.59    0.48 
   5   9 -11    0.55    0.22 
  -5  -9  11    0.70    0.23 
   4   9 -11    0.97    0.24 
  -4  -9  11    0.94    0.22 
   3   9 -11    0.49    0.19 
  -3  -9  11    0.45    0.16 
   2   9 -11    2.03    0.31 
  -2  -9  11    2.18    0.29 
  -1  -9  11   -0.06    0.10 
   0  -9  11    3.10    0.35 
   1  -9  11    1.45    0.26 
   2  -9  11   11.17    0.67 
   3  -9  11    0.03    0.16 
   6   8 -11    0.05    0.19 
   5   8 -11    2.44    0.35 
  -5  -8  11    2.06    0.29 
   4   8 -11    2.92    0.37 
  -4  -8  11    3.14    0.33 
   3   8 -11    0.08    0.15 
  -3  -8  11    0.14    0.14 
   2   8 -11    1.09    0.23 
  -2  -8  11    0.84    0.20 
  -1  -8  11    1.47    0.25 
   0  -8  11   -0.06    0.11 
   1  -8  11    7.36    0.51 
   2  -8  11    0.36    0.17 
   3  -8  11    1.03    0.24 
   4  -8  11    3.53    0.43 
   6   7 -11    1.10    0.27 
   5   7 -11    3.80    0.41 
  -5  -7  11    3.66    0.35 
   4   7 -11    0.24    0.19 
  -4  -7  11    0.16    0.14 
   3   7 -11    8.10    0.55 
  -3  -7  11    8.97    0.54 
   2   7 -11    1.28    0.25 
  -2  -7  11    1.47    0.25 
   1   7 -11    8.95    0.56 
  -1  -7  11    9.06    0.55 
   0  -7  11    1.54    0.26 
   1  -7  11   -0.06    0.11 
   2  -7  11    0.27    0.14 
   3  -7  11    4.24    0.43 
   4  -7  11    2.34    0.38 
   7   6 -11    0.46    0.25 
   6   6 -11    0.06    0.16 
   5   6 -11    1.45    0.28 
  -5  -6  11    1.83    0.26 
   4   6 -11   16.72    0.86 
  -4  -6  11   16.07    0.79 
   3   6 -11   -0.13    0.11 
  -3  -6  11    0.01    0.11 
   2   6 -11    2.21    0.30 
  -2  -6  11    1.98    0.27 
   1   6 -11    0.12    0.13 
  -1  -6  11    0.13    0.13 
   0  -6  11    0.16    0.13 
   1  -6  11    2.72    0.34 
   2  -6  11    0.12    0.13 
   3  -6  11    0.27    0.16 
   4  -6  11    1.67    0.32 
   7   5 -11    0.26    0.23 
   6   5 -11   -0.18    0.14 
   5   5 -11    0.38    0.19 
   4   5 -11    2.56    0.34 
  -4  -5  11    2.58    0.29 
   3   5 -11    0.27    0.16 
  -3  -5  11    0.35    0.14 
   2   5 -11   -0.11    0.11 
  -2  -5  11    0.04    0.10 
   1   5 -11    0.89    0.21 
  -1  -5  11    1.38    0.24 
   0   5 -11    1.55    0.25 
   0  -5  11    1.66    0.26 
   1  -5  11    0.00    0.12 
   2  -5  11   10.75    0.65 
   3  -5  11    0.12    0.13 
   4  -5  11    8.00    0.59 
   7   4 -11    1.30    0.32 
   6   4 -11    0.39    0.19 
   5   4 -11   -0.24    0.11 
   4   4 -11    1.95    0.31 
  -4  -4  11    2.19    0.27 
   3   4 -11    2.79    0.33 
  -3  -4  11    2.86    0.30 
   2   4 -11    6.21    0.45 
  -2  -4  11    6.13    0.43 
   1   4 -11    0.12    0.12 
  -1  -4  11    0.14    0.12 
   0   4 -11    1.94    0.27 
   0  -4  11    1.67    0.27 
   1  -4  11    8.82    0.55 
   2  -4  11    0.12    0.12 
   3  -4  11    4.70    0.45 
   4  -4  11    1.84    0.33 
   7   3 -11    0.33    0.23 
   6   3 -11    0.02    0.16 
   5   3 -11    0.28    0.16 
   4   3 -11    0.67    0.21 
  -4  -3  11    0.70    0.17 
   3   3 -11    3.34    0.35 
  -3  -3  11    3.14    0.31 
   2   3 -11    6.31    0.45 
  -2  -3  11    6.88    0.45 
   1   3 -11    2.48    0.29 
  -1  -3  11    3.38    0.33 
   0   3 -11    0.79    0.18 
   0  -3  11    0.82    0.20 
   1  -3  11    0.13    0.13 
   2  -3  11    0.12    0.12 
   3  -3  11    0.85    0.23 
   4  -3  11   -0.01    0.16 
   7   2 -11    0.60    0.24 
   6   2 -11    0.36    0.19 
   5   2 -11    0.66    0.22 
   4   2 -11   -0.07    0.11 
  -4  -2  11   -0.10    0.11 
   3   2 -11    0.48    0.17 
  -3  -2  11    0.60    0.17 
   2   2 -11    8.53    0.54 
  -2  -2  11    9.28    0.53 
   1   2 -11    1.74    0.25 
  -1  -2  11    1.91    0.27 
   0   2 -11    3.79    0.34 
   0  -2  11    3.79    0.36 
  -1   2 -11    0.30    0.15 
   1  -2  11    0.45    0.16 
   2  -2  11    2.43    0.33 
   3  -2  11    0.01    0.12 
   4  -2  11    0.17    0.17 
   7   1 -11    0.14    0.19 
   6   1 -11   -0.07    0.15 
   5   1 -11    0.45    0.19 
   4   1 -11   -0.02    0.13 
  -4  -1  11    0.13    0.12 
   3   1 -11    0.31    0.17 
  -3  -1  11    0.15    0.13 
   2   1 -11    0.15    0.15 
  -2  -1  11    0.11    0.13 
   1   1 -11    1.38    0.23 
  -1  -1  11    1.18    0.22 
   0   1 -11    0.18    0.12 
   0  -1  11    0.12    0.13 
  -1   1 -11    0.00    0.12 
   1  -1  11    0.05    0.12 
   2  -1  11    2.75    0.36 
   3  -1  11    1.27    0.26 
   4  -1  11    2.36    0.36 
   7   0 -11   -0.10    0.17 
   6   0 -11    0.12    0.18 
   5   0 -11    1.71    0.31 
   4   0 -11   -0.20    0.09 
  -4   0  11   -0.04    0.13 
   3   0 -11    2.25    0.30 
  -3   0  11    2.60    0.28 
   2   0 -11    0.04    0.13 
  -2   0  11    0.00    0.10 
   1   0 -11   10.70    0.58 
  -1   0  11   10.07    0.59 
   0   0 -11    0.04    0.10 
   0   0  11   -0.06    0.11 
   1   0  11    0.97    0.21 
   2   0  11   -0.07    0.13 
   3   0  11    0.95    0.24 
   4   0  11    0.14    0.17 
   7  -1 -11   -0.08    0.16 
   6  -1 -11    0.32    0.18 
   5  -1 -11    0.49    0.21 
   4  -1 -11    0.12    0.14 
   3  -1 -11    0.24    0.15 
  -3   1  11    0.20    0.12 
   2  -1 -11    0.05    0.12 
  -2   1  11    0.37    0.15 
   1  -1 -11    1.02    0.20 
  -1   1  11    1.49    0.25 
   0  -1 -11   -0.03    0.11 
   0   1  11    0.23    0.14 
   1   1  11    0.02    0.13 
   2   1  11    2.47    0.34 
   3   1  11    1.22    0.25 
   4   1  11    2.35    0.37 
   7  -2 -11    1.11    0.27 
   6  -2 -11    0.46    0.21 
   5  -2 -11    1.09    0.24 
   4  -2 -11   -0.03    0.12 
   3  -2 -11    0.51    0.17 
  -3   2  11    0.76    0.18 
   2  -2 -11    8.49    0.53 
  -2   2  11    9.61    0.54 
   1  -2 -11    1.67    0.24 
  -1   2  11    1.85    0.27 
   0  -2 -11    3.69    0.32 
   0   2  11    3.50    0.36 
   1   2  11    0.26    0.15 
   2   2  11    2.18    0.32 
   3   2  11   -0.14    0.11 
   4   2  11    0.32    0.18 
   7  -3 -11    0.11    0.19 
   6  -3 -11   -0.05    0.13 
   5  -3 -11    0.32    0.16 
   4  -3 -11    0.96    0.22 
   3  -3 -11    3.08    0.33 
  -3   3  11    3.11    0.31 
   2  -3 -11    6.09    0.44 
  -2   3  11    7.11    0.45 
   1  -3 -11    2.86    0.29 
  -1   3  11    3.34    0.34 
   0  -3 -11    0.86    0.19 
   0   3  11    0.89    0.21 
   1   3  11    0.12    0.14 
   2   3  11   -0.22    0.10 
   3   3  11    0.92    0.24 
   4   3  11    0.12    0.18 
   7  -4 -11    1.31    0.29 
   6  -4 -11    0.48    0.18 
   5  -4 -11    0.18    0.17 
   4  -4 -11    2.44    0.32 
   3  -4 -11    3.11    0.34 
  -3   4  11    3.35    0.32 
   2  -4 -11    6.33    0.43 
  -2   4  11    6.32    0.44 
   1  -4 -11    0.21    0.13 
  -1   4  11    0.02    0.13 
   0  -4 -11    1.59    0.23 
   0   4  11    1.93    0.29 
   1   4  11    9.28    0.59 
   2   4  11   -0.06    0.13 
   3   4  11    4.86    0.48 
   4   4  11    1.32    0.30 
   7  -5 -11    0.33    0.21 
   6  -5 -11    0.26    0.18 
   5  -5 -11    0.35    0.18 
   4  -5 -11    2.74    0.34 
   3  -5 -11    0.18    0.14 
  -3   5  11    0.24    0.16 
   2  -5 -11    0.03    0.12 
  -2   5  11    0.07    0.12 
   1  -5 -11    1.20    0.21 
  -1   5  11    1.00    0.21 
   0  -5 -11    1.54    0.22 
   0   5  11    2.11    0.29 
   1   5  11    0.02    0.14 
   2   5  11   10.34    0.65 
   3   5  11    0.09    0.16 
   4   5  11    7.17    0.57 
   7  -6 -11    0.28    0.20 
   6  -6 -11    0.03    0.16 
   5  -6 -11    1.27    0.25 
   4  -6 -11   16.22    0.83 
   3  -6 -11    0.06    0.12 
   2  -6 -11    2.14    0.27 
  -2   6  11    2.26    0.28 
   1  -6 -11    0.04    0.11 
  -1   6  11    0.46    0.16 
   0  -6 -11   -0.10    0.10 
   0   6  11    0.08    0.13 
   1   6  11    2.58    0.34 
   2   6  11    0.22    0.15 
   3   6  11    0.27    0.17 
   4   6  11    1.78    0.34 
   7  -7 -11    0.45    0.21 
   6  -7 -11    1.13    0.26 
   5  -7 -11    3.27    0.37 
   4  -7 -11    0.46    0.19 
   3  -7 -11    8.04    0.51 
   2  -7 -11    1.18    0.22 
  -2   7  11    1.54    0.25 
   1  -7 -11    9.88    0.54 
  -1   7  11    9.05    0.56 
   0   7  11    1.39    0.26 
   1   7  11    0.09    0.13 
   2   7  11    0.45    0.19 
   3   7  11    4.09    0.46 
   4   7  11    2.41    0.39 
   6  -8 -11    0.20    0.18 
   5  -8 -11    2.63    0.35 
   4  -8 -11    3.61    0.37 
   3  -8 -11    0.29    0.15 
   2  -8 -11    1.19    0.21 
  -2   8  11    1.16    0.23 
   1  -8 -11    1.28    0.22 
  -1   8  11    1.50    0.26 
   0   8  11   -0.01    0.12 
   1   8  11    6.85    0.51 
   2   8  11    0.51    0.20 
   3   8  11    1.33    0.29 
   4   8  11    2.93    0.43 
   6  -9 -11    5.31    0.48 
   5  -9 -11    0.51    0.20 
   4  -9 -11    0.85    0.21 
   3  -9 -11    0.47    0.17 
   2  -9 -11    2.24    0.28 
  -2   9  11    2.75    0.31 
   1  -9 -11    0.10    0.12 
  -1   9  11    0.12    0.14 
   0   9  11    3.62    0.38 
   1   9  11    1.76    0.30 
   2   9  11   11.33    0.71 
   3   9  11    0.23    0.19 
   6 -10 -11    0.58    0.23 
   5 -10 -11    1.71    0.29 
   4 -10 -11    0.05    0.13 
   3 -10 -11   -0.24    0.09 
   2 -10 -11    1.99    0.27 
   1 -10 -11    0.23    0.13 
  -1  10  11    0.02    0.13 
   0  10  11    4.15    0.41 
   1  10  11    1.52    0.28 
   2  10  11    0.71    0.22 
   3  10  11    0.56    0.22 
   6 -11 -11    0.09    0.19 
   5 -11 -11    0.41    0.21 
   4 -11 -11   -0.06    0.14 
   3 -11 -11    1.36    0.24 
   2 -11 -11   -0.01    0.12 
   1 -11 -11    4.32    0.34 
  -1  11  11    4.11    0.39 
   0  11  11    3.30    0.38 
   1  11  11    2.58    0.37 
   2  11  11    0.67    0.22 
   3  11  11    1.02    0.27 
   5 -12 -11    0.29    0.19 
   4 -12 -11    0.38    0.18 
   3 -12 -11    0.98    0.22 
   2 -12 -11    1.10    0.22 
   1 -12 -11   -0.04    0.11 
  -1  12  11   -0.04    0.13 
   0  12  11    2.06    0.32 
   1  12  11    1.26    0.26 
   2  12  11    0.27    0.18 
   3  12  11    0.63    0.25 
   5 -13 -11    0.27    0.19 
   4 -13 -11    2.52    0.33 
   3 -13 -11    0.20    0.15 
   2 -13 -11    1.69    0.26 
  -1  13  11    1.19    0.23 
   0  13  11    4.21    0.42 
   1  13  11    0.76    0.23 
   2  13  11    2.81    0.40 
   5 -14 -11    1.70    0.31 
   4 -14 -11    1.32    0.28 
   3 -14 -11    0.12    0.14 
   2 -14 -11    0.46    0.17 
  -1  14  11    0.56    0.22 
   0  14  11    0.03    0.16 
   1  14  11    4.04    0.44 
   2  14  11    0.38    0.21 
   4 -15 -11    0.45    0.22 
   3 -15 -11    0.12    0.15 
   2 -15 -11    0.04    0.12 
   0  15  11    1.02    0.25 
   1  15  11    0.80    0.25 
   2  15  11    0.25    0.22 
   4 -16 -11    1.12    0.27 
   3 -16 -11    0.45    0.21 
   2 -16 -11    1.06    0.23 
   0  16  11    1.98    0.34 
   1  16  11   -0.07    0.18 
   3 -17 -11    0.73    0.23 
   2 -17 -11    0.68    0.21 
   0  17  11    3.17    0.41 
  -2 -15  12    0.08    0.17 
  -1 -15  12    0.98    0.27 
  -3 -14  12    0.05    0.18 
  -2 -14  12    1.45    0.29 
  -1 -14  12    0.67    0.24 
   0 -14  12    1.85    0.32 
  -4 -13  12    0.44    0.21 
  -3 -13  12    0.84    0.24 
  -2 -13  12    0.09    0.16 
  -1 -13  12    0.21    0.17 
   0 -13  12    0.15    0.17 
   1 -13  12    0.55    0.24 
  -4 -12  12    0.05    0.17 
  -3 -12  12    0.02    0.15 
  -2 -12  12    0.07    0.16 
  -1 -12  12    1.26    0.27 
   0 -12  12    0.57    0.22 
   1 -12  12    8.99    0.62 
   5  11 -12    0.05    0.22 
  -5 -11  12    0.28    0.18 
   4  11 -12    0.47    0.23 
  -4 -11  12    1.00    0.24 
  -3 -11  12    0.46    0.20 
  -2 -11  12    1.11    0.24 
  -1 -11  12    0.18    0.15 
   0 -11  12    5.19    0.47 
   1 -11  12    3.38    0.40 
   2 -11  12    0.55    0.22 
   5  10 -12    0.15    0.22 
  -5 -10  12    0.29    0.17 
   4  10 -12    0.61    0.24 
  -4 -10  12    0.50    0.18 
   3  10 -12    1.00    0.26 
  -3 -10  12    1.44    0.28 
  -2 -10  12    2.76    0.35 
  -1 -10  12    3.07    0.36 
   0 -10  12    0.07    0.15 
   1 -10  12    9.35    0.62 
   2 -10  12    0.07    0.18 
   5   9 -12    0.74    0.26 
  -5  -9  12    1.17    0.24 
   4   9 -12   -0.15    0.18 
  -4  -9  12    0.11    0.14 
   3   9 -12    0.29    0.19 
  -3  -9  12    0.16    0.14 
   2   9 -12    1.16    0.26 
  -2  -9  12    1.46    0.26 
  -1  -9  12    2.75    0.35 
   0  -9  12    0.52    0.19 
   1  -9  12   -0.04    0.13 
   2  -9  12    0.04    0.17 
   5   8 -12    0.24    0.23 
  -5  -8  12    0.24    0.19 
   4   8 -12    0.29    0.21 
  -4  -8  12    0.34    0.16 
   3   8 -12    0.55    0.21 
  -3  -8  12    0.86    0.21 
   2   8 -12    1.79    0.31 
  -2  -8  12    1.46    0.26 
  -1  -8  12    1.03    0.23 
   0  -8  12    1.56    0.28 
   1  -8  12    3.00    0.37 
   2  -8  12    0.28    0.16 
   6   7 -12    0.37    0.23 
   5   7 -12    0.35    0.20 
   4   7 -12    0.30    0.21 
  -4  -7  12    0.47    0.17 
   3   7 -12    0.44    0.21 
  -3  -7  12    0.27    0.15 
   2   7 -12    0.16    0.15 
  -2  -7  12    0.15    0.13 
   1   7 -12    0.75    0.21 
  -1  -7  12    0.59    0.19 
   0  -7  12    1.74    0.29 
   1  -7  12   -0.11    0.13 
   2  -7  12    2.49    0.36 
   3  -7  12    0.77    0.25 
   6   6 -12    0.21    0.23 
   5   6 -12   -0.14    0.15 
   4   6 -12    1.54    0.31 
  -4  -6  12    1.80    0.27 
   3   6 -12    0.09    0.15 
  -3  -6  12    0.11    0.12 
   2   6 -12   -0.05    0.15 
  -2  -6  12    0.21    0.15 
   1   6 -12    0.12    0.16 
  -1  -6  12    0.20    0.15 
   0  -6  12    0.24    0.15 
   1  -6  12    3.72    0.40 
   2  -6  12    1.22    0.28 
   3  -6  12    1.67    0.32 
   6   5 -12    0.44    0.23 
   5   5 -12    4.71    0.48 
   4   5 -12    3.54    0.42 
  -4  -5  12    3.12    0.34 
   3   5 -12    2.63    0.35 
  -3  -5  12    2.48    0.31 
   2   5 -12    2.51    0.33 
  -2  -5  12    2.94    0.33 
   1   5 -12    0.87    0.21 
  -1  -5  12    0.84    0.20 
   0  -5  12    2.79    0.35 
   1  -5  12   -0.15    0.12 
   2  -5  12    1.21    0.27 
   3  -5  12    1.53    0.32 
   6   4 -12   -0.17    0.18 
   5   4 -12   -0.01    0.18 
   4   4 -12    0.98    0.26 
  -4  -4  12    1.07    0.22 
   3   4 -12    1.44    0.29 
  -3  -4  12    2.00    0.28 
   2   4 -12    4.73    0.43 
  -2  -4  12    5.14    0.41 
   1   4 -12    0.80    0.21 
  -1  -4  12    0.57    0.20 
   0   4 -12    0.68    0.20 
   0  -4  12    0.89    0.21 
   1  -4  12    0.15    0.13 
   2  -4  12    3.17    0.39 
   3  -4  12    4.67    0.49 
   6   3 -12    2.40    0.38 
   5   3 -12    4.02    0.44 
   4   3 -12    1.47    0.29 
  -4  -3  12    1.98    0.28 
   3   3 -12    0.67    0.22 
  -3  -3  12    0.78    0.20 
   2   3 -12    4.88    0.43 
  -2  -3  12    5.36    0.41 
   1   3 -12    2.20    0.30 
  -1  -3  12    2.46    0.32 
   0   3 -12    0.81    0.20 
   0  -3  12    1.00    0.24 
   1  -3  12    0.17    0.17 
   2  -3  12    0.56    0.20 
   3  -3  12    0.09    0.19 
   6   2 -12    0.44    0.23 
   5   2 -12    4.30    0.46 
   4   2 -12    1.66    0.30 
  -4  -2  12    1.87    0.28 
   3   2 -12    2.11    0.32 
  -3  -2  12    1.70    0.27 
   2   2 -12    0.22    0.15 
  -2  -2  12   -0.08    0.13 
   1   2 -12    2.30    0.30 
  -1  -2  12    2.26    0.31 
   0   2 -12    0.27    0.15 
   0  -2  12    0.15    0.16 
   1  -2  12    2.50    0.34 
   2  -2  12    0.15    0.18 
   3  -2  12    5.62    0.52 
   6   1 -12    5.15    0.51 
   5   1 -12    1.49    0.32 
   4   1 -12    3.22    0.39 
   3   1 -12   16.19    0.85 
  -3  -1  12   17.12    0.83 
   2   1 -12   -0.10    0.12 
  -2  -1  12    0.04    0.14 
   1   1 -12    2.13    0.29 
  -1  -1  12    2.25    0.31 
   0   1 -12    2.12    0.28 
   0  -1  12    2.82    0.35 
   1  -1  12    0.79    0.22 
   2  -1  12    5.15    0.48 
   3  -1  12    5.03    0.50 
   6   0 -12    0.24    0.23 
   5   0 -12    0.05    0.20 
   4   0 -12    6.12    0.48 
   3   0 -12   -0.12    0.14 
  -3   0  12    0.02    0.13 
   2   0 -12    3.70    0.36 
  -2   0  12    3.41    0.35 
   1   0 -12    0.03    0.12 
  -1   0  12    0.09    0.14 
   0   0 -12    0.31    0.15 
   0   0  12    0.10    0.14 
   1   0  12   -0.08    0.14 
   2   0  12    5.54    0.51 
   3   0  12   -0.26    0.16 
   6  -1 -12    5.71    0.53 
   5  -1 -12    2.27    0.36 
   4  -1 -12    3.28    0.39 
   3  -1 -12   15.66    0.84 
  -3   1  12   17.38    0.83 
   2  -1 -12   -0.20    0.10 
  -2   1  12    0.04    0.13 
   1  -1 -12    2.02    0.28 
  -1   1  12    2.25    0.31 
   0  -1 -12    2.37    0.28 
   0   1  12    2.59    0.35 
   1   1  12    0.58    0.20 
   2   1  12    6.21    0.51 
   3   1  12    6.00    0.55 
   6  -2 -12    0.15    0.21 
   5  -2 -12    4.69    0.47 
   4  -2 -12    1.61    0.30 
   3  -2 -12    2.41    0.34 
  -3   2  12    2.54    0.31 
   2  -2 -12    0.09    0.14 
  -2   2  12    0.00    0.14 
   1  -2 -12    2.37    0.29 
  -1   2  12    2.68    0.33 
   0  -2 -12    0.13    0.13 
   0   2  12    0.17    0.15 
   1   2  12    2.54    0.35 
   2   2  12    0.05    0.18 
   3   2  12    5.55    0.53 
   6  -3 -12    1.67    0.33 
   5  -3 -12    3.66    0.42 
   4  -3 -12    1.80    0.30 
   3  -3 -12    1.05    0.24 
  -3   3  12    0.55    0.19 
   2  -3 -12    5.56    0.43 
  -2   3  12    6.03    0.44 
   1  -3 -12    2.80    0.31 
  -1   3  12    2.75    0.34 
   0   3  12    0.71    0.22 
   1   3  12    0.45    0.19 
   2   3  12    0.65    0.22 
   3   3  12   -0.13    0.18 
   6  -4 -12   -0.10    0.19 
   5  -4 -12    0.34    0.21 
   4  -4 -12    1.02    0.24 
   3  -4 -12    1.86    0.30 
   2  -4 -12    4.45    0.40 
  -2   4  12    5.46    0.42 
   1  -4 -12    0.67    0.18 
  -1   4  12    0.94    0.23 
   0   4  12    1.06    0.23 
   1   4  12   -0.03    0.13 
   2   4  12    3.03    0.40 
   3   4  12    4.46    0.50 
   6  -5 -12    0.34    0.22 
   5  -5 -12    4.43    0.45 
   4  -5 -12    3.00    0.37 
   3  -5 -12    2.66    0.33 
   2  -5 -12    2.54    0.31 
  -2   5  12    2.74    0.33 
   1  -5 -12    0.71    0.19 
  -1   5  12    1.01    0.23 
   0   5  12    2.34    0.33 
   1   5  12   -0.07    0.13 
   2   5  12    1.15    0.26 
   3   5  12    1.32    0.32 
   6  -6 -12    0.15    0.20 
   5  -6 -12    0.03    0.18 
   4  -6 -12    1.14    0.25 
   3  -6 -12    0.12    0.13 
   2  -6 -12    0.18    0.15 
  -2   6  12    0.29    0.15 
   1  -6 -12    0.35    0.15 
  -1   6  12    0.07    0.15 
   0   6  12    0.22    0.16 
   1   6  12    4.53    0.46 
   2   6  12    1.43    0.31 
   3   6  12    1.83    0.37 
   6  -7 -12    0.33    0.21 
   5  -7 -12    0.56    0.22 
   4  -7 -12    0.36    0.19 
   3  -7 -12    0.45    0.19 
   2  -7 -12    0.11    0.13 
  -2   7  12   -0.22    0.11 
   1  -7 -12    0.55    0.17 
  -1   7  12    0.84    0.22 
   0   7  12    2.02    0.32 
   1   7  12    0.15    0.17 
   2   7  12    2.54    0.38 
   3   7  12    0.75    0.29 
   5  -8 -12    0.61    0.21 
   4  -8 -12    0.21    0.17 
   3  -8 -12    0.76    0.22 
   2  -8 -12    1.45    0.25 
  -2   8  12    2.08    0.30 
   1  -8 -12    0.97    0.21 
  -1   8  12    1.20    0.25 
   0   8  12    1.96    0.31 
   1   8  12    3.66    0.42 
   2   8  12    0.30    0.22 
   5  -9 -12    0.67    0.24 
   4  -9 -12    0.04    0.15 
   3  -9 -12    0.05    0.13 
   2  -9 -12    1.23    0.24 
  -1   9  12    2.71    0.35 
   0   9  12    0.41    0.17 
   1   9  12    0.12    0.17 
   2   9  12   -0.02    0.17 
   5 -10 -12   -0.15    0.17 
   4 -10 -12    0.48    0.20 
   3 -10 -12    1.60    0.27 
   2 -10 -12    2.44    0.31 
  -1  10  12    3.65    0.40 
   0  10  12   -0.07    0.15 
   1  10  12   10.78    0.70 
   2  10  12   -0.02    0.19 
   5 -11 -12   -0.03    0.18 
   4 -11 -12    0.92    0.24 
   3 -11 -12    0.05    0.14 
   2 -11 -12    1.15    0.23 
  -1  11  12   -0.10    0.14 
   0  11  12    6.23    0.50 
   1  11  12    4.30    0.48 
   2  11  12    0.24    0.22 
   4 -12 -12    0.18    0.20 
   3 -12 -12    0.22    0.15 
   2 -12 -12    0.19    0.16 
  -1  12  12    1.62    0.30 
   0  12  12    0.87    0.25 
   1  12  12    8.90    0.63 
   4 -13 -12    0.15    0.20 
   3 -13 -12    0.64    0.22 
   2 -13 -12   -0.01    0.14 
   0  13  12    0.19    0.17 
   1  13  12    0.38    0.21 
   3 -14 -12    0.29    0.19 
   2 -14 -12    1.15    0.26 
   0  14  12    2.28    0.36 
  -2 -11  13    0.46    0.22 
  -1 -11  13    0.23    0.19 
   3  10 -13    0.06    0.21 
  -3 -10  13    0.26    0.18 
  -2 -10  13    0.22    0.18 
  -1 -10  13    0.16    0.18 
   0 -10  13    1.13    0.27 
   3   9 -13    0.19    0.24 
  -3  -9  13    0.44    0.20 
  -2  -9  13    1.19    0.27 
  -1  -9  13    1.35    0.29 
   0  -9  13    7.03    0.55 
   4   8 -13    0.90    0.29 
  -4  -8  13    0.58    0.21 
   3   8 -13    1.68    0.34 
  -3  -8  13    1.76    0.30 
   2   8 -13    0.06    0.18 
  -2  -8  13    0.08    0.17 
  -1  -8  13    1.50    0.28 
   0  -8  13    0.16    0.19 
   1  -8  13    0.33    0.21 
   4   7 -13    1.05    0.30 
  -4  -7  13    0.61    0.20 
   3   7 -13    1.83    0.35 
  -3  -7  13    1.77    0.29 
   2   7 -13    0.13    0.19 
  -2  -7  13    0.23    0.17 
  -1  -7  13    0.44    0.19 
   0  -7  13    2.58    0.36 
   1  -7  13    2.84    0.40 
   4   6 -13    2.91    0.41 
  -4  -6  13    2.51    0.33 
   3   6 -13    0.62    0.24 
  -3  -6  13    0.93    0.23 
   2   6 -13    0.33    0.20 
  -2  -6  13    0.08    0.17 
   1   6 -13    0.11    0.17 
  -1  -6  13    0.32    0.16 
   0  -6  13    0.10    0.15 
   1  -6  13    0.27    0.20 
   5   5 -13    0.78    0.29 
   4   5 -13    0.72    0.27 
  -4  -5  13    1.15    0.25 
   3   5 -13    0.14    0.20 
  -3  -5  13   -0.05    0.14 
   2   5 -13    2.49    0.36 
  -2  -5  13    2.51    0.33 
   1   5 -13    0.23    0.18 
  -1  -5  13    0.61    0.21 
   0  -5  13    1.14    0.25 
   1  -5  13    0.55    0.23 
   5   4 -13    0.21    0.24 
   4   4 -13    0.12    0.22 
  -4  -4  13    0.03    0.18 
   3   4 -13    1.17    0.28 
  -3  -4  13    1.74    0.29 
   2   4 -13    0.03    0.16 
  -2  -4  13   -0.16    0.13 
   1   4 -13    3.13    0.37 
  -1  -4  13    4.06    0.41 
   0  -4  13    0.11    0.17 
   1  -4  13    4.31    0.46 
   2  -4  13    1.37    0.31 
   5   3 -13    0.10    0.22 
   4   3 -13    1.32    0.31 
   3   3 -13    0.59    0.23 
  -3  -3  13    0.80    0.21 
   2   3 -13    0.05    0.16 
  -2  -3  13    0.04    0.15 
   1   3 -13   -0.07    0.14 
  -1  -3  13    0.12    0.15 
   0   3 -13   -0.08    0.14 
   0  -3  13    0.12    0.15 
   1  -3  13    0.27    0.19 
   2  -3  13    0.94    0.28 
   5   2 -13    0.17    0.22 
   4   2 -13    3.19    0.41 
   3   2 -13    0.31    0.18 
  -3  -2  13   -0.05    0.15 
   2   2 -13    1.33    0.27 
  -2  -2  13    1.71    0.28 
   1   2 -13    0.45    0.19 
  -1  -2  13    1.22    0.26 
   0   2 -13    3.93    0.40 
   0  -2  13    4.57    0.45 
   1  -2  13    1.64    0.31 
   2  -2  13   -0.03    0.21 
   5   1 -13   -0.14    0.19 
   4   1 -13    0.59    0.23 
   3   1 -13    0.19    0.18 
  -3  -1  13    0.43    0.17 
   2   1 -13    0.47    0.20 
  -2  -1  13    0.38    0.17 
   1   1 -13    0.10    0.15 
  -1  -1  13   -0.03    0.14 
   0  -1  13    0.37    0.20 
   1  -1  13    0.12    0.18 
   2  -1  13    0.71    0.26 
   5   0 -13    0.84    0.30 
   4   0 -13    0.08    0.20 
   3   0 -13   -0.11    0.14 
  -3   0  13    0.16    0.15 
   2   0 -13   -0.19    0.14 
  -2   0  13    0.07    0.15 
   1   0 -13    0.81    0.21 
  -1   0  13    1.01    0.24 
   0   0  13    0.36    0.19 
   1   0  13    0.61    0.24 
   2   0  13    0.16    0.19 
   5  -1 -13   -0.17    0.19 
   4  -1 -13    0.02    0.21 
   3  -1 -13    0.29    0.18 
  -3   1  13    0.19    0.17 
   2  -1 -13    0.67    0.20 
  -2   1  13    0.41    0.19 
   1  -1 -13    0.07    0.16 
  -1   1  13    0.20    0.17 
   0   1  13    0.14    0.16 
   1   1  13    0.28    0.19 
   2   1  13    0.74    0.28 
   5  -2 -13    0.05    0.23 
   4  -2 -13    2.36    0.37 
   3  -2 -13    0.05    0.17 
   2  -2 -13    1.92    0.30 
  -2   2  13    1.31    0.26 
   1  -2 -13    0.59    0.19 
  -1   2  13    0.71    0.22 
   0   2  13    4.76    0.46 
   1   2  13    1.64    0.31 
   2   2  13    0.33    0.23 
   5  -3 -13    0.25    0.22 
   4  -3 -13    1.30    0.30 
   3  -3 -13    0.60    0.21 
   2  -3 -13   -0.17    0.13 
  -2   3  13   -0.05    0.14 
   1  -3 -13    0.09    0.15 
  -1   3  13    0.30    0.18 
   0   3  13    0.07    0.17 
   1   3  13    0.39    0.22 
   2   3  13    0.80    0.28 
   5  -4 -13    0.61    0.27 
   4  -4 -13    0.46    0.23 
   3  -4 -13    1.57    0.31 
   2  -4 -13   -0.01    0.15 
  -2   4  13    0.20    0.17 
   1  -4 -13    3.58    0.37 
  -1   4  13    3.60    0.40 
   0   4  13    0.35    0.20 
   1   4  13    4.39    0.48 
   2   4  13    0.91    0.28 
   5  -5 -13    0.67    0.26 
   4  -5 -13    1.10    0.29 
   3  -5 -13    0.17    0.19 
   2  -5 -13    2.33    0.33 
  -2   5  13    3.09    0.36 
  -1   5  13    0.20    0.18 
   0   5  13    1.07    0.26 
   1   5  13    0.45    0.19 
   4  -6 -13    3.22    0.41 
   3  -6 -13    0.88    0.25 
   2  -6 -13    0.01    0.14 
  -2   6  13   -0.02    0.15 
  -1   6  13   -0.05    0.13 
   0   6  13    0.14    0.17 
   1   6  13    0.05    0.19 
   4  -7 -13    0.47    0.22 
   3  -7 -13    1.93    0.32 
   2  -7 -13    0.12    0.16 
  -1   7  13    0.33    0.19 
   0   7  13    1.80    0.32 
   1   7  13    2.98    0.42 
   4  -8 -13    0.47    0.24 
   3  -8 -13    1.46    0.29 
   2  -8 -13    0.15    0.17 
  -1   8  13    1.63    0.30 
   0   8  13   -0.01    0.18 
   1   8  13    0.36    0.24 
   3  -9 -13    0.54    0.22 
   2  -9 -13    1.79    0.29 
  -1   9  13    1.16    0.28 
   0   9  13    8.30    0.61 
   3 -10 -13    0.04    0.17 
   2 -10 -13    0.04    0.16 
  -1  10  13   -0.01    0.19 
   0  10  13    0.95    0.27 
  -1  11  13    0.15    0.23 
   2   4 -14   -0.05    0.19 
   2   3 -14    3.35    0.42 
  -2  -3  14    3.15    0.40 
   1   3 -14    0.73    0.24 
  -1  -3  14    0.83    0.26 
   2   2 -14   -0.17    0.18 
  -2  -2  14    0.37    0.20 
   1   2 -14    2.40    0.36 
  -1  -2  14    3.19    0.41 
   3   1 -14    0.55    0.24 
  -3  -1  14    0.89    0.27 
   2   1 -14    5.18    0.49 
  -2  -1  14    5.80    0.51 
   1   1 -14    1.97    0.34 
  -1  -1  14    2.67    0.38 
   3   0 -14   -0.20    0.20 
   2   0 -14    0.10    0.20 
  -2   0  14    0.20    0.19 
   1   0 -14    0.04    0.20 
  -1   0  14    0.23    0.19 
   3  -1 -14    1.04    0.29 
   2  -1 -14    5.28    0.49 
  -2   1  14    5.77    0.51 
  -1   1  14    2.17    0.36 
   2  -2 -14    0.01    0.19 
  -2   2  14    0.16    0.19 
  -1   2  14    2.62    0.38 
   2  -3 -14    3.81    0.42 
  -2   3  14    3.71    0.42 
  -1   3  14    0.69    0.26 
   2  -4 -14    0.22    0.19 
  -2   4  14    0.13    0.19 
   0   0   0    0.00    0.00 
;
_shelx_hkl_checksum              99105
loop_
_space_group_symop_operation_xyz
'x, y, z'
'-x+1/2, y+1/2, -z+1/2'
'-x, -y, -z'
'x-1/2, -y-1/2, z-1/2'
loop_
_atom_site_label
_atom_site_type_symbol
_atom_site_fract_x
_atom_site_fract_y
_atom_site_fract_z
_atom_site_U_iso_or_equiv
_atom_site_adp_type
_atom_site_occupancy
_atom_site_site_symmetry_order
_atom_site_calc_flag
_atom_site_refinement_flags_posn
_atom_site_refinement_flags_adp
S1 S 1.06424(7) 0.11239(2) 0.30908(4) 0.03524(17) Uani 1 1 d . .
N1 N 0.8256(2) -0.05097(7) 0.06112(14) 0.0313(3) Uani 1 1 d . .
N2 N 0.9228(2) -0.03167(7) 0.26535(13) 0.0329(3) Uani 1 1 d . .
N3 N 0.8647(2) 0.07850(7) 0.26882(13) 0.0348(4) Uani 1 1 d . .
O1 O 0.45662(19) 0.15491(6) -0.34148(12) 0.0461(4) Uani 1 1 d . .
O2 O 1.1495(2) 0.11154(6) 0.19780(12) 0.0472(4) Uani 1 1 d . .
O3 O 1.0315(2) 0.17010(6) 0.36510(13) 0.0508(4) Uani 1 1 d . .
C1 C 0.9004(2) -0.07502(8) 0.17650(15) 0.0293(4) Uani 1 1 d . .
C2 C 0.8623(2) 0.02147(8) 0.20208(16) 0.0310(4) Uani 1 1 d . .
C3 C 0.7982(2) 0.01143(8) 0.07452(16) 0.0306(4) Uani 1 1 d . .
C4 C 0.7099(2) 0.05045(8) -0.03080(16) 0.0308(4) Uani 1 1 d . .
C5 C 0.6872(3) 0.11364(9) -0.01778(18) 0.0420(5) Uani 1 1 d . .
H5 H 0.7305 0.1320 0.0609 0.050 Uiso 1 1 calc R U
C6 C 0.6024(3) 0.15027(9) -0.11760(18) 0.0415(5) Uani 1 1 d . .
H6 H 0.5882 0.1923 -0.1054 0.050 Uiso 1 1 calc R U
C7 C 0.5391(2) 0.12390(9) -0.23552(17) 0.0350(4) Uani 1 1 d . .
C8 C 0.5592(3) 0.06116(10) -0.24998(18) 0.0451(5) Uani 1 1 d . .
H8 H 0.5158 0.0430 -0.3288 0.054 Uiso 1 1 calc R U
C9 C 0.6421(3) 0.02515(9) -0.15015(17) 0.0407(5) Uani 1 1 d . .
H9 H 0.6532 -0.0171 -0.1625 0.049 Uiso 1 1 calc R U
C10 C 0.4210(3) 0.21874(10) -0.32796(19) 0.0464(5) Uani 1 1 d . .
H10A H 0.3555 0.2246 -0.2584 0.070 Uiso 1 1 calc R U
H10B H 0.3484 0.2339 -0.4056 0.070 Uiso 1 1 calc R U
H10C H 0.5349 0.2409 -0.3108 0.070 Uiso 1 1 calc R U
C11 C 0.9471(2) -0.14023(8) 0.19944(16) 0.0308(4) Uani 1 1 d . .
C12 C 0.9161(3) -0.18472(9) 0.10344(17) 0.0388(4) Uani 1 1 d . .
H12 H 0.8647 -0.1734 0.0204 0.047 Uiso 1 1 calc R U
C13 C 0.9615(3) -0.24572(9) 0.13127(19) 0.0450(5) Uani 1 1 d . .
H13 H 0.9411 -0.2751 0.0665 0.054 Uiso 1 1 calc R U
C14 C 1.0366(3) -0.26345(9) 0.2539(2) 0.0459(5) Uani 1 1 d . .
H14 H 1.0669 -0.3045 0.2719 0.055 Uiso 1 1 calc R U
C15 C 1.0664(3) -0.21980(10) 0.34958(19) 0.0465(5) Uani 1 1 d . .
H15 H 1.1157 -0.2315 0.4328 0.056 Uiso 1 1 calc R U
C16 C 1.0233(3) -0.15882(9) 0.32213(18) 0.0410(5) Uani 1 1 d . .
H16 H 1.0458 -0.1296 0.3872 0.049 Uiso 1 1 calc R U
C17 C 0.7328(3) 0.08459(10) 0.3568(2) 0.0520(5) Uani 1 1 d . .
H17A H 0.6117 0.0755 0.3119 0.078 Uiso 1 1 calc R U
H17B H 0.7360 0.1260 0.3891 0.078 Uiso 1 1 calc R U
H17C H 0.7645 0.0563 0.4267 0.078 Uiso 1 1 calc R U
C18 C 1.1984(3) 0.06682(10) 0.42606(18) 0.0456(5) Uani 1 1 d . .
H18A H 1.3145 0.0866 0.4540 0.068 Uiso 1 1 calc R U
H18B H 1.2181 0.0271 0.3907 0.068 Uiso 1 1 calc R U
H18C H 1.1362 0.0618 0.4975 0.068 Uiso 1 1 calc R U
H1 H 0.813(3) -0.0696(10) -0.011(2) 0.041(6) Uiso 1 1 d . .
loop_
_atom_site_aniso_label
_atom_site_aniso_U_11
_atom_site_aniso_U_22
_atom_site_aniso_U_33
_atom_site_aniso_U_23
_atom_site_aniso_U_13
_atom_site_aniso_U_12
S1 0.0536(3) 0.0258(3) 0.0246(3) -0.00225(17) 0.0022(2) -0.00515(19)
N1 0.0401(8) 0.0286(8) 0.0246(7) -0.0052(6) 0.0039(6) -0.0035(6)
N2 0.0397(8) 0.0301(8) 0.0278(7) -0.0029(6) 0.0027(6) -0.0012(6)
N3 0.0463(9) 0.0303(8) 0.0260(7) -0.0046(6) 0.0013(6) 0.0011(7)
O1 0.0575(8) 0.0404(8) 0.0352(7) 0.0020(6) -0.0064(6) 0.0072(6)
O2 0.0684(9) 0.0415(8) 0.0334(7) -0.0036(6) 0.0137(7) -0.0164(7)
O3 0.0814(10) 0.0276(7) 0.0409(8) -0.0083(6) 0.0040(7) -0.0039(7)
C1 0.0318(9) 0.0301(9) 0.0260(8) -0.0008(7) 0.0048(7) -0.0035(7)
C2 0.0360(9) 0.0280(9) 0.0283(9) -0.0035(7) 0.0035(7) -0.0024(7)
C3 0.0334(9) 0.0288(9) 0.0297(9) -0.0035(7) 0.0057(7) -0.0034(7)
C4 0.0310(9) 0.0324(9) 0.0280(9) -0.0018(7) 0.0029(7) -0.0040(7)
C5 0.0554(12) 0.0359(11) 0.0310(10) -0.0057(8) -0.0030(9) -0.0016(9)
C6 0.0533(11) 0.0315(10) 0.0368(10) -0.0024(8) -0.0004(9) 0.0012(8)
C7 0.0333(9) 0.0371(10) 0.0325(9) 0.0023(8) 0.0003(7) 0.0007(8)
C8 0.0558(12) 0.0434(12) 0.0306(10) -0.0103(8) -0.0077(9) 0.0044(9)
C9 0.0526(11) 0.0302(10) 0.0355(10) -0.0050(8) -0.0034(9) 0.0046(8)
C10 0.0503(12) 0.0429(12) 0.0463(12) 0.0100(9) 0.0093(9) 0.0073(9)
C11 0.0320(9) 0.0308(10) 0.0301(9) -0.0014(7) 0.0065(7) -0.0014(7)
C12 0.0525(11) 0.0356(10) 0.0284(9) -0.0008(8) 0.0072(8) -0.0032(8)
C13 0.0609(13) 0.0349(11) 0.0412(11) -0.0088(8) 0.0147(9) -0.0021(9)
C14 0.0507(12) 0.0311(10) 0.0566(13) 0.0050(9) 0.0112(10) 0.0106(9)
C15 0.0497(11) 0.0452(12) 0.0404(11) 0.0039(9) -0.0041(9) 0.0107(9)
C16 0.0471(11) 0.0400(11) 0.0330(10) -0.0060(8) -0.0008(8) 0.0068(9)
C17 0.0552(13) 0.0488(13) 0.0538(13) -0.0149(10) 0.0149(10) 0.0042(10)
C18 0.0521(12) 0.0455(12) 0.0349(10) 0.0004(9) -0.0044(9) 0.0008(9)
loop_
_atom_type_symbol
_atom_type_description
_atom_type_scat_dispersion_real
_atom_type_scat_dispersion_imag
_atom_type_scat_source
C C 0.0033 0.0016 'International Tables Vol C Tables 4.2.6.8 and 6.1.1.4'
H H 0.0000 0.0000 'International Tables Vol C Tables 4.2.6.8 and 6.1.1.4'
N N 0.0061 0.0033 'International Tables Vol C Tables 4.2.6.8 and 6.1.1.4'
O O 0.0106 0.0060 'International Tables Vol C Tables 4.2.6.8 and 6.1.1.4'
S S 0.1246 0.1234 'International Tables Vol C Tables 4.2.6.8 and 6.1.1.4'
loop_
_geom_angle_atom_site_label_1
_geom_angle_atom_site_label_2
_geom_angle_atom_site_label_3
_geom_angle
O3 S1 O2 119.14(9)
O3 S1 N3 106.95(9)
O2 S1 N3 106.60(8)
O3 S1 C18 108.42(9)
O2 S1 C18 107.45(10)
N3 S1 C18 107.81(9)
C1 N1 C3 109.15(14)
C1 N1 H1 126.1(14)
C3 N1 H1 124.1(14)
C1 N2 C2 105.00(14)
C2 N3 C17 116.24(15)
C2 N3 S1 116.86(12)
C17 N3 S1 117.56(12)
C7 O1 C10 117.54(15)
N2 C1 N1 110.59(15)
N2 C1 C11 124.82(15)
N1 C1 C11 124.59(15)
N2 C2 C3 112.22(15)
N2 C2 N3 120.80(15)
C3 C2 N3 126.95(16)
C2 C3 N1 103.03(15)
C2 C3 C4 134.00(16)
N1 C3 C4 122.88(15)
C5 C4 C9 116.63(16)
C5 C4 C3 122.67(15)
C9 C4 C3 120.70(16)
C6 C5 C4 122.41(17)
C6 C5 H5 118.8
C4 C5 H5 118.8
C7 C6 C5 119.56(18)
C7 C6 H6 120.2
C5 C6 H6 120.2
O1 C7 C8 115.90(16)
O1 C7 C6 125.26(18)
C8 C7 C6 118.84(17)
C9 C8 C7 121.16(17)
C9 C8 H8 119.4
C7 C8 H8 119.4
C8 C9 C4 121.39(18)
C8 C9 H9 119.3
C4 C9 H9 119.3
O1 C10 H10A 109.5
O1 C10 H10B 109.5
H10A C10 H10B 109.5
O1 C10 H10C 109.5
H10A C10 H10C 109.5
H10B C10 H10C 109.5
C16 C11 C12 118.31(17)
C16 C11 C1 118.83(16)
C12 C11 C1 122.85(16)
C13 C12 C11 120.18(18)
C13 C12 H12 119.9
C11 C12 H12 119.9
C14 C13 C12 120.74(18)
C14 C13 H13 119.6
C12 C13 H13 119.6
C15 C14 C13 119.42(19)
C15 C14 H14 120.3
C13 C14 H14 120.3
C14 C15 C16 120.09(19)
C14 C15 H15 120.0
C16 C15 H15 120.0
C15 C16 C11 121.24(18)
C15 C16 H16 119.4
C11 C16 H16 119.4
N3 C17 H17A 109.5
N3 C17 H17B 109.5
H17A C17 H17B 109.5
N3 C17 H17C 109.5
H17A C17 H17C 109.5
H17B C17 H17C 109.5
S1 C18 H18A 109.5
S1 C18 H18B 109.5
H18A C18 H18B 109.5
S1 C18 H18C 109.5
H18A C18 H18C 109.5
H18B C18 H18C 109.5
loop_
_geom_bond_atom_site_label_1
_geom_bond_atom_site_label_2
_geom_bond_distance
S1 O3 1.4243(14)
S1 O2 1.4331(14)
S1 N3 1.6386(16)
S1 C18 1.754(2)
N1 C1 1.357(2)
N1 C3 1.379(2)
N1 H1 0.86(2)
N2 C1 1.321(2)
N2 C2 1.369(2)
N3 C2 1.424(2)
N3 C17 1.470(2)
O1 C7 1.360(2)
O1 C10 1.421(2)
C1 C11 1.466(2)
C2 C3 1.372(2)
C3 C4 1.462(2)
C4 C5 1.390(3)
C4 C9 1.392(2)
C5 C6 1.384(3)
C5 H5 0.9300
C6 C7 1.382(3)
C6 H6 0.9300
C7 C8 1.380(3)
C8 C9 1.372(3)
C8 H8 0.9300
C9 H9 0.9300
C10 H10A 0.9600
C10 H10B 0.9600
C10 H10C 0.9600
C11 C16 1.386(3)
C11 C12 1.393(2)
C12 C13 1.384(3)
C12 H12 0.9300
C13 C14 1.378(3)
C13 H13 0.9300
C14 C15 1.378(3)
C14 H14 0.9300
C15 C16 1.379(3)
C15 H15 0.9300
C16 H16 0.9300
C17 H17A 0.9600
C17 H17B 0.9600
C17 H17C 0.9600
C18 H18A 0.9600
C18 H18B 0.9600
C18 H18C 0.9600
loop_
_geom_torsion_atom_site_label_1
_geom_torsion_atom_site_label_2
_geom_torsion_atom_site_label_3
_geom_torsion_atom_site_label_4
_geom_torsion
O3 S1 N3 C2 175.62(12)
O2 S1 N3 C2 47.15(14)
C18 S1 N3 C2 -67.97(14)
O3 S1 N3 C17 -38.96(16)
O2 S1 N3 C17 -167.43(14)
C18 S1 N3 C17 77.45(16)
C2 N2 C1 N1 -1.02(19)
C2 N2 C1 C11 179.88(15)
C3 N1 C1 N2 0.31(19)
C3 N1 C1 C11 179.41(15)
C1 N2 C2 C3 1.4(2)
C1 N2 C2 N3 179.52(15)
C17 N3 C2 N2 -69.8(2)
S1 N3 C2 N2 76.04(19)
C17 N3 C2 C3 108.0(2)
S1 N3 C2 C3 -106.15(18)
N2 C2 C3 N1 -1.21(19)
N3 C2 C3 N1 -179.17(16)
N2 C2 C3 C4 175.34(17)
N3 C2 C3 C4 -2.6(3)
C1 N1 C3 C2 0.54(18)
C1 N1 C3 C4 -176.51(15)
C2 C3 C4 C5 5.9(3)
N1 C3 C4 C5 -178.13(17)
C2 C3 C4 C9 -173.38(19)
N1 C3 C4 C9 2.6(3)
C9 C4 C5 C6 -0.3(3)
C3 C4 C5 C6 -179.55(18)
C4 C5 C6 C7 -0.7(3)
C10 O1 C7 C8 175.36(17)
C10 O1 C7 C6 -4.7(3)
C5 C6 C7 O1 -178.78(18)
C5 C6 C7 C8 1.2(3)
O1 C7 C8 C9 179.29(18)
C6 C7 C8 C9 -0.7(3)
C7 C8 C9 C4 -0.3(3)
C5 C4 C9 C8 0.8(3)
C3 C4 C9 C8 -179.91(18)
N2 C1 C11 C16 -1.2(3)
N1 C1 C11 C16 179.88(16)
N2 C1 C11 C12 178.04(17)
N1 C1 C11 C12 -0.9(3)
C16 C11 C12 C13 -0.2(3)
C1 C11 C12 C13 -179.39(17)
C11 C12 C13 C14 0.4(3)
C12 C13 C14 C15 0.1(3)
C13 C14 C15 C16 -0.8(3)
C14 C15 C16 C11 1.0(3)
C12 C11 C16 C15 -0.5(3)
C1 C11 C16 C15 178.71(18)
