#------------------------------------------------------------------------------
#$Date: 2017-07-05 00:29:44 +0300 (Wed, 05 Jul 2017) $
#$Revision: 198438 $
#$URL: file:///home/coder/svn-repositories/cod/cif/1/54/62/1546242.cif $
#------------------------------------------------------------------------------
#
# This file is available in the Crystallography Open Database (COD),
# http://www.crystallography.net/
#
# All data on this site have been placed in the public domain by the
# contributors.
#
data_1546242
loop_
_publ_author_name
'Ye, Tzuen-Yang'
'Selvaraju, Manikandan'
'Sun, Chung-Ming'
_publ_section_title
;
 Cascade Synthesis of Benzimidazole-Linked Pyrroles via Copper Catalyzed
 Oxidative Cyclization and Ketonization.
;
_journal_issue                   12
_journal_name_full               'Organic letters'
_journal_page_first              3103
_journal_page_last               3106
_journal_paper_doi               10.1021/acs.orglett.7b01224
_journal_volume                  19
_journal_year                    2017
_chemical_formula_sum            'C33 H27 N3 O4 S'
_chemical_formula_weight         561.63
_space_group_crystal_system      triclinic
_space_group_IT_number           2
_space_group_name_Hall           '-P 1'
_space_group_name_H-M_alt        'P -1'
_symmetry_space_group_name_Hall  '-P 1'
_symmetry_space_group_name_H-M   'P -1'
_atom_sites_solution_hydrogens   geom
_audit_creation_method           SHELXL-2014/6
_cell_angle_alpha                82.816(3)
_cell_angle_beta                 79.911(2)
_cell_angle_gamma                71.445(3)
_cell_formula_units_Z            2
_cell_length_a                   9.4864(11)
_cell_length_b                   9.9158(11)
_cell_length_c                   15.8741(18)
_cell_measurement_reflns_used    8086
_cell_measurement_temperature    100(2)
_cell_measurement_theta_max      26.3456
_cell_measurement_theta_min      2.4508
_cell_volume                     1389.8(3)
_computing_cell_refinement       'SAINT V8.34A (Bruker AXS Inc., 2013)'
_computing_data_collection       'APEX2 (Bruker AXS, 2010)'
_computing_data_reduction        'SAINT V8.34A (Bruker AXS Inc., 2013)'
_computing_molecular_graphics    'SHELXTL (Sheldrick, 2008)'
_computing_publication_material  SHELXTL
_computing_structure_refinement  'SHELXL-2014/6 (Sheldrick, 2014)'
_diffrn_ambient_temperature      100(2)
_diffrn_detector_area_resol_mean 8.3333
_diffrn_measured_fraction_theta_full 0.998
_diffrn_measured_fraction_theta_max 0.996
_diffrn_measurement_device_type  'Bruker APEX-II CCD'
_diffrn_measurement_method       '\f and \w scans'
_diffrn_radiation_type           MoK\a
_diffrn_radiation_wavelength     0.71073
_diffrn_reflns_av_R_equivalents  0.0327
_diffrn_reflns_av_unetI/netI     0.0324
_diffrn_reflns_Laue_measured_fraction_full 0.998
_diffrn_reflns_Laue_measured_fraction_max 0.996
_diffrn_reflns_limit_h_max       9
_diffrn_reflns_limit_h_min       -11
_diffrn_reflns_limit_k_max       12
_diffrn_reflns_limit_k_min       -12
_diffrn_reflns_limit_l_max       19
_diffrn_reflns_limit_l_min       -19
_diffrn_reflns_number            22469
_diffrn_reflns_point_group_measured_fraction_full 0.998
_diffrn_reflns_point_group_measured_fraction_max 0.996
_diffrn_reflns_theta_full        25.242
_diffrn_reflns_theta_max         26.378
_diffrn_reflns_theta_min         1.307
_exptl_absorpt_coefficient_mu    0.161
_exptl_absorpt_correction_T_max  0.9485
_exptl_absorpt_correction_T_min  0.9078
_exptl_absorpt_correction_type   multi-scan
_exptl_absorpt_process_details   'SADABS V2014/4 (Bruker AXS Inc.)'
_exptl_crystal_colour            Colorless
_exptl_crystal_density_diffrn    1.342
_exptl_crystal_density_meas      ?
_exptl_crystal_density_method    'not measured'
_exptl_crystal_description       Lump
_exptl_crystal_F_000             588
_exptl_crystal_size_max          0.20
_exptl_crystal_size_mid          0.20
_exptl_crystal_size_min          0.15
_refine_diff_density_max         0.529
_refine_diff_density_min         -0.562
_refine_diff_density_rms         0.050
_refine_ls_extinction_method     none
_refine_ls_goodness_of_fit_ref   1.040
_refine_ls_hydrogen_treatment    constr
_refine_ls_matrix_type           full
_refine_ls_number_parameters     372
_refine_ls_number_reflns         5656
_refine_ls_number_restraints     0
_refine_ls_restrained_S_all      1.040
_refine_ls_R_factor_all          0.0494
_refine_ls_R_factor_gt           0.0407
_refine_ls_shift/su_max          0.001
_refine_ls_shift/su_mean         0.000
_refine_ls_structure_factor_coef Fsqd
_refine_ls_weighting_details
'w=1/[\s^2^(Fo^2^)+(0.0493P)^2^+0.9208P] where P=(Fo^2^+2Fc^2^)/3'
_refine_ls_weighting_scheme      calc
_refine_ls_wR_factor_gt          0.1038
_refine_ls_wR_factor_ref         0.1104
_reflns_Friedel_coverage         0.000
_reflns_number_gt                4793
_reflns_number_total             5656
_reflns_threshold_expression     'I > 2\s(I)'
_cod_data_source_file            ol7b01224_si_002.cif
_cod_data_source_block           mo_160403lt_0m_a
_cod_depositor_comments
;
The following automatic conversions were performed:

'_exptl_crystal_density_meas' value 'not measured' was changed to '?'
- the value is perceived as not measured.

Automatic conversion script
Id: cif_fix_values 4973 2017-02-22 13:04:09Z antanas 

 Adding full bibliography for 1546241--1546242.cif.
;
_cod_database_code               1546242
_shelx_space_group_comment
;
The symmetry employed for this shelxl refinement is uniquely defined
by the following loop, which should always be used as a source of
symmetry information in preference to the above space-group names.
They are only intended as comments.
;
_shelxl_version_number           2014/6
_shelx_res_file
;
TITL mo_160403lt_0m_a.res in P-1
CELL  0.71073   9.4864   9.9158  15.8741   82.816   79.911   71.445
ZERR    2.000   0.0011   0.0011   0.0018    0.003    0.002    0.003
LATT 1
SFAC C  H  N  O  S
UNIT 66  54  6  8  2
L.S. 4
ACTA
BOND $H
FMAP 2
PLAN 5
TEMP -173
WGHT    0.049300    0.920800
FVAR       0.89777
C1    1    0.210621    0.745166    0.852631    11.00000    0.02297    0.02459 =
         0.02559   -0.00550    0.00528   -0.00813
AFIX  43
H1    2    0.161645    0.753745    0.910153    11.00000   -1.20000
AFIX   0
C2    1    0.165958    0.687981    0.792892    11.00000    0.01920    0.02819 =
         0.03320   -0.00633    0.00574   -0.01230
AFIX  43
H2    2    0.081057    0.653901    0.804135    11.00000   -1.20000
AFIX   0
C3    1    0.259695    0.683553    0.710149    11.00000    0.01097    0.02796 =
         0.02784    0.00484    0.00214   -0.00716
AFIX  43
H3    2    0.245525    0.646397    0.661007    11.00000   -1.20000
AFIX   0
C4    1    0.374642    0.742534    0.713665    11.00000    0.01509    0.02037 =
         0.01885   -0.00306   -0.00109   -0.00540
C5    1    0.489811    0.752821    0.641573    11.00000    0.01365    0.02075 =
         0.02096   -0.00343   -0.00219   -0.00618
C6    1    0.480579    0.767120    0.555271    11.00000    0.01475    0.02379 =
         0.01971   -0.00279   -0.00372   -0.00611
AFIX  43
H6    2    0.392767    0.777956    0.530790    11.00000   -1.20000
AFIX   0
C7    1    0.623195    0.763044    0.508983    11.00000    0.01734    0.01686 =
         0.01851   -0.00079   -0.00257   -0.00468
C8    1    0.719938    0.747777    0.568435    11.00000    0.01574    0.01832 =
         0.01638   -0.00033    0.00000   -0.00559
C9    1    0.881369    0.724995    0.562910    11.00000    0.01629    0.01947 =
         0.01836   -0.00282   -0.00144   -0.00465
C10   1    0.964805    0.786500    0.487596    11.00000    0.01712    0.02112 =
         0.01483   -0.00321   -0.00137   -0.00943
C11   1    0.897083    0.912386    0.440959    11.00000    0.02121    0.02134 =
         0.02266   -0.00280   -0.00457   -0.00787
AFIX  43
H11   2    0.792289    0.958454    0.454056    11.00000   -1.20000
AFIX   0
C12   1    0.982612    0.970265    0.375535    11.00000    0.03616    0.02318 =
         0.02333    0.00335   -0.00649   -0.01501
AFIX  43
H12   2    0.936341    1.056260    0.343992    11.00000   -1.20000
AFIX   0
C13   1    1.135160    0.903346    0.355936    11.00000    0.03479    0.03410 =
         0.01823   -0.00240    0.00182   -0.02301
AFIX  43
H13   2    1.193410    0.943711    0.311174    11.00000   -1.20000
AFIX   0
C14   1    1.203281    0.777306    0.401563    11.00000    0.02057    0.03159 =
         0.02038   -0.00802    0.00232   -0.01323
AFIX  43
H14   2    1.307800    0.730793    0.387589    11.00000   -1.20000
AFIX   0
C15   1    1.118571    0.719559    0.467465    11.00000    0.01858    0.02346 =
         0.01843   -0.00331   -0.00123   -0.00845
AFIX  43
H15   2    1.165429    0.633920    0.499120    11.00000   -1.20000
AFIX   0
C16   1    0.657752    0.758105    0.414722    11.00000    0.01757    0.01971 =
         0.01742   -0.00076   -0.00198   -0.00920
C17   1    0.559040    0.852657    0.362003    11.00000    0.01665    0.02320 =
         0.02087   -0.00185   -0.00207   -0.00823
AFIX  43
H17   2    0.475751    0.926316    0.386261    11.00000   -1.20000
AFIX   0
C18   1    0.583760    0.837958    0.274321    11.00000    0.02541    0.02855 =
         0.02143    0.00504   -0.00820   -0.01284
AFIX  43
H18   2    0.516801    0.901731    0.238772    11.00000   -1.20000
AFIX   0
C19   1    0.704729    0.731548    0.238260    11.00000    0.02930    0.03474 =
         0.01741   -0.00247   -0.00037   -0.01757
AFIX  43
H19   2    0.719277    0.720654    0.178447    11.00000   -1.20000
AFIX   0
C20   1    0.804804    0.640729    0.289641    11.00000    0.02300    0.02600 =
         0.02331   -0.00684    0.00347   -0.01033
AFIX  43
H20   2    0.889784    0.569375    0.264697    11.00000   -1.20000
AFIX   0
C21   1    0.781294    0.653695    0.377107    11.00000    0.01840    0.01919 =
         0.02274   -0.00047   -0.00370   -0.00702
AFIX  43
H21   2    0.850155    0.590704    0.411908    11.00000   -1.20000
AFIX   0
C22   1    0.686225    0.739922    0.728112    11.00000    0.01115    0.02319 =
         0.01417    0.00003   -0.00018   -0.00682
C23   1    0.769183    0.657048    0.850015    11.00000    0.01149    0.02162 =
         0.01570   -0.00320    0.00077   -0.00764
C24   1    0.826600    0.579896    0.922604    11.00000    0.01624    0.01837 =
         0.01858    0.00019   -0.00091   -0.00662
AFIX  43
H24   2    0.844494    0.479685    0.931765    11.00000   -1.20000
AFIX   0
C25   1    0.856065    0.656938    0.980469    11.00000    0.01571    0.02250 =
         0.01648    0.00116   -0.00171   -0.00627
AFIX  43
H25   2    0.897573    0.607919    1.030075    11.00000   -1.20000
AFIX   0
C26   1    0.826424    0.806150    0.968178    11.00000    0.01420    0.02221 =
         0.01856   -0.00325   -0.00027   -0.00682
C27   1    0.766241    0.882105    0.896702    11.00000    0.01545    0.01849 =
         0.02068   -0.00185   -0.00126   -0.00629
AFIX  43
H27   2    0.743429    0.982952    0.889186    11.00000   -1.20000
AFIX   0
C28   1    0.740407    0.805876    0.836450    11.00000    0.01170    0.02041 =
         0.01718    0.00010   -0.00017   -0.00640
C29   1    0.860464    0.889065    1.029783    11.00000    0.01773    0.02362 =
         0.01809   -0.00057   -0.00068   -0.00824
C30   1    0.992633    0.876245    1.145276    11.00000    0.03934    0.02818 =
         0.02545   -0.00006   -0.01480   -0.01629
AFIX 137
H30A  2    0.993948    0.971789    1.121040    11.00000   -1.50000
H30B  2    1.092427    0.821079    1.159458    11.00000   -1.50000
H30C  2    0.918672    0.884202    1.197381    11.00000   -1.50000
AFIX   0
C31   1    0.752351    0.472240    0.756703    11.00000    0.02421    0.01913 =
         0.01863   -0.00429    0.00024   -0.00828
AFIX  23
H31A  2    0.850146    0.409065    0.771713    11.00000   -1.20000
H31B  2    0.755997    0.473432    0.693912    11.00000   -1.20000
AFIX   0
C32   1    0.629423    0.410929    0.801639    11.00000    0.02478    0.02192 =
         0.01937   -0.00144   -0.00429   -0.01154
AFIX  23
H32A  2    0.529725    0.478189    0.792875    11.00000   -1.20000
H32B  2    0.640258    0.319839    0.777952    11.00000   -1.20000
AFIX   0
C33   1    0.522037    0.343045    0.938118    11.00000    0.04104    0.05630 =
         0.02810   -0.00017    0.00576   -0.03340
AFIX 137
H33A  2    0.426447    0.416754    0.931407    11.00000   -1.50000
H33B  2    0.535111    0.327404    0.998827    11.00000   -1.50000
H33C  2    0.521734    0.253978    0.917570    11.00000   -1.50000
AFIX   0
N1    3    0.635978    0.738784    0.649814    11.00000    0.01407    0.02315 =
         0.01510   -0.00133   -0.00101   -0.00742
N2    3    0.731751    0.616473    0.778920    11.00000    0.01534    0.01856 =
         0.01502   -0.00127   -0.00002   -0.00681
N3    3    0.687706    0.855098    0.758623    11.00000    0.01419    0.02120 =
         0.01734   -0.00024   -0.00183   -0.00677
O1    4    0.948263    0.655836    0.621591    11.00000    0.01656    0.03478 =
         0.01962    0.00600   -0.00269   -0.00481
O2    4    0.813521    1.017123    1.030175    11.00000    0.03352    0.02236 =
         0.02756   -0.00581   -0.01077   -0.00492
O3    4    0.952554    0.804882    1.083192    11.00000    0.02800    0.02233 =
         0.02303   -0.00121   -0.01086   -0.01002
O4    4    0.641797    0.387871    0.889750    11.00000    0.02724    0.03744 =
         0.01928    0.00184   -0.00147   -0.01929
S1    5    0.363743    0.800096    0.813882    11.00000    0.02323    0.03692 =
         0.02526   -0.00932    0.00450   -0.01490
HKLF 4

REM  mo_160403lt_0m_a.res in P-1
REM R1 =  0.0407 for    4793 Fo > 4sig(Fo)  and  0.0494 for all    5656 data
REM    372 parameters refined using      0 restraints

END

WGHT      0.0488      0.9220

REM Highest difference peak  0.529,  deepest hole -0.562,  1-sigma level  0.050
Q1    1   0.2623  0.6451  0.6841  11.00000  0.05    0.53
Q2    1   0.2233  0.6889  0.7418  11.00000  0.05    0.41
Q3    1   0.3242  0.6898  0.7122  11.00000  0.05    0.39
Q4    1   0.3774  0.7632  0.7551  11.00000  0.05    0.28
Q5    1   0.8345  0.8404  0.9978  11.00000  0.05    0.27
;
_shelx_res_checksum              10637
_shelx_hkl_file
;
  -1   0   0   68.80    3.04
  -2   0   0 4307.34  131.87
  -3   0   0   10.82    2.20
  -4   0   0   59.91    4.74
  -5   0   0  223.64   10.81
  -6   0   0  409.54   17.63
  -7   0   0  327.41   16.04
  -8   0   0  428.55   20.41
  -9   0   0   67.99    8.87
 -10   0   0  104.48   11.79
 -11   0   0   30.37    7.78
 -10   1   0  362.04   21.76
  -9   1   0    9.03    4.53
  -8   1   0  202.42   13.88
   7  -1   0  250.07   11.10
  -7   1   0  268.21   15.14
   6  -1   0    2.42    1.68
  -6   1   0    3.15    2.78
   5  -1   0  870.39   28.96
  -5   1   0  875.56   28.24
  -5   1   0  895.96   32.59
   4  -1   0  860.59   30.29
   4  -1   0  898.19   28.65
  -4   1   0  887.80   28.67
  -4   1   0  883.89   31.58
   3  -1   0   10.99    1.72
   3  -1   0    7.96    2.27
  -3   1   0    8.94    1.74
  -3   1   0    7.58    2.48
   2  -1   0 2811.99   86.97
   2  -1   0 2747.19   88.35
  -2   1   0 2822.61   88.74
  -2   1   0 2896.81   86.46
  -2   1   0 2852.74   87.15
  -2   1   0 2856.08   87.41
   1  -1   0 6646.89  203.08
  -1   1   0 6641.02  203.15
   0  -1   0   50.52    2.65
   0  -1   0   47.15    2.59
   0  -1   0   47.95    2.05
   0   1   0   44.34    2.24
   0   1   0   48.00    2.07
   0   1   0   48.33    2.62
  -1  -1   0 1416.65   44.49
  -2  -1   0  230.91    9.10
  -3  -1   0  278.98   11.14
  -4  -1   0 1629.34   51.07
  -4  -1   0 1631.32   52.99
  -4  -1   0 1622.88   51.00
  -5  -1   0  577.89   20.87
  -5  -1   0  620.27   21.10
  -6  -1   0  243.48   11.04
  -6  -1   0  248.81   11.33
  -7  -1   0    5.00    2.38
  -7  -1   0    6.61    2.77
  -8  -1   0  581.22   23.81
  -9  -1   0  356.91   17.97
 -10  -1   0  117.99   10.65
 -11  -1   0   19.73    5.91
 -10   2   0   41.55    8.95
  -9   2   0   55.25    9.83
  -8   2   0   30.79    7.24
   7  -2   0  196.09   10.20
  -7   2   0  199.32    7.66
  -7   2   0  188.44   13.68
   6  -2   0  310.67   13.04
  -6   2   0  294.70   11.93
  -6   2   0  303.90   16.69
   5  -2   0  186.13    8.71
   5  -2   0  190.28   10.32
  -5   2   0  173.98   11.25
  -5   2   0  176.83    8.46
   4  -2   0  323.82   12.71
   4  -2   0  322.26   14.58
  -4   2   0  323.90   15.42
  -4   2   0  334.97   13.03
   3  -2   0   59.91    3.92
   3  -2   0   54.28    5.59
  -3   2   0   42.97    5.35
  -3   2   0   54.43    4.22
  -3   2   0   53.42    3.12
   2  -2   0  222.64   10.58
   2  -2   0  230.25    8.99
  -2   2   0  233.86    8.72
  -2   2   0  226.35    9.44
  -2   2   0  225.11   10.80
   1  -2   0 2991.93   86.34
   1  -2   0 2689.62   84.15
   1  -2   0 2737.18   85.88
   1  -2   0 2703.79   85.12
  -1   2   0 2703.45   84.10
  -1   2   0 2613.83   85.85
  -1   2   0 2636.23   84.58
  -1  -2   0 1212.31   39.58
  -1  -2   0 1206.28   37.60
  -1  -2   0 1233.18   37.62
  -1  -2   0 1238.49   38.10
  -1  -2   0 1217.66   38.58
  -2  -2   0 2253.61   71.21
  -3  -2   0 2964.48   93.31
  -4  -2   0   30.64    4.24
  -5  -2   0    4.79    2.38
  -6  -2   0    0.10    2.25
  -6  -2   0    1.26    1.31
  -6  -2   0    1.88    1.43
  -7  -2   0  347.34   14.09
  -7  -2   0  362.16   14.45
  -8  -2   0  159.46    9.16
  -9  -2   0   26.89    4.85
 -10  -2   0    1.83    3.16
 -11  -2   0   -0.33    3.51
  -9   3   0    0.40    4.86
   8  -3   0   76.87    8.00
  -8   3   0   64.22    4.09
  -8   3   0   57.90    9.82
   7  -3   0    6.69    3.00
  -7   3   0    7.30    2.37
  -7   3   0    6.87    4.71
   6  -3   0    4.35    2.56
  -6   3   0    1.32    2.13
  -6   3   0   -1.18    3.40
   5  -3   0   46.83    5.10
   5  -3   0   49.55    6.70
  -5   3   0   40.44    6.64
  -5   3   0   47.57    5.08
   4  -3   0  320.11   13.55
   4  -3   0  333.18   16.12
  -4   3   0  341.14   14.22
  -4   3   0  327.86   12.02
  -4   3   0  343.96   17.08
   3  -3   0  687.12   24.21
   3  -3   0  677.85   26.70
  -3   3   0  726.58   27.70
  -3   3   0  696.52   24.89
  -3   3   0  675.16   23.36
   2  -3   0  111.42    7.71
   2  -3   0  104.70    5.96
   2  -3   0  109.78    6.92
  -2   3   0  118.72    6.64
  -2   3   0  130.48    8.34
  -2   3   0  111.08    5.81
   1  -3   0  856.92   31.38
   1  -3   0  887.68   29.03
   1  -3   0  864.19   30.43
  -1   3   0  884.82   29.60
  -1   3   0  874.74   28.93
  -1   3   0  902.23   31.43
   0  -3   0  133.63    6.31
   0  -3   0  139.80    5.67
   0  -3   0  141.79    7.64
   0  -3   0  128.62    7.12
   0   3   0  127.52    7.24
   0   3   0  118.24    6.22
   0   3   0  121.66    5.73
  -1  -3   0  545.85   18.01
  -1  -3   0  553.13   18.06
  -1  -3   0  531.58   19.37
  -1  -3   0  539.42   20.18
   1   3   0  556.02   17.59
   1   3   0  528.77   18.96
  -2  -3   0 3985.61  121.14
  -2  -3   0 3917.62  118.08
  -2  -3   0 3815.04  118.10
  -2  -3   0 3864.07  118.77
  -2  -3   0 3741.98  118.77
  -3  -3   0  747.98   27.06
  -4  -3   0 2491.37   80.60
  -5  -3   0  247.55   12.49
  -6  -3   0   12.44    3.50
  -7  -3   0   -0.23    1.16
  -7  -3   0    2.32    1.30
  -7  -3   0   -0.86    2.47
  -8  -3   0   67.24    4.94
  -8  -3   0   58.91    4.87
  -9  -3   0    3.68    2.38
 -10  -3   0   33.57    5.33
 -11  -3   0   61.42    7.67
   9  -4   0    1.84    4.02
  -9   4   0   -3.25    4.68
   8  -4   0   85.10    9.04
  -8   4   0  101.93    6.75
  -8   4   0   90.00   12.68
   7  -4   0  378.81   18.61
   7  -4   0  371.25   17.62
  -7   4   0  371.27   16.33
  -7   4   0  377.01   22.48
   6  -4   0  432.40   19.79
   6  -4   0  441.86   18.74
  -6   4   0  422.85   18.24
  -6   4   0  405.51   22.89
   5  -4   0  147.83    9.22
   5  -4   0  165.91   10.38
   5  -4   0  155.38   11.31
  -5   4   0  156.18   12.47
  -5   4   0  157.20    6.68
  -5   4   0  145.75    9.25
   4  -4   0   30.59    4.27
   4  -4   0   30.16    5.93
   4  -4   0   33.77    5.20
  -4   4   0   24.35    5.55
  -4   4   0   30.74    3.48
  -4   4   0   27.18    4.30
   3  -4   0  178.12   11.37
   3  -4   0  173.37   10.07
   3  -4   0  186.38    9.20
  -3   4   0  169.78   11.67
  -3   4   0  173.24    9.67
  -3   4   0  195.66    8.69
   2  -4   0  316.17   14.36
   2  -4   0  311.14   12.78
   2  -4   0  299.20   15.54
   2  -4   0  335.76   15.73
  -2   4   0  297.51   15.44
  -2   4   0  310.75   12.59
  -2   4   0  301.54   13.43
   1  -4   0  287.48   13.64
   1  -4   0  299.59   14.79
   1  -4   0  306.04   12.07
   1  -4   0  306.72   14.64
  -1   4   0  325.38   13.03
  -1   4   0  302.28   12.13
  -1   4   0  298.09   14.56
   0  -4   0  146.07    7.47
   0  -4   0  152.30    8.79
   0  -4   0  160.40    9.31
   0  -4   0  152.75    6.67
   0   4   0  142.36    7.59
   0   4   0  156.63    8.88
   0   4   0  153.19    7.11
  -1  -4   0  486.84   17.12
  -1  -4   0  495.32   19.63
  -1  -4   0  478.26   17.06
  -1  -4   0  492.99   19.05
   1   4   0  485.72   16.67
   1   4   0  498.05   18.54
  -2  -4   0  234.18   10.60
  -2  -4   0  255.07    9.91
  -2  -4   0  253.81    8.13
  -3  -4   0  231.76    8.28
  -3  -4   0  220.72    9.07
  -3  -4   0  222.39    8.98
  -3  -4   0  225.42   11.76
  -3  -4   0  226.88    8.32
  -4  -4   0  190.44   10.85
  -5  -4   0  210.35   11.88
  -6  -4   0    7.73    3.69
  -7  -4   0   -1.00    2.79
  -8  -4   0  709.15   29.75
  -9  -4   0  289.65   16.57
  -9  -4   0  285.27   11.76
 -10  -4   0   52.38    5.55
 -11  -4   0   -2.51    2.66
   8  -5   0   -5.51    2.99
  -8   5   0   -3.97    5.47
  -8   5   0    1.65    2.86
   7  -5   0  226.80   14.21
   7  -5   0  197.00   13.08
  -7   5   0  243.22   12.90
  -7   5   0  205.47   17.41
   6  -5   0    3.15    3.76
   6  -5   0   10.72    3.87
  -6   5   0    7.71    5.61
  -6   5   0   12.04    3.89
   5  -5   0   11.96    4.41
   5  -5   0    3.90    4.06
   5  -5   0   19.20    4.36
  -5   5   0   12.76    2.56
  -5   5   0   10.82    5.32
  -5   5   0   11.52    3.77
   4  -5   0  318.52   14.86
   4  -5   0  334.59   16.47
   4  -5   0  326.98   18.01
  -4   5   0  302.50   15.23
  -4   5   0  320.36   13.47
  -4   5   0  305.35   18.54
   3  -5   0  448.93   18.77
   3  -5   0  476.04   22.33
   3  -5   0  483.34   20.84
  -3   5   0  468.72   18.20
  -3   5   0  460.26   22.71
  -3   5   0  475.52   19.87
   2  -5   0  225.02   12.41
   2  -5   0  233.94   14.08
   2  -5   0  224.05   13.57
   2  -5   0  211.05   10.56
  -2   5   0  230.14   10.69
  -2   5   0  237.44   11.78
  -2   5   0  233.64   13.85
   1  -5   0 1143.35   40.46
   1  -5   0 1149.21   37.54
   1  -5   0 1118.64   41.38
   1  -5   0 1117.72   41.79
  -1   5   0 1107.15   41.21
  -1   5   0 1120.64   37.79
  -1   5   0 1115.32   38.85
   0  -5   0  628.11   24.79
   0  -5   0  579.02   20.34
   0  -5   0  583.03   23.75
   0  -5   0  580.34   21.60
   0   5   0  584.44   21.10
   0   5   0  574.46   21.91
   0   5   0  602.92   23.84
  -1  -5   0   55.43    4.46
  -1  -5   0   66.04    4.62
  -1  -5   0   51.80    6.17
  -1  -5   0   80.83    6.59
   1   5   0   57.71    4.22
   1   5   0   61.96    5.66
  -2  -5   0  623.03   25.19
  -2  -5   0  650.53   20.98
  -2  -5   0  617.55   23.98
  -2  -5   0  640.53   20.96
   2   5   0  635.53   21.04
  -3  -5   0  358.75   14.68
  -3  -5   0  366.09   13.71
  -3  -5   0  357.42   17.00
  -4  -5   0 1413.29   50.12
  -4  -5   0 1449.77   45.82
  -4  -5   0 1412.65   44.81
  -4  -5   0 1401.79   45.91
  -5  -5   0 2927.10   89.88
  -5  -5   0 2921.72   89.98
  -5  -5   0 2904.48   96.28
  -6  -5   0  644.48   27.28
  -7  -5   0  584.35   25.95
  -8  -5   0   91.69   10.56
  -9  -5   0  439.82   22.56
 -10  -5   0    4.80    1.92
 -10  -5   0    3.02    4.12
 -11  -5   0  345.14   14.67
   7  -6   0   16.22    5.41
  -7   6   0   14.56    4.63
  -7   6   0   23.04    8.55
   6  -6   0   35.80    6.13
   6  -6   0   47.88    7.77
  -6   6   0   37.25    3.45
  -6   6   0   34.93    6.14
  -6   6   0   28.29    8.25
   5  -6   0  718.90   28.78
   5  -6   0  732.32   33.39
   5  -6   0  736.45   30.64
  -5   6   0  668.29   33.88
  -5   6   0  729.65   29.57
  -5   6   0  742.96   26.16
   4  -6   0  269.56   17.33
   4  -6   0  274.70   15.61
   4  -6   0  266.72   13.86
  -4   6   0  269.01   18.06
  -4   6   0  282.43   12.88
  -4   6   0  273.77   14.83
   3  -6   0  220.70   11.66
   3  -6   0  220.59   15.04
   3  -6   0  233.65   13.85
  -3   6   0  222.01   12.73
  -3   6   0  214.17   11.12
  -3   6   0  232.65   15.78
   2  -6   0  486.92   19.14
   2  -6   0  449.52   21.42
   2  -6   0  510.00   23.69
  -2   6   0  489.69   23.35
  -2   6   0  433.06   18.74
  -2   6   0  501.91   20.65
   1  -6   0  151.94   11.74
   1  -6   0  152.82   10.58
   1  -6   0  147.91    8.04
   1  -6   0  162.99   11.61
  -1   6   0  151.46   11.15
  -1   6   0  151.91    8.63
  -1   6   0  153.64    9.61
   0  -6   0  102.38    9.01
   0  -6   0   86.89    6.58
   0  -6   0   79.93    5.17
   0  -6   0   80.61    8.67
   0   6   0  106.93    6.55
   0   6   0   87.91    9.02
   0   6   0   88.53    7.60
  -1  -6   0  309.94   12.97
  -1  -6   0  304.25   13.03
  -1  -6   0  320.68   16.14
  -1  -6   0  297.79   15.74
   1   6   0  322.94   12.82
   1   6   0  306.87   14.84
  -2  -6   0  821.35   31.84
  -2  -6   0  748.48   30.32
  -2  -6   0  811.97   26.90
  -2  -6   0  826.36   26.95
   2   6   0  830.79   27.16
   2   6   0  782.90   30.66
  -3  -6   0    2.86    2.89
  -3  -6   0   13.22    3.44
   3   6   0   10.42    1.66
  -4  -6   0  589.69   21.72
  -4  -6   0  582.13   25.07
  -4  -6   0  548.80   21.29
  -4  -6   0  547.81   20.27
  -5  -6   0   72.98    4.48
  -5  -6   0   80.98    9.10
  -5  -6   0   76.16    5.17
  -5  -6   0   69.55    5.25
  -6  -6   0  205.07   13.38
  -6  -6   0  212.34    8.40
  -6  -6   0  190.92    7.11
  -6  -6   0  173.48    7.99
  -6  -6   0  183.77    7.02
  -7  -6   0   42.42    7.23
  -8  -6   0 1171.32   45.87
  -9  -6   0    1.96    3.95
 -10  -6   0  209.27   15.50
 -11  -6   0    3.23    5.20
   7  -7   0  337.42   18.80
  -7   7   0  356.45   25.28
  -7   7   0  313.83   18.07
   6  -7   0   48.76    7.41
   6  -7   0   56.40    9.06
  -6   7   0   55.62    8.32
  -6   7   0   48.42    4.66
  -6   7   0   37.37   10.28
   5  -7   0   10.13    4.71
   5  -7   0    1.60    3.12
  -5   7   0   10.76    3.36
  -5   7   0    8.29    4.50
  -5   7   0   10.70    6.62
   4  -7   0  162.69   10.76
   4  -7   0  160.98   14.29
   4  -7   0  156.95   12.34
  -4   7   0  162.37   14.85
  -4   7   0  154.66   11.76
  -4   7   0  152.10    9.60
   3  -7   0   74.55   10.72
   3  -7   0   83.11    9.97
   3  -7   0   73.46    7.33
  -3   7   0   66.38    6.92
  -3   7   0   78.39   11.29
  -3   7   0   63.18    7.85
   2  -7   0   13.88    3.48
   2  -7   0   16.72    5.68
   2  -7   0   21.03    5.35
  -2   7   0   16.94    4.65
  -2   7   0   23.79    4.39
  -2   7   0   13.89    5.38
   1  -7   0  287.31   18.15
   1  -7   0  321.51   17.84
   1  -7   0  331.44   14.25
  -1   7   0  364.07   19.08
  -1   7   0  357.22   15.42
  -1   7   0  356.14   16.59
   0  -7   0  155.77    7.73
   0  -7   0  156.74   12.49
   0  -7   0  166.17    9.88
   0  -7   0  153.96    9.45
   0  -7   0  175.20   12.73
   0  -7   0  154.84   11.51
   0   7   0  165.62    9.35
   0   7   0  175.41   10.45
   0   7   0  176.66   11.93
  -1  -7   0  147.27    8.64
  -1  -7   0  169.82    8.82
  -1  -7   0  154.93   11.40
  -1  -7   0  136.80   11.36
   1   7   0  152.02    8.54
   1   7   0  164.14   10.79
   1   7   0  155.67    9.55
  -2  -7   0  115.17    9.78
  -2  -7   0  126.52    6.71
  -2  -7   0  120.31    6.64
  -2  -7   0  136.39   10.80
   2   7   0  129.44    8.52
   2   7   0  113.74    6.82
  -3  -7   0  162.67   10.86
  -3  -7   0  179.42   12.70
   3   7   0  172.81    8.03
   3   7   0  184.13    8.16
  -4  -7   0   -1.52    2.16
  -4  -7   0    2.44    3.33
  -5  -7   0  242.49   15.32
  -5  -7   0  236.58   12.01
  -5  -7   0  241.85   11.86
  -6  -7   0   80.42    5.98
  -6  -7   0   79.05    6.09
  -6  -7   0   89.98   10.95
  -6  -7   0   84.71    5.32
  -7  -7   0  313.47   12.75
  -7  -7   0  308.71   11.45
  -7  -7   0  316.63   18.60
  -7  -7   0  293.27   13.42
  -8  -7   0  103.48    5.53
  -8  -7   0   74.07   10.62
  -9  -7   0  111.17   13.02
 -10  -7   0   13.30    6.21
 -11  -7   0   20.93    7.27
   6  -8   0   45.20    7.64
  -6   8   0   41.42   10.65
  -6   8   0   39.70    4.84
  -6   8   0   51.60    8.65
   5  -8   0    1.69    4.50
   5  -8   0    2.47    3.75
  -5   8   0   12.05    5.23
  -5   8   0    5.25    2.93
  -5   8   0    2.61    5.70
   4  -8   0   14.90    6.94
   4  -8   0   22.11    6.37
   4  -8   0   22.55    4.97
  -4   8   0   13.06    3.91
  -4   8   0   12.97    7.39
  -4   8   0   10.89    5.24
   3  -8   0   -2.91    4.15
   3  -8   0    0.67    4.05
   3  -8   0   -0.61    2.62
  -3   8   0    1.51    2.86
  -3   8   0    0.46    4.59
  -3   8   0   -3.84    3.13
   2  -8   0  386.73   21.33
   2  -8   0  434.08   24.03
   2  -8   0  408.47   17.67
  -2   8   0  421.97   20.18
  -2   8   0  384.24   18.23
  -2   8   0  405.62   23.30
   1  -8   0   81.19   11.04
   1  -8   0   79.99   11.21
   1  -8   0   91.50   10.90
   1  -8   0   96.13    6.82
  -1   8   0   87.01    8.17
  -1   8   0   93.07   11.04
  -1   8   0   95.14    9.82
   0  -8   0  337.88   16.43
   0  -8   0  374.97   18.82
   0  -8   0  364.46   21.06
   0  -8   0  350.47   19.39
   0  -8   0  327.62   19.79
   0  -8   0  337.93   13.60
   0   8   0  378.72   19.78
   0   8   0  362.66   16.14
  -1  -8   0  123.48    8.10
  -1  -8   0  103.20    7.58
  -1  -8   0  131.99   11.69
  -1  -8   0   98.97   11.63
   1   8   0  114.54    7.96
   1   8   0  108.66    9.67
  -2  -8   0   90.30   11.08
  -2  -8   0   85.91   10.30
  -2  -8   0   99.37    6.36
  -2  -8   0   88.23    6.17
   2   8   0   85.61    6.64
  -3  -8   0   31.65    6.54
  -3  -8   0   33.16    7.00
   3   8   0   34.97    4.33
  -4  -8   0   62.62    9.43
  -4  -8   0   71.53    8.18
  -5  -8   0   45.46    8.44
  -5  -8   0   55.94    6.95
  -6  -8   0  545.06   22.60
  -6  -8   0  559.39   27.41
  -7  -8   0   16.41    6.08
  -7  -8   0   26.79    4.19
  -8  -8   0    9.21    5.56
  -8  -8   0    7.81    2.18
  -8  -8   0    2.87    2.46
  -9  -8   0  110.40    5.61
  -9  -8   0  117.31   14.22
  -9  -8   0  109.36    6.47
 -10  -8   0  247.50   18.53
   4  -9   0  164.88   11.50
   4  -9   0  152.66   15.41
   4  -9   0  171.70   18.73
  -4   9   0  150.72   10.60
  -4   9   0  118.35   12.58
  -4   9   0  156.17   17.64
   3  -9   0   32.76    5.56
   3  -9   0   33.34    8.11
   3  -9   0   33.13    9.26
  -3   9   0   15.36    7.13
  -3   9   0   21.20    6.15
  -3   9   0   29.50    5.67
   2  -9   0  233.71   12.71
   2  -9   0  257.02   19.07
   2  -9   0  237.18   16.94
  -2   9   0  262.19   14.29
  -2   9   0  254.73   18.44
   1  -9   0  427.46   17.52
   1  -9   0  423.10   24.98
   1  -9   0  453.04   23.88
   1  -9   0  456.82   21.03
  -1   9   0  413.14   23.88
  -1   9   0  424.67   19.56
   0  -9   0   91.82    9.35
   0  -9   0   94.31   11.72
   0  -9   0  103.21   13.26
   0  -9   0   88.90   12.47
   0  -9   0   84.04    5.24
   0   9   0   78.67    8.01
  -1  -9   0   21.74    7.22
  -1  -9   0   29.23    4.79
  -1  -9   0   33.37    7.17
  -1  -9   0   29.52    7.26
  -1  -9   0   32.51    5.09
   1   9   0   28.37    4.99
  -2  -9   0  479.67   18.64
  -2  -9   0  486.72   25.31
  -2  -9   0  443.58   24.41
  -2  -9   0  465.90   18.60
   2   9   0  477.99   19.74
  -3  -9   0  211.43   15.51
  -3  -9   0  201.17   14.74
   3   9   0  214.66   11.02
  -4  -9   0    3.77    3.72
  -4  -9   0   -0.03    4.57
  -5  -9   0  594.95   26.46
  -5  -9   0  600.34   29.56
  -6  -9   0    7.43    3.84
  -6  -9   0   16.49    6.95
  -7  -9   0   34.04    8.37
  -7  -9   0   38.38    5.98
  -8  -9   0   11.57    6.35
  -8  -9   0   26.18    4.88
  -9  -9   0   68.89    6.14
  -9  -9   0   58.82   10.75
 -10  -9   0   74.04   12.14
 -10  -9   0   96.86    6.64
   3 -10   0    5.34    3.73
   3 -10   0    2.29    6.63
   3 -10   0    0.94    4.79
   3 -10   0    1.14    4.79
  -3  10   0    1.28    3.30
   2 -10   0   -3.35    4.86
   2 -10   0    5.38    5.22
   2 -10   0    3.47    4.02
   2 -10   0   -2.40    2.45
  -2  10   0   -0.51    3.29
   1 -10   0   68.31   11.12
   1 -10   0   48.41    5.26
   1 -10   0   42.20    7.22
   1 -10   0   45.58    9.96
  -1  10   0   49.25    7.18
   0 -10   0   14.33    7.23
   0 -10   0   10.81    4.51
   0 -10   0   18.87    6.68
   0  10   0    7.10    4.04
  -1 -10   0  145.67   15.57
  -1 -10   0  168.13   15.87
  -1 -10   0  165.94   15.19
  -1 -10   0  173.98   10.96
   1  10   0  177.73   11.46
  -2 -10   0    1.79    4.62
  -2 -10   0    5.75    5.08
  -2 -10   0    5.20    2.64
  -2 -10   0    1.29    4.13
  -2 -10   0   -0.93    2.03
   2  10   0   -0.60    2.87
  -3 -10   0    2.83    4.60
  -3 -10   0    1.47    4.34
   3  10   0    2.11    3.01
  -4 -10   0  214.26   17.17
  -4 -10   0  195.03   15.03
  -5 -10   0   10.32    5.09
  -5 -10   0   15.99    6.22
  -6 -10   0   69.01   11.78
  -6 -10   0   62.47    9.00
  -7 -10   0    5.56    5.94
  -7 -10   0    3.53    3.59
  -8 -10   0  106.89   14.21
  -8 -10   0   98.14    9.12
  -9 -10   0  294.09   21.16
  -9 -10   0  245.73   13.91
   1 -11   0   39.23    7.18
   1 -11   0   46.24    4.60
   1 -11   0   20.49    7.69
   1 -11   0   31.60    9.52
  -1  11   0   44.14    7.49
   0 -11   0    9.85    5.92
   0 -11   0   26.45    6.04
   0 -11   0   20.58    7.92
   0  11   0   22.95    5.53
  -1 -11   0  404.95   18.46
  -1 -11   0  335.96   23.65
  -1 -11   0  366.37   23.90
   1  11   0  381.28   19.01
  -2 -11   0  216.51   18.03
  -2 -11   0  221.53   11.54
  -2 -11   0  213.75   18.00
  -2 -11   0  200.44   11.06
  -2 -11   0  251.94   19.68
   2  11   0  206.79   13.26
  -3 -11   0   10.54    5.74
  -3 -11   0    6.99    5.94
  -3 -11   0   -0.60    4.80
   3  11   0   -3.85    2.87
  -4 -11   0   42.81    9.10
  -4 -11   0   65.42   10.17
  -4 -11   0   45.71   10.09
  -5 -11   0  420.00   24.19
  -5 -11   0  465.74   27.34
  -6 -11   0    7.21    4.73
  -6 -11   0    2.24    6.12
  -7 -11   0    2.69    3.73
  -7 -11   0    1.98    5.41
  -8 -11   0   20.90    8.39
  -2 -12   0  160.69    9.50
  -2 -12   0  156.77   18.43
  -2 -12   0  155.71   18.35
  -2 -12   0  147.46    9.38
   2  12   0  150.99   13.17
  -3 -12   0   -0.07    5.34
  -3 -12   0    0.59    5.54
  -3 -12   0    1.22    5.57
   3  12   0    0.16    3.77
  -4 -12   0   11.16    7.85
  -4 -12   0    7.29    6.04
  -4 -12   0   10.55    6.06
  -5 -12   0   80.74   11.95
  -5 -12   0   95.30   14.85
  -5 -12   0   91.34   12.83
  -5 -12   1   12.69    6.27
  -5 -12   1   24.76    8.96
  -4 -12   1   -3.15    4.08
  -4 -12   1   -3.56    5.59
  -4 -12   1   -0.30    4.82
   3  12  -1   -3.14    3.86
  -3 -12   1    1.38    5.49
  -3 -12   1    8.72    6.94
  -3 -12   1    5.44    6.39
   2  12  -1   12.54    5.24
  -2 -12   1   12.69    7.56
  -2 -12   1    3.75    2.94
  -2 -12   1    6.06    6.46
  -2 -12   1    5.36    2.81
  -2 -12   1    6.46    7.09
  -7 -11   1    7.05    4.84
  -7 -11   1    7.95    6.76
  -6 -11   1   50.93   11.00
  -6 -11   1   41.83    8.25
  -5 -11   1   41.88    9.82
  -5 -11   1   38.56    8.66
  -4 -11   1   -4.45    3.69
  -4 -11   1    2.92    5.19
   3  11  -1    6.19    3.75
  -3 -11   1   -0.15    5.35
  -3 -11   1    7.56    5.62
   2  11  -1    1.69    3.76
  -2 -11   1   -0.85    2.49
  -2 -11   1    1.19    5.44
  -2 -11   1   -2.85    4.76
  -2 -11   1    5.11    5.87
  -2 -11   1    1.29    2.56
   1  11  -1  242.01   14.57
  -1 -11   1  239.16   20.08
  -1 -11   1  236.62   18.97
  -1 -11   1  233.09   19.22
  -1 -11   1  229.43   13.49
   0  11  -1   -1.51    3.43
   0 -11   1    2.11    3.67
   0 -11   1   -8.08    4.72
   0 -11   1   -1.92    4.74
  -1  11  -1   10.14    4.98
   1 -11   1    5.58    6.78
   1 -11   1   -1.85    5.12
   1 -11   1   10.66    2.83
   1 -11   1   10.96    4.96
  -9 -10   1  139.22   16.28
  -9 -10   1  145.06   10.23
  -8 -10   1    9.48    6.66
  -8 -10   1    8.02    3.86
  -7 -10   1   44.92    7.35
  -7 -10   1   46.68   10.06
  -6 -10   1    4.40    3.91
  -6 -10   1   10.27    6.17
  -5 -10   1  110.65   14.38
  -5 -10   1  125.22   11.51
  -4 -10   1   45.45    8.63
  -4 -10   1   49.73    9.48
   3  10  -1   -1.20    2.65
  -3 -10   1   -2.07    4.38
  -3 -10   1   -1.69    4.29
   2  10  -1   45.99    6.40
  -2 -10   1   40.47    5.07
  -2 -10   1   50.50    9.67
  -2 -10   1   50.36    5.49
  -2 -10   1   64.76   10.95
   1  10  -1   82.17    8.54
  -1 -10   1   61.92   10.60
  -1 -10   1   85.54   12.15
  -1 -10   1   60.15   10.90
  -1 -10   1   84.51    8.11
   0  10  -1  317.18   16.49
   0 -10   1  315.37   21.68
   0 -10   1  273.21   21.19
   0 -10   1  333.38   16.93
  -1  10  -1   10.60    4.40
   1 -10   1    1.10    5.48
   1 -10   1    8.55    4.63
   1 -10   1    9.18    2.88
   1 -10   1   12.54    6.44
  -2  10  -1   15.77    5.06
   2 -10   1   17.46    6.75
   2 -10   1   21.95    6.37
   2 -10   1   10.76    7.07
   2 -10   1   24.88    4.54
  -3  10  -1    2.07    3.49
   3 -10   1    1.83    5.29
   3 -10   1   -0.85    6.40
   3 -10   1   -1.80    2.87
  -9  -9   1   41.81    4.60
  -9  -9   1   51.06   10.55
  -9  -9   1   36.89    5.15
  -8  -9   1   96.27   13.16
  -8  -9   1   85.33    7.55
  -7  -9   1  292.59   19.81
  -7  -9   1  279.10   14.88
  -6  -9   1    9.37    5.83
  -6  -9   1   14.51    4.62
  -5  -9   1   15.87    5.00
  -5  -9   1   18.29    6.22
  -4  -9   1  356.14   19.16
  -4  -9   1  338.16   21.02
   3   9  -1   87.06    7.58
  -3  -9   1  104.53   12.69
  -3  -9   1  102.21   11.50
   2   9  -1   76.37    7.31
  -2  -9   1   63.40    9.97
  -2  -9   1   84.26   11.81
  -2  -9   1   71.40    6.28
  -2  -9   1   67.64    6.14
   1   9  -1   94.77    8.89
  -1  -9   1  104.62   12.95
  -1  -9   1   90.47    8.20
  -1  -9   1   82.74   11.55
  -1  -9   1  103.53    7.93
   0   9  -1   -2.83    2.29
   0  -9   1   -3.01    4.02
   0  -9   1    0.63    4.28
   0  -9   1    0.04    2.67
   0  -9   1   -2.07    1.45
   0  -9   1   -1.11    4.54
  -1   9  -1    1.29    6.78
  -1   9  -1    9.98    3.97
   1  -9   1    4.25    5.68
   1  -9   1    3.33    5.13
   1  -9   1    9.87    5.36
   1  -9   1    7.75    2.84
  -2   9  -1   27.64    5.59
  -2   9  -1   37.29    8.91
   2  -9   1   28.42    8.13
   2  -9   1   18.53    4.23
   2  -9   1   28.08    7.49
  -3   9  -1   13.05    8.85
  -3   9  -1    6.17    3.69
  -3   9  -1   11.40    6.90
   3  -9   1    7.37    3.93
   3  -9   1    8.90    5.60
   3  -9   1   22.73    7.87
  -4   9  -1   -3.69    4.22
  -4   9  -1    2.07    3.25
  -4   9  -1   -2.87    5.71
   4  -9   1   -1.03    5.57
   4  -9   1   -1.62    4.46
   4  -9   1    0.45    3.19
 -10  -8   1   89.50   12.65
 -10  -8   1   86.52    5.52
  -9  -8   1  503.15   18.43
  -9  -8   1  505.71   27.34
  -9  -8   1  549.08   19.68
  -8  -8   1    2.41    4.55
  -8  -8   1    5.90    2.13
  -8  -8   1    1.69    2.38
  -7  -8   1    1.80    2.39
  -7  -8   1    3.78    2.16
  -7  -8   1   10.27    5.49
  -6  -8   1   22.28    4.47
  -6  -8   1   11.49    3.00
  -6  -8   1    8.09    5.16
  -5  -8   1  146.80   10.11
  -5  -8   1  130.50   13.59
  -4  -8   1  103.15    9.18
  -4  -8   1   88.57   10.79
   3   8  -1  333.73   14.10
  -3  -8   1  347.15   18.19
  -3  -8   1  344.36   19.60
   2   8  -1  353.88   15.00
  -2  -8   1  359.78   20.00
  -2  -8   1  357.26   14.23
  -2  -8   1  338.73   14.15
  -2  -8   1  318.46   18.64
   1   8  -1 1011.92   42.48
   1   8  -1  918.41   33.53
  -1  -8   1  923.09   33.44
  -1  -8   1  923.51   38.60
  -1  -8   1  958.52   39.33
  -1  -8   1  905.15   33.49
   0   8  -1  159.57    9.92
   0   8  -1  155.81   12.32
   0  -8   1  156.33    7.68
   0  -8   1  158.22   13.69
   0  -8   1  178.41   12.28
   0  -8   1  176.83   13.63
  -1   8  -1    0.42    4.05
  -1   8  -1   -2.94    2.42
  -1   8  -1   -0.63    3.88
   1  -8   1   -1.78    4.21
   1  -8   1   -3.72    3.70
   1  -8   1    1.16    2.27
   1  -8   1   -0.07    3.90
  -2   8  -1   41.07    8.47
  -2   8  -1   50.98    6.45
  -2   8  -1   49.15    7.60
   2  -8   1   50.74    9.76
   2  -8   1   45.18    9.58
   2  -8   1   48.79    8.57
   2  -8   1   52.04    6.11
  -3   8  -1   39.45    7.09
  -3   8  -1   43.52    8.90
  -3   8  -1   37.96    5.90
   3  -8   1   47.82    8.58
   3  -8   1   34.99    8.54
   3  -8   1   35.47    5.61
  -4   8  -1   16.83    4.37
  -4   8  -1   14.54    7.47
  -4   8  -1   16.19    5.51
   4  -8   1   29.91    7.22
   4  -8   1   20.34    5.06
   4  -8   1   19.85    7.90
  -5   8  -1    0.31    5.96
  -5   8  -1    2.67    2.73
  -5   8  -1   -0.43    3.96
   5  -8   1   -2.51    3.82
   5  -8   1    2.59    3.75
  -6   8  -1   15.34    8.71
  -6   8  -1   -1.24    4.06
  -6   8  -1    3.43    2.79
   6  -8   1   10.18    5.95
   6  -8   1   -1.10    3.90
 -10  -7   1   10.20    5.59
  -9  -7   1    4.17    4.41
  -8  -7   1  194.16    9.10
  -8  -7   1  220.51   15.52
  -8  -7   1  223.47    8.18
  -7  -7   1    2.83    2.04
  -7  -7   1    4.59    4.21
  -7  -7   1    1.22    1.51
  -6  -7   1  270.48   10.66
  -6  -7   1  219.31   11.38
  -6  -7   1  227.58   15.51
  -5  -7   1    5.58    2.31
  -5  -7   1    9.66    3.15
  -5  -7   1    7.05    4.03
  -5  -7   1    3.53    3.01
  -4  -7   1  109.21   11.39
  -4  -7   1  109.67    8.25
   3   7  -1   38.90    3.89
  -3  -7   1   36.38    5.79
  -3  -7   1   34.47    6.44
   2   7  -1   15.47    3.64
   2   7  -1   19.03    3.22
  -2  -7   1   23.50    5.36
  -2  -7   1   20.03    2.91
  -2  -7   1   17.27    4.63
  -2  -7   1   15.81    2.71
   1   7  -1  128.77    9.59
   1   7  -1  141.04    7.98
   1   7  -1  117.26    8.50
  -1  -7   1  122.08   10.39
  -1  -7   1  140.23   10.97
  -1  -7   1  140.85    8.03
  -1  -7   1  125.91    7.90
   0   7  -1    9.21    3.70
   0   7  -1    7.09    3.96
   0   7  -1   11.06    3.05
   0  -7   1   10.57    2.33
   0  -7   1    9.33    4.21
   0  -7   1    1.29    3.72
   0  -7   1    4.57    2.71
  -1   7  -1   96.48    7.42
  -1   7  -1  108.69    8.58
  -1   7  -1  109.17   11.54
   1  -7   1  103.42   11.85
   1  -7   1   99.22    6.76
   1  -7   1  110.24   11.36
   1  -7   1   94.96   11.32
  -2   7  -1   32.97    7.21
  -2   7  -1   38.23    6.19
  -2   7  -1   25.58    4.38
   2  -7   1   32.04    6.59
   2  -7   1   15.20    5.56
   2  -7   1   30.27    4.73
   2  -7   1   21.52    6.52
  -3   7  -1   17.59    4.51
  -3   7  -1   11.94    5.94
  -3   7  -1   13.13    3.74
   3  -7   1   12.42    5.70
   3  -7   1   14.19    5.48
   3  -7   1    7.59    3.37
  -4   7  -1    1.85    5.24
  -4   7  -1    6.48    3.27
  -4   7  -1   -6.54    3.02
   4  -7   1    1.16    2.98
   4  -7   1    3.11    3.62
   4  -7   1   -1.76    4.06
  -5   7  -1  227.43   14.49
  -5   7  -1  226.83   18.69
  -5   7  -1  212.66   11.43
   5  -7   1  225.90   13.53
   5  -7   1  226.12   15.41
   5  -7   1  287.15   31.83
  -6   7  -1    8.96    4.71
  -6   7  -1   12.47    3.06
  -6   7  -1    5.31    6.91
   6  -7   1   12.84    5.68
   6  -7   1   12.87    4.62
  -7   7  -1  115.20   11.26
  -7   7  -1  114.85   16.02
   7  -7   1  141.24   13.02
 -11  -6   1  242.59   17.25
 -11  -6   1  245.61   10.56
 -10  -6   1   -2.06    3.51
  -9  -6   1    7.98    4.74
  -8  -6   1  293.61   17.60
  -7  -6   1    4.03    3.60
  -7  -6   1    0.64    1.41
  -6  -6   1   31.20    2.62
  -6  -6   1   28.47    3.41
  -6  -6   1   29.45    6.35
  -6  -6   1   32.55    3.47
  -5  -6   1  271.23   11.53
  -5  -6   1  271.46   15.57
  -5  -6   1  273.60   10.71
  -5  -6   1  249.73   11.49
  -4  -6   1   59.20    4.69
  -4  -6   1   57.49    5.88
  -4  -6   1   49.70    6.97
  -4  -6   1   54.62    5.51
   3   6  -1   16.36    2.00
  -3  -6   1   12.82    3.31
  -3  -6   1   15.26    3.04
  -3  -6   1   18.33    4.82
   2   6  -1    0.92    1.48
   2   6  -1    0.94    1.56
  -2  -6   1   -0.75    1.33
  -2  -6   1   -0.98    1.28
  -2  -6   1    2.44    2.82
  -2  -6   1    2.41    2.62
   1   6  -1  201.11   11.56
   1   6  -1  232.90   10.03
  -1  -6   1  224.24   10.16
  -1  -6   1  215.46   10.10
  -1  -6   1  229.03   12.92
  -1  -6   1  200.35   12.65
   0   6  -1 1158.48   42.26
   0   6  -1 1184.97   40.21
   0   6  -1 1155.52   39.03
   0  -6   1 1161.73   37.69
   0  -6   1 1122.33   43.22
   0  -6   1 1130.29   39.55
   0  -6   1 1153.20   42.60
  -1   6  -1   65.43    6.88
  -1   6  -1   82.90    9.33
  -1   6  -1   50.79    5.49
   1  -6   1   57.33    5.39
   1  -6   1   47.44    7.22
   1  -6   1   59.57    7.71
  -2   6  -1    7.74    4.17
  -2   6  -1    1.16    2.26
  -2   6  -1   -1.39    2.54
   2  -6   1   -2.67    2.69
   2  -6   1   -1.83    3.15
   2  -6   1   -3.19    1.76
   2  -6   1    5.51    3.78
  -3   6  -1   -5.00    3.36
  -3   6  -1    0.66    3.07
  -3   6  -1   -1.86    2.23
   3  -6   1    3.95    2.58
   3  -6   1   -0.41    3.40
   3  -6   1    1.67    4.20
  -4   6  -1  203.88   10.75
  -4   6  -1  186.11   15.25
  -4   6  -1  231.56   13.16
   4  -6   1  244.06   14.49
   4  -6   1  190.41   14.66
   4  -6   1  198.46   11.77
  -5   6  -1  127.35   14.52
  -5   6  -1  130.02   11.27
  -5   6  -1  121.77    7.72
   5  -6   1  115.83   11.79
   5  -6   1  141.14   14.50
   5  -6   1  129.17    9.80
  -6   6  -1   26.22    3.20
  -6   6  -1   34.12    6.19
  -6   6  -1   29.17    8.35
   6  -6   1   27.77    5.67
   6  -6   1   27.46    6.74
  -7   6  -1   -3.70    2.97
  -7   6  -1   -3.39    5.19
   7  -6   1    3.16    4.16
   7  -6   1    1.21    4.15
  -8   6  -1  282.17   22.74
 -11  -5   1   97.97    7.03
 -10  -5   1   -1.17    3.79
 -10  -5   1    4.69    2.21
  -9  -5   1   19.07    5.63
  -8  -5   1  280.26   16.39
  -7  -5   1  543.17   24.50
  -6  -5   1    2.02    3.00
  -5  -5   1    3.51    1.55
  -5  -5   1    4.87    1.74
  -5  -5   1    1.28    3.07
  -4  -5   1 1004.24   37.77
  -4  -5   1  967.11   33.54
  -4  -5   1 1050.31   33.74
  -4  -5   1 1026.02   32.74
  -3  -5   1 1394.10   49.01
  -3  -5   1 1527.98   52.10
  -3  -5   1 1545.62   48.07
   2   5  -1  217.09    8.44
  -2  -5   1  219.09    8.31
  -2  -5   1  227.46   12.46
  -2  -5   1  204.05   10.83
  -2  -5   1  217.54    9.95
  -2  -5   1  225.97    8.35
   1   5  -1  105.01    5.61
   1   5  -1  105.06    7.14
  -1  -5   1  104.44    5.89
  -1  -5   1   92.24    7.54
  -1  -5   1  110.53    8.27
   0   5  -1  793.18   27.77
   0   5  -1  760.43   29.37
   0   5  -1  742.59   26.57
   0  -5   1  775.53   27.34
   0  -5   1  800.28   30.18
   0  -5   1  746.13   29.55
   0  -5   1  791.95   25.88
  -1   5  -1 1027.39   35.42
  -1   5  -1  960.98   34.13
  -1   5  -1 1031.07   37.90
   1  -5   1 1020.30   33.95
   1  -5   1 1007.31   38.37
   1  -5   1  994.36   37.10
  -2   5  -1    5.73    2.81
  -2   5  -1    6.04    2.32
  -2   5  -1    1.89    3.15
   2  -5   1    3.88    3.64
   2  -5   1    6.74    3.25
   2  -5   1    6.61    2.55
   2  -5   1    2.52    3.08
  -3   5  -1   82.98    9.37
  -3   5  -1   78.62    6.02
  -3   5  -1   79.84    7.34
   3  -5   1   97.08    7.83
   3  -5   1   89.71    9.94
   3  -5   1   79.56    8.61
   3  -5   1   82.03    9.79
  -4   5  -1  637.92   25.50
  -4   5  -1  639.39   29.36
  -4   5  -1  623.57   23.30
   4  -5   1  673.09   27.20
   4  -5   1  629.86   28.31
   4  -5   1  638.70   24.70
  -5   5  -1   99.21   12.06
  -5   5  -1   76.66    8.04
  -5   5  -1   90.49    5.83
   5  -5   1   78.64    9.07
   5  -5   1  101.34   11.31
   5  -5   1   90.61    8.42
  -6   5  -1   97.62   12.91
  -6   5  -1  109.22    9.67
   6  -5   1   88.29    8.62
   6  -5   1  105.76   11.02
  -7   5  -1   -3.32    2.37
  -7   5  -1    2.27    5.30
   7  -5   1   -1.08    2.89
   7  -5   1   -0.45    3.55
  -8   5  -1   92.17   13.56
  -8   5  -1   96.11    8.65
   8  -5   1  126.02   11.31
 -11  -4   1   53.12    6.55
 -10  -4   1    1.85    2.36
  -9  -4   1  500.31   23.69
  -9  -4   1  503.27   18.72
  -8  -4   1  748.54   30.41
  -8  -4   1  695.25   24.31
  -8  -4   1  775.16   24.60
  -7  -4   1  288.20   15.37
  -6  -4   1  883.10   33.65
  -5  -4   1 1429.58   49.80
  -4  -4   1   99.50    4.43
  -4  -4   1  117.85    4.68
  -4  -4   1   94.09    7.36
  -3  -4   1  650.14   21.57
  -3  -4   1  660.50   22.42
  -3  -4   1  669.81   25.39
  -2  -4   1 1427.79   46.19
  -2  -4   1 1404.46   48.94
  -2  -4   1 1487.40   47.42
   1   4  -1  245.17   10.53
   1   4  -1  215.51    8.69
  -1  -4   1  214.97    9.02
  -1  -4   1  227.35   11.51
  -1  -4   1  227.43   10.84
   0   4  -1 1547.55   48.94
   0   4  -1 1534.69   49.72
   0   4  -1 1570.15   51.53
   0  -4   1 1463.41   51.57
   0  -4   1 1539.94   48.36
   0  -4   1 1491.11   51.53
   0  -4   1 1557.53   49.56
  -1   4  -1  840.35   28.49
  -1   4  -1  856.12   31.46
  -1   4  -1  862.80   29.44
   1  -4   1  812.86   31.55
   1  -4   1  823.69   30.82
   1  -4   1  838.91   28.39
  -2   4  -1  834.85   32.58
  -2   4  -1  850.23   29.18
  -2   4  -1  856.38   30.27
   2  -4   1  838.53   32.79
   2  -4   1  865.80   29.43
   2  -4   1  872.71   31.64
  -3   4  -1  113.01    9.40
  -3   4  -1  113.55    6.40
  -3   4  -1  111.85    7.55
   3  -4   1  119.00    9.14
   3  -4   1  100.90    6.76
   3  -4   1  103.31    8.95
   3  -4   1  117.24    8.31
  -4   4  -1  478.29   23.18
  -4   4  -1  501.86   18.04
  -4   4  -1  496.30   20.07
   4  -4   1  477.35   19.36
   4  -4   1  511.09   22.62
   4  -4   1  489.95   21.23
  -5   4  -1   -0.77    1.29
  -5   4  -1   -0.02    2.30
  -5   4  -1   -0.68    3.21
   5  -4   1   -0.09    2.24
   5  -4   1    1.47    3.06
  -6   4  -1  189.34   10.90
  -6   4  -1  222.96   15.61
   6  -4   1  187.79   11.09
  -7   4  -1   30.28    4.87
  -7   4  -1   28.80    7.79
   7  -4   1   28.31    5.40
  -8   4  -1  402.48   16.98
  -8   4  -1  431.47   25.46
   8  -4   1  435.01   20.03
  -9   4  -1  191.89   17.69
   9  -4   1  213.47   13.88
 -11  -3   1   13.61    4.34
 -10  -3   1    3.14    2.83
  -9  -3   1   23.79    4.12
  -8  -3   1 1251.27   44.36
  -8  -3   1 1168.58   40.07
  -8  -3   1 1218.21   40.35
  -7  -3   1  320.09   15.55
  -7  -3   1  312.03   11.63
  -7  -3   1  294.83   11.44
  -6  -3   1    7.15    3.13
  -5  -3   1   18.73    3.94
  -4  -3   1  956.17   33.89
  -3  -3   1 1003.77   34.86
  -2  -3   1 1151.04   35.57
  -2  -3   1 1054.50   36.20
  -2  -3   1 1175.23   36.31
   1   3  -1 2137.94   70.42
   1   3  -1 2209.26   68.92
  -1  -3   1 2254.64   69.44
  -1  -3   1 2169.46   71.77
  -1  -3   1 2242.75   70.14
  -1  -3   1 2436.67   71.20
   0   3  -1 5212.62  161.26
   0   3  -1 5217.76  162.57
   0   3  -1 5233.73  160.61
   0  -3   1 5171.66  162.81
   0  -3   1 5218.60  161.14
   0  -3   1 5248.52  160.33
   0  -3   1 5416.09  162.96
  -1   3  -1  511.21   18.87
  -1   3  -1  515.76   18.23
  -1   3  -1  528.47   20.46
   1  -3   1  524.10   20.57
   1  -3   1  547.70   18.32
   1  -3   1  514.54   19.94
  -2   3  -1   85.77    5.03
  -2   3  -1   97.05    5.93
  -2   3  -1   95.47    7.19
   2  -3   1   91.10    5.34
   2  -3   1   84.58    7.00
  -3   3  -1 3839.51  120.80
  -3   3  -1 3794.27  116.40
  -3   3  -1 3761.90  117.80
   3  -3   1 3692.94  120.47
   3  -3   1 3713.42  117.10
   3  -3   1 3752.45  120.16
  -4   3  -1  126.07    9.59
  -4   3  -1  130.64    5.93
  -4   3  -1  122.78    7.55
   4  -3   1  124.40    7.22
   4  -3   1  129.42    9.00
  -5   3  -1  198.54   12.98
  -5   3  -1  185.27    9.80
   5  -3   1  191.10   11.80
   5  -3   1  193.93    9.81
  -6   3  -1  103.30   11.21
  -6   3  -1  110.71    7.18
   6  -3   1   90.28    7.07
  -7   3  -1   86.57    6.16
  -7   3  -1   77.54   10.52
   7  -3   1   92.40    8.03
  -8   3  -1   70.26    4.64
  -8   3  -1   61.00   10.01
   8  -3   1   93.07    8.89
  -9   3  -1    3.04    5.16
 -11  -2   1    0.48    3.85
 -10  -2   1    3.08    3.44
  -9  -2   1   80.51    7.33
  -8  -2   1   53.43    6.00
  -7  -2   1 1321.19   44.27
  -7  -2   1 1353.87   44.45
  -6  -2   1  506.67   18.18
  -6  -2   1  518.35   20.74
  -6  -2   1  523.30   18.31
  -5  -2   1  119.27    4.89
  -5  -2   1  110.69    4.75
  -5  -2   1  106.39    7.11
  -4  -2   1 1855.18   60.22
  -3  -2   1  300.85   12.39
  -2  -2   1 4067.09  125.93
  -2  -2   1 4225.90  128.53
  -1  -2   1 1729.72   52.83
  -1  -2   1 1716.24   54.85
  -1  -2   1 1732.32   53.88
  -1  -2   1 1702.86   53.33
   0   2  -1 1543.45   48.80
   0   2  -1 1538.59   49.63
   0   2  -1 1575.14   48.36
   0  -2   1 1606.42   48.25
   0  -2   1 1502.79   49.73
   0  -2   1 1562.85   48.76
   0  -2   1 1549.39   49.91
  -1   2  -1 5102.29  158.02
  -1   2  -1 5212.64  157.49
  -1   2  -1 5277.63  159.45
   1  -2   1 4983.28  159.29
   1  -2   1 5167.76  157.51
  -2   2  -1   68.67    5.62
  -2   2  -1   68.63    4.58
  -2   2  -1   70.22    3.94
   2  -2   1   76.46    4.28
   2  -2   1   64.77    5.41
  -3   2  -1   64.85    6.50
  -3   2  -1   50.59    4.41
  -3   2  -1   55.72    3.28
   3  -2   1   50.46    5.35
   3  -2   1   56.10    3.90
  -4   2  -1   48.84    5.99
  -4   2  -1   41.38    4.19
   4  -2   1   53.30    5.81
   4  -2   1   38.85    3.82
  -5   2  -1   23.95    3.23
  -5   2  -1   15.47    4.28
   5  -2   1   17.64    2.91
   5  -2   1   23.91    4.22
  -6   2  -1  145.08    7.27
  -6   2  -1  142.03   10.83
   6  -2   1  148.88    8.05
  -7   2  -1  159.16   12.05
  -7   2  -1  143.24    6.42
   7  -2   1  135.04    8.39
  -8   2  -1   67.25    9.77
   8  -2   1   70.44    7.33
  -9   2  -1   13.85    5.87
 -10   2  -1  173.01   15.66
 -11  -1   1   43.77    8.07
 -10  -1   1   49.64    7.83
  -9  -1   1  471.40   21.78
  -8  -1   1   13.75    3.97
  -7  -1   1  187.84   10.42
  -7  -1   1  186.21   10.18
  -6  -1   1   62.38    5.23
  -6  -1   1   52.54    4.83
  -5  -1   1  183.74    8.48
  -5  -1   1  184.51    8.43
  -4  -1   1  639.12   22.97
  -4  -1   1  649.50   21.82
  -4  -1   1  671.35   21.82
  -3  -1   1  287.26    9.61
  -3  -1   1  274.57    9.61
  -3  -1   1  287.24   11.09
  -1  -1   1  168.13    5.99
  -1  -1   1  166.05    5.65
  -1  -1   1  188.05    6.06
  -1  -1   1  169.18    6.78
   0   1  -1 1849.13   57.46
   0   1  -1 1835.30   56.92
   0   1  -1 1807.32   56.66
   0  -1   1 1885.67   56.63
   0  -1   1 1852.11   57.45
   0  -1   1 1831.83   57.07
   0  -1   1 1835.80   56.91
   0  -1   1 1871.28   57.61
  -1   1  -1   48.43    3.53
  -1   1  -1   46.10    2.59
  -1   1  -1   49.14    3.03
   1  -1   1   50.71    3.56
   1  -1   1   49.37    2.70
  -2   1  -1  738.57   23.68
  -2   1  -1  778.08   25.95
  -2   1  -1  729.95   24.50
   2  -1   1  717.25   25.46
   2  -1   1  750.52   24.17
   2  -1   1  785.72   25.81
  -3   1  -1  220.06    8.88
  -3   1  -1  235.12   10.69
   3  -1   1  232.03    8.60
   3  -1   1  230.28   10.08
  -4   1  -1   14.78    3.47
  -4   1  -1   13.91    2.06
   4  -1   1   15.90    2.97
   4  -1   1   14.02    1.97
  -5   1  -1  105.21    7.90
  -5   1  -1  106.63    5.07
   5  -1   1  109.99    5.57
  -6   1  -1   21.21    4.67
   6  -1   1   18.77    2.82
  -7   1  -1  204.31   13.28
   7  -1   1  231.30   10.14
  -8   1  -1  321.52   18.05
  -9   1  -1   14.80    5.52
 -10   1  -1   85.76   11.60
 -11   0   1    0.57    4.47
 -10   0   1   14.53    5.47
  -9   0   1   45.24    7.55
  -8   0   1   -0.74    2.72
  -7   0   1   18.52    4.36
  -6   0   1    3.89    2.78
  -5   0   1  604.27   22.74
  -4   0   1  542.22   19.88
  -3   0   1 3185.51   99.01
  -2   0   1 1167.31   35.91
  -2   0   1 1167.41   37.21
  -1   0   1  687.24   21.80
  -1   0   1  714.36   22.41
  -1   0   1  704.54   21.70
   0   0   1    0.17    0.24
   0   0   1   -0.38    0.20
  -1   0  -1   47.80    2.59
  -1   0  -1   50.31    2.15
  -1   0  -1   50.35    2.17
   1   0   1   49.22    2.47
  -2   0  -1 1777.40   54.71
  -2   0  -1 1764.80   55.84
  -2   0  -1 1814.89   54.75
  -3   0  -1  146.40    5.04
  -3   0  -1  145.18    5.03
  -3   0  -1  159.26    7.14
  -4   0  -1  519.64   19.23
  -5   0  -1  384.39   15.89
  -6   0  -1  804.48   30.03
  -7   0  -1   59.67    7.10
  -8   0  -1   21.96    5.15
  -9   0  -1   58.45    8.43
 -10   0  -1  187.90   14.28
 -11   0  -1   56.10    9.71
 -10   1   1  120.29   13.80
  -9   1   1    2.38    4.06
  -8   1   1   90.29   10.33
   7  -1  -1  172.79    8.50
  -7   1   1  165.16   11.78
   6  -1  -1  768.17   26.68
  -6   1   1  811.73   31.07
   5  -1  -1  233.31    9.30
  -5   1   1  238.32    8.59
  -5   1   1  218.99   12.13
   4  -1  -1  274.61    9.95
   4  -1  -1  251.22   11.92
  -4   1   1  264.73    9.90
  -4   1   1  266.89   12.60
   3  -1  -1 3492.26  106.12
   3  -1  -1 3348.11  107.83
  -3   1   1 3533.31  106.54
  -3   1   1 3441.94  108.72
   2  -1  -1 7948.27  248.48
  -2   1   1 8295.96  249.01
   1  -1  -1  226.86    9.11
   1  -1  -1  226.40    8.08
   1  -1  -1  235.49    8.06
  -1   1   1  233.87    8.44
  -1   1   1  233.54    7.99
  -1   1   1  225.60    9.23
   0  -1  -1 3718.28  114.38
   0  -1  -1 3675.24  114.25
   0   1   1 3756.57  114.38
   0   1   1 3788.93  114.82
   0   1   1 3779.88  114.28
  -1  -1  -1 4997.76  153.10
  -2  -1  -1 2918.67   90.72
  -3  -1  -1  848.52   26.41
  -3  -1  -1  805.96   26.31
  -3  -1  -1  880.11   28.84
  -4  -1  -1 1540.46   47.31
  -4  -1  -1 1451.49   47.06
  -5  -1  -1  207.35    9.18
  -5  -1  -1  228.20    9.58
  -6  -1  -1  490.12   19.26
  -6  -1  -1  516.76   19.13
  -6  -1  -1  509.52   19.35
  -7  -1  -1   52.32    5.88
  -7  -1  -1   51.99    5.85
  -8  -1  -1  686.65   27.16
  -9  -1  -1  382.39   18.71
 -10  -1  -1    7.17    4.53
 -11  -1  -1   45.23    7.93
 -10   2   1   56.61   10.27
  -9   2   1   56.87    9.68
  -8   2   1   14.49    5.71
   7  -2  -1  176.79    9.45
  -7   2   1  161.98   12.72
   6  -2  -1  150.57    8.13
  -6   2   1  144.12    7.05
  -6   2   1  149.22   11.23
   5  -2  -1    8.61    2.25
   5  -2  -1   11.60    3.19
  -5   2   1   10.13    2.22
  -5   2   1    5.93    3.29
   4  -2  -1   -1.53    1.88
   4  -2  -1    3.76    1.58
  -4   2   1    0.37    1.47
  -4   2   1    8.66    3.22
   3  -2  -1  198.04    8.24
   3  -2  -1  184.50    9.81
  -3   2   1  190.06   10.42
  -3   2   1  193.15    8.63
  -3   2   1  191.16    7.25
   2  -2  -1   15.66    2.22
   2  -2  -1   17.33    3.30
   2  -2  -1   18.54    2.69
  -2   2   1   14.47    3.18
  -2   2   1   18.35    2.65
  -2   2   1   17.28    2.05
   1  -2  -1 3951.87  120.83
   1  -2  -1 3887.53  120.34
   1  -2  -1 3917.66  122.07
  -1   2   1 3904.57  120.79
  -1   2   1 3975.03  122.27
  -1   2   1 3875.45  120.18
   0  -2  -1 5031.51  150.51
   0  -2  -1 4816.00  149.77
   0  -2  -1 4901.10  148.77
   0  -2  -1 4777.67  150.20
   0  -2  -1 4917.17  149.27
   0   2   1 4830.51  150.21
   0   2   1 4926.68  148.84
   0   2   1 4810.17  149.23
  -1  -2  -1  924.89   28.40
  -1  -2  -1  866.13   27.30
  -1  -2  -1  854.22   27.63
  -1  -2  -1  863.31   29.04
  -1  -2  -1  857.20   27.28
  -2  -2  -1 1796.44   57.52
  -3  -2  -1  472.59   17.99
  -4  -2  -1  271.37   12.33
  -5  -2  -1   44.23    5.50
  -6  -2  -1  879.84   29.43
  -6  -2  -1  897.69   29.29
  -7  -2  -1  214.31    9.74
  -7  -2  -1  205.05    9.43
  -7  -2  -1  190.55    9.51
  -8  -2  -1   14.50    3.50
  -9  -2  -1  415.10   18.42
 -10  -2  -1  144.00   10.39
 -11  -2  -1    6.47    4.05
  -9   3   1  120.14   14.37
   8  -3  -1  149.93   10.14
  -8   3   1  144.68   13.69
   7  -3  -1  171.63   10.10
  -7   3   1  162.25   13.44
  -7   3   1  157.04    8.22
   6  -3  -1  477.93   18.91
  -6   3   1  473.55   23.33
  -6   3   1  435.19   17.87
   5  -3  -1   36.80    5.92
   5  -3  -1   38.56    4.62
  -5   3   1   46.56    7.28
  -5   3   1   38.46    4.55
   4  -3  -1   64.29    5.36
   4  -3  -1   54.53    5.29
   4  -3  -1   53.11    6.62
  -4   3   1   53.37    5.34
  -4   3   1   59.71    7.45
  -4   3   1   57.18    3.50
   3  -3  -1  457.16   19.79
   3  -3  -1  456.13   17.94
   3  -3  -1  467.62   17.43
  -3   3   1  495.35   18.16
  -3   3   1  449.05   20.24
  -3   3   1  470.14   16.54
   2  -3  -1  524.83   19.73
   2  -3  -1  583.67   20.78
   2  -3  -1  560.23   22.23
  -2   3   1  594.31   22.78
  -2   3   1  558.49   19.52
  -2   3   1  555.62   20.51
   1  -3  -1 1991.83   63.64
   1  -3  -1 1976.41   62.48
   1  -3  -1 2042.18   65.09
  -1   3   1 1947.69   64.89
  -1   3   1 1974.96   63.18
   0  -3  -1 3159.92   98.87
   0  -3  -1 3120.64   99.25
   0  -3  -1 3081.27   99.50
   0  -3  -1 3115.79   97.00
   0  -3  -1 3069.04   97.67
   0   3   1 3203.09   97.24
   0   3   1 3152.96   97.84
   0   3   1 3285.05   99.24
  -1  -3  -1 3481.89  113.66
  -1  -3  -1 3712.95  112.17
  -1  -3  -1 3674.48  114.35
  -1  -3  -1 3591.31  112.16
   1   3   1 3761.45  113.41
   1   3   1 3691.58  111.68
  -2  -3  -1 2342.89   71.05
  -2  -3  -1 2325.61   70.21
  -2  -3  -1 2314.68   73.07
  -2  -3  -1 2128.63   70.80
  -3  -3  -1 4355.45  136.60
  -4  -3  -1 1843.41   61.15
  -5  -3  -1  869.43   32.21
  -6  -3  -1   57.14    6.64
  -7  -3  -1   32.72    2.90
  -7  -3  -1   31.81    5.57
  -7  -3  -1   31.28    2.73
  -8  -3  -1  186.49    8.82
  -8  -3  -1  202.90    9.20
  -9  -3  -1  213.86   10.86
 -10  -3  -1    0.07    2.57
 -11  -3  -1  142.72   10.37
   9  -4  -1    0.45    4.01
  -9   4   1    1.46    5.18
   8  -4  -1  124.20   10.78
  -8   4   1  119.34   14.68
  -8   4   1  116.86    7.26
   7  -4  -1  166.45   10.47
  -7   4   1  144.50    8.86
  -7   4   1  107.64   13.31
   6  -4  -1   74.98    7.74
   6  -4  -1   64.02    6.90
  -6   4   1   42.15    5.51
  -6   4   1   52.61    9.19
   5  -4  -1    1.30    2.74
   5  -4  -1    3.15    3.41
   5  -4  -1    2.94    2.56
  -5   4   1    2.57    1.58
  -5   4   1    2.35    2.57
  -5   4   1    3.09    1.40
  -5   4   1    3.35    4.02
   4  -4  -1   25.57    4.05
   4  -4  -1   34.56    6.15
   4  -4  -1   37.62    5.20
  -4   4   1   31.32    6.66
  -4   4   1   32.90    4.80
  -4   4   1   27.71    3.28
   3  -4  -1    0.12    2.63
   3  -4  -1    1.03    1.73
   3  -4  -1   -2.07    1.90
  -3   4   1    0.24    1.45
  -3   4   1    2.62    3.00
  -3   4   1   -0.72    1.96
   2  -4  -1  312.45   13.79
   2  -4  -1  311.44   15.32
   2  -4  -1  301.98   12.68
  -2   4   1  320.21   13.61
  -2   4   1  293.26   12.29
  -2   4   1  303.82   15.49
   1  -4  -1  305.34   13.45
   1  -4  -1  308.20   11.97
   1  -4  -1  290.64   14.29
  -1   4   1  311.89   14.63
  -1   4   1  284.17   12.62
  -1   4   1  287.93   11.86
   0  -4  -1 2686.61   84.11
   0  -4  -1 2685.02   86.80
   0  -4  -1 2558.78   87.44
   0  -4  -1 2786.97   87.48
   0  -4  -1 2739.86   85.19
   0   4   1 2894.81   87.30
   0   4   1 2669.98   84.55
   0   4   1 2648.39   85.28
  -1  -4  -1 1079.80   35.29
  -1  -4  -1 1054.68   37.60
  -1  -4  -1 1138.47   37.70
  -1  -4  -1 1071.79   35.31
   1   4   1 1100.71   36.77
   1   4   1 1081.29   34.84
  -2  -4  -1   -1.18    1.88
  -2  -4  -1    9.25    2.34
  -2  -4  -1    0.94    0.82
  -2  -4  -1    0.53    0.78
  -3  -4  -1  199.49    7.68
  -3  -4  -1  205.64    8.58
  -3  -4  -1  206.86   11.11
  -3  -4  -1  215.51    8.63
  -3  -4  -1  205.17    7.81
  -4  -4  -1   86.07    7.27
  -5  -4  -1  114.51    8.60
  -6  -4  -1  164.09   10.88
  -7  -4  -1  266.73   14.99
  -8  -4  -1  218.56   14.00
  -9  -4  -1    1.54    1.94
 -10  -4  -1   58.33    5.50
 -11  -4  -1  174.34   10.40
   8  -5  -1   12.30    5.00
  -8   5   1   20.15    7.91
  -8   5   1   18.14    3.97
   7  -5  -1   38.51    6.45
  -7   5   1   27.82    8.33
  -7   5   1   32.65    5.33
   6  -5  -1  225.17   12.65
   6  -5  -1  209.18   12.83
  -6   5   1  213.85   12.38
  -6   5   1  195.52   16.05
   5  -5  -1   10.93    4.06
   5  -5  -1   10.00    3.48
   5  -5  -1    8.89    4.57
  -5   5   1    6.01    3.35
  -5   5   1    8.83    2.22
  -5   5   1    1.06    4.09
   4  -5  -1  223.00   12.45
   4  -5  -1  222.86   14.65
   4  -5  -1  216.86   11.63
  -4   5   1  224.12   10.36
  -4   5   1  209.03   12.16
  -4   5   1  220.65   15.21
   3  -5  -1    0.21    3.08
   3  -5  -1   -0.07    2.10
   3  -5  -1    1.27    2.77
  -3   5   1    0.78    2.40
  -3   5   1   -1.43    2.92
  -3   5   1    0.30    1.99
   2  -5  -1  296.08   13.13
   2  -5  -1  312.43   16.36
   2  -5  -1  293.83   14.55
  -2   5   1  300.73   13.00
  -2   5   1  320.51   16.63
  -2   5   1  309.76   14.21
   1  -5  -1   62.45    6.67
   1  -5  -1   63.58    5.30
   1  -5  -1   62.93    7.80
  -1   5   1   71.21    6.59
  -1   5   1   63.65    5.50
  -1   5   1   68.29    7.54
   0  -5  -1  466.03   20.22
   0  -5  -1  467.69   19.75
   0  -5  -1  461.49   17.97
   0  -5  -1  446.85   17.74
   0  -5  -1  475.48   20.77
   0  -5  -1  470.52   16.67
   0   5   1  476.21   19.95
   0   5   1  470.02   18.28
   0   5   1  459.85   17.27
  -1  -5  -1 1853.52   61.70
  -1  -5  -1 1770.51   61.37
  -1  -5  -1 1778.47   56.24
  -1  -5  -1 1872.36   58.65
  -1  -5  -1 1837.65   58.66
  -1  -5  -1 1854.41   56.29
   1   5   1 1837.49   60.47
   1   5   1 1847.35   58.11
  -2  -5  -1  964.64   35.00
  -2  -5  -1  992.23   31.95
  -2  -5  -1 1006.34   31.92
  -2  -5  -1  971.54   36.15
   2   5   1 1019.11   31.93
  -3  -5  -1  497.28   18.78
  -3  -5  -1  489.21   21.11
  -4  -5  -1   12.39    2.37
  -4  -5  -1   11.05    2.26
  -4  -5  -1   12.36    1.85
  -4  -5  -1   10.29    1.86
  -4  -5  -1   15.83    4.30
  -5  -5  -1 1628.58   48.71
  -5  -5  -1 1478.71   48.71
  -5  -5  -1 1552.01   54.84
  -6  -5  -1   30.67    6.08
  -7  -5  -1   17.62    5.02
  -8  -5  -1    0.65    3.74
  -9  -5  -1   49.38    8.36
 -10  -5  -1    0.05    1.74
 -11  -5  -1   71.74    5.88
   7  -6  -1   20.52    5.59
  -7   6   1    3.31    5.79
  -7   6   1   -0.20    3.36
   6  -6  -1    1.72    3.46
   6  -6  -1    0.55    3.03
  -6   6   1    1.95    5.03
  -6   6   1    2.44    3.64
  -6   6   1    2.15    1.38
   5  -6  -1   33.82    5.77
   5  -6  -1   60.93    9.84
   5  -6  -1   27.48    5.79
  -5   6   1   38.41    4.57
  -5   6   1   45.68    6.92
  -5   6   1   55.14    9.78
   4  -6  -1   27.67    5.01
   4  -6  -1   26.92    5.78
   4  -6  -1   16.66    6.23
  -4   6   1   28.62    5.56
  -4   6   1   22.48    3.91
  -4   6   1   25.24    6.81
   3  -6  -1  237.27   12.20
   3  -6  -1  241.65   15.72
   3  -6  -1  246.68   13.84
  -3   6   1  233.70   13.16
  -3   6   1  234.65   15.90
  -3   6   1  224.97   11.51
   2  -6  -1   53.83    7.77
   2  -6  -1   52.50    5.50
   2  -6  -1   54.60    6.92
  -2   6   1   59.67    8.57
  -2   6   1   65.22    5.96
  -2   6   1   48.71    6.02
   1  -6  -1  178.24    8.96
   1  -6  -1  166.25   12.05
   1  -6  -1  193.44   11.56
  -1   6   1  172.20   10.17
  -1   6   1  151.90   11.45
  -1   6   1  185.61    9.40
   0  -6  -1  510.51   22.12
   0  -6  -1  511.37   18.21
   0  -6  -1  494.87   19.73
   0  -6  -1  540.62   23.18
   0  -6  -1  545.85   23.70
   0  -6  -1  495.34   19.91
   0   6   1  490.51   19.16
   0   6   1  515.99   20.46
   0   6   1  463.11   21.78
  -1  -6  -1  530.69   19.94
  -1  -6  -1  528.99   17.06
  -1  -6  -1  541.33   19.95
  -1  -6  -1  549.06   17.09
  -1  -6  -1  503.44   22.58
  -1  -6  -1  490.90   22.72
   1   6   1  541.92   21.22
   1   6   1  535.42   19.55
   1   6   1  545.55   21.95
  -2  -6  -1  137.33    6.68
  -2  -6  -1  135.65    6.57
  -2  -6  -1  132.22    9.37
  -2  -6  -1  142.58   10.18
   2   6   1  133.58    6.69
   2   6   1  139.20    8.12
  -3  -6  -1    1.97    2.94
  -3  -6  -1    1.53    2.09
   3   6   1    1.36    1.14
  -4  -6  -1  176.13   11.93
  -4  -6  -1  203.54    9.85
  -4  -6  -1  181.29    9.45
  -5  -6  -1  861.48   28.04
  -5  -6  -1  822.86   28.05
  -5  -6  -1  862.24   34.39
  -5  -6  -1  835.63   29.24
  -5  -6  -1  865.21   29.22
  -6  -6  -1 1205.69   36.01
  -6  -6  -1 1185.39   37.34
  -6  -6  -1 1187.71   44.22
  -6  -6  -1  985.42   36.87
  -6  -6  -1 1173.31   35.92
  -7  -6  -1  143.17   11.83
  -8  -6  -1    4.83    4.16
  -9  -6  -1  134.01   13.61
 -10  -6  -1  120.53   13.67
   7  -7  -1   56.36    8.39
  -7   7   1   33.50   10.01
  -7   7   1   50.69    7.76
   6  -7  -1   27.38    5.99
  -6   7   1   17.41    7.86
  -6   7   1   24.87    3.46
  -6   7   1   19.85    5.34
   5  -7  -1   98.79   10.61
   5  -7  -1   98.63    9.51
  -5   7   1   74.76   12.08
  -5   7   1   94.62    9.87
  -5   7   1   94.66    6.96
   4  -7  -1  861.29   37.73
   4  -7  -1  795.10   31.66
   4  -7  -1  840.43   33.93
  -4   7   1  837.46   38.10
  -4   7   1  805.32   33.15
  -4   7   1  816.48   30.50
   3  -7  -1    0.31    3.83
   3  -7  -1   -2.67    2.23
   3  -7  -1   -4.92    2.59
  -3   7   1   -4.33    2.71
  -3   7   1    0.36    2.51
  -3   7   1    1.60    4.29
   2  -7  -1  143.43    9.13
   2  -7  -1  155.94   11.51
   2  -7  -1  166.65   13.41
  -2   7   1  173.06    9.98
  -2   7   1  153.08   10.87
  -2   7   1  152.84   12.88
   1  -7  -1   92.47    6.63
   1  -7  -1   97.06   10.36
   1  -7  -1   72.62    9.50
  -1   7   1   99.29    8.19
  -1   7   1  100.23    9.26
  -1   7   1   96.24   10.73
   0  -7  -1   38.35    6.64
   0  -7  -1   40.62    5.29
   0  -7  -1   37.92    3.96
   0  -7  -1   29.73    6.24
   0  -7  -1   38.57    6.81
   0  -7  -1   27.88    4.49
   0   7   1   43.31    5.74
   0   7   1   42.11    6.89
   0   7   1   33.96    4.64
  -1  -7  -1   64.32    8.64
  -1  -7  -1  109.71   10.86
  -1  -7  -1   83.80    9.22
  -1  -7  -1   79.23    6.22
  -1  -7  -1   83.56    6.42
   1   7   1   82.77    6.17
   1   7   1   82.23    8.65
   1   7   1   87.31    7.77
  -2  -7  -1  375.65   14.42
  -2  -7  -1  375.40   14.38
  -2  -7  -1  343.02   18.58
  -2  -7  -1  381.76   18.68
   2   7   1  362.54   14.63
   2   7   1  362.68   16.44
  -3  -7  -1  145.10    9.99
   3   7   1  116.08    6.42
  -4  -7  -1   12.13    4.55
  -4  -7  -1   15.83    3.86
  -5  -7  -1 1265.48   42.90
  -5  -7  -1 1226.11   43.02
  -5  -7  -1 1251.44   47.80
  -6  -7  -1  299.22   12.90
  -6  -7  -1  297.97   17.52
  -6  -7  -1  286.98   12.96
  -7  -7  -1    8.41    2.29
  -7  -7  -1    4.73    1.57
  -7  -7  -1    9.65    5.12
  -7  -7  -1    5.47    2.18
  -7  -7  -1    5.37    1.62
  -8  -7  -1    1.76    1.58
  -8  -7  -1    4.15    2.79
  -8  -7  -1    5.76    4.67
  -9  -7  -1   10.34    5.30
 -10  -7  -1  447.04   24.99
 -11  -7  -1  118.81   14.09
   6  -8  -1    4.21    4.17
  -6   8   1    1.68    4.56
  -6   8   1    7.76    6.89
  -6   8   1    7.41    2.81
   5  -8  -1   19.63    5.34
   5  -8  -1    6.06    5.01
  -5   8   1   10.73    3.52
  -5   8   1    1.96    5.83
  -5   8   1    8.49    5.00
   4  -8  -1  281.31   15.34
   4  -8  -1  297.92   17.86
   4  -8  -1  278.42   20.61
  -4   8   1  295.10   17.34
  -4   8   1  286.70   14.61
  -4   8   1  285.27   20.74
   3  -8  -1   33.82    5.49
   3  -8  -1   46.46    7.94
   3  -8  -1   48.66    9.61
  -3   8   1   32.54    5.37
  -3   8   1   47.00    9.12
  -3   8   1   35.50    6.53
   2  -8  -1    5.23    2.89
   2  -8  -1    2.28    4.07
   2  -8  -1    1.21    5.29
  -2   8   1   -0.89    4.22
  -2   8   1    2.91    3.22
  -2   8   1    7.25    4.06
   1  -8  -1   35.06    4.71
   1  -8  -1   37.18    7.39
   1  -8  -1   32.04    7.14
   1  -8  -1   39.81    6.40
  -1   8   1   30.90    6.05
  -1   8   1   30.11    4.90
  -1   8   1   38.27    7.75
   0  -8  -1  122.75    6.64
   0  -8  -1  113.68    8.76
   0  -8  -1  102.22   11.22
   0  -8  -1  126.20   11.77
   0   8   1  102.45   11.29
   0   8   1  108.85    8.21
  -1  -8  -1   17.88    3.81
  -1  -8  -1   10.05    5.00
  -1  -8  -1   16.94    5.69
  -1  -8  -1   11.39    4.73
  -1  -8  -1   17.78    3.77
   1   8   1   11.44    3.34
   1   8   1   10.61    4.25
  -2  -8  -1  444.60   16.79
  -2  -8  -1  417.00   16.57
  -2  -8  -1  457.30   22.51
  -2  -8  -1  421.14   21.28
  -2  -8  -1  396.23   21.19
   2   8   1  398.49   17.06
  -3  -8  -1    3.75    4.23
  -3  -8  -1    5.08    1.38
  -3  -8  -1    1.76    1.17
  -3  -8  -1    2.87    3.76
   3   8   1    3.41    2.33
  -4  -8  -1  465.69   21.81
  -4  -8  -1  485.17   24.15
  -5  -8  -1  106.11    8.60
  -5  -8  -1   86.54   10.79
  -6  -8  -1  216.25   15.82
  -6  -8  -1  224.93   12.16
  -7  -8  -1   83.71    6.59
  -7  -8  -1   64.21    9.87
  -8  -8  -1   36.38    4.72
  -8  -8  -1   41.35    8.23
  -9  -8  -1   -3.06    4.08
  -9  -8  -1    2.56    2.05
 -10  -8  -1    4.40    5.31
   4  -9  -1   33.34    6.25
   4  -9  -1   30.86    7.61
   4  -9  -1   31.29    9.40
  -4   9   1   23.82    5.21
  -4   9   1   32.78    7.39
  -4   9   1   33.61    9.57
   3  -9  -1   26.62    6.81
   3  -9  -1   27.01    6.92
   3  -9  -1   12.29    7.00
   3  -9  -1   21.87    4.86
  -3   9   1   22.90    4.99
  -3   9   1   25.37    8.07
  -3   9   1    9.96    5.47
   2  -9  -1   42.02    9.65
   2  -9  -1   38.02    7.01
   2  -9  -1   34.53    5.22
   2  -9  -1   45.42    8.45
  -2   9   1   21.76    4.99
  -2   9   1   42.37    9.14
   1  -9  -1   89.54    9.44
   1  -9  -1  117.15   14.34
   1  -9  -1   91.39   11.42
   1  -9  -1  100.78    7.15
  -1   9   1   93.39    9.13
  -1   9   1   91.13   12.37
   0  -9  -1   37.85    5.83
   0  -9  -1   25.56    7.25
   0  -9  -1   32.01    3.56
   0  -9  -1   24.04    6.68
   0   9   1   33.73    5.57
  -1  -9  -1  446.64   19.15
  -1  -9  -1  455.33   24.88
  -1  -9  -1  400.72   23.16
  -1  -9  -1  494.23   24.91
  -1  -9  -1  458.63   19.49
   1   9   1  453.64   19.55
  -2  -9  -1   65.99   10.15
  -2  -9  -1   57.34    5.61
  -2  -9  -1   56.92    9.19
  -2  -9  -1   51.42    5.60
  -2  -9  -1   57.97    9.34
   2   9   1   42.21    5.80
  -3  -9  -1  196.09    8.10
  -3  -9  -1  213.16   15.75
  -3  -9  -1  210.82    8.18
  -3  -9  -1  210.62   14.53
  -3  -9  -1  186.13   14.23
   3   9   1  212.83   10.84
  -4  -9  -1    7.55    4.35
  -4  -9  -1    5.71    4.75
  -5  -9  -1   -2.20    3.75
  -5  -9  -1    8.12    4.33
  -6  -9  -1   26.56    7.64
  -6  -9  -1   28.17    5.60
  -7  -9  -1  427.33   19.54
  -7  -9  -1  416.52   24.44
  -8  -9  -1  155.02   16.37
  -8  -9  -1  148.55    9.78
  -9  -9  -1   90.99   13.23
  -9  -9  -1   78.45    6.74
 -10  -9  -1  256.38   11.98
 -10  -9  -1  320.39   21.58
   3 -10  -1   45.73    8.62
   3 -10  -1   64.12   10.69
   3 -10  -1   36.05   10.13
   3 -10  -1   34.80    6.17
  -3  10   1   31.75    5.83
   2 -10  -1   25.20    6.21
   2 -10  -1   33.99    8.12
   2 -10  -1   33.34    9.38
   2 -10  -1   24.90    4.86
  -2  10   1   19.24    4.97
   1 -10  -1   14.40    3.46
   1 -10  -1   10.81    6.82
   1 -10  -1   21.21    7.07
   1 -10  -1   21.63    5.83
  -1  10   1   15.60    4.87
   0 -10  -1  196.03   12.73
   0 -10  -1  179.80    7.81
   0 -10  -1  224.92   16.49
   0 -10  -1  196.39   17.06
   0  10   1  189.73   12.28
  -1 -10  -1   61.74   10.58
  -1 -10  -1   72.43    7.78
  -1 -10  -1   63.95   10.81
   1  10   1   46.48    6.53
  -2 -10  -1    7.22    5.34
  -2 -10  -1    8.88    2.92
  -2 -10  -1    6.90    5.35
  -2 -10  -1    6.15    5.03
  -2 -10  -1    7.86    2.97
   2  10   1    1.96    3.24
  -3 -10  -1  353.16   13.22
  -3 -10  -1  408.75   23.29
  -3 -10  -1  357.67   21.79
  -3 -10  -1  373.82   13.31
  -3 -10  -1  336.37   20.75
   3  10   1  398.56   17.25
  -4 -10  -1  136.58   12.77
  -4 -10  -1  157.83   16.48
  -4 -10  -1  146.74   12.49
  -5 -10  -1   15.77    5.75
  -5 -10  -1   35.68    7.21
  -5 -10  -1   17.19    7.40
  -6 -10  -1  236.04   15.17
  -6 -10  -1  219.93   17.50
  -7 -10  -1   -6.09    3.55
  -7 -10  -1   -5.19    2.64
  -8 -10  -1   66.03    8.08
  -8 -10  -1   79.37   12.23
  -9 -10  -1    1.70    3.29
  -9 -10  -1    7.86    3.56
  -9 -10  -1    5.53    6.18
   1 -11  -1   18.77    6.87
   1 -11  -1   22.00    6.07
   1 -11  -1   13.33    3.13
   1 -11  -1   17.04    8.32
  -1  11   1   11.40    5.04
   0 -11  -1   16.31    7.19
   0 -11  -1   38.98    9.82
   0 -11  -1   27.92    5.93
   0  11   1   21.09    5.52
  -1 -11  -1   15.82    7.05
  -1 -11  -1    8.14    3.93
  -1 -11  -1    8.01    6.48
   1  11   1    5.24    3.86
  -2 -11  -1    0.87    4.99
  -2 -11  -1    3.45    2.96
  -2 -11  -1    1.84    2.67
  -2 -11  -1   -2.51    4.80
   2  11   1    1.34    3.49
  -3 -11  -1   29.92    9.02
  -3 -11  -1   30.08    8.36
  -3 -11  -1   27.81    8.19
   3  11   1   34.99    6.08
  -4 -11  -1  109.55   13.22
  -4 -11  -1  105.88   13.98
  -4 -11  -1  103.61   13.06
  -5 -11  -1   48.26   10.02
  -5 -11  -1   35.30    8.28
  -5 -11  -1   48.55    8.96
  -6 -11  -1  347.19   19.92
  -6 -11  -1  328.94   20.06
  -6 -11  -1  319.11   22.84
  -7 -11  -1    0.12    3.79
  -7 -11  -1    5.42    4.38
  -7 -11  -1    6.47    6.04
  -8 -11  -1   71.47    9.47
  -8 -11  -1   55.56   11.26
  -8 -11  -1   51.21    8.20
  -1 -12  -1   82.97   14.69
  -1 -12  -1   56.63    7.44
  -2 -12  -1    9.33    3.34
  -2 -12  -1    5.97    6.58
  -2 -12  -1    4.20    2.94
  -2 -12  -1    5.81    6.42
   2  12   1   12.73    5.11
  -3 -12  -1  324.07   23.52
  -3 -12  -1  354.38   23.51
   3  12   1  333.55   17.92
  -4 -12  -1    4.71    6.27
  -4 -12  -1    2.98    5.32
  -5 -12  -1   58.95   10.25
  -5 -12  -1   62.21   12.28
  -6 -12  -1    3.89    6.31
  -6 -12  -1   -0.20    4.41
  -4 -12   2    4.85    6.36
   3  12  -2    2.61    4.71
  -3 -12   2    7.79    6.09
  -3 -12   2    1.90    5.25
  -7 -11   2    7.24    6.65
  -7 -11   2    1.72    4.10
  -6 -11   2    6.03    5.43
  -6 -11   2   -1.62    4.02
  -5 -11   2   43.51    8.81
  -5 -11   2   37.66    9.41
  -4 -11   2   73.90   11.43
  -4 -11   2   51.88   10.48
   3  11  -2  110.73    9.95
  -3 -11   2   81.56   12.42
  -3 -11   2  117.93   15.27
   2  11  -2   78.41    9.17
  -2 -11   2   61.86    6.05
  -2 -11   2   74.37   11.89
  -2 -11   2   64.67    6.31
  -2 -11   2   50.19   10.74
   1  11  -2    5.54    4.31
  -1 -11   2   -0.03    5.16
  -1 -11   2    3.84    5.89
  -1 -11   2    9.97    7.09
  -1 -11   2    4.89    3.67
   0  11  -2    8.02    4.66
   0 -11   2   18.67    5.12
   0 -11   2    6.43    7.04
   0 -11   2   11.76    7.33
   0 -11   2   14.57    7.02
  -1  11  -2   41.70    7.20
   1 -11   2   46.27    7.91
   1 -11   2   42.21   10.31
   1 -11   2   39.74   10.54
  -8 -10   2  354.88   22.99
  -8 -10   2  297.04   16.84
  -7 -10   2   34.34    6.54
  -7 -10   2   25.58    8.15
  -6 -10   2    7.91    4.59
  -6 -10   2   10.90    6.63
  -5 -10   2  146.66   16.66
  -5 -10   2  172.93   13.55
  -4 -10   2    8.80    5.74
  -4 -10   2   -0.38    3.90
   3  10  -2   88.65    8.46
  -3 -10   2   84.44   11.72
  -3 -10   2   75.09   11.68
   2  10  -2   -0.91    2.79
  -2 -10   2   -7.18    3.58
  -2 -10   2   -0.94    4.78
  -2 -10   2    3.95    2.56
  -2 -10   2    0.09    2.05
   1  10  -2   -2.93    2.83
  -1 -10   2    4.77    5.71
  -1 -10   2   -0.13    2.67
  -1 -10   2   -1.93    4.77
   0  10  -2   70.01    8.29
   0 -10   2   62.61   10.61
   0 -10   2   87.95   13.79
   0 -10   2   66.92    8.28
   0 -10   2   68.20   11.81
  -1  10  -2  193.06   12.88
   1 -10   2  198.21   16.69
   1 -10   2  175.04   19.06
   1 -10   2  191.07   13.48
   1 -10   2  189.26   17.41
   1 -10   2  196.02    9.70
  -2  10  -2   55.62    7.83
   2 -10   2   44.33    9.66
   2 -10   2   60.80   12.28
   2 -10   2   77.50    7.38
  -3  10  -2   10.88    4.69
   3 -10   2    8.23    6.86
   3 -10   2   10.97    6.45
   3 -10   2    7.34    3.73
  -9  -9   2   10.35    2.87
  -9  -9   2   13.67    6.51
  -9  -9   2   10.68    3.55
  -8  -9   2  410.51   17.31
  -8  -9   2  395.94   18.59
  -8  -9   2  442.96   25.04
  -7  -9   2  143.18    9.15
  -7  -9   2  126.41    9.94
  -7  -9   2  198.53   15.75
  -6  -9   2   22.88    7.17
  -6  -9   2   28.43    5.72
  -5  -9   2   56.21    9.94
  -5  -9   2   43.37    7.18
  -4  -9   2   93.93   10.70
  -4  -9   2   88.17   11.54
   3   9  -2    3.22    2.65
  -3  -9   2    4.59    4.64
  -3  -9   2    3.39    4.05
   2   9  -2   -1.17    2.62
  -2  -9   2   -3.64    3.65
  -2  -9   2    1.90    2.22
  -2  -9   2   -0.92    1.92
  -2  -9   2    0.61    4.17
   1   9  -2  227.92   12.36
  -1  -9   2  214.07   11.82
  -1  -9   2  211.42   16.27
  -1  -9   2  209.40   11.82
  -1  -9   2  213.77   16.43
   0   9  -2   57.53    7.10
   0  -9   2   43.29    8.77
   0  -9   2   44.55    3.67
   0  -9   2   48.34    6.88
   0  -9   2   31.63    8.38
  -1   9  -2  139.82   10.51
   1  -9   2  152.00   16.29
   1  -9   2  166.38   14.28
   1  -9   2  159.47    8.82
   1  -9   2  149.93   16.62
  -2   9  -2   52.45   10.26
  -2   9  -2   49.62    6.89
   2  -9   2   57.28   11.06
   2  -9   2   41.83    8.93
   2  -9   2   58.75    6.61
   2  -9   2   49.60    9.92
  -3   9  -2   25.43    8.51
  -3   9  -2   19.04    4.84
   3  -9   2   23.54    5.01
   3  -9   2   23.19    8.79
   3  -9   2   28.65    7.95
  -4   9  -2   72.03   10.32
  -4   9  -2   67.94    8.01
  -4   9  -2   73.94   13.59
   4  -9   2   83.72   13.50
   4  -9   2   56.17    7.48
   4  -9   2   67.50   10.88
 -10  -8   2    3.34    1.99
 -10  -8   2    5.66    2.47
 -10  -8   2    2.89    4.82
  -9  -8   2   14.19    6.04
  -9  -8   2   13.81    3.30
  -9  -8   2    6.54    2.15
  -8  -8   2   -4.62    3.52
  -8  -8   2    2.75    2.57
  -8  -8   2    0.90    1.81
  -7  -8   2  105.45    7.81
  -7  -8   2   84.55    6.32
  -7  -8   2   86.73   11.77
  -6  -8   2   38.77    8.30
  -6  -8   2   27.97    4.16
  -6  -8   2   22.25    4.76
  -5  -8   2   49.47    5.64
  -5  -8   2   36.00    7.44
  -5  -8   2   34.29    5.76
  -4  -8   2  298.98   18.46
  -4  -8   2  316.96   16.84
   3   8  -2   50.63    5.28
   3   8  -2   54.48    5.34
  -3  -8   2   62.92    9.70
  -3  -8   2   52.61    7.89
   2   8  -2   21.38    3.88
  -2  -8   2   24.48    3.57
  -2  -8   2   18.47    3.35
  -2  -8   2   17.95    5.53
  -2  -8   2   18.49    5.47
   1   8  -2  224.18   11.72
  -1  -8   2  227.62   11.73
  -1  -8   2  220.15   11.50
  -1  -8   2  248.68   16.35
  -1  -8   2  217.72   15.49
   0   8  -2   15.35    5.23
   0   8  -2   14.69    4.01
   0  -8   2   13.23    4.99
   0  -8   2   14.91    2.52
   0  -8   2   10.98    5.84
  -1   8  -2  230.75   15.96
  -1   8  -2  225.18   12.42
   1  -8   2  207.36   16.24
   1  -8   2  209.72   15.23
   1  -8   2  219.76   10.80
  -2   8  -2  430.24   21.23
  -2   8  -2  481.42   25.16
  -2   8  -2  422.75   19.43
   2  -8   2  484.31   25.61
   2  -8   2  425.12   25.21
   2  -8   2  447.84   18.78
   2  -8   2  415.30   23.18
  -3   8  -2  145.56   10.20
  -3   8  -2  172.13   12.59
  -3   8  -2  168.30   15.25
   3  -8   2  158.90   14.81
   3  -8   2  135.51   14.17
   3  -8   2  158.09   10.33
  -4   8  -2   29.16    8.77
  -4   8  -2   11.87    4.00
  -4   8  -2   17.49    5.54
   4  -8   2   27.95    5.63
   4  -8   2   18.25    7.44
   4  -8   2   10.17    5.90
  -5   8  -2    2.49    4.34
  -5   8  -2    5.46    3.08
  -5   8  -2    1.82    6.01
   5  -8   2    8.47    5.38
   5  -8   2    6.99    3.96
  -6   8  -2    8.63    3.06
  -6   8  -2    2.37    4.42
  -6   8  -2    7.89    7.44
   6  -8   2    4.04    4.45
   6  -8   2   -2.60    4.95
 -10  -7   2    1.01    4.56
 -10  -7   2    3.17    2.22
  -9  -7   2    6.73    4.92
  -9  -7   2    9.03    1.84
  -9  -7   2    9.19    2.62
  -8  -7   2  526.58   26.52
  -8  -7   2  546.02   18.76
  -8  -7   2  542.09   20.00
  -7  -7   2   78.73    4.91
  -7  -7   2   71.06    5.72
  -7  -7   2   61.40    9.39
  -6  -7   2  283.90   13.33
  -6  -7   2  301.15   17.73
  -6  -7   2  289.78   12.23
  -5  -7   2   18.75    5.89
  -5  -7   2   23.78    3.61
  -5  -7   2   30.54    4.93
  -4  -7   2  166.64   10.62
  -4  -7   2  162.08    9.25
  -4  -7   2  160.47   12.27
   3   7  -2  536.15   19.28
  -3  -7   2  540.86   23.32
  -3  -7   2  525.63   24.80
   2   7  -2  199.78   11.05
   2   7  -2  204.33    9.75
  -2  -7   2  202.36    9.10
  -2  -7   2  195.38   12.77
  -2  -7   2  209.96   13.95
  -2  -7   2  195.61    9.01
   1   7  -2  285.23   15.53
   1   7  -2  329.94   15.10
   1   7  -2  311.38   13.68
  -1  -7   2  289.65   17.29
  -1  -7   2  335.73   17.63
  -1  -7   2  323.36   13.83
   0   7  -2   32.91    5.16
   0   7  -2   60.57    8.09
   0   7  -2   44.20    5.26
   0  -7   2   44.53    7.57
   0  -7   2   55.02    8.12
   0  -7   2   46.78    4.18
   0  -7   2   64.01    6.55
  -1   7  -2   10.33    5.11
  -1   7  -2    8.94    3.84
  -1   7  -2    7.97    3.08
   1  -7   2   12.16    2.89
   1  -7   2    1.89    4.03
   1  -7   2   17.79    5.42
  -2   7  -2    1.24    3.38
  -2   7  -2   -2.26    2.31
  -2   7  -2    3.63    4.22
   2  -7   2   -3.07    3.60
   2  -7   2   -3.77    2.18
   2  -7   2   -1.59    3.83
   2  -7   2   -2.78    3.20
  -3   7  -2  302.28   19.46
  -3   7  -2  301.62   16.26
  -3   7  -2  288.50   14.45
   3  -7   2  291.22   19.00
   3  -7   2  294.88   19.66
   3  -7   2  301.11   17.89
   3  -7   2  302.66   14.63
  -4   7  -2    0.50    2.64
  -4   7  -2    1.23    5.50
  -4   7  -2   -2.47    3.06
   4  -7   2    1.63    4.84
   4  -7   2    0.58    3.63
   4  -7   2    1.27    2.78
  -5   7  -2   65.84   12.23
  -5   7  -2   76.90    9.65
  -5   7  -2   62.93    6.62
   5  -7   2   57.82    7.65
   5  -7   2   80.71   13.76
   5  -7   2   70.36   10.35
  -6   7  -2   29.73    6.71
  -6   7  -2   21.09    8.76
  -6   7  -2   18.96    3.34
   6  -7   2   28.64    7.74
   6  -7   2   17.40    5.19
  -7   7  -2    1.86    4.01
  -7   7  -2    1.94    6.93
   7  -7   2    4.12    4.77
   7  -7   2    2.78    5.14
 -11  -6   2   52.06    9.35
 -11  -6   2   58.82    5.16
 -10  -6   2  150.41   14.65
 -10  -6   2  142.30    7.39
  -9  -6   2   24.50    6.31
  -8  -6   2   22.95    6.09
  -8  -6   2   23.57    4.07
  -8  -6   2   24.78    3.00
  -7  -6   2  272.69   11.13
  -7  -6   2  305.57   10.20
  -7  -6   2  256.85   11.26
  -7  -6   2  312.28   17.17
  -6  -6   2    8.23    2.31
  -6  -6   2   12.28    2.65
  -6  -6   2    9.84    4.37
  -6  -6   2    9.72    1.90
  -5  -6   2  910.92   33.16
  -5  -6   2  963.67   37.76
  -5  -6   2  968.26   33.24
  -5  -6   2 1016.04   32.29
  -4  -6   2  768.82   28.92
  -4  -6   2  784.52   27.50
  -4  -6   2  830.35   32.39
  -4  -6   2  792.53   28.90
   3   6  -2 1004.97   32.34
  -3  -6   2 1041.52   38.82
  -3  -6   2 1021.55   34.91
  -3  -6   2  961.39   36.19
   2   6  -2   34.58    3.72
  -2  -6   2   34.08    5.95
  -2  -6   2   42.08    5.95
  -2  -6   2   43.01    3.73
  -2  -6   2   49.62    3.96
   1   6  -2  365.85   16.77
   1   6  -2  366.15   14.62
  -1  -6   2  358.50   14.80
  -1  -6   2  375.06   18.45
  -1  -6   2  385.76   18.24
   0   6  -2    2.92    2.11
   0   6  -2    3.29    2.45
   0   6  -2    2.58    3.02
   0  -6   2    0.48    3.00
   0  -6   2   -0.59    2.70
   0  -6   2    1.33    2.02
   0  -6   2   -2.31    1.29
  -1   6  -2  107.40    9.62
  -1   6  -2  108.11    8.00
  -1   6  -2  102.28    7.12
   1  -6   2  111.64    9.35
   1  -6   2  116.96   10.34
   1  -6   2  101.41    6.62
  -2   6  -2  451.88   18.74
  -2   6  -2  474.14   23.08
  -2   6  -2  448.04   19.96
   2  -6   2  479.38   18.84
   2  -6   2  497.06   23.79
   2  -6   2  445.19   21.97
  -3   6  -2 1086.85   43.23
  -3   6  -2 1062.59   39.10
   3  -6   2 1011.12   41.10
   3  -6   2 1019.05   42.33
   3  -6   2 1102.47   43.72
   3  -6   2 1086.59   37.88
  -4   6  -2  373.97   21.83
  -4   6  -2  384.00   16.28
  -4   6  -2  379.30   18.30
   4  -6   2  363.96   21.08
   4  -6   2  387.27   17.44
   4  -6   2  373.24   20.02
  -5   6  -2   31.51    8.07
  -5   6  -2   19.81    5.16
  -5   6  -2   28.38    4.35
   5  -6   2   17.63    4.63
   5  -6   2   23.93    7.01
   5  -6   2   28.10    6.53
  -6   6  -2  384.50   15.16
  -6   6  -2  397.87   24.94
  -6   6  -2  394.95   19.71
   6  -6   2  445.40   20.09
   6  -6   2  421.08   22.09
  -7   6  -2  111.09   15.31
  -7   6  -2   99.36    9.99
   7  -6   2  110.14   12.63
   7  -6   2  104.39   11.03
  -8   6  -2   20.60    8.78
 -11  -5   2   43.13    5.42
 -10  -5   2    6.99    2.57
 -10  -5   2    4.81    4.06
  -9  -5   2   22.34    3.16
  -9  -5   2   27.11    6.25
  -8  -5   2  173.68   12.02
  -8  -5   2  158.81    7.00
  -8  -5   2  148.85    6.74
  -7  -5   2   90.91   10.04
  -6  -5   2   12.32    1.95
  -6  -5   2    9.03    1.86
  -6  -5   2    7.23    3.65
  -5  -5   2    5.32    1.86
  -5  -5   2   13.65    2.36
  -5  -5   2    5.21    3.19
  -5  -5   2    9.04    1.52
  -4  -5   2  325.56   12.86
  -4  -5   2  315.08   15.84
  -4  -5   2  321.12   11.95
  -4  -5   2  295.93   12.84
  -3  -5   2   28.38    3.36
  -3  -5   2   17.98    4.21
  -3  -5   2   32.86    4.27
   2   5  -2  989.55   31.76
  -2  -5   2  969.76   33.62
  -2  -5   2 1012.17   35.13
  -2  -5   2  959.07   31.48
  -2  -5   2 1001.92   31.58
  -2  -5   2  961.05   36.37
   1   5  -2 1080.01   37.03
   1   5  -2 1052.88   34.64
   1   5  -2 1046.05   34.66
  -1  -5   2 1039.45   38.37
  -1  -5   2 1025.71   37.82
  -1  -5   2 1054.85   35.00
   0   5  -2    1.81    1.87
   0   5  -2    2.68    2.59
   0   5  -2    2.78    2.06
   0  -5   2    5.19    1.69
   0  -5   2    4.99    2.22
   0  -5   2    1.19    2.74
   0  -5   2    6.79    3.20
  -1   5  -2 1248.72   46.35
  -1   5  -2 1283.37   43.07
  -1   5  -2 1296.55   44.14
   1  -5   2 1276.29   42.62
   1  -5   2 1315.24   46.59
   1  -5   2 1346.97   47.27
  -2   5  -2  101.77    9.49
  -2   5  -2  131.58    7.65
  -2   5  -2  142.40    8.83
   2  -5   2  134.72    9.88
   2  -5   2  150.17   10.98
   2  -5   2  135.10    7.75
  -3   5  -2    7.80    4.00
  -3   5  -2   14.08    3.87
  -3   5  -2   11.08    2.96
   3  -5   2    4.42    3.57
   3  -5   2   10.26    4.64
   3  -5   2    8.70    2.73
   3  -5   2    6.47    3.77
  -4   5  -2  192.80    9.77
  -4   5  -2  193.67   11.53
  -4   5  -2  189.68   14.30
   4  -5   2  176.03   10.54
   4  -5   2  190.99   12.72
   4  -5   2  224.39   14.41
  -5   5  -2  413.96   19.45
  -5   5  -2  448.56   16.82
  -5   5  -2  432.76   23.78
   5  -5   2  449.59   19.31
   5  -5   2  439.99   21.44
   5  -5   2  440.38   22.66
  -6   5  -2  725.33   29.05
  -6   5  -2  721.17   34.59
   6  -5   2  710.82   31.25
   6  -5   2  774.63   29.35
  -7   5  -2   49.70   10.10
  -7   5  -2   57.46    7.10
   7  -5   2   60.47    9.04
   7  -5   2   39.47    6.70
  -8   5  -2  541.60   22.67
  -8   5  -2  539.12   31.07
   8  -5   2  538.21   24.87
   8  -5   2  586.12   27.70
 -11  -4   2   36.25    5.79
 -10  -4   2   18.31    3.85
  -9  -4   2  201.29   13.54
  -9  -4   2  242.67   10.83
  -8  -4   2    2.33    3.24
  -8  -4   2    1.46    1.64
  -8  -4   2    4.01    1.88
  -7  -4   2  459.61   16.01
  -7  -4   2  477.05   16.14
  -7  -4   2  462.55   20.98
  -6  -4   2   48.05    6.38
  -5  -4   2   23.92    2.18
  -5  -4   2   24.39    4.57
  -5  -4   2   20.79    2.11
  -4  -4   2  917.60   30.74
  -4  -4   2  953.36   30.68
  -4  -4   2  972.08   34.69
  -4  -4   2  939.05   29.73
  -3  -4   2  218.01    8.81
  -3  -4   2  231.83    9.64
  -3  -4   2  231.67   11.85
  -2  -4   2   45.46    5.50
  -2  -4   2   41.05    4.55
  -2  -4   2   37.18    3.65
  -2  -4   2   41.76    2.26
  -2  -4   2   40.38    2.21
   1   4  -2  363.22   15.08
   1   4  -2  382.09   13.43
  -1  -4   2  387.56   16.58
  -1  -4   2  369.18   13.68
  -1  -4   2  348.01   14.49
  -1  -4   2  390.87   15.90
   0   4  -2  160.78    9.20
   0   4  -2  153.15    7.19
   0   4  -2  141.94    7.74
   0  -4   2  150.32    7.63
   0  -4   2  155.39    6.73
   0  -4   2  161.45    9.54
  -1   4  -2 3100.79   99.60
  -1   4  -2 3159.89   98.74
  -1   4  -2 3091.13  101.68
   1  -4   2 3147.50  101.66
   1  -4   2 3291.47  102.34
   1  -4   2 3149.62   98.55
  -2   4  -2   19.38    4.59
  -2   4  -2   18.56    3.60
  -2   4  -2   17.08    2.94
   2  -4   2   26.14    4.93
   2  -4   2   14.85    4.18
   2  -4   2   17.04    3.03
  -3   4  -2  751.75   27.19
  -3   4  -2  723.90   25.59
  -3   4  -2  709.39   29.66
   3  -4   2  713.65   26.15
   3  -4   2  750.01   29.66
   3  -4   2  734.07   29.87
  -4   4  -2    5.09    2.16
  -4   4  -2    4.03    2.66
  -4   4  -2    0.02    3.36
   4  -4   2    2.77    3.26
   4  -4   2   -0.81    2.11
  -5   4  -2   42.86    5.86
  -5   4  -2   38.04    3.58
  -5   4  -2   47.00    7.67
   5  -4   2   47.38    7.18
   5  -4   2   43.61    5.55
  -6   4  -2  101.79   12.32
  -6   4  -2  106.34    8.12
   6  -4   2   96.60    8.58
  -7   4  -2  166.41    9.77
  -7   4  -2  122.24   13.98
   7  -4   2  154.98   10.36
  -8   4  -2   62.27   10.78
  -8   4  -2   48.66    5.57
   8  -4   2   48.69    7.04
  -9   4  -2    7.73    2.13
  -9   4  -2   18.03    7.25
  -9   4  -2    4.88    1.99
   9  -4   2    7.17    4.40
 -11  -3   2    0.64    3.17
 -10  -3   2   14.03    3.93
  -9  -3   2  338.72   15.32
  -8  -3   2   13.63    4.20
  -8  -3   2   12.34    2.95
  -7  -3   2   33.61    3.62
  -7  -3   2   33.35    5.27
  -7  -3   2   35.53    3.67
  -6  -3   2 1088.12   35.64
  -6  -3   2 1133.13   39.75
  -6  -3   2 1128.09   35.76
  -5  -3   2  807.33   29.67
  -4  -3   2   36.53    4.84
  -4  -3   2   34.11    2.20
  -4  -3   2   42.01    2.39
  -3  -3   2  906.86   29.92
  -3  -3   2  922.60   29.13
  -3  -3   2 1006.16   30.15
  -3  -3   2  880.42   32.46
  -2  -3   2  226.53   10.76
  -2  -3   2  225.50    8.63
   1   3  -2    2.84    1.09
   1   3  -2    2.58    1.67
  -1  -3   2    2.96    1.55
  -1  -3   2    7.61    2.70
  -1  -3   2    3.72    1.36
  -1  -3   2    5.15    2.05
   0   3  -2  992.27   34.89
   0   3  -2 1024.31   33.06
   0   3  -2 1026.78   33.75
   0   3  -2 1039.25   33.09
   0  -3   2 1013.18   34.14
   0  -3   2  998.00   35.24
   0  -3   2 1042.64   32.74
   0  -3   2 1035.23   35.47
   0  -3   2 1034.17   33.59
  -1   3  -2 1217.09   40.68
  -1   3  -2 1250.29   42.46
  -1   3  -2 1232.44   39.94
   1  -3   2 1262.49   42.70
   1  -3   2 1211.59   42.20
   1  -3   2 1252.26   39.97
  -2   3  -2 1202.12   39.13
  -2   3  -2 1204.59   40.07
  -2   3  -2 1184.67   42.21
   2  -3   2 1178.40   39.30
   2  -3   2 1241.26   42.46
  -3   3  -2  120.46    7.42
  -3   3  -2  113.72    8.97
  -3   3  -2  136.52    6.52
   3  -3   2  143.82    9.49
   3  -3   2  120.77    6.89
  -4   3  -2   32.52    4.27
  -4   3  -2   49.27    7.15
  -4   3  -2   44.04    3.39
   4  -3   2   39.59    4.45
   4  -3   2   44.58    6.04
  -5   3  -2  114.40   10.01
  -5   3  -2  120.45    7.61
   5  -3   2  122.16    9.25
   5  -3   2  108.96    7.26
  -6   3  -2  889.88   36.83
  -6   3  -2  887.89   31.46
   6  -3   2  886.07   32.01
  -7   3  -2   86.89    6.35
  -7   3  -2   59.34    9.58
   7  -3   2   79.92    7.74
  -8   3  -2   62.06    4.67
  -8   3  -2   60.47    9.88
   8  -3   2   64.72    7.57
  -9   3  -2   38.27    9.09
   9  -3   2   60.23    8.38
 -11  -2   2  147.75   11.95
 -10  -2   2   32.87    6.08
  -9  -2   2   54.81    6.85
  -8  -2   2   81.82    6.89
  -7  -2   2  108.13    6.91
  -7  -2   2   99.43    6.64
  -6  -2   2  180.92    8.45
  -6  -2   2  175.32    8.23
  -6  -2   2  175.54    9.71
  -5  -2   2   92.46    4.80
  -5  -2   2   90.73    4.84
  -5  -2   2   87.58    6.19
  -4  -2   2  300.70   10.22
  -4  -2   2  286.46   10.12
  -4  -2   2  269.17   12.07
  -3  -2   2 1969.77   61.14
  -3  -2   2 2009.48   61.18
  -3  -2   2 1965.99   63.40
  -2  -2   2  956.11   30.92
  -2  -2   2  978.58   32.45
  -2  -2   2  971.17   30.30
   1   2  -2  773.70   24.94
   1   2  -2  760.55   23.47
  -1  -2   2  762.02   25.90
  -1  -2   2  760.27   24.02
  -1  -2   2  692.28   25.03
  -1  -2   2  774.40   24.55
   0   2  -2 2277.55   69.72
   0   2  -2 2262.38   70.76
   0   2  -2 2299.94   69.23
   0  -2   2 2248.53   68.98
   0  -2   2 2229.70   69.57
   0  -2   2 2133.47   70.70
   0  -2   2 2187.90   70.89
   0  -2   2 2238.94   69.98
  -1   2  -2 5762.84  177.21
  -1   2  -2 5658.81  177.78
  -1   2  -2 5753.99  179.28
   1  -2   2 5750.76  177.27
   1  -2   2 6056.06  179.43
  -2   2  -2  294.90   13.37
  -2   2  -2  286.59   10.95
  -2   2  -2  297.96   11.76
   2  -2   2  319.51   13.39
   2  -2   2  293.53   11.24
  -3   2  -2  255.32   12.68
  -3   2  -2  254.07   10.66
  -3   2  -2  258.51    9.46
   3  -2   2  240.07   12.16
   3  -2   2  236.21   10.07
  -4   2  -2 1169.39   35.72
  -4   2  -2 1140.97   41.36
  -4   2  -2 1147.22   35.72
  -4   2  -2 1158.04   38.26
   4  -2   2 1142.79   40.30
   4  -2   2 1129.14   37.87
  -5   2  -2  149.41    7.71
  -5   2  -2  147.76   10.35
   5  -2   2  149.42    7.71
   5  -2   2  139.63    9.14
  -6   2  -2   62.00    4.82
  -6   2  -2   52.25    7.45
   6  -2   2   78.29    8.87
   6  -2   2   55.68    5.46
  -7   2  -2  104.54    5.53
  -7   2  -2  105.35   11.41
   7  -2   2   96.03    7.02
  -8   2  -2   44.41    8.21
   8  -2   2   57.83    6.53
  -9   2  -2   14.04    5.93
 -10   2  -2   37.45    8.70
 -11  -1   2   93.84   11.40
 -10  -1   2  106.06   11.21
  -9  -1   2  165.03   11.64
  -8  -1   2   13.55    4.27
  -7  -1   2    1.37    2.50
  -7  -1   2    2.79    3.30
  -6  -1   2 1934.12   62.62
  -6  -1   2 1905.37   62.82
  -5  -1   2 5899.25  184.22
  -5  -1   2 6012.90  184.36
  -5  -1   2 6004.91  184.36
  -4  -1   2  365.13   13.88
  -4  -1   2  383.29   14.04
  -4  -1   2  383.69   14.26
  -3  -1   2 4685.78  142.84
  -3  -1   2 4631.55  142.35
  -3  -1   2 4611.08  142.33
  -1  -1   2  555.04   17.22
  -1  -1   2  561.02   18.32
  -1  -1   2  522.69   17.98
  -1  -1   2  533.89   17.52
   0   1  -2 2447.56   74.66
   0   1  -2 2446.63   75.37
   0  -1   2 2393.43   74.59
   0  -1   2 2421.66   74.80
   0  -1   2 2400.26   74.17
  -1   1  -2 6679.78  204.79
   1  -1   2 6536.77  203.95
   1  -1   2 6816.62  204.80
  -2   1  -2 6136.47  188.07
  -2   1  -2 6193.54  187.24
   2  -1   2 6120.25  189.28
   2  -1   2 6146.01  187.64
  -3   1  -2  468.54   18.52
  -3   1  -2  474.83   16.64
   3  -1   2  459.65   18.01
   3  -1   2  499.66   16.31
  -4   1  -2   30.61    2.97
  -4   1  -2   23.26    4.03
   4  -1   2   30.38    3.93
   4  -1   2   27.81    2.80
  -5   1  -2   57.91    3.75
  -5   1  -2   59.45    6.81
   5  -1   2   56.43    3.97
  -6   1  -2  333.19   11.74
  -6   1  -2  356.39   17.23
  -6   1  -2  349.63   11.82
   6  -1   2  344.17   13.44
  -7   1  -2  104.22    9.48
   7  -1   2  100.44    6.45
  -8   1  -2   -0.30    3.50
  -9   1  -2  998.88   40.95
 -10   1  -2  246.65   17.54
 -10   0   2   10.79    5.11
  -9   0   2   20.66    5.68
  -8   0   2  119.73   10.05
  -7   0   2   -0.90    2.77
  -6   0   2    6.41    2.83
  -5   0   2  273.09   12.77
  -4   0   2 1526.48   50.22
  -3   0   2 7280.09  223.36
  -2   0   2  580.44   19.77
  -2   0   2  589.09   18.24
  -2   0   2  552.87   18.36
   0   0  -2  255.78    8.53
   0   0  -2  254.58    8.82
   0   0   2  257.54    8.53
  -1   0  -2 2526.18   74.81
  -1   0  -2 2363.51   73.97
  -1   0  -2 2413.91   73.98
  -1   0  -2 2398.05   73.55
   1   0   2 2413.63   73.67
   1   0   2 2337.58   74.52
  -3   0  -2 1338.90   42.27
  -3   0  -2 1354.26   42.29
  -3   0  -2 1393.83   44.33
  -4   0  -2   92.44    6.11
  -5   0  -2  377.70   15.95
  -6   0  -2  508.45   21.27
   6   0   2  538.69   19.15
  -7   0  -2   71.38    7.86
  -8   0  -2   38.86    6.53
  -9   0  -2    7.83    4.55
 -10   0  -2    0.72    3.79
 -11   0  -2   -0.90    3.75
 -10   1   2   10.56    5.88
  -9   1   2    6.15    4.54
  -8   1   2  147.87   12.12
   7  -1  -2   62.93    6.65
  -7   1   2   56.36    8.10
   6  -1  -2  170.37    8.03
  -6   1   2  171.85   11.26
   5  -1  -2  421.87   15.06
  -5   1   2  405.14   14.11
  -5   1   2  421.54   18.55
   4  -1  -2  725.39   23.85
   4  -1  -2  718.04   26.31
  -4   1   2  722.32   26.97
  -4   1   2  710.88   23.75
   3  -1  -2 2722.69   86.13
   3  -1  -2 2724.87   84.34
  -3   1   2 2751.29   87.07
  -3   1   2 2722.18   84.65
   2  -1  -2 3085.67   97.58
   2  -1  -2 3088.79   95.94
  -2   1   2 3101.32   95.28
  -2   1   2 3178.37   98.06
  -2   1   2 3175.70   95.27
  -2   1   2 3102.98   96.38
   1  -1  -2   13.67    2.06
   1  -1  -2   11.70    1.25
   1  -1  -2   11.78    1.62
   1  -1  -2   10.29    2.32
  -1   1   2   15.26    2.07
  -1   1   2   11.76    1.53
  -1   1   2    9.36    2.38
   0  -1  -2  343.97   12.48
   0  -1  -2  348.28   11.48
   0  -1  -2  337.81   11.79
   0  -1  -2  349.43   11.72
   0   1   2  359.52   11.97
   0   1   2  346.54   11.48
   0   1   2  334.14   12.39
   0   1   2  345.61   11.78
  -1  -1  -2  227.66    8.02
  -1  -1  -2  221.25    7.79
  -1  -1  -2  230.07    8.49
  -1  -1  -2  215.79    8.76
  -1  -1  -2  229.33    7.78
   1   1   2  184.94    8.15
   1   1   2  226.27    7.37
  -2  -1  -2  283.12    9.53
  -2  -1  -2  278.51    9.94
  -2  -1  -2  298.79   11.47
  -2  -1  -2  284.19   10.06
  -3  -1  -2  230.64    8.67
  -3  -1  -2  234.66    8.81
  -4  -1  -2   41.14    3.41
  -4  -1  -2   41.45    3.24
  -5  -1  -2  380.67   14.94
  -5  -1  -2  405.41   15.32
  -6  -1  -2  386.99   15.96
  -6  -1  -2  389.57   15.76
  -7  -1  -2   44.24    5.39
  -7  -1  -2   47.75    5.65
  -8  -1  -2    2.47    2.99
  -9  -1  -2 1048.92   39.69
 -10  -1  -2   27.86    6.40
 -11  -1  -2   38.57    7.48
 -10   2   2   51.19   10.29
  -9   2   2   15.78    6.07
  -8   2   2  172.46   13.93
   7  -2  -2    1.09    2.27
  -7   2   2    0.57    3.53
   6  -2  -2  832.24   28.92
  -6   2   2  817.39   27.51
  -6   2   2  809.69   33.33
   5  -2  -2    7.52    2.26
   5  -2  -2    8.41    2.94
  -5   2   2    5.87    1.92
  -5   2   2    1.94    2.88
   4  -2  -2  746.83   25.68
   4  -2  -2  735.89   27.77
  -4   2   2  761.44   29.16
  -4   2   2  752.77   25.91
   3  -2  -2   93.22    6.69
   3  -2  -2   82.09    5.01
   3  -2  -2   97.83    5.04
  -3   2   2   84.37    5.36
  -3   2   2   88.81    4.09
  -3   2   2   98.36    7.29
   2  -2  -2  333.08   12.04
   2  -2  -2  328.70   14.02
   2  -2  -2  341.17   12.35
  -2   2   2  324.69   14.31
  -2   2   2  319.57   12.66
  -2   2   2  339.25   11.88
   1  -2  -2 2036.26   63.65
   1  -2  -2 2051.16   65.52
   1  -2  -2 2037.48   63.66
  -1   2   2 2034.10   64.13
  -1   2   2 2001.33   63.46
  -1   2   2 2074.69   65.67
   0  -2  -2 1399.63   44.15
   0  -2  -2 1380.21   45.19
   0  -2  -2 1445.28   44.46
   0  -2  -2 1400.74   43.58
   0   2   2 1434.15   43.71
   0   2   2 1249.76   44.98
   0   2   2 1432.16   44.18
   0   2   2 1409.64   44.33
  -1  -2  -2  411.70   13.91
  -1  -2  -2  418.06   14.21
  -1  -2  -2  421.58   14.90
  -1  -2  -2  416.06   13.85
  -1  -2  -2  417.27   15.30
   1   2   2  416.93   14.66
   1   2   2  414.57   13.45
  -2  -2  -2 4983.46  147.70
  -2  -2  -2 4897.58  149.73
  -2  -2  -2 4623.19  147.07
  -3  -2  -2  499.65   18.92
  -3  -2  -2  501.04   15.70
  -3  -2  -2  479.59   15.63
  -4  -2  -2  229.97    7.96
  -4  -2  -2  239.18   11.51
  -5  -2  -2  751.06   24.71
  -5  -2  -2  732.90   28.34
  -5  -2  -2  772.96   24.67
  -6  -2  -2  220.54    9.24
  -6  -2  -2  209.21    9.26
  -7  -2  -2   48.22    4.51
  -7  -2  -2   50.63    5.16
  -8  -2  -2   92.18    7.12
  -9  -2  -2   83.39    7.60
 -10  -2  -2  218.15   13.20
 -11  -2  -2  101.54   10.82
  -9   3   2  121.27   14.45
   8  -3  -2   49.84    6.54
  -8   3   2   36.50    8.42
   7  -3  -2   97.60    8.46
  -7   3   2   85.30   11.07
  -7   3   2   81.45    5.66
   6  -3  -2    5.30    2.77
   6  -3  -2    3.94    2.62
  -6   3   2    2.56    3.78
  -6   3   2    6.79    2.63
   5  -3  -2   26.76    4.11
   5  -3  -2   30.84    4.28
   5  -3  -2   27.51    5.22
  -5   3   2   27.79    4.06
  -5   3   2   23.98    5.59
   4  -3  -2  490.80   18.82
   4  -3  -2  517.53   19.07
   4  -3  -2  484.89   21.33
  -4   3   2  505.61   19.37
  -4   3   2  505.57   18.13
  -4   3   2  494.35   16.84
  -4   3   2  511.82   22.70
   3  -3  -2  102.07    7.68
   3  -3  -2   91.56    5.88
   3  -3  -2  100.41    6.04
  -3   3   2  113.93    6.65
  -3   3   2   92.29    5.14
  -3   3   2   93.27    7.92
   2  -3  -2   31.14    4.74
   2  -3  -2   38.51    3.94
   2  -3  -2   36.88    3.75
  -2   3   2   26.55    4.50
  -2   3   2   28.41    3.14
  -2   3   2   25.61    3.41
   1  -3  -2  207.11    8.61
   1  -3  -2  199.71    9.13
  -1   3   2  209.14   10.58
   0  -3  -2   68.36    4.53
   0  -3  -2   74.07    5.55
   0  -3  -2   72.30    4.92
   0  -3  -2   59.24    3.79
   0   3   2   69.66    5.12
   0   3   2   60.18    5.11
  -1  -3  -2  873.69   30.39
  -1  -3  -2  848.07   28.60
  -1  -3  -2  881.52   27.30
  -1  -3  -2  876.94   27.29
  -1  -3  -2  865.34   29.97
  -1  -3  -2  875.65   28.54
  -1  -3  -2  852.70   28.97
   1   3   2  891.35   28.14
   1   3   2  979.45   29.93
  -2  -3  -2  133.63    7.55
  -2  -3  -2  121.39    5.53
  -2  -3  -2  131.97    6.28
  -2  -3  -2  136.16    6.45
  -3  -3  -2 1267.29   44.46
  -3  -3  -2 1534.75   44.76
  -3  -3  -2 1410.85   47.95
  -3  -3  -2 1488.80   43.86
  -4  -3  -2  947.73   34.14
  -5  -3  -2  478.49   20.25
  -6  -3  -2  131.70    9.51
  -7  -3  -2   24.11    2.74
  -7  -3  -2   16.25    4.65
  -7  -3  -2   24.40    2.86
  -8  -3  -2  249.03   10.64
  -8  -3  -2  207.34   10.01
  -9  -3  -2   57.09    6.00
 -10  -3  -2  134.08    9.35
 -11  -3  -2    2.03    3.38
   9  -4  -2   29.65    6.51
  -9   4   2   29.55    8.87
   8  -4  -2   52.34    7.51
  -8   4   2   39.54    9.35
  -8   4   2   37.27    4.38
   7  -4  -2    2.65    3.22
  -7   4   2    2.93    2.52
  -7   4   2    1.27    4.44
   6  -4  -2  563.32   22.43
   6  -4  -2  533.34   21.84
  -6   4   2  534.67   26.96
  -6   4   2  533.38   21.60
   5  -4  -2  139.27    8.73
   5  -4  -2  133.77   10.58
   5  -4  -2  132.50    8.56
  -5   4   2  123.94    5.33
  -5   4   2  125.79    8.56
  -5   4   2  134.79   11.72
  -5   4   2  130.68    5.44
   4  -4  -2   76.34    6.27
   4  -4  -2   85.93    6.49
   4  -4  -2   88.26    8.29
  -4   4   2   74.97    4.93
  -4   4   2   85.89    6.78
  -4   4   2   71.36    8.89
   3  -4  -2  225.60   10.80
   3  -4  -2  218.04   10.43
   3  -4  -2  193.91   12.33
  -3   4   2  228.17   13.53
  -3   4   2  211.95    9.59
  -3   4   2  215.86   11.00
   2  -4  -2   73.44    5.14
   2  -4  -2   67.67    7.37
   2  -4  -2   53.37    5.43
  -2   4   2   49.55    5.21
  -2   4   2   69.27    7.76
  -2   4   2   62.54    4.66
   1  -4  -2 3919.72  121.70
   1  -4  -2 4004.18  123.33
   1  -4  -2 3872.18  125.02
  -1   4   2 3975.78  122.83
  -1   4   2 3865.20  124.91
  -1   4   2 3889.59  121.78
   0  -4  -2  733.60   25.21
   0  -4  -2  725.61   24.06
   0  -4  -2  711.58   24.95
   0  -4  -2  725.55   27.03
   0  -4  -2  688.89   26.01
   0   4   2  724.36   24.47
   0   4   2  720.57   25.20
   0   4   2  715.39   26.92
  -1  -4  -2 2046.72   61.47
  -1  -4  -2 2006.68   65.17
  -1  -4  -2 2004.41   63.11
  -1  -4  -2 2061.78   63.09
  -1  -4  -2 2051.47   65.52
  -1  -4  -2 2011.27   65.32
  -1  -4  -2 2006.80   61.41
   1   4   2 1763.39   64.21
   1   4   2 2031.82   62.60
  -2  -4  -2  762.26   28.81
  -2  -4  -2  775.14   27.46
  -2  -4  -2  790.20   25.23
  -2  -4  -2  806.40   26.52
  -2  -4  -2  808.54   25.25
  -2  -4  -2  779.88   27.76
   2   4   2  789.48   24.96
  -3  -4  -2   23.76    3.02
  -3  -4  -2   22.72    2.80
  -3  -4  -2   20.06    2.23
  -3  -4  -2   27.38    4.73
  -4  -4  -2  104.42    4.87
  -4  -4  -2  116.13    5.07
  -4  -4  -2  115.39    8.25
  -5  -4  -2   16.89    4.01
  -6  -4  -2 1139.45   42.21
  -7  -4  -2    1.69    3.33
  -8  -4  -2  539.22   24.87
  -8  -4  -2  541.66   18.41
  -8  -4  -2  522.52   18.24
  -9  -4  -2   35.28    4.03
 -10  -4  -2   53.81    5.73
 -11  -4  -2  399.78   17.78
   8  -5  -2    9.10    4.44
  -8   5   2    5.26    2.78
  -8   5   2    2.91    5.70
   7  -5  -2    2.25    3.53
  -7   5   2    1.42    2.78
  -7   5   2    3.95    5.32
   6  -5  -2    2.11    3.78
   6  -5  -2    2.48    3.16
  -6   5   2    1.04    2.83
  -6   5   2    3.45    4.92
   5  -5  -2    6.02    3.21
   5  -5  -2    4.74    2.97
   5  -5  -2    9.29    4.75
  -5   5   2    6.57    5.04
  -5   5   2    6.61    1.99
  -5   5   2    2.77    2.99
   4  -5  -2  238.47   14.99
   4  -5  -2  232.69   12.38
   4  -5  -2  225.36   11.92
  -4   5   2  229.90   15.49
  -4   5   2  225.95   12.45
  -4   5   2  224.46   10.43
   3  -5  -2  107.99    9.56
   3  -5  -2   87.73    7.20
   3  -5  -2   82.53    7.26
  -3   5   2   98.53    7.73
  -3   5   2   99.42    6.52
  -3   5   2   85.43    9.67
   2  -5  -2  467.53   18.47
   2  -5  -2  481.85   19.84
   2  -5  -2  477.48   21.96
  -2   5   2  474.44   18.37
  -2   5   2  467.90   22.11
  -2   5   2  489.99   19.73
   1  -5  -2    7.86    2.22
   1  -5  -2    7.61    3.61
   1  -5  -2    2.81    2.45
  -1   5   2    6.41    2.16
  -1   5   2    7.41    2.71
  -1   5   2    4.65    3.02
   0  -5  -2  309.94   14.46
   0  -5  -2  321.33   11.98
   0  -5  -2  299.25   12.90
   0  -5  -2  320.22   15.44
   0  -5  -2  303.51   13.20
   0   5   2  316.64   13.46
   0   5   2  275.78   14.66
   0   5   2  297.45   12.44
  -1  -5  -2 1563.57   52.61
  -1  -5  -2 1702.35   57.53
  -1  -5  -2 1724.04   54.88
  -1  -5  -2 1742.24   54.76
  -1  -5  -2 1656.13   57.71
  -1  -5  -2 1726.85   57.55
  -1  -5  -2 1703.49   52.67
   1   5   2 1721.48   54.28
   1   5   2 1775.62   57.10
  -2  -5  -2   -0.28    1.18
  -2  -5  -2    0.18    1.99
  -2  -5  -2    0.17    1.20
  -2  -5  -2   -0.55    2.26
  -2  -5  -2    0.70    2.03
   2   5   2    2.23    1.29
   2   5   2   -0.70    1.65
  -3  -5  -2  495.43   19.36
  -3  -5  -2  506.09   21.46
  -3  -5  -2  511.48   18.14
  -4  -5  -2  618.48   20.99
  -4  -5  -2  631.19   22.04
  -4  -5  -2  643.47   22.33
  -4  -5  -2  608.21   25.76
  -5  -5  -2   88.14    3.80
  -5  -5  -2   94.82    4.73
  -5  -5  -2   85.47    4.69
  -5  -5  -2   78.37    8.78
  -6  -5  -2   24.01    5.34
  -7  -5  -2   24.55    5.93
  -8  -5  -2  336.90   18.75
  -9  -5  -2  140.32   12.24
 -10  -5  -2   19.58    3.15
 -11  -5  -2   47.19    5.31
   7  -6  -2   -0.92    3.43
  -7   6   2    0.62    3.22
  -7   6   2   -0.39    5.56
   6  -6  -2    5.34    3.70
  -6   6   2   13.70    4.40
  -6   6   2   18.37    7.43
   5  -6  -2   48.94    6.97
   5  -6  -2   53.89   10.24
   5  -6  -2   41.35    6.04
  -5   6   2   41.28    9.18
  -5   6   2   49.32    7.00
  -5   6   2   38.76    4.58
   4  -6  -2   13.23    4.18
   4  -6  -2   10.33    3.54
   4  -6  -2   11.13    5.11
  -4   6   2   16.60    3.60
  -4   6   2   11.28    3.96
  -4   6   2   11.54    5.45
   3  -6  -2   20.52    4.78
   3  -6  -2   26.23    6.16
   3  -6  -2   10.26    3.22
  -3   6   2   15.08    5.76
  -3   6   2   12.27    3.89
  -3   6   2   26.62    4.08
   2  -6  -2   11.75    4.82
   2  -6  -2   12.43    3.17
   2  -6  -2    2.88    3.13
  -2   6   2    9.08    3.46
  -2   6   2   17.73    5.36
  -2   6   2   10.28    2.96
   1  -6  -2   48.98    5.10
   1  -6  -2   45.06    7.23
   1  -6  -2   60.51    7.25
   1  -6  -2   37.88    5.18
  -1   6   2   48.05    5.28
  -1   6   2   45.39    6.97
  -1   6   2   58.32    6.72
   0  -6  -2  578.73   21.81
   0  -6  -2  566.21   23.76
   0  -6  -2  542.90   24.53
   0  -6  -2  556.95   20.07
   0  -6  -2  572.73   21.96
   0   6   2  547.90   22.08
   0   6   2  543.66   21.04
   0   6   2  613.72   24.79
  -1  -6  -2  101.81    6.60
  -1  -6  -2   96.06    4.41
  -1  -6  -2   98.00    4.43
  -1  -6  -2  110.51    6.57
  -1  -6  -2  102.22    8.27
  -1  -6  -2  103.83    8.59
   1   6   2  108.19    6.33
   1   6   2  104.56    7.05
   1   6   2   98.71    7.94
  -2  -6  -2  817.75   27.86
  -2  -6  -2  783.39   31.97
  -2  -6  -2  820.56   27.80
  -2  -6  -2  828.37   31.29
  -2  -6  -2  792.85   31.49
   2   6   2  889.89   29.99
   2   6   2  837.59   27.87
  -3  -6  -2  112.27    8.01
  -3  -6  -2  113.88    8.98
   3   6   2  107.85    5.20
  -4  -6  -2   48.34    5.86
  -4  -6  -2   52.42    4.20
  -4  -6  -2   54.27    5.73
  -4  -6  -2   46.55    6.81
  -5  -6  -2   64.28    8.09
  -5  -6  -2   79.23    5.43
  -5  -6  -2   72.39    4.40
  -5  -6  -2   67.25    5.30
  -6  -6  -2   25.64    2.36
  -6  -6  -2   28.61    3.35
  -6  -6  -2   27.43    3.19
  -6  -6  -2   18.03    5.32
  -7  -6  -2    0.58    3.05
  -7  -6  -2    4.26    1.43
  -7  -6  -2    4.06    1.50
  -8  -6  -2  244.59   16.18
  -9  -6  -2   18.99    6.50
 -10  -6  -2  242.72   17.11
   6  -7  -2   28.55    6.29
  -6   7   2   41.96    7.17
  -6   7   2   38.83    3.84
  -6   7   2   32.93    9.70
   5  -7  -2   18.44    4.93
   5  -7  -2   13.69    4.97
  -5   7   2   15.90    7.16
  -5   7   2   16.83    5.15
  -5   7   2   13.31    3.18
   4  -7  -2   72.31    7.77
   4  -7  -2   67.32   10.84
   4  -7  -2   76.99    9.30
  -4   7   2   53.45    9.91
  -4   7   2   71.88    7.25
  -4   7   2   82.70    9.07
   3  -7  -2  135.62   10.83
   3  -7  -2  150.03   13.34
   3  -7  -2  150.97    9.73
  -3   7   2  157.61   11.27
  -3   7   2  147.93   13.41
  -3   7   2  141.87    9.21
   2  -7  -2  293.99   13.91
   2  -7  -2  278.11   17.91
   2  -7  -2  281.73   15.88
  -2   7   2  330.70   18.93
  -2   7   2  294.76   15.65
  -2   7   2  286.55   13.98
   1  -7  -2  335.08   14.59
   1  -7  -2  319.10   17.44
   1  -7  -2  369.29   16.85
   1  -7  -2  349.08   19.55
  -1   7   2  361.03   19.32
  -1   7   2  336.24   15.40
  -1   7   2  338.52   16.66
   0  -7  -2  517.92   18.97
   0  -7  -2  523.02   24.55
   0  -7  -2  480.91   22.95
   0  -7  -2  519.32   21.19
   0  -7  -2  524.67   20.97
   0   7   2  508.17   20.40
   0   7   2  520.50   21.65
   0   7   2  547.55   24.05
  -1  -7  -2  305.33   13.46
  -1  -7  -2  296.93   10.25
  -1  -7  -2  282.47   13.38
  -1  -7  -2  289.40   16.22
  -1  -7  -2  294.08   16.56
  -1  -7  -2  299.74   10.28
   1   7   2  288.26   13.01
   1   7   2  330.18   16.24
   1   7   2  298.22   14.28
  -2  -7  -2   40.56    6.49
  -2  -7  -2   33.05    6.36
  -2  -7  -2   36.11    5.92
  -2  -7  -2   32.95    3.86
  -2  -7  -2   31.76    3.75
   2   7   2   35.98    4.27
   2   7   2   30.40    4.94
  -3  -7  -2  446.38   20.50
  -3  -7  -2  446.94   20.10
  -3  -7  -2  447.82   21.81
   3   7   2  454.79   16.55
  -4  -7  -2   59.80    8.28
  -4  -7  -2   64.82    7.40
   4   7   2   71.56    5.79
   4   7   2   75.30    4.84
  -5  -7  -2   37.42    4.93
  -5  -7  -2   34.32    6.70
  -5  -7  -2   35.51    5.00
  -6  -7  -2  696.37   24.27
  -6  -7  -2  701.22   25.71
  -6  -7  -2  697.18   25.86
  -6  -7  -2  718.59   31.39
  -7  -7  -2  240.27   11.01
  -7  -7  -2  204.67    9.88
  -7  -7  -2  206.14    8.69
  -7  -7  -2  207.80   14.92
  -8  -7  -2  219.08   15.52
  -8  -7  -2  181.32    8.43
  -9  -7  -2   21.94    6.74
 -10  -7  -2    8.15    5.91
 -11  -7  -2   73.63   12.14
   6  -8  -2   16.23    5.56
  -6   8   2   15.37    3.07
  -6   8   2   27.50    9.61
   5  -8  -2   28.42    5.76
  -5   8   2   29.94    4.94
  -5   8   2   40.91    7.45
  -5   8   2   15.94    7.62
   4  -8  -2  278.63   15.06
   4  -8  -2  281.89   16.94
   4  -8  -2  291.97   20.48
  -4   8   2  246.89   13.67
  -4   8   2  269.68   16.55
  -4   8   2  284.56   20.86
   3  -8  -2   14.73    4.04
   3  -8  -2    5.27    4.66
   3  -8  -2   17.75    7.40
   3  -8  -2   11.66    4.87
  -3   8   2    7.62    4.32
  -3   8   2    7.15    3.45
  -3   8   2   17.58    6.88
   2  -8  -2  487.62   25.98
   2  -8  -2  474.62   19.85
   2  -8  -2  493.42   23.57
   2  -8  -2  459.45   21.91
  -2   8   2  462.98   22.08
  -2   8   2  468.15   25.30
  -2   8   2  447.78   20.13
   1  -8  -2  495.58   19.43
   1  -8  -2  475.40   25.38
   1  -8  -2  487.78   21.86
   1  -8  -2  513.37   23.94
  -1   8   2  433.34   24.36
  -1   8   2  515.72   20.94
  -1   8   2  494.95   22.37
   0  -8  -2  132.67   12.09
   0  -8  -2  139.55   11.40
   0  -8  -2  123.53    7.12
   0  -8  -2  137.21    9.53
   0   8   2  130.49   11.44
   0   8   2  134.15    8.84
  -1  -8  -2   91.77   10.58
  -1  -8  -2   96.48    8.35
  -1  -8  -2   90.29    7.08
  -1  -8  -2   74.23    9.65
   1   8   2   88.15    7.58
   1   8   2   74.40    9.18
  -2  -8  -2  113.23   10.44
  -2  -8  -2  122.90   12.64
  -2  -8  -2   94.15    6.60
  -2  -8  -2  110.54    7.12
  -2  -8  -2  113.58   10.10
   2   8   2  104.24    7.30
  -3  -8  -2   29.91    5.98
  -3  -8  -2   33.93    2.87
  -3  -8  -2   20.05    5.57
  -3  -8  -2   25.85    6.01
  -3  -8  -2   31.22    2.88
   3   8   2   26.36    3.81
  -4  -8  -2  246.21   14.23
  -4  -8  -2  260.08   16.72
  -4  -8  -2  259.22   14.83
  -5  -8  -2   35.76    5.75
  -5  -8  -2   39.66    7.69
  -6  -8  -2  166.72   10.47
  -6  -8  -2  176.83   14.01
  -7  -8  -2  455.56   18.89
  -7  -8  -2  442.99   24.20
  -8  -8  -2 1702.79   63.98
  -8  -8  -2 1642.97   54.88
  -8  -8  -2 1672.96   55.27
  -8  -8  -2 1658.46   53.49
  -9  -8  -2    3.97    2.31
  -9  -8  -2   -0.28    4.46
  -9  -8  -2    0.30    1.47
 -10  -8  -2   -4.90    4.14
   4  -9  -2   27.05    8.48
   4  -9  -2   19.76    6.53
   4  -9  -2   17.64    5.00
  -4   9   2   21.96    8.95
  -4   9   2   22.21    5.08
  -4   9   2   27.53    6.61
   3  -9  -2   27.01    8.63
   3  -9  -2   14.93    4.56
   3  -9  -2   31.23    7.25
   3  -9  -2   12.57    5.79
  -3   9   2   30.69    7.19
  -3   9   2   27.12    5.24
  -3   9   2   32.21    9.16
   2  -9  -2   -0.60    2.70
   2  -9  -2    7.56    5.87
   2  -9  -2    6.18    4.06
   2  -9  -2   10.02    5.20
  -2   9   2   -0.13    5.30
  -2   9   2    2.96    3.56
   1  -9  -2  342.07   21.66
   1  -9  -2  317.59   14.55
   1  -9  -2  358.48   17.92
   1  -9  -2  323.73   19.22
  -1   9   2  318.40   16.34
  -1   9   2  326.80   20.60
   0  -9  -2  387.68   14.73
   0  -9  -2  395.44   18.41
   0  -9  -2  331.83   20.42
   0  -9  -2  380.18   22.46
   0   9   2  394.48   17.87
  -1  -9  -2    6.19    4.93
  -1  -9  -2    1.97    2.80
  -1  -9  -2    0.52    4.06
  -1  -9  -2    2.73    2.92
   1   9   2    0.94    2.54
  -2  -9  -2    3.00    2.33
  -2  -9  -2    1.43    2.28
  -2  -9  -2   -1.25    3.58
  -2  -9  -2   -3.33    3.60
   2   9   2   -0.85    2.39
  -3  -9  -2  201.41   14.34
  -3  -9  -2  198.08    8.34
  -3  -9  -2  193.09   14.71
  -3  -9  -2  202.31    8.36
  -3  -9  -2  173.14   14.01
   3   9   2  198.01   10.59
  -4  -9  -2   26.50    6.98
  -4  -9  -2   29.55    6.45
  -4  -9  -2   41.96    7.07
  -5  -9  -2  469.22   22.89
  -5  -9  -2  471.35   25.72
  -5  -9  -2  489.01   22.62
  -6  -9  -2  472.35   25.40
  -6  -9  -2  430.44   20.92
  -6  -9  -2  441.81   20.60
  -7  -9  -2  471.25   20.55
  -7  -9  -2  437.38   25.23
  -7  -9  -2  470.13   21.00
  -8  -9  -2  217.90   12.54
  -8  -9  -2  248.36   18.61
  -8  -9  -2  250.84   12.83
  -9  -9  -2  488.56   19.72
  -9  -9  -2  468.51   27.35
 -10  -9  -2  101.11    6.97
 -10  -9  -2   98.55   14.61
   3 -10  -2   57.18    9.99
   3 -10  -2   46.19    8.73
   3 -10  -2   53.05   12.13
   3 -10  -2   41.76    6.55
  -3  10   2   49.86    6.99
   2 -10  -2   10.81    5.42
   2 -10  -2   11.16    7.25
   2 -10  -2    9.13    5.58
   2 -10  -2   11.73    3.92
  -2  10   2    9.22    4.12
   1 -10  -2   61.18   11.34
   1 -10  -2   57.23    9.85
   1 -10  -2   48.29    7.83
   1 -10  -2   50.43    5.56
  -1  10   2   42.00    6.87
   0 -10  -2    2.68    1.86
   0 -10  -2    8.27    5.53
   0 -10  -2    4.42    5.74
   0 -10  -2    6.76    3.77
   0  10   2   10.42    4.23
  -1 -10  -2    0.82    4.20
  -1 -10  -2   -2.89    4.12
  -1 -10  -2    3.70    3.34
   1  10   2    1.67    3.14
  -2 -10  -2   70.73    6.88
  -2 -10  -2   65.83   10.47
  -2 -10  -2   83.21   12.01
  -2 -10  -2   64.94    6.50
   2  10   2   80.91    8.15
  -3 -10  -2    2.96    1.89
  -3 -10  -2   10.85    5.55
  -3 -10  -2    2.15    4.24
  -3 -10  -2    0.99    1.73
   3  10   2    3.99    3.28
  -4 -10  -2   17.91    6.57
  -4 -10  -2   17.33    5.72
  -4 -10  -2   20.36    6.50
  -5 -10  -2   27.36    8.43
  -5 -10  -2   16.36    5.58
  -5 -10  -2   20.33    6.30
  -6 -10  -2    6.63    5.66
  -6 -10  -2    2.00    3.77
  -6 -10  -2    4.13    3.63
  -7 -10  -2  166.34   17.51
  -7 -10  -2  185.16   12.50
  -7 -10  -2  154.01   12.00
  -8 -10  -2  639.57   26.40
  -8 -10  -2  577.11   32.10
  -9 -10  -2   26.07    8.83
  -9 -10  -2   31.24    5.59
   1 -11  -2   43.52    7.68
   1 -11  -2   47.42    9.75
   1 -11  -2   60.98   11.91
   1 -11  -2   39.00    4.76
  -1  11   2   49.04    7.65
   0 -11  -2   25.72    8.91
   0 -11  -2   24.53    7.66
   0 -11  -2   31.05    6.43
   0  11   2   32.24    6.35
  -1 -11  -2  142.17   10.59
  -1 -11  -2  154.02   16.66
  -1 -11  -2  172.42   18.49
   1  11   2  151.47   11.46
  -2 -11  -2   -2.63    4.30
  -2 -11  -2    1.75    2.58
  -2 -11  -2   -2.10    2.45
  -2 -11  -2    4.37    5.07
   2  11   2   -3.53    3.04
  -3 -11  -2   30.05    7.91
  -3 -11  -2   29.02    8.40
  -3 -11  -2   22.85    2.94
  -3 -11  -2   23.26    2.86
  -4 -11  -2   19.88    7.18
  -4 -11  -2   21.15    6.94
  -5 -11  -2   15.88    7.59
  -5 -11  -2   19.53    6.52
  -6 -11  -2   34.35    7.58
  -6 -11  -2   26.64    8.00
  -7 -11  -2   11.21    5.39
  -7 -11  -2   15.31    7.59
  -8 -11  -2   37.33    9.59
  -8 -11  -2   36.83    7.16
  -1 -12  -2    0.58    3.66
  -1 -12  -2    8.79    6.14
  -1 -12  -2    9.11    7.08
   1  12   2    0.16    3.99
  -2 -12  -2   11.76    7.30
  -2 -12  -2    5.56    3.15
  -2 -12  -2    0.72    5.55
   2  12   2   12.30    5.17
  -3 -12  -2   88.30   13.45
  -3 -12  -2   84.27   12.87
   3  12   2  117.48   10.95
  -4 -12  -2    0.78    4.73
  -4 -12  -2   -4.18    5.44
  -5 -12  -2    4.21    6.76
  -5 -12  -2    2.05    4.50
  -6 -12  -2    1.96    5.50
  -6 -12  -2    1.56    4.38
  -7 -11   3   -2.16    5.80
  -6 -11   3    7.19    5.90
  -6 -11   3   -3.09    3.86
  -5 -11   3   99.44   14.82
  -5 -11   3   78.31   11.34
  -4 -11   3   12.34    6.59
  -4 -11   3   -1.42    4.57
   3  11  -3    0.24    3.45
  -3 -11   3   -2.03    5.30
  -3 -11   3    8.01    6.78
   2  11  -3   12.62    4.81
  -2 -11   3   10.06    3.27
  -2 -11   3    7.89    3.03
  -2 -11   3    4.58    6.61
  -2 -11   3   -0.09    5.35
   1  11  -3    5.43    4.34
  -1 -11   3    1.29    3.06
  -1 -11   3    2.39    5.81
  -1 -11   3   10.02    6.60
   0  11  -3    8.05    4.66
   0 -11   3    1.88    6.64
   0 -11   3    4.08    6.37
   0 -11   3    2.42    4.07
   0 -11   3    1.20    5.47
  -1  11  -3   37.18    7.09
   1 -11   3   38.11    6.93
   1 -11   3   11.50    7.32
   1 -11   3   24.95    9.47
   1 -11   3   26.79    8.80
  -8 -10   3  333.14   22.82
  -8 -10   3  296.92   17.20
  -8 -10   3  339.44   16.13
  -7 -10   3   70.25   11.73
  -7 -10   3   57.80    8.34
  -6 -10   3   29.13    7.89
  -6 -10   3   29.12    6.42
  -5 -10   3  138.06   12.53
  -5 -10   3  144.83   16.55
  -4 -10   3    3.20    4.90
  -4 -10   3    9.34    5.05
   3  10  -3  327.07   15.80
  -3 -10   3  319.02   20.45
  -3 -10   3  316.01   21.15
   2  10  -3   99.25    9.15
  -2 -10   3  102.43   13.27
  -2 -10   3  109.76    7.29
  -2 -10   3  105.32   13.78
  -2 -10   3   96.10    7.04
   1  10  -3  131.55   10.97
  -1 -10   3  132.92   15.69
  -1 -10   3  123.97   15.23
  -1 -10   3  115.76    9.07
   0  10  -3  214.55   13.16
   0 -10   3  175.31   12.34
   0 -10   3  203.47   18.10
   0 -10   3  154.06   16.84
  -1  10  -3    3.01    3.69
   1 -10   3   -2.55    5.14
   1 -10   3    1.63    2.26
   1 -10   3    6.20    6.05
   1 -10   3    2.69    6.09
  -2  10  -3    6.71    4.10
   2 -10   3   -4.85    5.21
   2 -10   3    5.25    3.28
   2 -10   3    7.79    7.08
   2 -10   3   11.02    6.46
  -3  10  -3    6.86    4.18
   3 -10   3    5.01    5.95
   3 -10   3   22.13    4.94
   3 -10   3   18.44    8.47
  -9  -9   3    7.62    5.98
  -9  -9   3    4.73    2.48
  -9  -9   3    6.45    3.39
  -8  -9   3   23.96    4.43
  -8  -9   3   21.37    7.45
  -8  -9   3   15.91    4.62
  -7  -9   3    9.22    4.13
  -7  -9   3   10.32    5.89
  -7  -9   3   13.75    3.68
  -6  -9   3    2.38    3.13
  -6  -9   3    1.42    2.77
  -6  -9   3    4.10    4.53
  -5  -9   3  281.49   19.10
  -5  -9   3  269.19   16.31
  -4  -9   3    1.32    3.52
  -4  -9   3    2.09    5.19
   3   9  -3  523.81   20.72
  -3  -9   3  487.74   26.55
  -3  -9   3  501.35   25.44
   2   9  -3  235.85   12.05
  -2  -9   3  236.80   17.07
  -2  -9   3  194.20   10.10
  -2  -9   3  220.75   16.14
  -2  -9   3  188.43   10.06
   1   9  -3  251.66   13.20
  -1  -9   3  226.87   16.98
  -1  -9   3  237.66   12.62
  -1  -9   3  260.96   18.08
  -1  -9   3  234.44   12.67
   0   9  -3   60.62    7.21
   0  -9   3   70.80    3.97
   0  -9   3   84.56   12.13
   0  -9   3   65.19   11.05
  -1   9  -3   50.95    7.02
   1  -9   3   59.71   10.99
   1  -9   3   55.09   10.08
   1  -9   3   59.10    5.70
  -2   9  -3   -2.00    2.94
  -2   9  -3    5.34    6.02
   2  -9   3    1.33    5.13
   2  -9   3   -6.23    1.88
   2  -9   3   -3.30    3.98
   2  -9   3    3.85    5.98
  -3   9  -3   54.17   11.04
  -3   9  -3   56.52    7.53
   3  -9   3   42.55   10.37
   3  -9   3   47.18    6.62
   3  -9   3   58.09   10.28
   3  -9   3   59.39   11.63
  -4   9  -3   -0.61    6.62
  -4   9  -3    2.84    5.04
  -4   9  -3    2.85    3.37
   4  -9   3    3.34    3.59
   4  -9   3    7.82    6.83
   4  -9   3    0.73    5.14
 -10  -8   3   42.82    9.55
 -10  -8   3   53.93    5.70
 -10  -8   3   50.59    4.69
  -9  -8   3   47.92    9.43
  -9  -8   3   43.71    5.31
  -9  -8   3   44.04    4.57
  -8  -8   3   21.92    3.64
  -8  -8   3   30.24    4.79
  -8  -8   3   23.53    6.81
  -7  -8   3  148.22   15.53
  -7  -8   3  135.44    8.20
  -7  -8   3  130.86    9.34
  -6  -8   3  202.09   12.36
  -6  -8   3  210.93   11.08
  -6  -8   3  208.07   15.43
  -5  -8   3    3.36    2.60
  -5  -8   3    4.60    3.37
  -5  -8   3    8.30    4.82
  -4  -8   3  280.12   15.62
  -4  -8   3  243.17   16.91
  -4  -8   3  247.86   13.47
   3   8  -3   63.79    5.88
   3   8  -3   60.24    5.75
  -3  -8   3   55.02    9.19
  -3  -8   3   47.34    7.67
   2   8  -3   19.82    3.98
  -2  -8   3   16.55    5.50
  -2  -8   3   18.62    5.89
  -2  -8   3   17.69    3.18
  -2  -8   3   16.41    3.17
  -1  -8   3   94.45    7.18
  -1  -8   3   88.14   10.85
  -1  -8   3  102.31   12.31
   0   8  -3  108.18    9.32
   0   8  -3  109.63   11.62
   0  -8   3  107.18    5.71
   0  -8   3  120.68   13.40
   0  -8   3   95.61   11.45
  -1   8  -3    1.33    4.28
  -1   8  -3    0.88    2.88
   1  -8   3   -3.45    1.84
   1  -8   3    2.29    5.00
   1  -8   3    1.94    3.84
  -2   8  -3   22.89    4.72
  -2   8  -3   35.47    6.49
  -2   8  -3   29.12    7.82
   2  -8   3   27.04    7.03
   2  -8   3   22.45    4.22
   2  -8   3   25.01    7.42
  -3   8  -3   16.57    7.00
  -3   8  -3   15.62    4.19
  -3   8  -3   11.39    4.96
   3  -8   3   19.98    6.88
   3  -8   3   14.17    4.16
   3  -8   3   12.25    6.38
   3  -8   3   14.30    5.76
  -4   8  -3  280.69   14.50
  -4   8  -3  278.79   16.96
  -4   8  -3  301.92   21.66
   4  -8   3  277.53   20.39
   4  -8   3  257.05   18.44
   4  -8   3  293.19   15.36
  -5   8  -3   14.87    8.00
  -5   8  -3    8.16    5.00
  -5   8  -3    9.88    3.73
   5  -8   3   10.72    4.22
   5  -8   3   11.04    5.88
  -6   8  -3   -2.82    2.32
  -6   8  -3   -4.57    6.21
   6  -8   3    2.00    4.15
 -10  -7   3   19.58    6.59
 -10  -7   3   26.46    3.16
 -10  -7   3   45.26    5.06
  -9  -7   3    9.11    3.02
  -9  -7   3    8.06    2.09
  -9  -7   3   12.35    5.40
  -8  -7   3    4.63    2.00
  -8  -7   3    5.54    4.48
  -8  -7   3    6.47    2.73
  -7  -7   3  282.40   11.66
  -7  -7   3  250.47   12.73
  -7  -7   3  297.88   17.82
  -6  -7   3  155.22   12.54
  -6  -7   3  148.60    8.29
  -6  -7   3  164.58    9.46
  -5  -7   3  248.34   16.06
  -5  -7   3  246.36   13.24
  -5  -7   3  269.50   12.11
  -4  -7   3  263.40   14.26
  -4  -7   3  272.37   16.63
  -4  -7   3  258.06   12.70
   3   7  -3   60.08    5.12
  -3  -7   3   63.31    6.83
  -3  -7   3   58.83    7.51
  -3  -7   3   70.08    9.50
   2   7  -3    6.15    2.30
   2   7  -3    6.96    2.67
  -2  -7   3    4.86    3.62
  -2  -7   3    7.44    4.38
  -2  -7   3    4.35    2.09
  -2  -7   3    5.20    2.16
   1   7  -3  222.98   13.13
   1   7  -3  203.58   10.76
  -1  -7   3  227.09   14.53
  -1  -7   3  227.99   14.72
  -1  -7   3  236.54   11.15
   0   7  -3   42.09    5.77
   0   7  -3   41.35    5.28
   0   7  -3   48.22    7.30
   0  -7   3   41.95    7.50
   0  -7   3   41.38    3.85
   0  -7   3   46.60    5.64
   0  -7   3   54.65    8.50
  -1   7  -3  178.18   13.35
  -1   7  -3  171.32   11.12
  -1   7  -3  156.77    9.85
   1  -7   3  186.05    9.27
   1  -7   3  177.65   13.05
   1  -7   3  169.92   13.73
  -2   7  -3  114.23   12.53
  -2   7  -3  130.61    8.79
  -2   7  -3  128.56    9.94
   2  -7   3   92.57   11.08
   2  -7   3  120.97   13.45
   2  -7   3  119.23    8.09
  -3   7  -3  375.20   17.10
  -3   7  -3  369.56   18.90
  -3   7  -3  391.11   22.68
   3  -7   3  406.74   22.67
   3  -7   3  387.29   21.29
   3  -7   3  378.46   22.80
   3  -7   3  356.04   16.97
  -4   7  -3   84.41    7.74
  -4   7  -3   85.96    9.67
  -4   7  -3   93.07   12.90
   4  -7   3   86.23   12.54
   4  -7   3  118.27   14.29
   4  -7   3   90.99    8.87
   4  -7   3   96.91   12.19
  -5   7  -3    2.43    5.93
  -5   7  -3    9.48    4.41
  -5   7  -3    8.60    3.30
   5  -7   3    1.96    5.06
   5  -7   3   -0.25    5.26
   5  -7   3    3.84    3.80
  -6   7  -3    1.75    6.16
  -6   7  -3   -1.48    3.66
  -6   7  -3    4.86    2.67
   6  -7   3    0.96    4.99
   6  -7   3    8.19    4.26
  -7   7  -3   26.72   10.06
  -7   7  -3   26.28    6.62
   7  -7   3   20.31    7.47
   7  -7   3    9.32    5.27
 -10  -6   3  165.20    8.70
 -10  -6   3  155.12    7.46
 -10  -6   3  167.85   13.51
  -9  -6   3   15.54    5.25
  -9  -6   3   14.58    2.97
  -9  -6   3   13.88    2.24
  -8  -6   3  209.92    9.69
  -8  -6   3  183.22   13.46
  -8  -6   3  197.12    8.22
  -7  -6   3  234.19   10.77
  -7  -6   3  232.21    9.43
  -7  -6   3  230.79   14.89
  -6  -6   3  102.97    7.10
  -6  -6   3  117.29    7.04
  -6  -6   3  132.74   10.59
  -6  -6   3  113.99    6.13
  -5  -6   3  303.53   13.33
  -5  -6   3  276.25   13.35
  -5  -6   3  310.56   12.34
  -5  -6   3  293.80   16.54
  -4  -6   3  108.19   10.70
  -4  -6   3   98.71    6.55
  -4  -6   3   98.23    7.35
   3   6  -3  342.66   12.65
  -3  -6   3  358.28   16.44
  -3  -6   3  330.73   17.66
  -3  -6   3  343.21   14.82
   2   6  -3  178.22    8.30
  -2  -6   3  155.48   11.53
  -2  -6   3  180.36    7.82
  -2  -6   3  165.65   10.94
  -2  -6   3  181.11   10.00
  -2  -6   3  165.63    7.70
   1   6  -3    3.61    1.97
   1   6  -3   -0.42    2.34
  -1  -6   3    1.76    3.39
  -1  -6   3    0.89    1.82
  -1  -6   3   -0.31    2.78
   0   6  -3    1.02    2.05
   0   6  -3   -0.11    2.73
   0   6  -3    2.63    2.48
   0  -6   3   -0.69    2.64
   0  -6   3    3.06    1.72
   0  -6   3    5.13    3.50
   0  -6   3    9.35    2.69
  -1   6  -3  148.35   11.30
  -1   6  -3  155.11    8.90
  -1   6  -3  151.97    9.77
   1  -6   3  155.20    9.74
   1  -6   3  142.90   11.59
   1  -6   3  150.10   11.49
   1  -6   3  159.70    8.26
  -2   6  -3    6.68    3.34
  -2   6  -3   12.52    3.24
  -2   6  -3    9.35    4.45
   2  -6   3    6.99    2.78
   2  -6   3   10.04    4.82
   2  -6   3    7.70    4.43
  -3   6  -3  293.81   18.61
  -3   6  -3  338.85   14.65
  -3   6  -3  311.48   16.07
   3  -6   3  320.08   19.32
   3  -6   3  304.02   17.81
   3  -6   3  312.56   14.78
  -4   6  -3   -0.76    3.10
  -4   6  -3    2.48    4.92
  -4   6  -3   -0.05    2.40
   4  -6   3    5.36    3.13
   4  -6   3   -1.81    3.95
   4  -6   3    1.02    4.48
   4  -6   3   -3.94    3.58
  -5   6  -3   36.94    6.20
  -5   6  -3   33.98    4.57
  -5   6  -3   36.72    8.77
   5  -6   3   28.83    7.68
   5  -6   3   31.84    7.22
   5  -6   3   40.03    6.20
  -6   6  -3  111.48    6.39
  -6   6  -3   88.26    9.60
  -6   6  -3   99.63   14.21
   6  -6   3   99.86   11.97
   6  -6   3  107.57   10.18
  -7   6  -3   44.24    9.94
  -7   6  -3   42.06    6.82
   7  -6   3   61.39    9.83
   7  -6   3   50.36    7.79
 -11  -5   3   12.92    3.61
 -10  -5   3  196.80   10.30
 -10  -5   3  186.45   13.59
  -9  -5   3   66.14    8.78
  -9  -5   3   65.16    5.33
  -8  -5   3  262.48   10.59
  -8  -5   3  207.74   13.82
  -8  -5   3  223.69    8.99
  -7  -5   3  404.09   13.88
  -7  -5   3  418.26   19.88
  -7  -5   3  391.72   15.09
  -7  -5   3  402.42   15.11
  -6  -5   3  152.05    6.27
  -6  -5   3  144.00    7.20
  -6  -5   3  140.83   10.56
  -6  -5   3  133.09    7.17
  -5  -5   3 1132.60   37.27
  -5  -5   3 1124.13   41.35
  -5  -5   3 1088.51   37.31
  -5  -5   3 1107.39   36.01
  -4  -5   3  152.81   10.27
  -4  -5   3  159.58    8.06
  -4  -5   3  112.20    7.54
  -4  -5   3  156.21    7.22
  -3  -5   3  368.29   17.34
  -3  -5   3  334.92   13.94
   2   5  -3   69.70    4.25
  -2  -5   3   68.10    5.48
  -2  -5   3   84.34    6.81
  -2  -5   3   67.37    4.05
  -2  -5   3   87.76    8.81
   1   5  -3  134.81    6.90
   1   5  -3  140.07    8.53
  -1  -5   3  141.45    7.15
  -1  -5   3  132.38    9.41
  -1  -5   3  129.52    8.03
  -1  -5   3  117.49    8.93
   0   5  -3   25.80    3.87
   0   5  -3   35.70    3.87
   0   5  -3   25.95    4.72
   0  -5   3   27.40    3.67
   0  -5   3   19.77    4.70
   0  -5   3   30.28    5.14
   0  -5   3   29.73    3.08
  -1   5  -3   26.19    3.73
  -1   5  -3   13.55    4.13
  -1   5  -3   18.82    3.82
   1  -5   3   19.29    4.69
   1  -5   3   16.80    4.65
   1  -5   3   16.67    3.03
  -2   5  -3   30.38    4.46
  -2   5  -3   28.06    5.61
  -2   5  -3   42.34    4.74
   2  -5   3   34.81    6.24
   2  -5   3   29.82    5.57
   2  -5   3   33.37    4.30
  -3   5  -3 1534.66   51.56
  -3   5  -3 1560.73   56.94
  -3   5  -3 1564.58   53.28
   3  -5   3 1506.12   56.86
   3  -5   3 1614.42   56.04
   3  -5   3 1564.91   52.22
  -4   5  -3  906.22   34.21
  -4   5  -3  915.90   38.24
  -4   5  -3  921.87   32.08
   4  -5   3  877.90   36.38
   4  -5   3  936.11   37.74
   4  -5   3  954.69   38.63
   4  -5   3  901.51   33.29
  -5   5  -3   43.50    6.33
  -5   5  -3   43.37    8.56
  -5   5  -3   35.45    4.31
   5  -5   3   36.09    7.49
   5  -5   3   48.77    8.09
   5  -5   3   47.73    6.33
  -6   5  -3   -0.27    1.45
  -6   5  -3    0.45    3.17
  -6   5  -3   -0.99    4.61
   6  -5   3   -1.77    2.76
   6  -5   3    3.04    4.16
  -7   5  -3   29.87    8.49
  -7   5  -3   25.76    5.28
   7  -5   3   32.08    6.00
   7  -5   3   21.63    6.76
  -8   5  -3   89.12   14.02
  -8   5  -3   78.53    8.11
   8  -5   3   77.02   11.42
   8  -5   3   92.97   10.09
 -11  -4   3   78.80    8.31
 -10  -4   3   85.86    7.36
  -9  -4   3   -4.48    2.65
  -9  -4   3   -0.45    2.11
  -8  -4   3   46.36    6.83
  -8  -4   3   33.41    4.19
  -7  -4   3 1346.07   45.15
  -7  -4   3 1489.79   45.56
  -7  -4   3 1331.66   49.20
  -6  -4   3   18.07    2.67
  -6  -4   3   21.22    4.49
  -6  -4   3   17.20    2.52
  -5  -4   3  165.61    6.42
  -5  -4   3  161.53    7.36
  -5  -4   3  158.97   10.11
  -5  -4   3  158.70    7.39
  -4  -4   3   87.11    6.99
  -4  -4   3   81.09    4.96
  -4  -4   3   75.11    4.18
  -4  -4   3   73.84    4.94
  -3  -4   3 2411.48   73.42
  -3  -4   3 2334.29   75.29
  -3  -4   3 2315.03   71.76
  -3  -4   3 2085.76   72.72
   2   4  -3  670.88   21.25
  -2  -4   3  639.95   24.05
  -2  -4   3  663.22   23.06
  -2  -4   3  639.58   25.32
  -2  -4   3  658.07   21.15
   1   4  -3  161.71    7.27
   1   4  -3  170.98    8.88
  -1  -4   3  163.96    9.92
  -1  -4   3  169.52    8.51
  -1  -4   3  176.23    9.64
  -1  -4   3  164.50    7.58
   0   4  -3  107.09    7.37
   0   4  -3   86.70    5.45
   0   4  -3   99.56    6.31
   0  -4   3  104.91    5.16
   0  -4   3   97.73    7.50
   0  -4   3   98.24    5.98
   0  -4   3  100.63    6.62
   0  -4   3   89.96    7.50
  -1   4  -3  255.46   11.77
  -1   4  -3  270.06   13.55
  -1   4  -3  253.05   10.91
   1  -4   3  265.82   10.77
   1  -4   3  246.57   13.26
   1  -4   3  249.76   13.47
  -2   4  -3  422.82   16.28
  -2   4  -3  407.06   19.31
  -2   4  -3  423.83   17.31
   2  -4   3  438.09   19.34
   2  -4   3  413.19   19.45
   2  -4   3  433.23   16.48
  -3   4  -3  741.21   27.23
  -3   4  -3  746.33   25.80
  -3   4  -3  753.10   30.34
   3  -4   3  665.05   29.65
   3  -4   3  738.07   26.27
  -4   4  -3   18.53    3.02
  -4   4  -3   15.95    5.48
  -4   4  -3   18.49    4.15
   4  -4   3   12.20    3.28
   4  -4   3   18.29    5.06
   4  -4   3   18.64    4.87
  -5   4  -3  215.15    9.16
  -5   4  -3  216.32   11.72
  -5   4  -3  199.00   14.55
   5  -4   3  216.58   11.40
   5  -4   3  211.80   13.84
  -6   4  -3  156.81   13.80
  -6   4  -3  170.45   10.30
   6  -4   3  152.03    9.99
  -7   4  -3   10.60    5.90
  -7   4  -3    7.71    3.35
   7  -4   3   10.67    3.69
  -8   4  -3   -0.61    4.68
  -8   4  -3    0.97    2.64
   8  -4   3    2.35    3.41
  -9   4  -3    0.82    1.91
  -9   4  -3    4.61    2.16
  -9   4  -3   13.00    7.10
   9  -4   3    2.89    4.16
 -11  -3   3    0.50    3.29
 -10  -3   3  106.47    9.02
  -9  -3   3    2.18    2.67
  -8  -3   3   37.59    4.84
  -8  -3   3   27.07    5.25
  -7  -3   3  392.90   17.14
  -7  -3   3  365.97   15.01
  -7  -3   3  368.50   14.90
  -6  -3   3    0.15    1.47
  -6  -3   3   -0.01    2.14
  -6  -3   3   -0.21    1.38
  -5  -3   3  993.26   33.57
  -5  -3   3 1069.70   33.83
  -5  -3   3 1025.57   36.45
  -4  -3   3  401.27   17.18
  -4  -3   3  441.47   15.20
  -4  -3   3  416.61   14.10
  -4  -3   3  419.02   15.08
  -3  -3   3  981.60   32.68
  -3  -3   3  994.91   32.78
  -3  -3   3  990.36   34.59
  -3  -3   3 1000.18   31.82
  -2  -3   3   85.94    5.95
  -2  -3   3   76.28    4.41
  -2  -3   3   73.99    5.16
   1   3  -3 1336.04   44.49
   1   3  -3 1374.78   42.81
  -1  -3   3 1362.94   45.86
  -1  -3   3 1347.27   45.10
  -1  -3   3 1362.32   44.14
  -1  -3   3 1363.93   43.25
   0   3  -3  933.62   31.83
   0   3  -3  974.65   33.27
   0   3  -3  963.19   31.20
   0  -3   3  931.07   31.61
   0  -3   3  956.06   32.32
   0  -3   3  946.47   33.53
   0  -3   3  954.61   30.70
  -1   3  -3   42.45    5.22
  -1   3  -3   42.58    4.21
  -1   3  -3   42.38    3.92
   1  -3   3   58.54    3.85
   1  -3   3   37.82    4.85
  -2   3  -3  385.95   17.36
  -2   3  -3  373.58   14.33
  -2   3  -3  393.85   15.39
   2  -3   3  377.64   14.55
   2  -3   3  375.08   17.13
  -3   3  -3  251.15   10.27
  -3   3  -3  252.88   11.52
  -3   3  -3  245.76   13.43
   3  -3   3  255.74   13.58
   3  -3   3  235.30   10.79
  -4   3  -3  195.02   12.32
  -4   3  -3  182.17    9.71
  -4   3  -3  179.94    8.01
   4  -3   3  176.77   11.34
   4  -3   3  183.40    9.32
   4  -3   3  198.86   11.95
  -5   3  -3  493.76   16.13
  -5   3  -3  482.82   16.10
  -5   3  -3  495.21   23.36
  -5   3  -3  503.37   19.62
   5  -3   3  485.22   19.27
   5  -3   3  473.93   21.71
  -6   3  -3  193.77   10.48
  -6   3  -3  199.24   14.25
   6  -3   3  203.72   10.90
  -7   3  -3  612.28   22.99
  -7   3  -3  612.84   29.39
   7  -3   3  622.55   24.55
  -8   3  -3   19.71    3.19
  -8   3  -3   14.63    6.37
  -8   3  -3   17.78    3.09
   8  -3   3   17.46    4.68
  -9   3  -3   32.25    8.56
   9  -3   3   45.51    6.71
 -11  -2   3   17.54    5.78
 -10  -2   3   45.41    7.12
  -9  -2   3   38.96    6.03
  -8  -2   3  112.02    8.32
  -7  -2   3  322.15   14.31
  -7  -2   3  331.67   14.57
  -6  -2   3   -0.30    1.53
  -6  -2   3    2.12    1.82
  -6  -2   3   -0.38    1.95
  -5  -2   3   36.45    3.80
  -5  -2   3   37.10    4.41
  -5  -2   3   37.96    3.57
  -4  -2   3  554.70   20.65
  -4  -2   3  548.54   19.44
  -4  -2   3  581.41   19.62
  -3  -2   3   35.31    3.93
  -3  -2   3   37.50    3.19
  -3  -2   3   36.27    2.53
  -3  -2   3   39.14    3.18
  -2  -2   3    8.54    2.38
  -2  -2   3    5.51    1.50
  -2  -2   3    5.08    1.83
   1   2  -3 1720.52   53.81
   1   2  -3 1740.00   52.28
  -1  -2   3 1416.11   53.83
  -1  -2   3 1766.00   52.82
  -1  -2   3 1714.61   53.36
  -1  -2   3 1788.10   54.86
   0   2  -3  153.58    6.80
   0   2  -3  162.24    6.36
   0   2  -3  147.91    7.57
   0  -2   3  146.45    5.94
   0  -2   3  147.83    6.95
   0  -2   3  115.56    7.05
   0  -2   3  153.02    6.69
  -1   2  -3  106.73    5.89
  -1   2  -3  119.87    7.10
  -1   2  -3  104.37    5.28
   1  -2   3  109.71    6.12
   1  -2   3  107.67    5.30
   1  -2   3  105.24    6.82
  -2   2  -3 1797.97   61.45
  -2   2  -3 1883.57   59.70
  -2   2  -3 1895.59   58.81
   2  -2   3 1910.49   61.57
   2  -2   3 1854.44   59.07
  -3   2  -3  299.38   14.52
  -3   2  -3  320.10   11.56
  -3   2  -3  296.08   12.57
   3  -2   3  330.94   14.61
   3  -2   3  311.86   12.19
  -4   2  -3   32.23    2.44
  -4   2  -3   26.16    2.26
  -4   2  -3   20.39    4.69
  -4   2  -3   22.78    3.30
   4  -2   3   36.06    5.02
   4  -2   3   26.52    3.28
   4  -2   3   25.50    4.42
  -5   2  -3  147.74   10.80
  -5   2  -3  150.05    7.94
   5  -2   3  143.80    9.45
   5  -2   3  155.33    7.91
  -6   2  -3  155.06    8.18
  -6   2  -3  182.05   12.50
   6  -2   3  150.48    8.57
   6  -2   3  186.85   11.65
  -7   2  -3  358.00   20.32
  -7   2  -3  399.89   14.83
  -7   2  -3  397.73   14.70
   7  -2   3  394.72   16.63
  -8   2  -3  271.15   17.51
   8  -2   3  254.14   13.05
  -9   2  -3   23.91    6.97
 -10   2  -3   53.04   10.13
 -10  -1   3   76.14    9.68
  -9  -1   3   33.39    6.34
  -8  -1   3   10.28    4.17
  -7  -1   3  162.84   10.17
  -6  -1   3  369.11   16.17
  -6  -1   3  386.71   16.19
  -5  -1   3 2400.10   80.43
  -5  -1   3 2569.90   80.86
  -5  -1   3 2620.97   79.96
  -4  -1   3  109.78    5.65
  -4  -1   3  100.14    6.02
  -4  -1   3  104.95    6.07
  -3  -1   3 9976.40  304.89
  -3  -1   3 9999.00  305.01
  -2  -1   3  624.51   20.51
  -2  -1   3  593.14   21.20
  -2  -1   3  650.62   21.03
   1   1  -3 1598.51   48.55
   1   1  -3 1573.88   49.90
  -1  -1   3 1603.11   49.41
  -1  -1   3 1620.16   49.05
  -1  -1   3 1569.01   49.85
  -1  -1   3 1479.01   50.01
   0   1  -3  338.92   12.91
   0   1  -3  353.20   11.60
   0  -1   3  331.57   11.96
   0  -1   3  320.07   12.09
   0  -1   3  339.01   13.00
   0  -1   3  327.05   11.38
  -1   1  -3 1123.03   37.35
  -1   1  -3 1134.28   36.11
  -1   1  -3 1114.27   35.57
   1  -1   3 1140.07   35.62
   1  -1   3 1099.02   36.31
  -2   1  -3  233.16    9.36
  -2   1  -3  218.37   10.58
  -2   1  -3  230.11    8.55
   2  -1   3  238.19   10.50
   2  -1   3  237.52    8.94
  -3   1  -3   72.92    3.27
  -3   1  -3   72.11    3.29
  -3   1  -3   71.44    4.49
  -3   1  -3   74.22    5.84
   3  -1   3   69.30    5.35
   3  -1   3   70.36    4.13
  -4   1  -3   38.00    3.50
  -4   1  -3   41.10    5.29
   4  -1   3   30.92    4.33
   4  -1   3   34.83    3.27
   4  -1   3   41.50    4.69
  -5   1  -3 1278.40   41.23
  -5   1  -3 1289.13   45.25
   5  -1   3 1290.96   43.32
   5  -1   3 1252.72   41.41
  -6   1  -3  108.02    5.15
  -6   1  -3  104.74    5.16
  -6   1  -3   94.90    8.66
   6  -1   3  120.33    6.42
  -7   1  -3 1277.80   47.94
   7  -1   3 1303.96   43.15
  -8   1  -3   51.38    7.90
  -9   1  -3   79.71   10.58
 -10   1  -3    7.41    5.08
 -10   0   3   65.02    9.31
  -9   0   3   -5.08    2.70
  -8   0   3  187.44   12.75
  -7   0   3    2.63    3.39
   6   0  -3  280.59   10.22
  -6   0   3  259.66   13.74
  -5   0   3  286.30   13.49
  -4   0   3  257.48   11.84
  -3   0   3 1601.06   52.14
   2   0  -3  393.77   14.24
   2   0  -3  384.20   12.67
  -2   0   3  385.44   13.19
  -2   0   3  378.72   14.59
  -2   0   3  385.51   12.43
  -2   0   3  386.72   13.75
   1   0  -3 1603.20   49.63
   1   0  -3 1554.87   48.22
  -1   0   3 1558.21   48.64
  -1   0   3 1568.59   48.92
  -1   0   3 1579.64   47.87
  -1   0   3 1459.90   49.54
  -1   0   3 1563.85   48.61
   0   0  -3   86.63    3.95
   0   0  -3   96.80    5.12
   0   0  -3   89.83    4.36
   0   0   3   88.45    3.95
   0   0   3   89.15    4.34
   0   0   3   87.64    4.92
  -1   0  -3  611.12   20.15
  -1   0  -3  625.42   21.22
  -1   0  -3  617.00   19.69
   1   0   3  610.52   20.92
   1   0   3  592.22   19.71
  -2   0  -3   67.57    4.74
  -2   0  -3   63.49    4.07
  -2   0  -3   74.64    3.89
  -2   0  -3   68.92    2.84
  -2   0  -3   68.39    3.75
  -2   0  -3   70.48    2.85
   2   0   3   68.55    4.51
   2   0   3   67.12    3.38
  -3   0  -3 3337.23  100.57
  -3   0  -3 3315.56  101.42
  -3   0  -3 2919.08  102.21
  -3   0  -3 3288.94  100.50
   3   0   3 3405.32  100.16
   3   0   3 3343.15  101.88
  -4   0  -3  547.36   17.44
  -4   0  -3  482.88   19.97
  -4   0  -3  537.63   17.44
   4   0   3  543.78   17.40
  -5   0  -3  338.33   14.97
   5   0   3  332.39   11.71
  -6   0  -3   14.18    3.71
   6   0   3   13.64    2.07
  -7   0  -3  455.47   20.86
   7   0   3  488.85   17.67
  -8   0  -3  594.30   26.08
  -9   0  -3   36.14    7.02
 -10   0  -3  128.73   12.06
 -11   0  -3   49.04    9.00
 -10   1   3   41.89    8.63
  -9   1   3   92.80   11.69
  -8   1   3   82.99   10.19
  -7   1   3   16.53    5.16
   6  -1  -3  540.74   19.32
  -6   1   3  521.49   23.23
   5  -1  -3  329.92   12.61
  -5   1   3  316.11   15.79
  -5   1   3  342.32   11.83
   4  -1  -3 1476.68   48.18
   4  -1  -3 1450.43   46.18
  -4   1   3 1439.28   46.09
  -4   1   3 1435.33   49.52
   3  -1  -3  563.32   21.51
   3  -1  -3  611.61   19.89
  -3   1   3  593.70   20.09
  -3   1   3  585.01   22.32
   2  -1  -3  986.78   32.78
   2  -1  -3  937.17   30.94
  -2   1   3  991.48   33.37
  -2   1   3  932.21   31.32
  -2   1   3  975.20   30.20
   1  -1  -3   52.99    3.75
   1  -1  -3   52.81    2.48
   1  -1  -3   51.90    4.25
   1  -1  -3   52.48    3.22
  -1   1   3   55.48    4.50
  -1   1   3   49.34    3.01
  -1   1   3   52.94    3.85
  -1   1   3   51.34    3.57
   0  -1  -3 2170.15   67.17
   0  -1  -3 2155.81   66.97
   0  -1  -3 2118.52   68.11
   0  -1  -3 2198.14   66.73
   0   1   3 2147.40   67.09
   0   1   3 2175.21   66.71
   0   1   3 2171.56   68.08
   0   1   3 2147.20   67.26
  -1  -1  -3  288.00   10.50
  -1  -1  -3  294.47   10.79
  -1  -1  -3  306.99   11.53
  -1  -1  -3  314.29   10.06
  -1  -1  -3  293.80   10.60
  -1  -1  -3  289.19   11.44
   1   1   3  302.26   10.20
   1   1   3  310.27   11.41
   1   1   3  303.41   11.10
  -2  -1  -3  291.44   10.98
  -2  -1  -3  278.67   10.23
  -2  -1  -3  290.01    9.76
  -2  -1  -3  285.47    9.71
   2   1   3  276.05   12.55
  -3  -1  -3   29.07    3.19
  -3  -1  -3   26.76    2.50
  -4  -1  -3   -0.14    1.54
  -4  -1  -3    4.50    1.97
  -5  -1  -3  929.85   31.74
  -5  -1  -3  904.84   31.82
  -6  -1  -3    1.62    2.14
  -7  -1  -3   50.61    6.09
  -8  -1  -3   64.06    7.53
  -9  -1  -3   14.02    4.86
 -10  -1  -3   33.12    6.62
 -11  -1  -3   48.10    8.25
 -10   2   3    3.87    5.16
  -9   2   3   -2.56    4.03
  -8   2   3   61.98    9.54
   7  -2  -3   83.51    7.19
  -7   2   3   59.28    8.93
   6  -2  -3    1.21    1.95
  -6   2   3    3.58    3.60
  -6   2   3    0.05    1.56
   5  -2  -3  155.11    9.43
   5  -2  -3  147.03    7.78
   5  -2  -3  146.69    6.91
  -5   2   3  140.62    7.32
  -5   2   3  139.33   10.47
   4  -2  -3  198.97    9.09
   4  -2  -3  190.56   10.64
   4  -2  -3  204.02    8.18
  -4   2   3  209.14    9.30
  -4   2   3  209.74   11.95
   3  -2  -3   72.99    4.71
   3  -2  -3   70.93    6.06
   3  -2  -3   73.32    3.85
  -3   2   3   80.25    3.72
  -3   2   3   64.54    4.86
  -3   2   3   65.90    6.37
   2  -2  -3  931.01   33.41
   2  -2  -3  971.11   30.49
   2  -2  -3  947.41   31.37
  -2   2   3  948.39   30.83
  -2   2   3  981.03   34.07
  -2   2   3  950.08   31.87
   1  -2  -3   -0.95    2.02
   1  -2  -3   -2.03    1.37
   1  -2  -3    1.43    1.30
   1  -2  -3    1.23    1.44
  -1   2   3    0.83    1.56
  -1   2   3   -0.45    1.45
  -1   2   3   -0.09    2.02
  -1   2   3   -0.11    1.15
   0  -2  -3 3080.03   95.76
   0  -2  -3 3054.50   95.11
   0  -2  -3 3082.65   97.07
   0  -2  -3 3116.14   95.73
   0   2   3 3094.13   95.73
   0   2   3 3130.47   95.18
   0   2   3 3125.53   96.99
   0   2   3 3025.65   95.85
  -2  -2  -3 2419.46   74.47
  -2  -2  -3 2396.28   75.25
  -2  -2  -3 2426.88   74.45
  -2  -2  -3 2428.27   76.01
  -2  -2  -3 2501.22   77.43
  -3  -2  -3  277.91   10.34
  -3  -2  -3  284.43    9.70
  -3  -2  -3  258.07   10.29
  -3  -2  -3  284.64   12.58
  -4  -2  -3  441.56   16.14
  -4  -2  -3  485.02   16.40
  -4  -2  -3  481.24   19.30
  -5  -2  -3   17.45    2.41
  -5  -2  -3   19.59    2.67
  -6  -2  -3  415.05   15.69
  -6  -2  -3  405.81   15.85
  -7  -2  -3  109.25    7.27
  -7  -2  -3  124.42    7.24
  -8  -2  -3   28.93    4.82
  -9  -2  -3   12.06    3.88
 -10  -2  -3   31.20    6.03
 -11  -2  -3   65.78    8.84
  -9   3   3    3.88    5.03
   8  -3  -3  406.20   19.19
  -8   3   3  446.01   24.76
   7  -3  -3   31.07    5.08
  -7   3   3   19.95    3.07
  -7   3   3   14.71    5.86
   6  -3  -3   29.08    4.00
   6  -3  -3   35.45    5.04
  -6   3   3   24.73    3.75
  -6   3   3   35.96    7.15
   5  -3  -3    6.82    2.41
   5  -3  -3    8.09    3.64
   5  -3  -3    8.55    2.81
  -5   3   3    5.74    3.89
  -5   3   3   12.87    3.07
   4  -3  -3  760.55   26.98
   4  -3  -3  752.86   29.58
   4  -3  -3  774.00   26.06
  -4   3   3  748.22   24.52
  -4   3   3  769.18   27.30
  -4   3   3  738.35   24.48
  -4   3   3  754.72   30.77
   3  -3  -3  781.25   26.63
   3  -3  -3  771.01   30.04
   3  -3  -3  787.63   27.44
  -3   3   3  806.00   28.02
  -3   3   3  784.52   30.77
  -3   3   3  788.95   26.30
   2  -3  -3   92.61    5.54
   2  -3  -3   84.94    6.99
   2  -3  -3   92.50    5.22
  -2   3   3   94.00    5.26
  -2   3   3   96.08    6.09
  -2   3   3   79.35    6.88
   1  -3  -3   34.91    3.47
   1  -3  -3   34.78    3.78
   1  -3  -3   37.90    3.78
   1  -3  -3   32.68    4.74
  -1   3   3   40.05    3.64
  -1   3   3   37.72    4.05
  -1   3   3   39.38    5.15
   0  -3  -3 1767.81   56.45
   0  -3  -3 1771.88   57.29
   0  -3  -3 1779.30   58.95
   0  -3  -3 1778.88   57.68
   0   3   3 1810.15   56.62
   0   3   3 1865.57   59.08
   0   3   3 1804.89   57.37
   0   3   3 1799.46   57.51
  -1  -3  -3   10.79    2.13
  -1  -3  -3   13.25    2.19
  -1  -3  -3    9.54    1.89
  -1  -3  -3   10.63    2.58
  -1  -3  -3   14.95    3.10
  -1  -3  -3   15.08    1.50
   1   3   3   10.67    1.69
   1   3   3    9.01    2.41
  -2  -3  -3  429.89   16.45
  -2  -3  -3  447.13   17.67
  -2  -3  -3  449.58   14.76
  -2  -3  -3  463.43   14.86
  -2  -3  -3  447.83   15.65
  -3  -3  -3    2.78    2.39
  -3  -3  -3    1.99    1.15
  -3  -3  -3    2.42    1.52
  -3  -3  -3    0.34    1.39
  -4  -3  -3  103.68    4.93
  -4  -3  -3   99.24    4.82
  -4  -3  -3  105.96    4.11
  -4  -3  -3  100.82    7.60
  -5  -3  -3 1507.81   44.70
  -5  -3  -3 1324.05   44.40
  -5  -3  -3 1407.67   49.37
  -6  -3  -3  226.03    8.94
  -6  -3  -3  220.50    9.07
  -6  -3  -3  231.12   13.15
  -7  -3  -3   70.50    4.88
  -7  -3  -3   63.25    4.49
  -8  -3  -3   51.43    5.17
  -8  -3  -3   57.71    5.64
  -9  -3  -3  201.31   10.89
 -10  -3  -3   14.92    4.07
 -11  -3  -3   43.96    6.73
   9  -4  -3   20.09    5.77
  -9   4   3   30.08    8.70
   8  -4  -3  308.97   16.47
  -8   4   3  324.53   21.70
  -8   4   3  292.27   12.64
   7  -4  -3   22.51    4.99
  -7   4   3   14.44    3.45
  -7   4   3   20.94    7.09
   6  -4  -3  103.30    9.10
  -6   4   3  102.12    7.65
  -6   4   3   88.91   11.54
   5  -4  -3   29.61    4.24
   5  -4  -3   28.15    4.73
   5  -4  -3   20.16    5.26
  -5   4   3   31.34    7.05
  -5   4   3   25.00    4.33
   4  -4  -3  460.33   18.45
   4  -4  -3  445.00   21.28
   4  -4  -3  460.18   17.81
  -4   4   3  440.34   16.42
  -4   4   3  459.12   18.85
  -4   4   3  443.37   22.13
   3  -4  -3  134.72    7.64
   3  -4  -3  118.75    9.40
   3  -4  -3  121.15    7.28
  -3   4   3  123.19    9.91
  -3   4   3  129.04    8.11
  -3   4   3  133.31    6.94
   2  -4  -3   97.79    7.90
   2  -4  -3   70.48    5.46
   2  -4  -3   78.64    5.55
  -2   4   3   76.99    8.37
  -2   4   3   75.07    6.04
  -2   4   3   77.25    5.28
   1  -4  -3  439.06   16.86
   1  -4  -3  424.13   15.95
   1  -4  -3  437.01   18.88
   1  -4  -3  430.03   16.97
  -1   4   3  414.75   15.90
  -1   4   3  389.91   18.60
   0  -4  -3   29.14    3.53
   0  -4  -3   26.22    4.45
   0  -4  -3   27.00    3.96
   0  -4  -3   27.96    3.04
   0   4   3   36.40    4.93
   0   4   3   28.29    3.14
   0   4   3   33.52    5.31
   0   4   3   40.09    4.36
  -1  -4  -3    3.53    2.39
  -1  -4  -3    0.92    1.57
  -1  -4  -3    0.44    2.34
  -1  -4  -3    3.56    1.85
  -1  -4  -3    2.71    1.17
   1   4   3    2.37    1.56
   1   4   3    2.84    2.31
  -2  -4  -3  780.76   25.48
  -2  -4  -3  779.96   26.59
  -2  -4  -3  751.45   27.64
  -2  -4  -3  776.96   25.52
  -2  -4  -3  759.34   28.81
   2   4   3  770.30   25.20
   2   4   3  865.44   27.67
  -3  -4  -3   35.32    3.10
  -3  -4  -3   31.71    4.97
  -3  -4  -3   35.25    3.76
  -4  -4  -3   76.68    3.93
  -4  -4  -3   81.22    7.23
  -4  -4  -3   77.27    4.63
  -4  -4  -3   88.71    4.76
  -5  -4  -3    6.65    3.61
  -5  -4  -3    3.16    1.38
  -5  -4  -3    2.68    1.30
  -6  -4  -3 1074.63   42.49
  -6  -4  -3 1169.42   36.73
  -6  -4  -3 1197.03   36.62
  -7  -4  -3  114.56    5.41
  -7  -4  -3  115.43    5.59
  -7  -4  -3  122.60   10.20
  -8  -4  -3   96.64    5.65
  -8  -4  -3   91.43    5.32
  -8  -4  -3   80.52    9.59
  -9  -4  -3   78.17    5.77
 -10  -4  -3   11.78    3.39
 -11  -4  -3   -2.60    2.47
   8  -5  -3  532.93   24.05
  -8   5   3  490.24   29.39
  -8   5   3  500.02   20.52
   7  -5  -3    3.90    3.75
  -7   5   3    7.61    5.34
  -7   5   3    0.75    2.54
   6  -5  -3   14.05    4.37
  -6   5   3   11.43    6.03
  -6   5   3    9.35    3.75
   5  -5  -3   14.52    3.87
   5  -5  -3   13.30    5.09
   5  -5  -3   12.09    3.51
  -5   5   3   20.53    4.48
  -5   5   3   18.20    2.59
  -5   5   3    8.49    4.91
   4  -5  -3   -1.33    2.19
   4  -5  -3   -2.47    3.37
   4  -5  -3   -0.30    2.24
  -4   5   3   -2.21    2.37
  -4   5   3   -1.14    3.34
  -4   5   3    1.74    1.88
   3  -5  -3  718.82   30.27
   3  -5  -3  710.68   26.39
   3  -5  -3  721.27   26.87
  -3   5   3  653.68   30.07
  -3   5   3  704.44   27.23
  -3   5   3  731.94   25.60
   2  -5  -3   32.48    5.97
   2  -5  -3   21.49    3.49
   2  -5  -3   33.56    4.61
  -2   5   3   20.35    5.14
  -2   5   3   26.03    4.46
  -2   5   3   26.64    3.90
   1  -5  -3  376.51   18.80
   1  -5  -3  407.48   15.77
   1  -5  -3  416.95   17.02
   1  -5  -3  401.60   17.13
  -1   5   3  440.43   17.20
  -1   5   3  341.20   18.38
  -1   5   3  409.43   15.88
   0  -5  -3 1230.18   41.35
   0  -5  -3 1223.95   42.79
   0  -5  -3 1221.91   44.07
   0  -5  -3 1251.04   40.15
   0  -5  -3 1232.22   41.55
   0   5   3 1213.75   41.67
   0   5   3 1242.72   40.76
   0   5   3 1204.81   43.62
  -1  -5  -3 2282.97   70.74
  -1  -5  -3 2263.27   72.59
  -1  -5  -3 2334.43   75.38
  -1  -5  -3 2279.25   72.77
  -1  -5  -3 2247.61   75.43
   1   5   3 2286.82   72.17
   1   5   3 2288.99   73.21
   1   5   3 2307.29   74.72
  -2  -5  -3 1348.71   48.23
  -2  -5  -3 1343.06   44.46
  -2  -5  -3 1394.46   47.46
  -2  -5  -3 1399.43   44.49
   2   5   3 1438.03   46.36
   2   5   3 1414.04   44.39
  -3  -5  -3   -0.66    1.45
  -3  -5  -3    2.16    2.01
  -3  -5  -3   -0.24    2.70
  -4  -5  -3    0.30    1.60
  -4  -5  -3    5.94    1.74
  -4  -5  -3    3.04    2.80
  -4  -5  -3    4.92    2.10
  -5  -5  -3 1128.52   42.67
  -5  -5  -3 1212.19   37.67
  -5  -5  -3 1113.81   36.49
  -5  -5  -3 1131.98   37.64
  -6  -5  -3   22.06    5.16
  -6  -5  -3   26.12    2.78
  -6  -5  -3   26.46    2.81
  -7  -5  -3  173.51   12.43
  -7  -5  -3  171.21    6.81
  -7  -5  -3  151.54    6.70
  -8  -5  -3   99.98    4.84
  -8  -5  -3   88.89    4.92
  -8  -5  -3   98.74   11.50
  -9  -5  -3  299.50   18.71
  -9  -5  -3  310.72   12.23
 -10  -5  -3  195.60    9.65
 -11  -5  -3   81.13    6.77
   7  -6  -3    0.09    3.55
  -7   6   3   14.43    7.22
  -7   6   3   -1.13    3.04
   6  -6  -3   15.38    4.63
  -6   6   3   16.58    7.04
  -6   6   3   19.03    4.85
   5  -6  -3   -1.52    2.76
   5  -6  -3   -2.34    2.69
  -5   6   3    0.13    1.93
  -5   6   3    1.79    4.67
  -5   6   3    1.80    3.27
   4  -6  -3  101.30    8.25
   4  -6  -3   89.45    8.31
   4  -6  -3   99.88   11.70
  -4   6   3   84.68    8.99
  -4   6   3   83.11   11.43
  -4   6   3   94.80    6.68
   3  -6  -3  254.34   12.93
   3  -6  -3  268.04   13.78
   3  -6  -3  266.98   16.69
  -3   6   3  260.81   14.06
  -3   6   3  229.99   16.34
  -3   6   3  259.14   12.32
   2  -6  -3  154.71   12.06
   2  -6  -3  139.06    9.68
   2  -6  -3  143.73    9.91
   2  -6  -3  145.38    8.76
  -2   6   3  137.80   11.58
  -2   6   3  166.27    8.96
  -2   6   3  131.24    9.63
   1  -6  -3   28.99    4.86
   1  -6  -3   21.81    3.63
   1  -6  -3   32.45    5.35
   1  -6  -3   25.36    5.82
  -1   6   3   31.98    5.22
  -1   6   3   28.77    5.84
  -1   6   3   32.96    4.40
   0  -6  -3  750.43   29.28
   0  -6  -3  734.40   25.79
   0  -6  -3  732.78   30.48
   0  -6  -3  730.55   27.30
   0  -6  -3  741.05   27.58
   0   6   3  745.18   26.78
   0   6   3  778.20   30.30
   0   6   3  761.50   28.05
  -1  -6  -3   75.09    5.70
  -1  -6  -3   78.20    4.11
  -1  -6  -3   83.29    8.71
  -1  -6  -3   87.76    6.11
  -1  -6  -3   79.69    8.60
   1   6   3   83.45    5.65
   1   6   3   76.91    8.02
   1   6   3   86.34    6.49
  -2  -6  -3   46.57    6.06
  -2  -6  -3   42.77    4.08
  -2  -6  -3   52.44    4.43
  -2  -6  -3   50.32    6.77
   2   6   3   51.84    5.63
   2   6   3   44.64    4.22
  -3  -6  -3   58.39    7.48
  -3  -6  -3   66.26    6.89
   3   6   3   52.80    3.65
  -4  -6  -3   75.85    5.25
  -4  -6  -3   65.13    8.35
  -4  -6  -3   78.95    6.22
  -5  -6  -3  729.70   25.54
  -5  -6  -3  680.32   24.14
  -5  -6  -3  690.18   25.52
  -5  -6  -3  747.12   30.40
  -6  -6  -3  583.30   18.77
  -6  -6  -3  536.97   25.36
  -6  -6  -3  489.80   19.46
  -6  -6  -3  562.54   19.99
  -7  -6  -3  100.60   11.20
  -7  -6  -3  105.51    5.61
  -7  -6  -3   99.50    4.60
  -7  -6  -3  101.96    5.63
  -8  -6  -3  211.58    7.98
  -8  -6  -3  165.64   13.55
  -8  -6  -3  151.04    7.35
  -9  -6  -3   64.62   10.18
 -10  -6  -3   16.80    6.23
 -10  -6  -3   14.25    2.73
 -11  -6  -3   51.82    4.84
   6  -7  -3   33.18    6.40
  -6   7   3   21.16    5.57
  -6   7   3   30.98    9.45
   5  -7  -3   17.83    4.96
  -5   7   3   13.50    6.95
  -5   7   3   16.33    3.60
  -5   7   3   16.56    5.59
   4  -7  -3   64.28    7.32
   4  -7  -3   85.56    9.42
   4  -7  -3   90.34   12.15
  -4   7   3   75.22    7.17
  -4   7   3   77.53    9.05
  -4   7   3   77.68   12.20
   3  -7  -3  300.38   15.01
   3  -7  -3  305.64   19.44
   3  -7  -3  322.22   17.14
   3  -7  -3  298.60   16.30
  -3   7   3  330.90   15.03
  -3   7   3  310.71   16.66
  -3   7   3  316.38   20.02
   2  -7  -3  116.10   10.15
   2  -7  -3  116.89    8.31
   2  -7  -3  114.01   12.79
   2  -7  -3  125.46    9.81
  -2   7   3  110.05    8.16
  -2   7   3  121.69   13.50
  -2   7   3  103.56   10.30
   1  -7  -3  112.29    9.52
   1  -7  -3  121.43    9.24
   1  -7  -3  127.59   11.56
   1  -7  -3  126.65    7.84
  -1   7   3  129.58    8.42
  -1   7   3  126.05   11.24
  -1   7   3  117.04   10.46
   0  -7  -3   59.66    6.62
   0  -7  -3   55.35    6.24
   0  -7  -3   47.09    4.64
   0  -7  -3   60.81    7.99
   0  -7  -3   56.62    8.02
   0   7   3   43.47    5.29
   0   7   3   51.00    7.76
   0   7   3   51.46    6.32
  -1  -7  -3  231.58    8.62
  -1  -7  -3  236.56   14.38
  -1  -7  -3  228.34    8.63
  -1  -7  -3  222.24   11.42
  -1  -7  -3  228.37   11.25
  -1  -7  -3  202.56   13.40
   1   7   3  227.97   12.08
   1   7   3  229.96   11.12
   1   7   3  273.21   14.24
  -2  -7  -3    1.35    2.69
  -2  -7  -3    1.19    3.19
  -2  -7  -3   -2.26    1.72
  -2  -7  -3   -1.02    1.57
   2   7   3   -0.03    1.82
   2   7   3   -1.26    2.26
  -3  -7  -3   13.49    4.78
  -3  -7  -3   13.25    1.91
  -3  -7  -3   11.88    1.88
  -3  -7  -3    9.90    3.70
   3   7   3    9.05    2.41
  -4  -7  -3   28.69    6.54
  -4  -7  -3   31.83    5.05
   4   7   3   32.99    3.14
  -5  -7  -3    6.39    2.73
  -5  -7  -3    8.03    4.44
  -5  -7  -3    2.60    2.06
  -5  -7  -3    4.39    2.72
  -6  -7  -3   15.76    3.38
  -6  -7  -3   13.82    4.14
  -6  -7  -3   11.84    4.97
  -6  -7  -3    9.80    2.45
  -7  -7  -3   -3.46    3.48
  -7  -7  -3   -0.14    1.48
  -7  -7  -3    1.04    1.98
  -8  -7  -3   17.41    2.99
  -8  -7  -3   14.96    2.23
  -8  -7  -3   20.08    6.01
  -9  -7  -3  227.45    9.74
  -9  -7  -3  214.17   16.57
 -10  -7  -3   15.44    2.70
 -10  -7  -3   10.21    5.74
 -11  -7  -3   64.95   11.53
   5  -8  -3   41.14    6.55
  -5   8   3   43.22    7.65
  -5   8   3   31.97    9.94
  -5   8   3   39.10    5.35
   4  -8  -3   12.62    4.46
   4  -8  -3   22.82    7.97
   4  -8  -3   21.86    5.90
  -4   8   3   22.52    4.74
  -4   8   3   30.26    8.94
  -4   8   3   20.79    5.92
   3  -8  -3  144.01   11.64
   3  -8  -3  162.45   16.80
   3  -8  -3  146.83   10.32
   3  -8  -3  140.32   12.62
  -3   8   3  145.75   10.04
  -3   8   3  155.67   16.52
  -3   8   3  143.10   13.04
   2  -8  -3    1.45    3.52
   2  -8  -3    2.72    2.96
   2  -8  -3    3.05    3.59
   2  -8  -3    0.62    4.83
  -2   8   3   -3.69    2.41
  -2   8   3   -5.82    2.89
  -2   8   3    0.16    4.47
   1  -8  -3  197.67   10.22
   1  -8  -3  184.84   14.83
   1  -8  -3  190.38   12.11
   1  -8  -3  187.70   13.16
  -1   8   3  174.11   12.24
  -1   8   3  194.99   11.16
  -1   8   3  161.60   13.66
   0  -8  -3   42.73    4.47
   0  -8  -3   21.87    6.33
   0  -8  -3   22.45    5.93
   0  -8  -3   42.54    6.19
   0   8   3   41.55    7.60
   0   8   3   24.86    4.56
  -1  -8  -3   16.24    3.79
  -1  -8  -3   10.92    3.21
  -1  -8  -3    9.89    4.88
  -1  -8  -3   15.05    5.17
   1   8   3   14.49    4.94
   1   8   3   14.52    3.64
  -2  -8  -3   22.28    3.61
  -2  -8  -3   18.13    5.42
  -2  -8  -3   20.15    3.66
  -2  -8  -3   13.66    4.79
   2   8   3   20.88    3.93
  -3  -8  -3    3.47    1.58
  -3  -8  -3    2.69    1.70
  -3  -8  -3    8.08    4.98
  -3  -8  -3   -2.70    2.72
   3   8   3    0.78    2.13
  -4  -8  -3  107.98    9.29
  -4  -8  -3   91.15   10.86
   4   8   3  108.77    6.91
  -5  -8  -3  271.10   17.45
  -5  -8  -3  283.83   14.97
  -6  -8  -3   -3.14    2.06
  -6  -8  -3   -1.84    3.75
  -7  -8  -3   38.70    4.41
  -7  -8  -3   45.38    8.97
  -7  -8  -3   42.86    5.58
  -8  -8  -3   38.46    4.93
  -8  -8  -3   31.32    7.73
  -9  -8  -3   34.84    8.41
  -9  -8  -3   37.24    3.77
  -9  -8  -3   43.44    4.87
 -10  -8  -3  383.57   23.68
 -10  -8  -3  364.41   13.80
 -10  -8  -3  397.01   15.13
   4  -9  -3   27.07    9.69
   4  -9  -3   32.31    6.32
  -4   9   3   29.31    9.50
  -4   9   3   22.35    6.92
  -4   9   3   23.61    5.28
   3  -9  -3  194.82   14.45
   3  -9  -3  185.24   11.91
   3  -9  -3  168.66   18.82
   3  -9  -3  203.29   14.41
  -3   9   3  183.97   16.98
  -3   9   3  179.89   14.06
  -3   9   3  191.30   12.16
   2  -9  -3   20.98    7.32
   2  -9  -3    7.40    3.43
   2  -9  -3    8.16    4.95
   2  -9  -3   15.15    5.40
  -2   9   3    9.81    6.37
  -2   9   3    6.02    3.65
   1  -9  -3    1.55    4.93
   1  -9  -3   -0.48    2.19
   1  -9  -3    2.65    4.08
   1  -9  -3    1.74    3.32
  -1   9   3   -0.15    2.90
  -1   9   3    4.97    4.73
   0  -9  -3   34.17    7.29
   0  -9  -3   48.50    6.88
   0  -9  -3   42.02    4.37
   0  -9  -3   34.95    8.09
   0   9   3   26.77    5.23
  -1  -9  -3   11.90    5.32
  -1  -9  -3   22.49    6.54
  -1  -9  -3   13.38    3.85
   1   9   3   14.85    4.00
  -2  -9  -3  324.78   14.66
  -2  -9  -3  296.65   14.03
  -2  -9  -3  345.44   19.67
  -2  -9  -3  343.70   19.90
   2   9   3  324.75   15.15
  -3  -9  -3   57.62    4.53
  -3  -9  -3   59.54    4.48
  -3  -9  -3   64.38   10.05
  -3  -9  -3   63.29    9.12
   3   9   3   69.92    6.66
  -4  -9  -3   65.92   10.13
  -4  -9  -3   54.49    8.01
  -5  -9  -3  935.71   37.01
  -5  -9  -3  926.02   40.46
  -6  -9  -3  349.46   17.69
  -6  -9  -3  338.70   20.99
  -7  -9  -3   43.41    9.01
  -7  -9  -3   49.51    6.67
  -8  -9  -3   68.91   10.91
  -8  -9  -3   84.35    7.40
  -9  -9  -3   99.73    6.59
  -9  -9  -3  109.98    8.04
  -9  -9  -3   97.17   13.94
 -10  -9  -3   65.42    5.11
 -10  -9  -3   41.01    9.57
 -10  -9  -3   62.81    6.21
   3 -10  -3   54.84    7.47
   3 -10  -3   61.79   10.32
   3 -10  -3   84.48   14.15
   3 -10  -3   65.01    9.83
  -3  10   3   51.06    7.21
   2 -10  -3   71.36    7.64
   2 -10  -3   61.42   11.96
   2 -10  -3   72.24   11.05
   2 -10  -3   77.54   10.20
  -2  10   3   59.19    8.00
   1 -10  -3   57.02    9.62
   1 -10  -3   63.35    6.43
   1 -10  -3   44.51   10.11
   1 -10  -3   61.52    8.76
  -1  10   3   60.64    7.80
   0 -10  -3  204.23   13.03
   0 -10  -3  178.39   16.28
   0 -10  -3  169.65   14.51
   0 -10  -3  192.93    8.48
   0  10   3  180.06   12.20
  -1 -10  -3   74.49   11.60
  -1 -10  -3   78.27    8.21
  -1 -10  -3   76.50   11.02
   1  10   3   86.13    8.60
  -2 -10  -3    5.59    3.15
  -2 -10  -3    5.18    5.19
  -2 -10  -3    4.65    5.12
  -2 -10  -3    6.34    3.07
   2  10   3    9.10    3.61
  -3 -10  -3   12.60    5.59
  -3 -10  -3   22.47    3.21
  -3 -10  -3   17.03    6.31
  -3 -10  -3   15.91    2.91
   3  10   3   25.31    4.86
  -4 -10  -3  111.75   12.18
  -4 -10  -3  107.75   13.88
  -5 -10  -3   97.18   11.39
  -5 -10  -3   95.67   12.70
  -6 -10  -3   39.59    9.41
  -6 -10  -3   40.83    7.05
  -7 -10  -3  126.48   15.51
  -7 -10  -3  135.80   10.82
  -8 -10  -3   26.14    5.57
  -8 -10  -3   19.70    7.77
  -9 -10  -3   30.07    5.65
  -9 -10  -3   18.41    7.69
   1 -11  -3   15.22    7.89
   1 -11  -3    9.43    5.96
   1 -11  -3   13.17    3.44
   1 -11  -3    7.42    4.97
  -1  11   3   10.30    4.69
   0 -11  -3   88.02   10.08
   0 -11  -3  111.30   15.84
   0 -11  -3  105.42   13.61
   0  11   3   91.83   10.04
  -1 -11  -3   12.61    6.66
  -1 -11  -3   16.24    4.57
  -1 -11  -3   21.64    7.72
   1  11   3   10.58    4.42
  -2 -11  -3  410.50   24.81
  -2 -11  -3  354.31   22.94
  -2 -11  -3  403.96   17.50
  -2 -11  -3  357.83   16.74
   2  11   3  359.26   18.45
  -3 -11  -3   54.37    4.71
  -3 -11  -3   61.13    4.59
  -3 -11  -3   42.87    9.05
  -3 -11  -3   48.80    9.99
   3  11   3   45.88    6.70
  -4 -11  -3  129.50   14.46
  -4 -11  -3  118.25   14.57
  -5 -11  -3  600.78   32.03
  -5 -11  -3  570.59   28.64
  -6 -11  -3  178.36   14.04
  -6 -11  -3  181.78   19.33
  -7 -11  -3   13.89    6.92
  -7 -11  -3   25.73    6.57
  -8 -11  -3   72.08    9.42
  -8 -11  -3   52.66   11.04
  -1 -12  -3   24.29    8.96
  -1 -12  -3   27.21    5.81
  -2 -12  -3  157.12   17.68
  -2 -12  -3  134.74   16.88
  -2 -12  -3  124.86    9.24
   2  12   3  149.79   12.91
  -3 -12  -3   19.07    8.10
  -3 -12  -3   17.51    2.69
  -3 -12  -3   26.60    8.60
  -3 -12  -3   25.57    2.94
   3  12   3   26.09    6.22
  -4 -12  -3   22.26    7.67
  -4 -12  -3   21.10    8.44
  -5 -12  -3    2.17    4.76
  -5 -12  -3    4.28    6.04
  -6 -12  -3    6.10    6.65
  -6 -12  -3    1.29    4.55
  -6 -11   4   26.31    7.18
  -6 -11   4   13.51    7.60
  -5 -11   4    0.26    4.15
  -5 -11   4   13.57    7.58
  -4 -11   4  252.30   18.69
  -4 -11   4  233.43   19.61
   3  11  -4  187.31   12.73
  -3 -11   4  155.18   17.45
  -3 -11   4  168.52   18.85
   2  11  -4   20.13    5.51
  -2 -11   4   17.50    3.70
  -2 -11   4   24.21    3.92
  -2 -11   4   16.00    7.72
  -2 -11   4   12.68    7.25
   1  11  -4    3.74    4.29
  -1 -11   4   16.71    8.06
  -1 -11   4   11.18    3.96
  -1 -11   4   13.21    7.43
   0  11  -4    8.00    4.78
   0 -11   4   20.87    8.50
   0 -11   4    7.71    6.86
   0 -11   4   17.47    5.22
  -8 -10   4   -4.06    3.02
  -8 -10   4   -1.39    2.68
  -8 -10   4    2.78    5.31
  -7 -10   4    2.08    4.90
  -7 -10   4    9.63    4.68
  -7 -10   4   12.97    4.32
  -6 -10   4   12.43    6.67
  -6 -10   4   11.09    5.16
  -5 -10   4   42.39    8.03
  -5 -10   4   33.16    8.93
  -4 -10   4   63.99   10.20
  -4 -10   4   56.88   11.16
   3  10  -4   44.69    6.57
  -3 -10   4   41.81    8.89
  -3 -10   4   38.03    8.96
   2  10  -4   51.83    7.11
  -2 -10   4   53.99    5.62
  -2 -10   4   45.55    9.42
  -2 -10   4   42.22    4.91
  -2 -10   4   36.93    9.04
   1  10  -4  239.36   13.96
  -1 -10   4  221.81   12.77
  -1 -10   4  248.83   19.02
  -1 -10   4  220.25   18.51
   0  10  -4  102.00   10.43
   0 -10   4   85.33   13.35
   0 -10   4   91.76   13.72
  -1  10  -4    3.71    3.71
   1 -10   4    6.96    5.94
   1 -10   4    5.54    6.09
   1 -10   4    2.25    2.09
  -2  10  -4    1.74    3.59
   2 -10   4   -5.07    4.59
   2 -10   4   -2.39    5.74
   2 -10   4   -0.13    2.55
   2 -10   4    1.26    6.24
  -3  10  -4   11.56    4.63
   3 -10   4   23.22    9.25
   3 -10   4    4.87    3.79
   3 -10   4    0.76    6.17
  -9  -9   4   86.53    8.10
  -9  -9   4   81.19   12.61
  -9  -9   4   78.33    7.35
  -8  -9   4   35.24    6.22
  -8  -9   4   48.87   10.18
  -8  -9   4   37.02    5.30
  -7  -9   4  142.47    9.93
  -7  -9   4  169.75   11.71
  -7  -9   4  148.21   15.99
  -6  -9   4  162.48   12.65
  -6  -9   4  191.30   11.73
  -6  -9   4  211.99   16.60
  -5  -9   4   85.94   10.26
  -5  -9   4   84.96    8.86
  -5  -9   4   73.10   11.12
  -4  -9   4  435.03   22.07
  -4  -9   4  351.31   22.31
   3   9  -4  563.28   22.87
  -3  -9   4  569.58   27.99
  -3  -9   4  599.53   29.77
   2   9  -4  128.19    9.00
  -2  -9   4  119.92    7.36
  -2  -9   4  100.13   12.27
  -2  -9   4  133.77   14.80
  -2  -9   4  101.50    7.04
   1   9  -4    8.12    3.55
  -1  -9   4   12.53    5.71
  -1  -9   4    6.57    3.20
  -1  -9   4    2.99    5.06
  -1  -9   4    4.82    3.22
   0   9  -4    6.16    3.76
   0  -9   4    7.46    5.71
   0  -9   4    9.99    6.18
  -1   9  -4   62.43    7.79
   1  -9   4   64.99   11.25
   1  -9   4   62.23    5.79
   1  -9   4   56.60   11.18
  -2   9  -4   14.41    4.69
   2  -9   4   27.83    4.69
   2  -9   4   20.66    7.93
   2  -9   4   25.77    7.75
  -3   9  -4    4.79    5.88
  -3   9  -4   -0.94    3.09
   3  -9   4   -1.24    4.31
   3  -9   4    0.82    6.04
   3  -9   4   -1.55    2.51
   3  -9   4   -4.57    4.84
  -4   9  -4   81.64   14.34
  -4   9  -4   83.72   11.22
  -4   9  -4   83.19    8.68
   4  -9   4   67.82   11.56
   4  -9   4   52.52    7.58
   4  -9   4   72.07   13.27
  -9  -8   4   27.18    7.82
  -9  -8   4   31.33    4.32
  -9  -8   4   66.55    6.99
  -8  -8   4    6.08    3.09
  -8  -8   4   14.30    3.36
  -8  -8   4   14.18    6.10
  -7  -8   4   -0.35    2.73
  -7  -8   4   -0.78    3.95
  -7  -8   4    1.61    2.31
  -6  -8   4    8.11    3.79
  -6  -8   4    2.59    2.63
  -6  -8   4    5.43    4.97
  -5  -8   4    4.94    4.68
  -5  -8   4    1.61    3.30
  -5  -8   4    0.78    2.37
  -4  -8   4   92.60   11.31
  -4  -8   4   71.69    9.15
  -4  -8   4   82.12    8.11
   3   8  -4  198.14   10.49
  -3  -8   4  218.36   15.84
  -3  -8   4  207.09   14.13
   2   8  -4    7.58    2.92
  -2  -8   4    3.48    2.28
  -2  -8   4   -3.99    3.61
  -2  -8   4    4.80    2.25
  -2  -8   4    2.03    3.80
   1   8  -4  244.13   12.26
  -1  -8   4  228.05   16.07
  -1  -8   4  222.32   16.20
  -1  -8   4  218.10   11.66
   0   8  -4   38.50    5.48
   0   8  -4   42.45   11.64
   0  -8   4   44.31    8.50
   0  -8   4   48.50    3.68
   0  -8   4   26.86    7.17
  -1   8  -4   21.22    4.70
  -1   8  -4   31.23    7.55
   1  -8   4   33.84    4.37
   1  -8   4   34.83    8.28
   1  -8   4   41.50    8.43
  -2   8  -4   94.86    8.96
  -2   8  -4  136.30   15.25
   2  -8   4   98.41    7.68
   2  -8   4  114.88   14.72
   2  -8   4   92.19   12.14
  -3   8  -4   20.70    5.51
  -3   8  -4   22.22    7.59
  -3   8  -4   10.76    4.08
   3  -8   4   14.81    5.92
   3  -8   4   15.42    7.08
   3  -8   4   11.74    3.95
   3  -8   4   16.26    6.88
  -4   8  -4   10.89    3.68
  -4   8  -4   13.35    5.31
  -4   8  -4    7.22    6.80
   4  -8   4   10.21    6.83
   4  -8   4   16.63    6.97
   4  -8   4   14.31    7.24
   4  -8   4    9.31    3.95
  -5   8  -4   -2.56    5.73
  -5   8  -4    2.38    2.94
  -5   8  -4    0.29    3.97
   5  -8   4    6.48    4.13
   5  -8   4    1.79    5.21
 -10  -7   4   88.82   11.77
 -10  -7   4  104.26    6.57
 -10  -7   4  103.75    7.77
  -9  -7   4   30.84    4.75
  -9  -7   4   37.19    4.10
  -9  -7   4   49.17    8.75
  -8  -7   4    2.37    2.73
  -8  -7   4    1.79    1.92
  -8  -7   4    4.01    4.21
  -7  -7   4  264.49   11.56
  -7  -7   4  233.02   16.06
  -7  -7   4  237.10   12.54
  -6  -7   4    6.90    4.46
  -6  -7   4    6.91    2.44
  -6  -7   4    8.53    3.28
  -5  -7   4   78.85    6.94
  -5  -7   4   71.77    7.90
  -5  -7   4   53.42    8.37
  -4  -7   4  115.24    8.15
  -4  -7   4   99.90   11.47
  -4  -7   4  128.35    9.68
   3   7  -4 1459.85   48.06
  -3  -7   4 1420.49   52.54
  -3  -7   4 1473.05   54.89
  -3  -7   4 1515.95   50.93
   2   7  -4   11.16    2.95
  -2  -7   4    9.14    4.00
  -2  -7   4   10.25    2.50
  -2  -7   4   10.45    5.11
  -2  -7   4    7.89    2.45
  -2  -7   4    5.09    3.21
   1   7  -4  324.42   14.27
   1   7  -4  315.67   16.47
  -1  -7   4  334.38   18.63
  -1  -7   4  318.31   14.14
  -1  -7   4  297.69   17.79
   0   7  -4    9.87    3.17
   0   7  -4    3.22    3.77
   0   7  -4   13.83    4.85
   0  -7   4   10.34    3.26
   0  -7   4   11.51    5.36
   0  -7   4    9.56    4.76
   0  -7   4   10.04    2.29
  -1   7  -4   11.92    5.09
  -1   7  -4    9.96    3.20
  -1   7  -4    9.73    3.79
   1  -7   4   12.14    5.57
   1  -7   4    7.42    4.84
   1  -7   4   11.80    2.87
  -2   7  -4  496.84   25.28
  -2   7  -4  499.13   20.56
  -2   7  -4  482.56   21.98
   2  -7   4  481.98   25.76
   2  -7   4  503.13   19.94
   2  -7   4  442.38   24.30
  -3   7  -4  118.18    8.83
  -3   7  -4  124.88   14.25
  -3   7  -4  115.39   11.04
   3  -7   4  113.00   12.68
   3  -7   4  115.33    8.78
   3  -7   4  142.83   15.62
  -4   7  -4   30.50    5.09
  -4   7  -4   37.43    9.00
  -4   7  -4   33.77    6.38
   4  -7   4   41.52    9.05
   4  -7   4   30.76    8.24
   4  -7   4   21.76    6.68
   4  -7   4   35.00    5.78
  -5   7  -4  596.02   23.70
  -5   7  -4  577.22   31.95
  -5   7  -4  617.48   27.19
   5  -7   4  576.87   32.29
   5  -7   4  633.34   26.13
   5  -7   4  609.89   30.14
  -6   7  -4   44.06    5.17
  -6   7  -4   60.39    8.77
  -6   7  -4   74.74   12.99
   6  -7   4   46.63    7.31
   6  -7   4   52.51    9.82
 -10  -6   4   17.04    6.17
 -10  -6   4   11.32    2.87
 -10  -6   4   24.41    4.22
  -9  -6   4   -0.60    2.29
  -9  -6   4    1.83    1.81
  -9  -6   4   -0.45    3.31
  -8  -6   4   19.43    5.63
  -8  -6   4   32.58    3.59
  -8  -6   4   33.23    4.54
  -7  -6   4  210.96    9.53
  -7  -6   4  194.51   13.76
  -7  -6   4  230.30   11.17
  -6  -6   4   49.14    5.54
  -6  -6   4   42.34    7.19
  -6  -6   4   40.02    4.27
  -5  -6   4   43.87    7.73
  -5  -6   4   34.45    6.31
  -5  -6   4   41.54    5.31
  -5  -6   4   41.51    4.61
  -4  -6   4   17.89    5.06
  -4  -6   4    8.06    3.20
  -4  -6   4   11.85    2.93
   3   6  -4  928.94   30.00
  -3  -6   4  869.75   33.86
  -3  -6   4  891.95   32.20
  -3  -6   4  913.60   35.97
   2   6  -4   81.29    7.07
   2   6  -4   72.24    5.24
  -2  -6   4   69.77    8.69
  -2  -6   4   82.31    7.65
  -2  -6   4   85.15    7.87
  -2  -6   4   78.54    4.93
   1   6  -4   99.42    6.62
   1   6  -4  106.62    8.30
   1   6  -4  104.04    6.70
  -1  -6   4  118.48    9.97
  -1  -6   4  107.65    6.83
  -1  -6   4  110.94    8.06
  -1  -6   4   91.39    8.83
   0   6  -4  184.30   12.16
   0   6  -4  203.49   11.10
   0   6  -4  188.74    9.94
   0  -6   4  191.85    8.51
   0  -6   4  192.63   13.08
   0  -6   4  201.38   10.49
   0  -6   4  208.90   13.32
  -1   6  -4  322.73   17.68
  -1   6  -4  344.48   14.72
  -1   6  -4  340.65   15.93
   1  -6   4  314.15   13.67
   1  -6   4  345.16   18.74
   1  -6   4  324.96   18.24
   1  -6   4  322.07   15.27
  -2   6  -4   59.62    8.84
  -2   6  -4   50.82    6.85
  -2   6  -4   46.63    5.62
   2  -6   4   40.32    7.70
   2  -6   4   48.31    5.52
   2  -6   4   44.79    7.95
  -3   6  -4  947.01   39.70
  -3   6  -4  944.08   35.83
  -3   6  -4  960.96   34.11
   3  -6   4  904.68   39.69
   3  -6   4  966.18   38.97
   3  -6   4  944.90   34.34
  -4   6  -4  198.48   11.05
  -4   6  -4  204.27   16.06
  -4   6  -4  212.72   13.13
   4  -6   4  216.19   15.10
   4  -6   4  198.55   15.27
   4  -6   4  235.05   16.63
   4  -6   4  215.71   12.08
  -5   6  -4   70.97   11.38
  -5   6  -4   70.86    6.57
  -5   6  -4   75.83    8.49
   5  -6   4   53.95    9.36
   5  -6   4   54.57    7.21
   5  -6   4   73.87   11.10
   5  -6   4   56.21   10.00
  -6   6  -4  295.10   21.22
  -6   6  -4  329.63   17.00
  -6   6  -4  279.83   12.05
   6  -6   4  275.36   15.75
   6  -6   4  254.13   18.14
  -7   6  -4   60.80   12.14
  -7   6  -4   62.46    8.31
   7  -6   4   51.57    9.51
   7  -6   4   81.22    9.23
 -10  -5   4   41.43    4.54
 -10  -5   4   45.62    5.74
  -9  -5   4  195.98   10.26
  -9  -5   4  199.07   13.30
  -9  -5   4  180.10    8.77
  -8  -5   4   45.03    4.26
  -8  -5   4   60.45    5.41
  -8  -5   4   65.64    8.49
  -7  -5   4  200.97   10.38
  -7  -5   4  243.76    9.59
  -7  -5   4  243.31   14.12
  -6  -5   4   10.39    4.15
  -6  -5   4    5.88    2.44
  -6  -5   4   10.24    2.83
  -6  -5   4    5.63    1.93
  -5  -5   4  598.32   23.97
  -5  -5   4  671.49   24.11
  -5  -5   4  687.61   22.98
  -5  -5   4  659.05   27.14
  -4  -5   4    7.95    2.25
  -4  -5   4   12.89    3.16
  -4  -5   4   11.65    3.09
  -4  -5   4   11.47    4.13
   3   5  -4   90.07    4.26
  -3  -5   4   94.99    6.11
  -3  -5   4   67.45    7.72
  -3  -5   4   76.68    6.56
   2   5  -4  375.49   14.13
  -2  -5   4  390.12   13.98
  -2  -5   4  341.41   16.73
  -2  -5   4  429.88   16.26
  -2  -5   4  399.17   18.37
   1   5  -4   29.22    3.52
   1   5  -4   32.29    4.75
  -1  -5   4   27.47    4.13
  -1  -5   4   35.84    6.06
  -1  -5   4   22.77    3.31
  -1  -5   4   29.02    5.17
   0   5  -4  485.22   18.29
   0   5  -4  462.07   20.64
   0   5  -4  482.58   19.26
   0  -5   4  470.53   21.71
   0  -5   4  471.80   21.51
   0  -5   4  490.87   18.89
   0  -5   4  490.08   17.10
  -1   5  -4   11.56    2.88
  -1   5  -4   14.71    4.14
  -1   5  -4    8.86    2.87
   1  -5   4   12.41    4.18
   1  -5   4   11.27    2.70
   1  -5   4   16.59    4.67
  -2   5  -4  241.40   12.87
  -2   5  -4  251.27   15.13
  -2   5  -4  264.06   12.06
   2  -5   4  270.66   15.34
   2  -5   4  279.40   12.11
   2  -5   4  236.06   14.85
  -3   5  -4  126.64   11.20
  -3   5  -4  127.46    9.23
  -3   5  -4  123.73    7.89
   3  -5   4  136.24    8.46
   3  -5   4  120.68   11.18
   3  -5   4  149.25   11.38
  -4   5  -4   16.47    4.36
  -4   5  -4   31.43    7.32
  -4   5  -4   32.12    4.51
   4  -5   4   19.61    4.09
   4  -5   4   23.22    6.26
   4  -5   4   20.71    5.80
  -5   5  -4 1678.32   62.48
  -5   5  -4 1680.12   53.83
  -5   5  -4 1624.53   56.85
   5  -5   4 1644.79   56.28
   5  -5   4 1600.36   60.68
   5  -5   4 1624.96   61.51
  -6   5  -4   76.08    8.31
  -6   5  -4   81.26    4.77
  -6   5  -4   65.35   10.96
   6  -5   4   69.30    7.88
  -7   5  -4   17.62    5.00
  -7   5  -4   17.64    7.39
   7  -5   4   18.88    5.09
  -8   5  -4   32.78    9.84
  -8   5  -4   40.38    5.97
   8  -5   4   35.14    6.90
 -10  -4   4  123.37    7.67
 -10  -4   4  115.17    8.89
  -9  -4   4   16.92    3.09
  -9  -4   4   19.54    5.12
  -9  -4   4   20.70    4.17
  -8  -4   4   90.65    6.67
  -8  -4   4   91.27    9.28
  -8  -4   4   96.32    5.72
  -7  -4   4    2.62    2.25
  -7  -4   4    5.44    2.49
  -7  -4   4    4.96    1.77
  -7  -4   4    4.23    3.22
  -6  -4   4    5.90    3.19
  -6  -4   4    6.49    2.33
  -6  -4   4    4.84    2.15
  -6  -4   4    9.05    1.93
  -5  -4   4   27.23    3.61
  -5  -4   4   32.33    3.83
  -5  -4   4   23.03    4.49
  -5  -4   4   24.86    2.83
  -4  -4   4    3.28    1.56
  -4  -4   4    5.19    2.21
  -4  -4   4   -0.83    2.18
  -4  -4   4    0.70    1.82
  -3  -4   4 1223.85   42.84
  -3  -4   4 1145.18   41.07
  -3  -4   4 1269.11   39.99
   2   4  -4  506.35   16.86
  -2  -4   4  489.01   18.50
  -2  -4   4  514.64   16.84
  -2  -4   4  510.26   20.88
  -2  -4   4  455.07   19.56
   1   4  -4  125.70    7.67
   1   4  -4  109.04    5.91
  -1  -4   4  109.46    6.89
  -1  -4   4  129.20    6.52
  -1  -4   4  125.41    8.13
  -1  -4   4  123.42    8.65
   0   4  -4 1133.77   37.80
   0   4  -4 1154.51   37.84
   0   4  -4 1140.77   40.40
   0   4  -4 1117.41   38.74
   0  -4   4 1167.33   39.47
   0  -4   4 1141.92   36.96
   0  -4   4 1142.59   40.98
   0  -4   4 1170.67   41.35
   0  -4   4 1130.35   38.37
  -1   4  -4  355.51   16.71
  -1   4  -4  347.65   14.90
  -1   4  -4  353.60   14.06
   1  -4   4  339.86   16.82
   1  -4   4  360.49   13.83
  -2   4  -4  515.04   20.09
  -2   4  -4  518.08   22.49
  -2   4  -4  487.71   18.85
   2  -4   4  492.72   18.87
   2  -4   4  502.26   22.49
  -3   4  -4  911.88   32.20
  -3   4  -4  876.48   30.58
  -3   4  -4  870.88   35.12
   3  -4   4  873.63   31.13
   3  -4   4  889.25   35.08
  -4   4  -4   15.88    3.91
  -4   4  -4   21.43    3.28
  -4   4  -4   17.18    5.35
   4  -4   4   18.57    5.47
   4  -4   4   22.82    3.96
  -5   4  -4    2.75    1.83
  -5   4  -4    2.75    4.30
  -5   4  -4    2.94    2.72
   5  -4   4    3.27    2.73
   5  -4   4   -0.45    3.27
   5  -4   4    4.16    3.65
  -6   4  -4  898.73   38.64
  -6   4  -4  849.95   32.64
   6  -4   4  893.12   32.97
  -7   4  -4  212.03   11.97
  -7   4  -4  226.64   17.06
   7  -4   4  204.82   12.50
  -8   4  -4   99.82   13.99
  -8   4  -4  122.83    8.42
   8  -4   4  117.07   10.87
  -9   4  -4    5.57    2.39
  -9   4  -4    6.40    2.42
  -9   4  -4   -3.68    5.21
   9  -4   4    5.21    3.96
 -11  -3   4  371.58   19.62
 -10  -3   4   78.79    8.84
  -9  -3   4  400.94   18.31
  -8  -3   4  183.75   10.50
  -8  -3   4  196.81   11.31
  -7  -3   4  612.78   24.41
  -7  -3   4  623.19   23.42
  -7  -3   4  612.01   26.27
  -6  -3   4   16.15    3.69
  -6  -3   4   22.43    3.51
  -6  -3   4   22.48    3.37
  -6  -3   4   22.73    2.74
  -5  -3   4  810.31   28.29
  -5  -3   4  830.24   29.99
  -5  -3   4  814.97   27.07
  -5  -3   4  819.83   28.34
  -4  -3   4  149.01    7.56
  -4  -3   4  153.68    8.75
  -4  -3   4  148.39    7.54
  -4  -3   4  144.41    6.62
  -3  -3   4 1380.72   46.45
  -3  -3   4 1364.51   44.05
   2   3  -4   80.45    3.66
  -2  -3   4   73.36    6.00
  -2  -3   4   81.09    3.76
  -2  -3   4   77.90    4.89
  -2  -3   4   78.18    5.71
   1   3  -4   86.47    5.94
   1   3  -4   91.80    4.64
  -1  -3   4   80.76    4.73
  -1  -3   4   85.23    6.64
  -1  -3   4   87.12    5.47
  -1  -3   4   89.37    6.41
   0   3  -4   27.16    3.43
   0   3  -4   32.26    4.63
   0   3  -4   31.64    3.20
   0  -3   4   30.26    2.85
   0  -3   4   28.56    3.59
   0  -3   4   30.08    4.45
   0  -3   4   30.33    4.31
   0  -3   4   26.72    3.26
  -1   3  -4  516.93   19.23
  -1   3  -4  508.83   20.89
  -1   3  -4  504.32   18.30
   1  -3   4  507.30   18.22
   1  -3   4  521.72   21.16
   1  -3   4  511.89   19.68
  -2   3  -4   81.84    7.34
  -2   3  -4   75.36    5.74
  -2   3  -4   82.62    5.19
   2  -3   4   75.38    6.95
   2  -3   4   79.36    5.26
  -3   3  -4  332.94   14.14
  -3   3  -4  332.04   16.61
  -3   3  -4  321.08   12.83
   3  -3   4  320.35   15.98
   3  -3   4  321.78   13.44
  -4   3  -4   29.38    6.14
  -4   3  -4   28.08    4.14
  -4   3  -4   31.04    3.33
   4  -3   4   31.75    5.82
  -5   3  -4  513.39   17.78
  -5   3  -4  552.45   17.90
  -5   3  -4  511.70   24.70
  -5   3  -4  539.54   21.00
   5  -3   4  510.52   23.76
   5  -3   4  533.34   23.49
   5  -3   4  547.10   20.81
  -6   3  -4   -0.21    2.30
  -6   3  -4    1.77    4.18
   6  -3   4   -2.59    2.30
  -7   3  -4   68.58    6.35
  -7   3  -4   82.36   11.14
   7  -3   4   80.57    7.85
  -8   3  -4   -1.46    1.84
  -8   3  -4    2.91    2.24
  -8   3  -4   -0.17    4.48
   8  -3   4   -2.16    2.74
  -9   3  -4   52.97   10.27
   9  -3   4   44.45    7.09
 -10  -2   4   90.34   10.02
  -9  -2   4   20.33    4.91
  -8  -2   4   -1.10    2.55
  -7  -2   4 1390.09   48.92
  -7  -2   4 1474.80   48.48
  -6  -2   4  559.30   21.39
  -6  -2   4  555.00   21.42
  -6  -2   4  561.48   21.16
  -5  -2   4  668.40   24.77
  -5  -2   4  687.47   24.84
  -5  -2   4  710.42   24.79
  -4  -2   4 1861.76   61.36
  -4  -2   4 1873.54   61.17
  -4  -2   4 1971.24   61.28
  -4  -2   4 1912.95   60.00
  -3  -2   4 2761.48   88.35
  -3  -2   4 2791.53   88.15
  -3  -2   4 2851.03   87.11
  -2  -2   4    5.23    1.64
  -2  -2   4    3.20    1.10
  -2  -2   4    5.72    2.09
  -2  -2   4    8.79    2.45
   1   2  -4   50.76    4.31
   1   2  -4   57.14    3.26
  -1  -2   4   58.91    4.81
  -1  -2   4   50.35    3.55
  -1  -2   4   48.61    4.96
  -1  -2   4   53.22    3.94
   0   2  -4   27.16    3.82
   0   2  -4   30.65    2.87
   0   2  -4   29.46    3.31
   0  -2   4   26.44    3.68
   0  -2   4   22.76    2.29
   0  -2   4   20.49    2.79
   0  -2   4   20.72    2.66
  -1   2  -4  661.98   24.37
  -1   2  -4  655.70   22.11
  -1   2  -4  651.81   22.80
   1  -2   4  641.89   23.13
   1  -2   4  641.56   21.99
   1  -2   4  652.82   24.38
  -2   2  -4  582.14   22.92
  -2   2  -4  586.06   21.05
  -2   2  -4  592.12   20.13
   2  -2   4  555.30   20.23
   2  -2   4  602.25   22.91
  -3   2  -4  527.91   19.33
  -3   2  -4  528.69   18.04
   3  -2   4  489.22   18.63
   3  -2   4  519.73   21.22
  -4   2  -4  653.08   23.70
  -4   2  -4  673.32   26.93
  -4   2  -4  633.96   21.66
   4  -2   4  655.56   23.41
   4  -2   4  687.48   26.34
  -5   2  -4  358.92   14.67
  -5   2  -4  366.44   18.15
   5  -2   4  352.35   14.62
   5  -2   4  363.10   17.17
   5  -2   4  348.91   16.60
  -6   2  -4   37.76    4.28
  -6   2  -4   35.47    6.97
   6  -2   4   39.94    4.82
   6  -2   4   39.37    6.51
  -7   2  -4    2.59    4.13
  -7   2  -4    4.36    2.09
  -7   2  -4    5.52    2.09
   7  -2   4    1.52    2.46
  -8   2  -4   99.74   12.06
   8  -2   4  155.18    9.48
  -9   2  -4   76.69   11.05
 -10   2  -4   15.30    6.11
 -10  -1   4   44.91    8.11
  -9  -1   4  274.26   16.08
  -8  -1   4  789.38   31.61
  -7  -1   4  867.86   32.96
  -6  -1   4  612.64   24.18
  -5  -1   4  705.10   24.15
  -5  -1   4  698.73   26.02
  -4  -1   4  125.66    7.46
  -4  -1   4  140.03    6.43
  -3  -1   4   82.20    5.37
  -3  -1   4   74.75    4.32
  -3  -1   4   66.75    4.34
   2   1  -4  366.69   11.90
  -2  -1   4  357.82   14.03
  -2  -1   4  347.27   13.14
  -2  -1   4  364.27   13.22
   1   1  -4    7.44    2.28
   1   1  -4    9.29    1.53
  -1  -1   4    9.26    1.07
  -1  -1   4   12.28    2.49
  -1  -1   4    9.66    1.12
  -1  -1   4   14.19    2.04
  -1  -1   4    9.23    1.90
   0   1  -4 1879.93   61.14
   0   1  -4 1907.72   59.42
   0   1  -4 1912.15   59.99
   0  -1   4 1924.43   60.28
   0  -1   4 1922.58   59.27
   0  -1   4 1889.29   60.52
   0  -1   4 1898.47   61.28
  -1   1  -4   54.78    3.66
  -1   1  -4   63.44    4.27
  -1   1  -4   66.49    5.26
   1  -1   4   57.80    4.30
   1  -1   4   55.43    4.79
   1  -1   4   65.23    3.78
  -2   1  -4  124.60    6.20
  -2   1  -4  108.54    5.29
   2  -1   4  109.84    7.02
   2  -1   4  125.30    5.73
  -3   1  -4   -1.47    1.31
  -3   1  -4   -0.38    0.86
  -3   1  -4    1.40    2.13
  -3   1  -4    3.79    1.86
   3  -1   4   -0.91    1.10
   3  -1   4    1.68    1.91
  -4   1  -4 1210.61   43.65
  -4   1  -4 1269.11   42.11
  -4   1  -4 1234.32   40.67
   4  -1   4 1274.08   40.56
   4  -1   4 1250.02   42.94
  -5   1  -4  303.24   12.06
  -5   1  -4  292.83   11.90
  -5   1  -4  310.09   15.37
   5  -1   4  297.50   13.73
   5  -1   4  314.64   14.20
   5  -1   4  299.28   12.10
  -6   1  -4    6.70    1.81
  -6   1  -4    5.72    1.78
  -6   1  -4    8.14    3.77
  -7   1  -4  193.98   13.33
   7  -1   4  197.32    9.82
  -8   1  -4    1.36    3.81
  -9   1  -4  147.21   12.96
 -10   1  -4   39.75    8.64
 -10   0   4    1.93    4.22
  -9   0   4   15.24    5.33
  -8   0   4  262.67   15.72
  -7   0   4 1380.59   49.89
   6   0  -4  155.21    6.99
  -6   0   4  150.87   10.21
   5   0  -4 2217.17   68.91
  -5   0   4 2211.24   73.07
   4   0  -4  616.25   20.62
  -4   0   4  645.17   24.15
   3   0  -4  126.72    5.30
  -3   0   4  126.12    4.64
  -3   0   4  127.30    6.52
  -3   0   4  118.26    7.32
   2   0  -4 2166.48   69.39
   2   0  -4 2215.40   67.70
  -2   0   4 2152.01   69.92
  -2   0   4 2215.67   68.85
  -2   0   4 2179.34   67.18
   1   0  -4  430.25   15.37
   1   0  -4  403.82   13.94
   1   0  -4  415.29   15.55
  -1   0   4  402.10   15.65
  -1   0   4  406.47   14.73
  -1   0   4  398.71   13.55
  -1   0   4  406.49   14.45
  -1   0   4  412.37   14.44
   0   0  -4   22.97    3.24
   0   0  -4   31.38    3.10
   0   0  -4   34.26    2.70
   0   0   4   21.42    3.05
   0   0   4   24.48    2.76
   0   0   4   22.85    2.69
   0   0   4   31.40    2.54
  -1   0  -4   59.25    3.33
  -1   0  -4   41.84    4.12
  -1   0  -4   58.10    3.85
   1   0   4   47.95    4.31
   1   0   4   54.16    3.34
  -2   0  -4  368.02   14.80
  -2   0  -4  376.14   13.40
  -2   0  -4  362.67   13.35
  -2   0  -4  369.26   12.46
  -2   0  -4  360.56   13.74
   2   0   4  373.86   14.44
   2   0   4  378.86   12.94
  -3   0  -4  783.61   25.69
  -3   0  -4  757.63   27.63
  -3   0  -4  759.94   25.62
  -3   0  -4  783.98   26.55
   3   0   4  783.09   27.09
   3   0   4  801.22   25.36
  -4   0  -4  606.57   23.07
  -4   0  -4  593.00   21.59
  -4   0  -4  607.68   20.20
  -4   0  -4  610.06   20.23
   4   0   4  588.63   21.91
   4   0   4  606.67   20.08
  -5   0  -4  233.75    8.60
  -5   0  -4  245.76   12.27
  -5   0  -4  240.13    8.59
   5   0   4  232.07    9.12
  -6   0  -4   17.57    4.46
   6   0   4   24.34    2.80
  -7   0  -4   74.28    8.47
   7   0   4   83.06    5.17
  -8   0  -4   87.42    9.95
  -9   0  -4  318.90   18.54
 -10   0  -4  107.40   12.16
 -11   0  -4   10.75    5.69
 -10   1   4   -4.79    3.66
  -9   1   4  110.76   12.71
  -8   1   4   22.20    6.11
  -7   1   4  228.82   14.57
   6  -1  -4   17.75    3.03
  -6   1   4   12.20    4.46
   5  -1  -4  140.51    7.02
  -5   1   4  132.88    9.67
  -5   1   4  138.11    6.13
   4  -1  -4    2.62    1.96
   4  -1  -4    1.67    1.41
  -4   1   4    0.97    1.24
  -4   1   4   -2.15    1.92
   3  -1  -4   94.47    5.04
   3  -1  -4   90.65    6.34
  -3   1   4   98.27    7.01
  -3   1   4   93.33    5.20
   2  -1  -4   94.14    4.90
   2  -1  -4   95.66    6.29
  -2   1   4   95.21    6.67
  -2   1   4  100.35    5.82
  -2   1   4   98.34    5.28
  -2   1   4   99.31    4.22
   1  -1  -4    7.79    2.20
   1  -1  -4    8.35    2.73
   1  -1  -4    8.59    1.89
  -1   1   4    3.38    1.80
  -1   1   4   10.01    1.85
  -1   1   4    7.60    2.63
  -1   1   4    8.20    1.97
  -1   1   4    9.78    2.27
   0  -1  -4  327.76   11.64
   0  -1  -4  313.13   13.13
   0  -1  -4  340.94   12.27
   0   1   4  323.21   12.29
   0   1   4  334.87   11.63
   0   1   4  324.84   13.13
   0   1   4  322.59   12.06
  -1  -1  -4 2982.11   91.93
  -1  -1  -4 2976.29   93.28
  -1  -1  -4 2967.47   91.33
  -1  -1  -4 2986.51   92.02
   1   1   4 3021.96   91.54
   1   1   4 2976.93   92.03
   1   1   4 2869.89   92.98
  -2  -1  -4  389.73   13.63
  -2  -1  -4  384.99   14.14
  -2  -1  -4  390.47   13.67
  -2  -1  -4  407.53   15.19
   2   1   4  403.80   14.78
   2   1   4  388.95   13.23
  -3  -1  -4   -0.17    0.87
  -3  -1  -4    0.66    1.21
  -3  -1  -4    0.15    1.62
  -3  -1  -4    1.85    0.96
   3   1   4   -0.26    0.69
  -4  -1  -4  571.27   20.60
  -4  -1  -4  617.26   21.96
  -5  -1  -4  325.91   14.11
  -6  -1  -4  180.33   10.23
  -7  -1  -4  133.11    9.26
  -8  -1  -4   37.90    6.02
  -9  -1  -4    8.84    4.35
 -10  -1  -4    2.86    3.75
 -11  -1  -4  134.95   12.30
  -9   2   4   51.26    9.45
  -8   2   4  241.45   16.86
   7  -2  -4  457.49   18.74
  -7   2   4  446.42   23.11
   6  -2  -4  136.95    8.26
  -6   2   4  153.39   11.80
  -6   2   4  147.15    7.16
   5  -2  -4  446.07   19.21
   5  -2  -4  452.54   17.38
  -5   2   4  444.19   16.81
  -5   2   4  440.15   20.97
   4  -2  -4   -0.33    2.20
   4  -2  -4    1.18    1.66
  -4   2   4    0.40    1.59
  -4   2   4    0.32    2.63
   3  -2  -4    6.78    2.05
   3  -2  -4    6.20    2.70
  -3   2   4    4.40    1.20
  -3   2   4    4.97    1.89
  -3   2   4    4.59    2.85
   2  -2  -4 1099.61   38.32
   2  -2  -4 1093.69   34.47
   2  -2  -4 1070.74   35.95
   2  -2  -4 1137.14   37.02
  -2   2   4 1094.27   36.58
  -2   2   4 1117.49   38.83
  -2   2   4 1098.57   35.38
  -2   2   4 1100.57   37.21
   1  -2  -4   67.56    5.57
   1  -2  -4   62.47    4.64
   1  -2  -4   62.19    3.64
   1  -2  -4   61.95    4.19
  -1   2   4   68.07    4.06
  -1   2   4   64.75    4.83
  -1   2   4   67.21    4.57
  -1   2   4   66.26    5.73
   0  -2  -4   28.13    2.76
   0  -2  -4   23.73    3.62
   0  -2  -4   30.11    3.39
   0  -2  -4   33.86    3.28
   0   2   4   28.00    2.73
   0   2   4   27.63    3.87
   0   2   4   19.62    2.65
   0   2   4   21.76    2.84
  -1  -2  -4 1585.60   50.98
  -1  -2  -4 1646.60   52.14
  -1  -2  -4 1562.72   52.41
  -1  -2  -4 1626.05   50.26
  -1  -2  -4 1637.45   51.15
   1   2   4 1617.26   50.59
   1   2   4 1607.52   51.19
   1   2   4 1639.68   52.25
  -2  -2  -4 5168.65  160.77
  -2  -2  -4 5398.49  158.28
  -2  -2  -4 5248.97  158.28
  -2  -2  -4 5357.05  158.98
  -2  -2  -4 5343.43  160.07
   2   2   4 5300.52  157.78
   2   2   4 4425.25  158.97
  -3  -2  -4   51.18    5.42
  -3  -2  -4   47.27    4.04
  -3  -2  -4   48.37    3.35
  -4  -2  -4   71.20    4.93
  -4  -2  -4   70.55    4.09
  -4  -2  -4   80.74    4.92
  -5  -2  -4  213.05    9.31
  -5  -2  -4  194.92    9.36
  -5  -2  -4  197.55    8.33
  -6  -2  -4   33.73    4.30
  -6  -2  -4   36.36    4.27
  -7  -2  -4   19.41    3.68
  -7  -2  -4   26.56    4.33
  -8  -2  -4   48.38    6.08
  -9  -2  -4   43.06    6.33
 -10  -2  -4  589.81   25.77
 -11  -2  -4   12.60    4.93
  -9   3   4    5.34    5.63
   8  -3  -4   19.21    4.93
  -8   3   4   18.67    6.56
   7  -3  -4   91.96    8.38
  -7   3   4   69.76    5.27
  -7   3   4   64.25    9.83
   6  -3  -4  174.92   10.24
  -6   3   4  186.13   14.00
  -6   3   4  183.32    9.42
   5  -3  -4  117.94    9.01
   5  -3  -4   94.19    7.03
   5  -3  -4   97.40    5.21
  -5   3   4   77.37    9.73
  -5   3   4   90.07    6.70
   4  -3  -4   37.71    3.18
   4  -3  -4   27.78    4.07
   4  -3  -4   28.99    5.47
  -4   3   4   34.93    6.40
  -4   3   4   28.96    4.23
  -4   3   4   34.12    2.67
  -4   3   4   34.37    2.71
   3  -3  -4   42.36    4.46
   3  -3  -4   46.05    6.25
   3  -3  -4   38.15    3.10
  -3   3   4   35.50    3.40
  -3   3   4   44.20    6.40
  -3   3   4   34.44    4.38
   2  -3  -4  268.65   11.44
   2  -3  -4  272.00   10.72
   2  -3  -4  259.49   13.53
   2  -3  -4  303.33   12.69
  -2   3   4  283.88   14.21
  -2   3   4  264.90   11.97
  -2   3   4  278.94   11.10
   1  -3  -4  786.43   26.00
   1  -3  -4  787.88   25.95
   1  -3  -4  760.24   26.81
   1  -3  -4  802.34   28.87
  -1   3   4  794.28   25.86
  -1   3   4  763.08   27.10
  -1   3   4  632.47   27.98
   0  -3  -4  374.43   14.71
   0  -3  -4  386.71   14.73
   0  -3  -4  395.14   13.93
   0  -3  -4  391.23   16.32
   0   3   4  383.65   14.87
   0   3   4  358.55   15.86
   0   3   4  376.82   13.97
  -1  -3  -4  260.89   12.67
  -1  -3  -4  261.79   10.62
  -1  -3  -4  271.48   12.18
  -1  -3  -4  280.52    9.69
  -1  -3  -4  272.32   11.86
  -1  -3  -4  263.73   10.57
   1   3   4  272.57   10.15
   1   3   4  267.90   10.80
   1   3   4  255.50   11.66
  -2  -3  -4  160.14    6.65
  -2  -3  -4  161.36    8.86
  -2  -3  -4  143.34    8.01
  -2  -3  -4  149.89    7.20
  -2  -3  -4  152.72    6.50
   2   3   4  177.53    7.88
   2   3   4  162.45    6.22
  -3  -3  -4 2796.06   87.77
  -3  -3  -4 2830.36   89.97
  -3  -3  -4 2741.31   86.67
  -4  -3  -4  452.81   16.67
  -4  -3  -4  466.46   15.76
  -4  -3  -4  442.35   19.28
  -5  -3  -4    2.44    3.02
  -5  -3  -4    0.59    1.11
  -5  -3  -4    5.66    1.92
  -5  -3  -4    1.63    1.49
  -6  -3  -4  951.76   32.83
  -6  -3  -4 1016.58   37.52
  -6  -3  -4  983.55   31.61
  -6  -3  -4  961.38   32.58
  -7  -3  -4  438.72   17.23
  -7  -3  -4  461.87   17.69
  -8  -3  -4  163.82    9.30
  -9  -3  -4   -0.61    2.42
 -10  -3  -4    9.90    3.74
 -11  -3  -4  118.75    9.96
   8  -4  -4  132.97   11.52
  -8   4   4  115.57    6.81
  -8   4   4   99.16   13.82
   7  -4  -4   21.51    5.18
  -7   4   4   22.19    7.12
  -7   4   4   23.60    3.97
   6  -4  -4   19.26    4.37
  -6   4   4   16.60    6.05
  -6   4   4   14.66    3.70
   5  -4  -4   67.46    5.22
   5  -4  -4   71.87    9.19
   5  -4  -4   79.55    7.26
  -5   4   4   68.95    6.80
  -5   4   4   72.33   10.14
   4  -4  -4   35.44    4.11
   4  -4  -4   30.72    4.55
   4  -4  -4   36.55    6.52
  -4   4   4   26.17    3.19
  -4   4   4   25.14    4.42
  -4   4   4   40.71    7.41
   3  -4  -4  410.60   16.94
   3  -4  -4  419.43   16.23
   3  -4  -4  399.88   19.80
  -3   4   4  432.55   20.83
  -3   4   4  452.10   16.26
  -3   4   4  409.51   17.62
   2  -4  -4  571.61   24.26
   2  -4  -4  570.08   20.98
   2  -4  -4  550.33   22.12
   2  -4  -4  575.86   21.19
  -2   4   4  580.90   22.08
  -2   4   4  578.44   24.75
  -2   4   4  579.80   20.87
   1  -4  -4   64.44    5.09
   1  -4  -4   64.23    7.21
   1  -4  -4   73.50    6.42
   1  -4  -4   73.90    5.10
  -1   4   4   63.87    7.15
  -1   4   4   72.67    5.69
  -1   4   4   72.84    5.05
  -1   4   4   73.27    5.92
   0  -4  -4   13.32    2.98
   0  -4  -4   15.29    2.49
   0  -4  -4   22.00    3.55
   0  -4  -4   18.22    3.80
   0   4   4   20.78    3.35
   0   4   4   11.71    2.56
   0   4   4   19.32    3.32
   0   4   4   23.00    4.19
  -1  -4  -4  844.26   27.91
  -1  -4  -4  800.87   30.04
  -1  -4  -4  830.21   29.72
  -1  -4  -4  850.93   28.21
  -1  -4  -4  805.75   26.54
   1   4   4  817.74   28.33
   1   4   4  817.33   27.45
   1   4   4  802.90   29.52
  -2  -4  -4  598.82   22.72
  -2  -4  -4  597.98   21.33
  -2  -4  -4  604.39   20.36
  -2  -4  -4  614.08   23.42
  -2  -4  -4  605.10   20.48
   2   4   4  629.08   20.16
   2   4   4  553.57   21.57
  -3  -4  -4  226.91   10.66
  -3  -4  -4  232.96    9.74
  -3  -4  -4  238.06   12.32
  -4  -4  -4    3.39    1.41
  -4  -4  -4    0.33    2.51
  -4  -4  -4   -0.52    1.35
  -4  -4  -4    0.32    1.35
  -5  -4  -4  564.35   19.61
  -5  -4  -4  542.08   18.41
  -5  -4  -4  511.26   19.33
  -5  -4  -4  574.18   23.82
  -6  -4  -4  279.60   11.30
  -6  -4  -4  272.49   10.01
  -6  -4  -4  233.30   14.62
  -6  -4  -4  301.68   11.30
  -7  -4  -4    1.49    1.55
  -7  -4  -4    0.54    1.65
  -7  -4  -4    0.60    1.22
  -7  -4  -4   -4.28    2.68
  -8  -4  -4  101.80    6.36
  -8  -4  -4   79.42    5.61
  -9  -4  -4    1.31    2.33
 -10  -4  -4    5.34    2.94
 -11  -4  -4   10.33    3.91
   8  -5  -4   33.81    6.54
  -8   5   4   33.64    9.44
  -8   5   4   38.11    5.21
   7  -5  -4   29.51    5.96
  -7   5   4   29.42    8.20
  -7   5   4   18.52    4.22
   6  -5  -4   -1.93    2.73
  -6   5   4    0.16    4.52
  -6   5   4    4.07    3.04
   5  -5  -4   13.99    3.90
  -5   5   4   14.02    5.78
  -5   5   4   19.48    4.47
  -5   5   4   15.33    2.41
   4  -5  -4   68.61    9.19
   4  -5  -4   75.17    7.43
   4  -5  -4   69.25    6.59
  -4   5   4   58.87    5.36
  -4   5   4   59.41    9.43
  -4   5   4   74.31    7.75
   3  -5  -4    3.65    2.58
   3  -5  -4   -1.06    3.03
   3  -5  -4    4.03    2.55
   3  -5  -4   -0.05    2.84
  -3   5   4    2.14    2.07
  -3   5   4    0.71    2.75
  -3   5   4    8.40    4.56
   2  -5  -4    1.71    2.01
   2  -5  -4   -1.59    2.59
   2  -5  -4   -1.62    1.93
   2  -5  -4   -2.03    2.01
  -2   5   4    1.35    1.83
  -2   5   4   -2.49    2.00
  -2   5   4    1.12    3.26
   1  -5  -4   65.41    7.60
   1  -5  -4   69.31    6.45
   1  -5  -4   77.26    5.55
   1  -5  -4   78.96    6.29
  -1   5   4   66.54    8.14
  -1   5   4   70.60    6.54
  -1   5   4   81.53    7.39
  -1   5   4   68.58    5.98
   0  -5  -4  804.63   30.18
   0  -5  -4  842.06   30.53
   0  -5  -4  810.40   27.86
   0  -5  -4  809.59   31.81
   0  -5  -4  804.65   29.32
   0   5   4  831.97   29.63
   0   5   4  843.12   31.81
   0   5   4  810.34   28.38
  -1  -5  -4  213.83   12.03
  -1  -5  -4  214.43    9.82
  -1  -5  -4  218.37   10.17
  -1  -5  -4  206.59   11.38
  -1  -5  -4  214.41    8.35
   1   5   4  223.91   10.44
   1   5   4  206.39   11.34
   1   5   4  216.81    9.54
  -2  -5  -4  261.30   10.66
  -2  -5  -4  251.65   12.92
  -2  -5  -4  258.27   11.60
  -2  -5  -4  262.91   10.52
  -2  -5  -4  258.73   13.33
   2   5   4  275.69   12.25
   2   5   4  254.76   10.33
  -3  -5  -4  176.75    6.23
  -3  -5  -4  166.97    9.43
  -3  -5  -4  166.46    6.19
  -3  -5  -4  159.85    8.15
  -3  -5  -4  163.73   10.60
   3   5   4  181.71    6.93
  -4  -5  -4  263.09   10.80
  -4  -5  -4  278.67   14.76
  -4  -5  -4  257.43   11.88
  -5  -5  -4    0.95    2.65
  -5  -5  -4    2.60    1.63
  -5  -5  -4    1.20    1.29
  -5  -5  -4   -0.13    1.42
  -6  -5  -4  279.70   10.21
  -6  -5  -4  302.37   11.50
  -6  -5  -4  275.37   15.87
  -6  -5  -4  222.58   10.82
  -7  -5  -4   58.49    8.50
  -7  -5  -4   56.34    3.44
  -7  -5  -4   55.84    4.32
  -7  -5  -4   57.68    4.40
  -8  -5  -4  268.53   11.49
  -8  -5  -4  291.51   11.49
  -8  -5  -4  263.34   10.18
  -8  -5  -4  291.38   17.55
  -9  -5  -4   75.85    5.69
  -9  -5  -4   74.66   10.57
  -9  -5  -4   69.89    4.38
 -10  -5  -4    5.01    2.03
 -10  -5  -4    8.83    3.14
 -11  -5  -4   27.25    3.67
 -11  -5  -4   25.11    4.59
   7  -6  -4  274.80   16.16
  -7   6   4  283.89   21.68
  -7   6   4  240.06   14.28
   6  -6  -4   35.54    6.30
  -6   6   4   38.93    9.46
  -6   6   4   47.28    6.92
   5  -6  -4   17.30    4.71
  -5   6   4   18.12    6.65
  -5   6   4   25.51    5.39
  -5   6   4   23.17    3.39
   4  -6  -4   23.31    4.65
   4  -6  -4   30.20    5.16
   4  -6  -4   36.75    7.58
  -4   6   4   31.28    7.73
  -4   6   4   25.31    4.09
  -4   6   4   26.37    5.12
   3  -6  -4   54.03    8.60
   3  -6  -4   78.39    7.26
   3  -6  -4   78.96    7.69
   3  -6  -4   83.08    8.93
  -3   6   4   84.64    8.02
  -3   6   4   65.88    9.86
  -3   6   4   67.62    6.59
   2  -6  -4  253.78   13.59
   2  -6  -4  230.53   15.27
   2  -6  -4  256.71   13.13
   2  -6  -4  229.00   12.01
  -2   6   4  236.32   13.49
  -2   6   4  242.91   11.91
  -2   6   4  257.13   15.99
  -2   6   4  249.56   13.35
   1  -6  -4  222.12   11.68
   1  -6  -4  200.97   10.02
   1  -6  -4  212.95   13.75
   1  -6  -4  194.18   11.46
  -1   6   4  183.01   11.33
  -1   6   4  213.93   10.50
  -1   6   4  190.96   13.07
  -1   6   4  194.35   11.34
   0  -6  -4  663.70   28.46
   0  -6  -4  701.72   26.96
   0  -6  -4  645.27   25.35
   0  -6  -4  667.47   23.70
   0  -6  -4  682.20   25.26
   0   6   4  677.56   28.10
   0   6   4  653.20   24.52
   0   6   4  667.07   25.71
  -1  -6  -4  347.45   12.15
  -1  -6  -4  335.74   17.04
  -1  -6  -4  347.94   14.19
  -1  -6  -4  335.16   16.25
  -1  -6  -4  317.26   14.15
   1   6   4  321.16   13.67
   1   6   4  308.53   15.81
   1   6   4  343.00   14.98
  -2  -6  -4    5.15    1.95
  -2  -6  -4    6.67    2.07
  -2  -6  -4    3.84    2.76
  -2  -6  -4   -0.48    2.77
   2   6   4    5.28    2.00
   2   6   4    2.21    2.53
  -3  -6  -4    3.05    3.24
  -3  -6  -4    0.29    1.10
  -3  -6  -4    0.22    2.14
  -3  -6  -4   -0.46    1.77
  -3  -6  -4    2.02    1.12
   3   6   4    0.34    1.25
  -4  -6  -4   44.82    6.90
  -4  -6  -4   57.99    6.32
  -4  -6  -4   53.71    4.96
  -5  -6  -4  129.91   10.68
  -5  -6  -4  143.76    8.24
  -5  -6  -4  139.59    7.30
  -5  -6  -4  148.07    8.48
  -6  -6  -4   23.19    3.69
  -6  -6  -4   24.64    6.09
  -6  -6  -4   20.57    2.76
  -6  -6  -4   20.51    3.45
  -7  -6  -4    2.77    1.53
  -7  -6  -4    5.83    2.14
  -7  -6  -4    4.18    2.11
  -7  -6  -4    1.94    4.10
  -8  -6  -4  201.88    8.27
  -8  -6  -4  202.93    9.44
  -8  -6  -4  229.60   15.58
  -9  -6  -4  418.41   23.36
  -9  -6  -4  403.16   14.51
  -9  -6  -4  414.55   15.91
 -10  -6  -4   58.57    5.18
 -10  -6  -4   54.01    9.83
 -10  -6  -4   52.40    3.86
 -11  -6  -4   65.67    5.81
 -11  -6  -4   54.29    4.41
   6  -7  -4   18.96    5.40
  -6   7   4   17.45    5.31
  -6   7   4   17.36    8.08
   5  -7  -4    5.76    3.66
  -5   7   4    6.26    2.69
  -5   7   4    4.56    6.14
  -5   7   4    6.11    4.55
   4  -7  -4  136.15   10.05
   4  -7  -4  133.34   14.77
   4  -7  -4  125.80    9.89
  -4   7   4  120.14   14.67
  -4   7   4  150.95    9.29
  -4   7   4  154.19   11.55
   3  -7  -4   21.44    4.54
   3  -7  -4   14.72    4.58
   3  -7  -4   15.59    6.07
   3  -7  -4   23.47    5.83
  -3   7   4   12.98    4.54
  -3   7   4    9.73    5.60
  -3   7   4   15.36    4.04
   2  -7  -4    3.48    4.14
   2  -7  -4   -0.85    2.97
   2  -7  -4   -1.35    2.66
   2  -7  -4    1.32    2.47
  -2   7   4    0.12    2.39
  -2   7   4   -3.60    3.58
  -2   7   4   -2.46    2.70
   1  -7  -4  737.24   29.68
   1  -7  -4  717.67   28.87
   1  -7  -4  769.97   32.92
   1  -7  -4  745.20   26.97
  -1   7   4  701.54   29.09
  -1   7   4  737.90   27.73
  -1   7   4  730.78   32.04
   0  -7  -4  383.41   20.46
   0  -7  -4  367.72   18.61
   0  -7  -4  380.30   15.21
   0  -7  -4  391.36   17.07
   0  -7  -4  392.90   17.49
   0   7   4  380.35   16.49
   0   7   4  380.86   19.87
   0   7   4  393.58   17.82
  -1  -7  -4  421.87   17.54
  -1  -7  -4  412.73   14.55
  -1  -7  -4  419.28   17.31
  -1  -7  -4  449.24   17.44
  -1  -7  -4  400.76   19.86
  -1  -7  -4  396.44   20.50
   1   7   4  406.94   16.97
   1   7   4  384.16   17.95
   1   7   4  436.73   20.03
  -2  -7  -4   45.78    4.75
  -2  -7  -4   45.61    7.16
  -2  -7  -4   52.21    5.12
  -2  -7  -4   43.78    7.04
   2   7   4   40.78    4.57
   2   7   4   41.02    5.92
  -3  -7  -4  993.63   38.31
  -3  -7  -4  935.33   31.34
  -3  -7  -4  975.20   31.35
  -3  -7  -4  941.04   36.49
   3   7   4  960.47   32.45
  -4  -7  -4   66.31    6.27
  -4  -7  -4   62.40    7.25
  -4  -7  -4   73.81    9.46
   4   7   4   55.56    4.10
  -5  -7  -4   34.14    5.18
  -5  -7  -4   42.24    7.71
  -5  -7  -4   41.31    4.76
  -6  -7  -4    6.89    4.43
  -6  -7  -4    4.21    2.22
  -6  -7  -4    4.68    2.71
  -7  -7  -4  621.40   22.60
  -7  -7  -4  670.86   24.36
  -7  -7  -4  641.94   30.12
  -8  -7  -4   76.30    5.00
  -8  -7  -4   78.18   11.04
  -8  -7  -4   96.91    6.43
  -9  -7  -4  377.25   22.56
  -9  -7  -4  379.25   15.37
  -9  -7  -4  389.51   14.15
 -10  -7  -4    4.18    2.28
 -10  -7  -4   -0.43    1.37
 -10  -7  -4    4.24    5.00
 -11  -7  -4    0.33    5.45
 -11  -7  -4    0.53    1.63
 -11  -7  -4    1.26    2.39
   5  -8  -4   90.10    9.90
  -5   8   4   95.76   10.85
  -5   8   4  108.91    7.86
  -5   8   4   90.59   14.24
   4  -8  -4  179.30   16.46
   4  -8  -4  169.48   11.83
  -4   8   4  169.08   18.27
  -4   8   4  168.67   10.44
  -4   8   4  138.57   12.90
   3  -8  -4  127.47   10.71
   3  -8  -4  127.52   11.92
   3  -8  -4  136.41   15.26
   3  -8  -4  116.06   10.03
  -3   8   4  138.55    9.62
  -3   8   4  130.50   14.66
  -3   8   4  114.24   11.50
   2  -8  -4  141.01   11.32
   2  -8  -4  160.37   10.01
   2  -8  -4  141.55   11.42
   2  -8  -4  165.94   14.68
  -2   8   4  148.76   13.79
  -2   8   4  153.92   10.17
  -2   8   4  168.60   12.12
   1  -8  -4    2.91    4.41
   1  -8  -4    6.09    3.46
   1  -8  -4   -0.28    2.34
   1  -8  -4   -2.67    3.22
  -1   8   4    5.81    3.49
  -1   8   4    1.18    4.62
  -1   8   4    2.41    3.10
   0  -8  -4  184.75    9.39
   0  -8  -4  206.52   12.17
   0  -8  -4  193.80   14.89
   0  -8  -4  187.19   13.16
   0   8   4  212.62   11.56
   0   8   4  202.33   14.27
  -1  -8  -4  180.11    7.06
  -1  -8  -4  188.45   13.83
  -1  -8  -4  173.92   10.41
  -1  -8  -4  165.22   10.00
  -1  -8  -4  179.49   12.88
   1   8   4  170.81   12.39
   1   8   4  170.19   10.14
  -2  -8  -4  124.59   10.91
  -2  -8  -4  101.69    7.33
  -2  -8  -4  126.19   10.82
  -2  -8  -4  104.48    7.18
   2   8   4  106.88    7.57
  -3  -8  -4  402.30   20.46
  -3  -8  -4  377.17   20.92
  -3  -8  -4  414.44   15.26
  -3  -8  -4  416.23   15.34
   3   8   4  440.52   16.87
  -4  -8  -4  415.16   21.85
  -4  -8  -4  414.70   20.01
   4   8   4  397.82   15.84
  -5  -8  -4 1907.13   65.40
  -5  -8  -4 1895.41   69.23
  -6  -8  -4  215.53   15.90
  -6  -8  -4  206.78   10.82
  -6  -8  -4  225.56   12.54
  -7  -8  -4  458.85   24.86
  -7  -8  -4  432.70   19.23
  -7  -8  -4  459.28   17.84
  -8  -8  -4    2.45    2.01
  -8  -8  -4   -0.03    2.39
  -8  -8  -4    7.04    5.17
  -9  -8  -4   53.10   10.09
  -9  -8  -4   51.08    4.67
  -9  -8  -4   51.33    5.69
 -10  -8  -4   55.01    5.64
 -10  -8  -4   59.97   10.48
 -10  -8  -4   52.69    4.33
 -11  -8  -4    5.82    2.77
   4  -9  -4    6.55    4.01
  -4   9   4    6.21    3.58
  -4   9   4    8.58    7.21
  -4   9   4    6.22    5.26
   3  -9  -4   54.89    7.28
   3  -9  -4   34.18    9.03
   3  -9  -4   61.74    8.96
   3  -9  -4   40.97    7.58
  -3   9   4   46.30    6.73
  -3   9   4   56.89    8.71
  -3   9   4   40.56    9.78
   2  -9  -4    2.88    5.42
   2  -9  -4    5.55    4.12
   2  -9  -4    2.49    3.88
   2  -9  -4    4.73    3.13
  -2   9   4    6.71    3.70
  -2   9   4    5.26    6.01
   1  -9  -4   42.20    9.05
   1  -9  -4   32.49    4.96
   1  -9  -4   41.83    7.81
   1  -9  -4   28.31    6.16
  -1   9   4   38.99    6.37
  -1   9   4   48.94    9.78
   0  -9  -4   98.59   12.77
   0  -9  -4   91.14    6.16
   0  -9  -4   74.22   10.06
   0  -9  -4   92.30    9.39
   0   9   4   97.11    9.31
  -1  -9  -4    6.44    3.34
  -1  -9  -4    1.57    3.82
  -1  -9  -4    6.84    4.98
   1   9   4    5.77    3.13
  -2  -9  -4   91.26   11.42
  -2  -9  -4   76.52    7.07
  -2  -9  -4   75.45    6.98
  -2  -9  -4   71.59   10.36
   2   9   4   84.64    7.82
  -3  -9  -4  408.41   15.53
  -3  -9  -4  405.90   22.46
  -3  -9  -4  399.48   15.54
  -3  -9  -4  429.23   22.08
   3   9   4  403.40   17.36
  -4  -9  -4   64.73   10.46
  -4  -9  -4   52.77    8.30
   4   9   4   70.55    8.73
  -5  -9  -4    4.91    4.85
  -5  -9  -4    7.23    4.11
  -6  -9  -4  187.59   15.72
  -6  -9  -4  196.58   12.77
  -7  -9  -4   80.13   11.65
  -7  -9  -4   62.84    7.72
  -8  -9  -4   24.80    7.93
  -8  -9  -4   36.97    5.73
  -8  -9  -4   33.25    4.59
  -9  -9  -4   11.87    6.41
  -9  -9  -4    7.21    2.75
  -9  -9  -4   11.63    3.74
 -10  -9  -4   59.95   11.63
 -10  -9  -4   67.68    5.46
 -10  -9  -4   69.09    6.54
   3 -10  -4   -0.03    4.73
   3 -10  -4   -3.17    3.00
   3 -10  -4   -1.21    5.73
  -3  10   4    0.40    3.46
   2 -10  -4    9.91    4.00
   2 -10  -4   10.16    5.13
   2 -10  -4   19.51    6.50
   2 -10  -4    8.90    7.20
  -2  10   4    6.81    4.21
   1 -10  -4    0.85    3.68
   1 -10  -4    0.33    4.39
   1 -10  -4   -1.36    2.29
   1 -10  -4    3.43    6.01
  -1  10   4   -5.08    2.93
   0 -10  -4    4.97    5.03
   0 -10  -4    4.83    2.18
   0 -10  -4    5.45    3.90
   0 -10  -4    7.70    6.28
   0  10   4    5.26    3.69
  -1 -10  -4    4.19    4.53
  -1 -10  -4    1.05    3.34
  -1 -10  -4    4.07    5.47
   1  10   4    0.49    2.98
  -2 -10  -4  158.11   14.05
  -2 -10  -4  152.41    9.57
  -2 -10  -4  160.97    9.91
  -2 -10  -4  179.95   15.01
   2  10   4  167.29   10.76
  -3 -10  -4  275.15   19.03
  -3 -10  -4  291.60   12.06
  -3 -10  -4  279.73   18.49
  -3 -10  -4  283.93   12.07
   3  10   4  288.80   14.52
  -4 -10  -4   51.68   10.54
  -4 -10  -4   22.37    6.20
  -5 -10  -4   59.52    9.26
  -5 -10  -4   39.65    9.42
  -6 -10  -4   15.20    6.64
  -6 -10  -4   22.46    5.66
  -7 -10  -4   12.97    6.38
  -7 -10  -4    6.48    3.95
  -8 -10  -4   14.07    4.76
  -8 -10  -4   10.54    6.27
  -9 -10  -4    3.37    3.37
  -9 -10  -4    3.64    5.63
   1 -11  -4   13.98    5.80
   1 -11  -4   12.27    7.75
   1 -11  -4   17.40    6.95
   1 -11  -4   16.14    3.68
  -1  11   4   11.62    5.01
   0 -11  -4   60.08   10.49
   0 -11  -4   59.40   11.77
   0 -11  -4   55.61    8.27
   0  11   4   65.19    8.35
  -1 -11  -4   -4.12    4.38
  -1 -11  -4    0.63    3.09
  -1 -11  -4    5.39    5.66
   1  11   4    0.61    3.39
  -2 -11  -4   53.33   10.11
  -2 -11  -4   58.06    6.74
  -2 -11  -4   63.13   11.37
   2  11   4   64.69    8.14
  -3 -11  -4    5.94    5.54
  -3 -11  -4   -1.34    1.81
  -3 -11  -4    3.82    5.07
  -3 -11  -4   -3.56    1.72
   3  11   4   -3.64    2.81
  -4 -11  -4  252.68   18.32
  -4 -11  -4  269.62   20.16
  -5 -11  -4   37.22    9.44
  -5 -11  -4   46.27    8.97
  -6 -11  -4   10.52    6.98
  -6 -11  -4    1.40    4.25
  -7 -11  -4    3.51    4.03
  -7 -11  -4    9.20    6.39
  -8 -11  -4  122.05   11.31
  -8 -11  -4   94.30   14.43
  -2 -12  -4  115.44   16.44
  -2 -12  -4  126.86   15.47
  -2 -12  -4  119.89    9.10
   2  12   4  126.60   12.15
  -3 -12  -4  120.94    6.75
  -3 -12  -4  121.85    6.70
  -3 -12  -4  134.36   17.04
  -3 -12  -4  103.49   14.66
   3  12   4  127.48   11.53
  -4 -12  -4    7.33    7.22
  -4 -12  -4   -0.97    5.14
  -5 -12  -4   33.27    8.69
  -5 -12  -4   31.55    9.13
  -6 -12  -4  284.74   19.53
  -6 -12  -4  284.24   21.71
  -5 -11   5    8.41    6.68
  -5 -11   5   16.62    6.38
  -4 -11   5   20.94    7.73
  -4 -11   5   37.90    9.99
   3  11  -5   10.71    5.25
  -3 -11   5    3.19    5.65
  -3 -11   5    8.54    6.78
   2  11  -5   10.87    4.98
  -2 -11   5   18.61    7.39
  -2 -11   5    7.49    6.66
  -2 -11   5   12.49    3.13
  -2 -11   5   11.96    3.15
   1  11  -5   24.70    6.21
  -1 -11   5   17.39    8.45
  -1 -11   5   17.38    4.79
  -1 -11   5   27.29    9.35
   0  11  -5    0.42    3.94
   0 -11   5    1.17    6.70
   0 -11   5    4.92    6.56
   0 -11   5    1.81    3.70
  -7 -10   5   55.23    7.53
  -7 -10   5   76.50   12.70
  -7 -10   5   60.97    9.14
  -6 -10   5  365.85   23.96
  -6 -10   5  385.91   19.45
  -6 -10   5  363.60   21.06
  -5 -10   5    7.87    5.92
  -5 -10   5   -0.93    3.77
  -4 -10   5  142.13   13.44
  -4 -10   5  128.76   15.51
   3  10  -5    3.33    3.44
  -3 -10   5    0.06    4.29
  -3 -10   5   -3.27    4.25
   2  10  -5   58.34    7.72
  -2 -10   5   59.22    5.75
  -2 -10   5   71.26   11.45
  -2 -10   5   64.80   11.37
  -2 -10   5   73.47    6.33
   1  10  -5   19.46    5.18
  -1 -10   5   18.70    7.58
  -1 -10   5   21.01    7.81
  -1 -10   5   10.87    3.96
   0  10  -5  121.33   11.03
   0 -10   5  110.85   14.23
   0 -10   5  124.76   16.39
  -1  10  -5   48.05    7.46
   1 -10   5   70.94   12.83
   1 -10   5   59.15    4.86
   1 -10   5   66.48   12.28
  -2  10  -5   -1.12    3.50
   2 -10   5    0.49    5.11
   2 -10   5   11.61    7.27
   2 -10   5   -3.85    2.45
   2 -10   5   -3.02    5.51
  -8  -9   5   13.11    3.81
  -8  -9   5   17.63    5.33
  -8  -9   5   22.06    7.54
  -7  -9   5   -0.42    4.22
  -7  -9   5    3.44    3.06
  -7  -9   5    8.03    4.22
  -6  -9   5    5.58    4.11
  -6  -9   5    7.24    3.57
  -6  -9   5   13.11    6.31
  -5  -9   5   20.67    5.79
  -5  -9   5   12.25    6.26
  -5  -9   5   17.85    4.96
  -4  -9   5  438.07   23.23
  -4  -9   5  424.37   20.82
  -4  -9   5  449.36   25.25
   3   9  -5    4.38    3.02
   3   9  -5   -0.55    2.83
  -3  -9   5    0.07    4.49
  -3  -9   5    3.48    4.47
   2   9  -5   -1.21    2.77
  -2  -9   5    0.80    4.31
  -2  -9   5   -3.05    3.69
  -2  -9   5    3.35    2.23
  -2  -9   5   -0.39    2.12
   1   9  -5  136.49   10.00
  -1  -9   5  162.45   10.92
  -1  -9   5  120.51   14.08
  -1  -9   5  146.81   16.30
   0   9  -5  120.63   10.67
   0  -9   5  113.69   14.29
   0  -9   5   92.74   12.78
  -1   9  -5  170.76   11.78
   1  -9   5  139.30   15.69
   1  -9   5  188.82   17.18
   1  -9   5  183.83    9.19
  -2   9  -5   41.54    6.70
   2  -9   5   48.44   10.89
   2  -9   5   48.29    5.88
   2  -9   5   39.87    9.56
  -3   9  -5  170.33   11.99
  -3   9  -5  260.19   32.33
   3  -9   5  173.11   19.98
   3  -9   5  170.47   18.32
   3  -9   5  194.19   11.74
   3  -9   5  194.30   20.86
  -4   9  -5    4.99    3.85
  -4   9  -5   -2.42    6.44
   4  -9   5   -2.41    6.34
   4  -9   5    1.98    3.44
   4  -9   5   -6.00    4.36
   4  -9   5   -3.09    5.28
  -9  -8   5   51.20    6.88
  -9  -8   5   49.69    9.58
  -9  -8   5   47.63    5.58
  -8  -8   5    9.72    5.50
  -8  -8   5   -1.04    2.18
  -8  -8   5    0.47    2.80
  -7  -8   5   36.80    6.18
  -7  -8   5   49.68    9.46
  -7  -8   5   31.03    5.02
  -6  -8   5  506.07   22.06
  -6  -8   5  419.56   24.16
  -6  -8   5  446.46   19.76
  -5  -8   5   31.91    5.17
  -5  -8   5   32.05    6.62
  -5  -8   5   31.36    7.83
  -4  -8   5  483.38   25.36
  -4  -8   5  480.10   21.41
  -4  -8   5  477.98   23.21
   3   8  -5   63.31    6.46
  -3  -8   5   70.13    7.94
  -3  -8   5   64.63    9.34
  -3  -8   5   87.48   11.81
   2   8  -5   73.59    7.10
   2   8  -5   86.04    7.62
  -2  -8   5   73.61   10.36
  -2  -8   5   84.42    6.08
  -2  -8   5   79.92    5.85
  -2  -8   5   81.53   10.75
   1   8  -5  119.32    8.70
  -1  -8   5  109.34    8.13
  -1  -8   5  133.32   14.39
  -1  -8   5  139.63   12.60
   0   8  -5  107.04    9.47
   0  -8   5  110.17    5.48
   0  -8   5  102.28   12.57
   0  -8   5  114.82   13.42
  -1   8  -5  100.05   12.21
  -1   8  -5  109.65   10.13
   1  -8   5   82.40   11.33
   1  -8   5  121.14    7.22
   1  -8   5  115.12   13.61
  -2   8  -5   33.09    5.78
  -2   8  -5   23.68    7.42
   2  -8   5   23.57    7.01
   2  -8   5   38.01    8.43
   2  -8   5   23.64    4.54
  -3   8  -5   41.88    6.41
  -3   8  -5   41.96    9.55
  -3   8  -5   43.76    7.67
   3  -8   5   51.35   10.00
   3  -8   5   45.28    9.58
   3  -8   5   45.80    6.20
  -4   8  -5  130.43    9.81
  -4   8  -5  145.02   17.36
  -4   8  -5  147.27   13.68
   4  -8   5  122.97   16.07
   4  -8   5  130.75   10.01
   4  -8   5  111.96   14.76
   4  -8   5   98.61   13.43
  -5   8  -5  271.22   14.50
  -5   8  -5  295.61   22.79
  -5   8  -5  317.73   18.36
   5  -8   5  275.63   16.14
   5  -8   5  277.34   20.41
 -10  -7   5  164.99   10.78
 -10  -7   5  197.89   15.25
  -9  -7   5    5.86    2.43
  -9  -7   5    6.11    3.54
  -9  -7   5    8.13    5.29
  -8  -7   5  181.52   14.03
  -8  -7   5  165.28   10.65
  -8  -7   5  175.18    9.42
  -7  -7   5   26.63    6.80
  -7  -7   5   23.62    4.00
  -7  -7   5   27.10    5.04
  -6  -7   5   20.79    3.83
  -6  -7   5   28.04    5.32
  -6  -7   5   32.85    7.41
  -5  -7   5    2.99    2.55
  -5  -7   5    3.91    4.20
  -5  -7   5    2.84    2.96
  -4  -7   5  124.70    9.95
  -4  -7   5  137.59   11.90
  -4  -7   5  120.97    8.58
   3   7  -5   20.19    3.60
  -3  -7   5   24.28    6.46
  -3  -7   5   26.15    5.87
  -3  -7   5   18.30    4.40
   2   7  -5  107.45    7.16
  -2  -7   5   99.32    9.26
  -2  -7   5   88.65   10.61
  -2  -7   5   96.40    6.13
  -2  -7   5   93.90   10.55
   1   7  -5  243.54   12.01
   1   7  -5  241.56   14.35
  -1  -7   5  254.30   15.89
  -1  -7   5  231.11   11.65
  -1  -7   5  217.63   15.56
   0   7  -5  158.87    9.66
   0   7  -5  156.10   11.96
   0  -7   5  155.65   13.09
   0  -7   5  154.04    7.31
   0  -7   5  166.39   10.02
   0  -7   5  159.37   13.17
  -1   7  -5    6.06    3.68
  -1   7  -5    4.67    2.98
  -1   7  -5    9.41    4.53
   1  -7   5    5.30    4.73
   1  -7   5    3.99    4.69
   1  -7   5    4.37    2.46
  -2   7  -5   43.66    5.98
  -2   7  -5   40.08    8.22
  -2   7  -5   33.82    6.46
   2  -7   5   26.43    6.75
   2  -7   5   37.84    8.28
   2  -7   5   39.54    5.28
  -3   7  -5  346.30   21.21
  -3   7  -5  319.07   17.31
  -3   7  -5  332.09   15.78
   3  -7   5  275.05   20.09
   3  -7   5  322.97   20.21
   3  -7   5  332.64   15.73
  -4   7  -5  167.91   15.45
  -4   7  -5  142.85   12.84
  -4   7  -5  129.06    9.46
   4  -7   5  188.18   15.63
   4  -7   5  162.60   17.18
   4  -7   5  148.41   10.58
   4  -7   5  143.77   15.31
  -5   7  -5    5.84    4.53
  -5   7  -5   11.17    7.18
  -5   7  -5   10.29    3.53
   5  -7   5    7.98    5.85
   5  -7   5    5.86    7.13
   5  -7   5   13.89    8.41
   5  -7   5    8.54    4.17
  -6   7  -5  179.83   19.88
  -6   7  -5  202.93   14.24
  -6   7  -5  198.78   10.28
   6  -7   5  173.19   12.93
   6  -7   5  188.51   16.14
 -10  -6   5   29.11    5.15
 -10  -6   5   34.67    4.47
  -9  -6   5   51.57    8.55
  -9  -6   5   44.18    5.81
  -9  -6   5   54.43    5.30
  -8  -6   5   66.74    5.34
  -8  -6   5   75.31    9.57
  -8  -6   5   60.11    6.61
  -7  -6   5    3.73    3.96
  -7  -6   5    2.03    2.77
  -7  -6   5    2.93    2.23
  -6  -6   5  104.68   10.99
  -6  -6   5   92.92    7.82
  -6  -6   5  116.17    7.04
  -5  -6   5   45.84    7.23
  -5  -6   5   41.48    5.82
  -5  -6   5   42.76    4.91
  -4  -6   5   28.76    4.40
  -4  -6   5   19.04    5.37
  -4  -6   5   48.72    6.38
   3   6  -5  166.43    8.09
  -3  -6   5  172.82   10.00
  -3  -6   5  176.12   12.56
  -3  -6   5  179.59   11.40
   2   6  -5  380.84   15.54
   2   6  -5  379.53   17.10
  -2  -6   5  397.73   15.07
  -2  -6   5  444.59   19.97
  -2  -6   5  374.65   17.33
  -2  -6   5  403.33   20.16
   1   6  -5   65.50    6.06
   1   6  -5   67.13    6.00
   1   6  -5   55.22    6.96
   1   6  -5   56.61    6.49
  -1  -6   5   56.46    6.69
  -1  -6   5   59.70    7.98
  -1  -6   5   58.03    5.59
  -1  -6   5   64.47    8.80
   0   6  -5   36.52    4.71
   0   6  -5   32.63    5.91
   0   6  -5   44.44    5.89
   0  -6   5   27.47    4.35
   0  -6   5   45.62    7.57
   0  -6   5   36.85    7.14
   0  -6   5   43.25    3.84
  -1   6  -5    3.92    2.48
  -1   6  -5    0.21    3.21
  -1   6  -5   -1.06    2.50
   1  -6   5    1.94    2.07
   1  -6   5   -2.78    3.43
   1  -6   5    0.22    2.38
   1  -6   5    3.85    3.77
  -2   6  -5    6.18    2.97
  -2   6  -5   12.87    5.22
  -2   6  -5   13.51    4.03
   2  -6   5    8.66    2.97
   2  -6   5   13.61    5.51
   2  -6   5   12.25    5.04
  -3   6  -5  809.59   30.56
  -3   6  -5  861.58   32.71
  -3   6  -5  840.75   36.34
   3  -6   5  790.41   30.61
   3  -6   5  862.74   35.98
   3  -6   5  823.46   36.62
  -4   6  -5  124.74    8.33
  -4   6  -5  114.37   13.81
  -4   6  -5  111.60   10.30
   4  -6   5  119.88   13.24
   4  -6   5   91.77    8.72
   4  -6   5  101.28   12.42
  -5   6  -5  412.21   17.60
  -5   6  -5  451.45   25.56
  -5   6  -5  416.92   20.55
   5  -6   5  430.21   24.12
   5  -6   5  408.12   23.29
   5  -6   5  458.06   25.31
   5  -6   5  423.07   19.74
  -6   6  -5   10.80    6.87
  -6   6  -5    9.22    2.69
  -6   6  -5    3.29    3.81
   6  -6   5    7.20    4.02
   6  -6   5   13.44    6.34
  -7   6  -5   15.89    7.61
  -7   6  -5   13.00    5.01
   7  -6   5    0.44    4.15
   7  -6   5    9.18    5.83
 -10  -5   5   72.60    7.72
 -10  -5   5   59.85    5.95
  -9  -5   5    2.78    2.12
  -9  -5   5    8.26    4.20
  -9  -5   5    2.40    2.89
  -8  -5   5  257.92   12.74
  -8  -5   5  246.84   11.07
  -8  -5   5  244.25   14.71
  -7  -5   5   40.34    4.17
  -7  -5   5   39.87    5.22
  -7  -5   5   35.76    6.26
  -6  -5   5   26.22    4.40
  -6  -5   5   25.76    3.49
  -6  -5   5   32.50    6.03
  -5  -5   5   13.38    4.35
  -5  -5   5   17.92    3.10
  -5  -5   5   10.64    3.43
  -5  -5   5   20.21    3.87
  -4  -5   5   19.07    4.24
  -4  -5   5   21.89    3.46
  -4  -5   5   19.56    4.80
   3   5  -5   14.55    2.21
  -3  -5   5    8.13    3.29
  -3  -5   5    9.28    2.78
  -3  -5   5    7.59    4.01
   2   5  -5   46.34    5.53
   2   5  -5   41.24    3.93
  -2  -5   5   42.37    6.75
  -2  -5   5   48.43    4.01
  -2  -5   5   52.94    6.59
  -2  -5   5   37.86    4.93
   1   5  -5    0.39    1.62
   1   5  -5    2.81    2.55
  -1  -5   5    0.27    2.07
  -1  -5   5    1.85    1.77
  -1  -5   5   -2.22    2.71
  -1  -5   5    0.76    2.74
   0   5  -5    1.31    2.70
   0   5  -5    1.70    2.19
   0   5  -5    3.09    2.07
   0   5  -5    2.86    2.05
   0  -5   5    3.37    2.69
   0  -5   5    5.15    3.47
   0  -5   5    4.98    3.33
   0  -5   5    1.83    1.55
   0  -5   5    2.69    2.27
  -1   5  -5  367.16   15.28
  -1   5  -5  371.97   16.41
  -1   5  -5  369.58   18.38
   1  -5   5  374.45   18.68
   1  -5   5  384.71   14.85
   1  -5   5  319.74   18.08
  -2   5  -5  127.40   10.82
  -2   5  -5  132.89    8.28
  -2   5  -5  153.10    9.66
   2  -5   5  137.67   11.29
   2  -5   5  141.25   11.29
   2  -5   5  140.35    8.23
  -3   5  -5   -0.84    3.21
  -3   5  -5    5.15    3.24
  -3   5  -5    1.24    2.33
   3  -5   5   -0.74    3.65
   3  -5   5    4.68    3.87
   3  -5   5    5.02    2.65
  -4   5  -5   15.97    6.02
  -4   5  -5   17.01    3.53
  -4   5  -5   16.44    4.52
   4  -5   5   25.90    4.58
   4  -5   5   15.98    6.13
  -5   5  -5  150.04   10.65
  -5   5  -5  144.49    8.22
  -5   5  -5  142.24   15.24
   5  -5   5  148.78   10.00
   5  -5   5  132.48   12.40
   5  -5   5  148.98   13.20
  -6   5  -5   37.30    3.78
  -6   5  -5   35.26    8.70
  -6   5  -5   39.58    6.45
   6  -5   5   35.65    6.04
  -7   5  -5   53.74    7.22
  -7   5  -5   56.75   10.73
   7  -5   5   64.93    8.09
  -8   5  -5   17.90    4.74
  -8   5  -5   20.27    7.78
   8  -5   5   13.93    5.28
 -10  -4   5   49.23    5.73
 -10  -4   5   57.41    7.42
  -9  -4   5   45.09    5.06
  -9  -4   5   51.99    6.45
  -8  -4   5   44.27    6.54
  -8  -4   5   49.24    5.93
  -8  -4   5   41.32    4.44
  -7  -4   5  212.71   10.87
  -7  -4   5  202.35    9.46
  -7  -4   5  188.71   11.80
  -6  -4   5  171.79    9.55
  -6  -4   5  182.22    9.56
  -6  -4   5  186.20   11.14
  -6  -4   5  169.70    8.33
  -5  -4   5  156.94    7.85
  -5  -4   5  148.20    9.92
  -5  -4   5  160.28    8.95
  -5  -4   5  162.07    8.87
  -4  -4   5    8.08    3.17
  -4  -4   5    6.85    2.64
  -4  -4   5   13.36    2.55
   3   4  -5   95.80    4.77
  -3  -4   5   95.91    6.17
  -3  -4   5  106.59    7.36
  -3  -4   5  105.97    8.02
   2   4  -5  103.44    5.22
  -2  -4   5   96.05    7.76
  -2  -4   5   94.68    5.04
  -2  -4   5  103.84    6.54
   1   4  -5  336.40   13.18
   1   4  -5  304.73   14.76
  -1  -4   5  341.55   13.53
  -1  -4   5  336.22   16.36
  -1  -4   5  342.02   14.67
  -1  -4   5  403.71   16.48
   0   4  -5   32.61    5.10
   0   4  -5   24.04    3.31
   0   4  -5   18.07    3.28
   0  -4   5   26.11    2.95
   0  -4   5   26.27    5.11
   0  -4   5   22.66    3.92
   0  -4   5   24.79    5.23
   0  -4   5   22.22    3.41
  -1   4  -5  114.25    6.72
  -1   4  -5  105.27    7.37
  -1   4  -5  101.53    8.61
   1  -4   5  134.20    9.66
   1  -4   5  118.13    7.95
   1  -4   5  113.48    8.86
   1  -4   5  110.48    6.38
  -2   4  -5 1188.36   39.38
  -2   4  -5 1148.83   43.47
  -2   4  -5 1170.40   40.66
   2  -4   5 1193.80   39.44
   2  -4   5 1131.08   43.35
  -3   4  -5  236.99   11.13
  -3   4  -5  253.88   12.66
  -3   4  -5  258.50   15.33
   3  -4   5  233.87   14.49
   3  -4   5  248.57   11.73
  -4   4  -5  191.52    9.59
  -4   4  -5  195.53   14.04
  -4   4  -5  197.06   11.35
   4  -4   5  215.90   10.95
   4  -4   5  217.01   14.09
  -5   4  -5  145.83   12.64
  -5   4  -5  127.63    9.30
  -5   4  -5  133.65    7.19
   5  -4   5  125.21   11.26
   5  -4   5  147.70    9.34
  -6   4  -5  287.49   18.93
  -6   4  -5  275.95   14.45
   6  -4   5  290.79   14.62
  -7   4  -5    5.04    5.16
  -7   4  -5   10.36    3.66
   7  -4   5    4.50    3.57
  -8   4  -5   26.17    8.55
  -8   4  -5   30.86    4.85
   8  -4   5   36.08    6.48
  -9   4  -5  114.54    7.26
  -9   4  -5  118.59   15.31
  -9   4  -5  107.34    7.05
   9  -4   5  111.42   11.27
 -10  -3   5    4.35    3.77
 -10  -3   5    6.52    3.31
  -9  -3   5   28.94    4.41
  -9  -3   5   20.96    4.97
  -8  -3   5    9.01    3.58
  -8  -3   5   10.46    3.64
  -8  -3   5    6.02    2.64
  -7  -3   5   65.21    6.81
  -7  -3   5   56.47    6.38
  -7  -3   5   58.30    5.23
  -6  -3   5  259.04   11.21
  -6  -3   5  277.70   12.71
  -6  -3   5  256.05   12.44
  -6  -3   5  270.82   13.01
  -5  -3   5  433.36   17.96
  -5  -3   5  431.75   16.09
  -5  -3   5  436.85   17.42
  -5  -3   5  418.47   17.26
  -4  -3   5   21.37    3.60
  -4  -3   5   28.24    4.39
  -4  -3   5   23.94    3.11
  -4  -3   5   28.17    5.08
  -3  -3   5   50.50    4.22
  -3  -3   5   53.91    4.99
  -3  -3   5   57.52    6.09
   2   3  -5  940.42   30.01
  -2  -3   5  936.69   33.35
  -2  -3   5  931.62   30.08
  -2  -3   5  910.83   31.58
   1   3  -5  159.75    8.72
   1   3  -5  148.52    7.06
  -1  -3   5  158.81    5.53
  -1  -3   5  152.10    9.30
  -1  -3   5  178.43    9.53
  -1  -3   5  160.75    5.54
  -1  -3   5  166.08    7.63
  -1  -3   5  165.74    8.34
   0   3  -5  767.46   28.65
   0   3  -5  776.22   27.19
   0   3  -5  761.29   26.26
   0  -3   5  781.68   28.95
   0  -3   5  771.95   25.67
   0  -3   5  779.77   27.65
   0  -3   5  782.71   26.95
  -1   3  -5 1857.02   61.08
  -1   3  -5 1900.38   60.25
  -1   3  -5 1869.15   63.22
   1  -3   5 1947.32   63.74
   1  -3   5 1869.38   59.96
   1  -3   5 1844.85   61.65
  -2   3  -5    0.27    2.63
  -2   3  -5   -2.35    1.37
  -2   3  -5    0.13    1.82
   2  -3   5    1.89    1.76
   2  -3   5    1.33    2.42
  -3   3  -5  108.14    6.33
  -3   3  -5  120.62    9.48
  -3   3  -5  103.67    7.25
   3  -3   5  112.89    8.93
   3  -3   5  110.23    6.76
  -4   3  -5  328.50   17.77
  -4   3  -5  326.50   13.06
  -4   3  -5  342.17   14.96
   4  -3   5  349.04   14.52
   4  -3   5  327.36   17.04
  -5   3  -5  104.66    5.43
  -5   3  -5  120.97    8.13
  -5   3  -5  113.40   12.03
   5  -3   5  113.39    7.62
   5  -3   5  113.55    9.90
  -6   3  -5  386.24   17.01
  -6   3  -5  395.44   21.83
   6  -3   5  409.17   17.47
  -7   3  -5  125.10   13.66
  -7   3  -5  143.09    8.81
   7  -3   5  146.35    9.61
  -8   3  -5   57.99    5.58
  -8   3  -5   53.85    5.39
  -8   3  -5   60.42   10.63
   8  -3   5   68.36    7.77
  -9   3  -5   10.90    6.63
   9  -3   5   22.77    5.25
 -10  -2   5   19.82    5.60
  -9  -2   5  583.59   25.85
  -8  -2   5   16.07    4.79
  -7  -2   5    5.53    2.60
  -7  -2   5    1.51    2.78
  -6  -2   5  395.59   15.60
  -6  -2   5  373.45   15.76
  -6  -2   5  396.36   17.11
  -6  -2   5  405.55   17.09
  -5  -2   5  918.60   32.78
  -5  -2   5  933.35   34.13
  -5  -2   5  929.12   31.96
  -5  -2   5  921.86   31.37
  -4  -2   5 2354.49   73.02
  -4  -2   5 2342.64   73.70
  -4  -2   5 2221.74   74.23
  -3  -2   5   51.21    4.91
  -3  -2   5   37.99    3.80
  -3  -2   5   44.98    4.75
   2   2  -5   18.48    2.01
   2   2  -5   21.17    3.37
  -2  -2   5   11.28    2.78
  -2  -2   5   22.07    2.97
  -2  -2   5   18.51    3.22
  -2  -2   5   22.51    2.30
   1   2  -5  471.33   16.55
   1   2  -5  462.40   18.38
  -1  -2   5  478.90   15.46
  -1  -2   5  492.74   17.83
  -1  -2   5  480.59   17.01
  -1  -2   5  509.81   19.07
  -1  -2   5  469.73   18.62
  -1  -2   5  479.44   15.48
   0   2  -5   60.10    3.97
   0   2  -5   58.50    5.23
   0   2  -5   58.51    5.09
   0  -2   5   55.56    3.61
   0  -2   5   53.23    4.30
   0  -2   5   56.09    5.25
  -1   2  -5    5.09    1.85
  -1   2  -5    8.37    2.79
  -1   2  -5    3.29    1.96
  -1   2  -5    3.65    1.79
   1  -2   5    3.50    2.63
   1  -2   5    3.35    1.61
   1  -2   5    9.68    2.57
  -2   2  -5 3985.16  126.17
  -2   2  -5 4006.85  123.76
  -2   2  -5 3954.34  122.65
   2  -2   5 3990.28  124.27
   2  -2   5 3896.21  125.73
   2  -2   5 3931.67  122.96
  -3   2  -5   49.48    4.16
  -3   2  -5   48.48    5.00
  -3   2  -5   49.74    6.52
   3  -2   5   45.75    4.50
   3  -2   5   54.22    6.58
  -4   2  -5   66.13    4.04
  -4   2  -5   68.80    8.09
  -4   2  -5   65.87    5.88
   4  -2   5   65.60    5.54
   4  -2   5   75.14    6.96
  -5   2  -5  481.41   22.45
  -5   2  -5  501.14   20.52
  -5   2  -5  458.64   18.61
   5  -2   5  483.39   18.74
   5  -2   5  484.77   21.40
  -6   2  -5  439.28   17.84
  -6   2  -5  442.10   20.55
  -6   2  -5  467.46   22.68
   6  -2   5  470.00   18.59
   6  -2   5  501.28   27.39
   6  -2   5  436.23   23.51
  -7   2  -5  162.61    8.58
  -7   2  -5  184.92   13.82
  -7   2  -5  176.44    8.72
   7  -2   5  159.97    9.73
  -8   2  -5   77.63    4.58
  -8   2  -5   57.31    9.64
  -8   2  -5   82.41    4.63
   8  -2   5   96.53    8.69
  -9   2  -5  252.62   18.28
 -10   2  -5   24.16    7.79
 -10  -1   5   14.43    5.85
  -9  -1   5    7.04    4.20
  -8  -1   5  196.10   12.89
  -7  -1   5 1076.06   39.86
  -6  -1   5 2878.44   93.74
  -5  -1   5   36.30    5.12
  -5  -1   5   35.99    4.10
  -5  -1   5   35.78    3.47
  -4  -1   5   74.71    6.10
  -4  -1   5   80.17    4.60
  -4  -1   5   77.01    5.25
   3   1  -5   83.36    3.86
  -3  -1   5   73.26    5.77
  -3  -1   5   79.98    5.16
  -3  -1   5   79.39    4.64
   2   1  -5 2497.86   78.16
   2   1  -5 2509.38   76.29
  -2  -1   5 2346.06   78.64
  -2  -1   5 2516.62   77.70
  -2  -1   5 2498.46   77.42
  -2  -1   5 2419.95   76.56
   1   1  -5  919.73   30.62
   1   1  -5  867.53   28.54
  -1  -1   5  870.26   27.84
  -1  -1   5  880.91   29.60
  -1  -1   5  898.24   29.09
  -1  -1   5  848.93   30.70
   0   1  -5   56.14    3.71
   0   1  -5   52.79    4.97
   0   1  -5   58.93    4.32
   0  -1   5   56.17    5.07
   0  -1   5   54.33    3.54
   0  -1   5   65.17    4.50
  -1   1  -5  732.79   25.33
  -1   1  -5  743.97   24.70
  -1   1  -5  722.13   26.89
   1  -1   5  727.94   25.67
   1  -1   5  734.05   24.64
   1  -1   5  769.65   27.10
  -2   1  -5  483.35   19.61
  -2   1  -5  469.52   16.75
  -2   1  -5  463.27   17.62
   2  -1   5  485.49   19.28
   2  -1   5  506.99   18.35
   2  -1   5  484.87   17.13
  -3   1  -5  992.12   32.73
  -3   1  -5  961.80   31.23
  -3   1  -5  988.36   35.32
   3  -1   5  947.02   34.45
   3  -1   5  961.00   32.12
  -4   1  -5  290.20   11.85
  -4   1  -5  298.03   13.02
  -4   1  -5  290.00   14.56
   4  -1   5  278.04   11.51
   4  -1   5  271.20   13.41
  -5   1  -5    0.70    2.76
  -5   1  -5    0.62    2.05
  -5   1  -5    4.11    1.92
  -5   1  -5    2.83    1.79
   5  -1   5    0.86    2.37
   5  -1   5    4.59    1.87
  -6   1  -5   95.92    5.52
  -6   1  -5   96.45    5.59
  -6   1  -5   98.85    7.55
  -6   1  -5   74.07    8.88
   6  -1   5   90.01    7.17
   6  -1   5   91.34    6.07
  -7   1  -5    4.04    2.96
  -7   1  -5    0.43    3.37
  -7   1  -5    8.34    1.68
  -7   1  -5    9.09    1.75
   7  -1   5    8.86    2.81
  -8   1  -5   17.01    5.57
   8  -1   5   17.47    4.12
  -9   1  -5   13.21    5.58
 -10   1  -5   70.77   10.91
 -10   0   5    8.27    5.18
  -9   0   5   21.41    6.11
  -8   0   5    1.26    3.44
  -7   0   5   11.99    4.58
   6   0  -5    0.63    1.64
  -6   0   5    1.12    2.87
   5   0  -5   61.92    4.12
  -5   0   5   64.17    7.12
   4   0  -5  211.83    8.69
  -4   0   5  219.83   10.29
  -4   0   5  232.77   11.92
   3   0  -5  563.05   19.07
   3   0  -5  561.29   20.88
  -3   0   5  570.13   20.56
  -3   0   5  560.72   21.86
   2   0  -5  433.93   15.14
   2   0  -5  429.08   16.92
  -2   0   5  441.31   16.33
  -2   0   5  424.27   17.38
  -2   0   5  437.39   14.66
   1   0  -5   67.38    4.02
   1   0  -5   65.59    4.57
   1   0  -5   67.68    5.29
  -1   0   5   71.08    5.45
  -1   0   5   64.09    4.34
  -1   0   5   62.44    4.62
  -1   0   5   73.30    3.66
   0   0  -5 1250.69   39.39
   0   0  -5 1232.59   40.03
   0   0  -5 1231.87   41.41
   0   0   5 1255.84   41.55
   0   0   5 1212.50   40.28
   0   0   5 1225.80   39.26
  -1   0  -5    2.45    1.32
  -1   0  -5   -2.99    1.61
  -1   0  -5    1.25    1.49
   1   0   5    2.38    2.01
   1   0   5    5.56    1.81
   1   0   5    0.13    1.23
  -2   0  -5   70.75    5.74
  -2   0  -5   71.81    4.60
  -2   0  -5   69.96    4.49
  -2   0  -5   72.31    3.81
   2   0   5   67.33    4.09
   2   0   5   66.70    5.26
  -3   0  -5   59.18    4.09
  -3   0  -5   48.04    5.53
  -3   0  -5   60.19    4.08
  -3   0  -5   58.22    2.75
  -3   0  -5   57.32    2.72
  -3   0  -5   54.77    4.52
   3   0   5   62.80    3.84
   3   0   5   58.62    4.95
  -4   0  -5   16.18    2.36
  -4   0  -5   19.93    3.14
  -4   0  -5   23.13    4.24
  -4   0  -5   21.80    2.69
   4   0   5   19.80    3.33
   4   0   5   18.09    2.43
  -5   0  -5   59.05    5.54
  -5   0  -5   61.41    3.78
  -5   0  -5   57.62    3.73
  -5   0  -5   68.87    7.27
   5   0   5   50.82    3.86
  -6   0  -5  767.28   28.31
  -6   0  -5  789.53   30.59
   6   0   5  760.71   26.21
  -7   0  -5   18.35    4.85
  -7   0  -5   22.02    4.11
   7   0   5   25.67    3.34
  -8   0  -5    9.23    3.47
  -8   0  -5    6.76    4.20
  -9   0  -5    5.88    4.45
 -10   0  -5   41.57    8.29
 -11   0  -5    5.89    4.82
 -10   1   5    1.14    4.50
  -9   1   5    1.20    4.42
  -8   1   5   59.78    9.12
  -7   1   5  418.79   21.67
   6  -1  -5  128.57    7.31
  -6   1   5  112.73   10.10
   5  -1  -5  234.28   10.40
  -5   1   5  242.15   13.76
  -5   1   5  239.84    9.53
   4  -1  -5  154.46    8.64
   4  -1  -5  142.35    7.18
  -4   1   5  135.67    6.98
  -4   1   5  159.25    9.90
   3  -1  -5   59.27    4.09
   3  -1  -5   60.77    5.35
  -3   1   5   55.72    6.29
  -3   1   5   53.19    5.22
  -3   1   5   57.36    4.22
   2  -1  -5  152.11    6.98
   2  -1  -5  149.19    7.78
   2  -1  -5  154.05    8.68
  -2   1   5  157.28    8.04
  -2   1   5  154.34    7.40
  -2   1   5  145.84    8.93
  -2   1   5  163.20    6.27
   1  -1  -5  651.95   23.73
   1  -1  -5  664.60   22.50
   1  -1  -5  631.10   21.58
  -1   1   5  630.08   22.56
  -1   1   5  625.87   21.24
  -1   1   5  637.58   22.12
  -1   1   5  654.06   23.89
  -1   1   5  612.43   22.06
   0  -1  -5  706.95   25.44
   0  -1  -5  718.57   24.10
   0  -1  -5  733.70   23.45
   0   1   5  695.76   23.94
   0   1   5  678.85   24.23
   0   1   5  693.01   23.31
   0   1   5  693.98   25.33
  -1  -1  -5  181.52    9.26
  -1  -1  -5  192.54    8.19
  -1  -1  -5  180.23    7.38
   1   1   5  190.60    8.31
   1   1   5  191.83    8.20
   1   1   5  180.00    7.53
   1   1   5  181.54    9.04
  -2  -1  -5  728.13   25.15
  -2  -1  -5  742.75   26.43
  -2  -1  -5  728.97   24.55
  -2  -1  -5  739.25   23.51
  -2  -1  -5  730.51   24.65
   2   1   5  715.35   24.08
   2   1   5  770.64   26.07
  -3  -1  -5   45.06    4.82
  -3  -1  -5   35.22    3.05
  -3  -1  -5   35.74    3.08
  -3  -1  -5   37.16    3.71
   3   1   5   44.13    2.86
   3   1   5   40.25    4.20
  -4  -1  -5 1450.12   44.39
  -4  -1  -5 1454.78   44.39
  -4  -1  -5 1308.32   47.35
  -4  -1  -5 1413.06   46.12
   4   1   5 1444.02   44.44
  -5  -1  -5    0.46    1.61
  -5  -1  -5    1.63    2.27
   5   1   5   -0.91    0.81
  -6  -1  -5  540.77   20.28
  -6  -1  -5  511.00   21.65
   6   1   5  543.41   17.98
  -7  -1  -5  399.02   17.00
  -7  -1  -5  429.36   19.14
  -8  -1  -5   34.45    5.95
  -8  -1  -5   25.34    4.35
  -9  -1  -5    8.29    3.11
  -9  -1  -5    8.45    4.35
 -10  -1  -5   46.28    7.90
 -11  -1  -5   71.24   10.15
  -9   2   5   65.72   10.75
  -8   2   5  191.55   15.48
   7  -2  -5  124.70    8.41
  -7   2   5  104.09   12.37
   6  -2  -5  221.85   11.11
  -6   2   5  218.13    9.52
  -6   2   5  205.83   14.44
   5  -2  -5   23.53    4.70
   5  -2  -5   42.82    4.76
  -5   2   5   22.66    5.55
  -5   2   5   25.58    3.53
   4  -2  -5   63.79    5.40
   4  -2  -5   69.59    7.21
  -4   2   5   69.08    8.21
  -4   2   5   61.48    5.39
   3  -2  -5    1.73    2.34
   3  -2  -5    3.65    2.13
   3  -2  -5    5.10    1.90
  -3   2   5    3.34    2.75
  -3   2   5    5.80    1.37
  -3   2   5    7.41    2.67
  -3   2   5    3.74    1.89
   2  -2  -5    0.98    1.70
   2  -2  -5    0.70    2.12
   2  -2  -5    0.91    1.40
  -2   2   5    2.33    2.46
  -2   2   5    0.66    1.67
  -2   2   5   -0.27    1.16
  -2   2   5    0.62    1.89
   1  -2  -5  622.50   24.28
   1  -2  -5  647.42   21.35
   1  -2  -5  635.68   22.02
   1  -2  -5  654.82   22.98
  -1   2   5  643.60   24.47
  -1   2   5  650.02   23.16
  -1   2   5  624.22   21.76
  -1   2   5  642.87   22.64
   0  -2  -5  249.42   10.46
   0  -2  -5  244.67   10.11
   0  -2  -5  246.19    9.77
   0  -2  -5  251.48   11.81
   0   2   5  235.65   11.54
   0   2   5  257.62    9.83
   0   2   5  245.11   10.57
   0   2   5  242.50   10.31
  -1  -2  -5 2517.16   81.29
  -1  -2  -5 2534.02   80.43
  -1  -2  -5 2585.21   80.40
  -1  -2  -5 2517.62   82.20
  -1  -2  -5 2595.85   79.52
   1   2   5 2677.70   82.01
   1   2   5 2584.43   79.84
   1   2   5 2529.35   80.46
  -2  -2  -5  469.10   16.84
  -2  -2  -5  465.98   14.65
  -2  -2  -5  449.44   18.16
  -2  -2  -5  477.38   16.29
  -2  -2  -5  438.47   17.81
  -2  -2  -5  462.39   16.12
  -2  -2  -5  455.42   14.65
   2   2   5  461.68   17.46
   2   2   5  461.35   15.72
  -3  -2  -5  227.26   10.69
  -3  -2  -5  244.70    9.84
  -3  -2  -5  237.57    8.71
  -3  -2  -5  233.76    8.66
   3   2   5  227.38    8.36
  -4  -2  -5   75.15    4.72
  -4  -2  -5   72.68    5.58
  -5  -2  -5    0.83    1.32
  -5  -2  -5   -0.08    1.75
  -6  -2  -5  293.73   12.43
  -6  -2  -5  318.42   14.08
  -7  -2  -5   11.84    3.60
  -7  -2  -5   15.68    2.95
  -8  -2  -5    1.72    2.10
  -8  -2  -5   -1.85    2.47
  -9  -2  -5    8.89    3.13
  -9  -2  -5    1.18    3.36
 -10  -2  -5   24.53    4.73
 -10  -2  -5   25.27    5.92
 -11  -2  -5   23.49    6.02
  -9   3   5   19.87    7.72
   8  -3  -5   13.19    4.57
  -8   3   5   16.30    6.85
   7  -3  -5  114.83    9.42
  -7   3   5  112.95   13.26
  -7   3   5   91.13    6.10
   6  -3  -5  228.19   12.16
  -6   3   5  240.97   16.33
  -6   3   5  230.10   11.14
   5  -3  -5    8.58    3.85
   5  -3  -5    6.52    2.68
  -5   3   5    9.80    4.82
  -5   3   5   13.43    3.10
   4  -3  -5  315.37   14.11
   4  -3  -5  312.79   15.20
   4  -3  -5  339.96   16.78
  -4   3   5  326.70   11.51
  -4   3   5  330.12   11.51
  -4   3   5  345.06   14.59
  -4   3   5  336.01   17.91
   3  -3  -5    7.73    2.86
   3  -3  -5   11.90    3.76
   3  -3  -5   11.88    2.75
   3  -3  -5   14.74    1.92
  -3   3   5   12.72    3.36
  -3   3   5   13.50    2.31
  -3   3   5   12.34    4.12
  -3   3   5   13.24    3.06
   2  -3  -5  444.45   19.74
   2  -3  -5  450.84   17.29
   2  -3  -5  445.45   15.97
   2  -3  -5  455.65   18.19
  -2   3   5  459.76   20.61
  -2   3   5  448.11   18.56
  -2   3   5  476.48   16.86
  -2   3   5  473.47   18.02
   1  -3  -5  397.57   14.91
   1  -3  -5  397.85   15.87
   1  -3  -5  391.12   17.52
   1  -3  -5  380.82   14.52
  -1   3   5  379.37   15.52
  -1   3   5  392.12   16.01
  -1   3   5  386.01   14.73
  -1   3   5  402.40   17.57
   0  -3  -5  202.94    8.51
   0  -3  -5  179.85   10.48
   0  -3  -5  194.26    9.33
   0  -3  -5  204.16    9.19
   0   3   5  188.24    9.12
   0   3   5  190.84    9.35
   0   3   5  200.77    8.58
   0   3   5  206.43   10.72
  -1  -3  -5 2763.45   89.10
  -1  -3  -5 2746.96   87.98
  -1  -3  -5 2838.84   87.91
  -1  -3  -5 2808.95   86.81
  -1  -3  -5 2827.58   90.19
   1   3   5 2802.25   88.14
   1   3   5 2840.88   89.64
   1   3   5 2820.58   87.34
  -2  -3  -5  172.99    8.31
  -2  -3  -5  192.85    9.56
  -2  -3  -5  179.14    9.68
  -2  -3  -5  177.75    7.68
  -2  -3  -5  188.13    7.88
   2   3   5  190.96    7.45
   2   3   5  150.08    8.59
  -3  -3  -5 2489.08   76.42
  -3  -3  -5 2544.46   76.41
  -3  -3  -5 2341.68   79.06
  -3  -3  -5 2535.76   78.01
  -3  -3  -5 2456.74   80.70
   3   3   5 2500.50   76.31
  -4  -3  -5   78.44    5.71
  -4  -3  -5   82.20    4.89
  -4  -3  -5   91.84    7.59
  -5  -3  -5  308.72   12.50
  -5  -3  -5  274.74   12.25
  -5  -3  -5  271.37   11.13
  -5  -3  -5  286.34   15.14
  -6  -3  -5  252.51   11.00
  -6  -3  -5  214.47   10.74
  -6  -3  -5  222.23    9.55
  -7  -3  -5  245.67   11.85
  -7  -3  -5  219.40   10.96
  -7  -3  -5  257.26   10.54
  -8  -3  -5  275.20   12.04
  -8  -3  -5  280.94   13.70
  -9  -3  -5  267.26   12.21
  -9  -3  -5  253.42   13.73
 -10  -3  -5    7.31    3.64
 -10  -3  -5    3.84    2.49
 -11  -3  -5  501.37   23.17
 -11  -3  -5  486.99   20.98
   8  -4  -5   77.09    8.91
  -8   4   5   97.42    6.03
  -8   4   5   79.61   13.03
   7  -4  -5  338.79   16.80
  -7   4   5  317.83   21.48
  -7   4   5  326.30   14.67
   6  -4  -5  328.59   15.86
  -6   4   5  321.98   20.48
  -6   4   5  318.98   15.02
   5  -4  -5    1.80    2.56
  -5   4   5    5.49    2.77
  -5   4   5    8.10    4.73
   4  -4  -5  262.00   10.77
   4  -4  -5  276.90   15.73
   4  -4  -5  247.43   12.66
   4  -4  -5  272.07   14.23
  -4   4   5  270.49   13.31
  -4   4   5  273.69   16.83
  -4   4   5  276.39   10.88
   3  -4  -5   35.11    3.78
   3  -4  -5   31.31    4.42
   3  -4  -5   26.54    5.65
   3  -4  -5   27.18    4.76
  -3   4   5   35.78    5.07
  -3   4   5   34.77    6.70
  -3   4   5   30.83    3.66
   2  -4  -5   33.49    4.20
   2  -4  -5   41.28    5.17
   2  -4  -5   42.52    6.33
   2  -4  -5   47.17    4.05
  -2   4   5   37.06    6.12
  -2   4   5   47.41    5.71
  -2   4   5   37.43    4.68
  -2   4   5   35.54    4.16
   1  -4  -5  124.85    7.05
   1  -4  -5  126.95    7.92
   1  -4  -5  140.86    9.77
   1  -4  -5  130.65    7.31
  -1   4   5  139.21    8.07
  -1   4   5  136.19    8.35
  -1   4   5  127.51    7.03
  -1   4   5  108.65    8.95
   0  -4  -5   -1.52    1.65
   0  -4  -5    3.23    2.77
   0  -4  -5   -1.76    1.36
   0  -4  -5    1.46    1.89
   0   4   5   -2.50    1.47
   0   4   5   -2.66    1.64
   0   4   5    1.02    2.32
   0   4   5   -1.30    1.46
  -1  -4  -5 1696.15   57.61
  -1  -4  -5 1730.15   55.05
  -1  -4  -5 1694.51   53.67
  -1  -4  -5 1729.34   56.68
  -1  -4  -5 1661.72   55.07
   1   4   5 1662.98   55.33
   1   4   5 1752.37   54.59
   1   4   5 1707.60   57.03
  -2  -4  -5  991.83   33.10
  -2  -4  -5 1006.78   34.05
  -2  -4  -5  990.27   32.97
  -2  -4  -5 1016.62   35.72
  -2  -4  -5 1011.20   35.97
   2   4   5  970.27   34.45
   2   4   5 1022.79   32.71
  -3  -4  -5 2433.01   73.59
  -3  -4  -5 2312.11   75.37
  -3  -4  -5 2444.19   77.11
  -3  -4  -5 2309.07   73.56
  -3  -4  -5 2411.23   78.66
   3   4   5 2387.23   73.71
  -4  -4  -5   52.42    4.91
  -4  -4  -5   55.36    4.14
  -4  -4  -5   49.68    6.70
  -5  -4  -5    8.59    2.46
  -5  -4  -5    9.56    2.08
  -5  -4  -5    9.56    3.79
  -5  -4  -5    4.70    2.19
  -6  -4  -5    5.82    2.29
  -6  -4  -5    3.50    1.59
  -6  -4  -5    7.56    3.82
  -6  -4  -5    7.50    2.46
  -7  -4  -5   44.88    4.92
  -7  -4  -5   35.61    3.53
  -7  -4  -5   38.60    4.48
  -7  -4  -5   36.59    6.67
  -8  -4  -5  114.35    7.42
  -8  -4  -5   97.04    5.89
  -9  -4  -5   65.78    6.73
  -9  -4  -5   61.93    5.02
 -10  -4  -5    4.15    2.47
 -10  -4  -5    4.92    3.25
 -11  -4  -5   -2.91    1.96
 -11  -4  -5   -1.49    3.16
   8  -5  -5   77.72    9.76
  -8   5   5   85.47   13.98
  -8   5   5   73.25    6.92
   7  -5  -5  138.25   11.85
  -7   5   5  138.55    9.61
  -7   5   5  134.10   16.72
   6  -5  -5    3.24    3.58
  -6   5   5   -3.01    2.46
  -6   5   5   -2.32    4.29
   5  -5  -5   78.79    8.14
  -5   5   5   81.55    8.11
  -5   5   5   79.26   11.71
  -5   5   5   82.59    4.73
   4  -5  -5    0.69    2.01
   4  -5  -5   -3.26    3.19
   4  -5  -5   -1.79    2.46
  -4   5   5   -2.35    2.70
  -4   5   5   -0.80    1.64
  -4   5   5    0.83    4.20
   3  -5  -5  144.76    8.97
   3  -5  -5  133.63   11.27
   3  -5  -5  143.01    9.97
   3  -5  -5  145.43    8.30
  -3   5   5  140.97    8.13
  -3   5   5  147.91   10.47
  -3   5   5  143.81   11.98
  -3   5   5  150.55    9.77
   2  -5  -5  645.21   24.33
   2  -5  -5  650.19   25.64
   2  -5  -5  651.59   24.39
   2  -5  -5  656.58   28.35
  -2   5   5  649.04   25.47
  -2   5   5  657.99   24.09
  -2   5   5  659.42   26.12
  -2   5   5  633.39   28.29
   1  -5  -5  526.48   20.99
   1  -5  -5  514.85   19.52
   1  -5  -5  519.04   23.29
   1  -5  -5  519.74   20.44
  -1   5   5  505.60   21.10
  -1   5   5  529.14   20.89
  -1   5   5  508.50   23.28
  -1   5   5  489.49   19.54
   0  -5  -5  236.70   13.75
   0  -5  -5  245.13   12.00
   0  -5  -5  250.92   10.73
   0  -5  -5  264.60   12.56
   0   5   5  247.39   12.14
   0   5   5  259.01   13.89
   0   5   5  249.19   12.05
   0   5   5  234.88   11.01
  -1  -5  -5  213.74    8.94
  -1  -5  -5  229.52   12.73
  -1  -5  -5  239.03   12.19
  -1  -5  -5  226.67   10.41
  -1  -5  -5  232.61   10.79
   1   5   5  224.93   12.24
   1   5   5  221.35   10.00
   1   5   5  222.01   10.88
  -2  -5  -5  733.02   28.62
  -2  -5  -5  731.96   25.42
  -2  -5  -5  742.13   26.83
  -2  -5  -5  723.99   25.55
  -2  -5  -5  749.73   28.51
   2   5   5  714.68   25.20
   2   5   5  780.91   27.59
  -3  -5  -5   95.06    7.80
  -3  -5  -5   83.79    5.85
  -3  -5  -5   82.73    6.77
  -3  -5  -5   84.90    4.42
  -3  -5  -5   93.81    4.54
   3   5   5   83.62    4.68
  -4  -5  -5    7.04    2.17
  -4  -5  -5    7.30    2.83
  -4  -5  -5    7.71    3.95
  -5  -5  -5  470.00   19.38
  -5  -5  -5  538.76   23.57
  -5  -5  -5  503.91   19.85
  -5  -5  -5  533.15   18.64
  -6  -5  -5    9.20    2.54
  -6  -5  -5    3.18    2.35
  -6  -5  -5    3.98    1.75
  -6  -5  -5    1.15    3.54
  -7  -5  -5    5.73    2.44
  -7  -5  -5    3.74    1.68
  -7  -5  -5    4.00    2.28
  -8  -5  -5  184.16    9.74
  -8  -5  -5  199.25    8.65
  -8  -5  -5  203.76   14.90
  -9  -5  -5  159.81    9.09
  -9  -5  -5  154.06    7.69
 -10  -5  -5    6.60    2.36
 -10  -5  -5   10.56    3.46
 -11  -5  -5  217.65   10.90
 -11  -5  -5  235.75   12.84
   7  -6  -5   18.01    5.52
  -7   6   5   20.46    8.83
  -7   6   5    3.25    3.48
   6  -6  -5   27.92    5.91
  -6   6   5   33.33    9.57
  -6   6   5   18.02    5.13
   5  -6  -5   13.83    4.25
  -5   6   5   11.70    2.68
  -5   6   5   18.89    6.92
  -5   6   5   23.22    5.27
   4  -6  -5   68.65   10.27
   4  -6  -5   55.13    8.70
   4  -6  -5   38.54    5.94
  -4   6   5   47.66    9.24
  -4   6   5   49.78    5.50
  -4   6   5   59.78    7.50
   3  -6  -5   81.22    8.04
   3  -6  -5   74.57    8.42
   3  -6  -5   89.72   11.33
   3  -6  -5   90.65    7.23
  -3   6   5   75.80    8.85
  -3   6   5   81.08    8.25
  -3   6   5   75.04   10.43
  -3   6   5  103.14    7.13
   2  -6  -5    2.20    2.52
   2  -6  -5    1.14    2.34
   2  -6  -5    2.96    3.10
   2  -6  -5   -2.97    3.12
  -2   6   5   -5.62    2.35
  -2   6   5    0.12    2.12
  -2   6   5    1.83    2.70
  -2   6   5   -0.03    3.58
   1  -6  -5    6.46    3.09
   1  -6  -5    7.75    2.81
   1  -6  -5    7.91    3.47
   1  -6  -5    7.45    3.90
  -1   6   5   15.88    3.44
  -1   6   5    7.10    3.49
  -1   6   5    8.02    4.12
  -1   6   5    7.31    3.16
   0  -6  -5  145.12    8.76
   0  -6  -5  142.70    9.58
   0  -6  -5  114.06   10.14
   0  -6  -5  126.75    8.65
   0  -6  -5  146.50    7.58
   0   6   5  143.37    9.22
   0   6   5  127.54    8.03
   0   6   5  139.82   10.43
  -1  -6  -5  110.70    5.63
  -1  -6  -5  118.29    7.26
  -1  -6  -5   97.31    8.48
  -1  -6  -5  108.56    7.40
  -1  -6  -5  103.68    9.10
   1   6   5  117.96    7.89
   1   6   5  112.77    6.97
   1   6   5  127.26    9.36
  -2  -6  -5  274.88   14.71
  -2  -6  -5  297.31   12.10
  -2  -6  -5  274.95   11.71
  -2  -6  -5  258.20   14.52
   2   6   5  248.90   13.29
   2   6   5  284.01   11.73
  -3  -6  -5  196.33    8.22
  -3  -6  -5  212.87   11.89
  -3  -6  -5  190.52   12.36
  -3  -6  -5  199.43    8.22
  -3  -6  -5  184.99   10.04
   3   6   5  197.91    8.74
  -4  -6  -5   89.58    6.07
  -4  -6  -5   81.03    6.96
  -4  -6  -5   85.56    9.70
   4   6   5   79.21    4.46
  -5  -6  -5  384.54   15.35
  -5  -6  -5  400.71   20.27
  -5  -6  -5  379.62   16.72
  -6  -6  -5  769.14   28.64
  -6  -6  -5  799.51   27.35
  -6  -6  -5  747.90   33.15
  -6  -6  -5  814.76   28.65
  -7  -6  -5   21.82    2.99
  -7  -6  -5   12.20    5.50
  -7  -6  -5   24.76    4.06
  -8  -6  -5    0.86    2.15
  -8  -6  -5   -2.29    1.41
  -8  -6  -5    0.80    4.22
  -9  -6  -5   44.85    8.67
  -9  -6  -5   44.06    5.16
  -9  -6  -5   43.49    4.00
 -10  -6  -5   64.89    4.86
 -10  -6  -5   70.15    6.12
 -11  -6  -5   83.38    5.81
 -11  -6  -5   75.43    6.91
   6  -7  -5  157.60   13.20
  -6   7   5  144.76   17.64
  -6   7   5  112.85   11.50
   5  -7  -5   73.66    8.70
  -5   7   5   91.81    9.94
  -5   7   5   94.38    6.62
  -5   7   5  100.08   13.90
   4  -7  -5   80.93   12.10
   4  -7  -5   73.15    8.32
  -4   7   5   81.65    7.32
  -4   7   5   86.83   12.65
  -4   7   5   87.43    9.44
   3  -7  -5   60.03    7.18
   3  -7  -5   61.67    7.46
   3  -7  -5   66.99    8.51
   3  -7  -5   58.63   10.18
  -3   7   5   42.49    8.68
  -3   7   5   60.34    6.47
  -3   7   5   56.73    7.59
   2  -7  -5  359.17   18.29
   2  -7  -5  377.14   17.84
   2  -7  -5  350.04   20.96
   2  -7  -5  358.95   16.53
  -2   7   5  346.07   17.98
  -2   7   5  394.39   16.91
  -2   7   5  393.91   21.83
   1  -7  -5   11.51    3.30
   1  -7  -5   10.41    4.09
   1  -7  -5    9.31    3.86
   1  -7  -5   14.91    5.17
  -1   7   5    6.69    4.78
  -1   7   5   12.18    4.05
  -1   7   5   11.70    3.42
   0  -7  -5   16.36    5.23
   0  -7  -5   13.12    4.28
   0  -7  -5   22.31    4.32
   0  -7  -5   12.55    3.65
   0  -7  -5   14.41    3.11
   0   7   5   15.49    4.32
   0   7   5   13.48    3.57
   0   7   5   14.07    4.98
  -1  -7  -5   25.95    5.86
  -1  -7  -5   16.49    3.57
  -1  -7  -5   17.76    3.87
  -1  -7  -5   13.46    4.59
  -1  -7  -5   18.71    2.56
   1   7   5   25.12    5.00
   1   7   5   24.90    4.23
   1   7   5   20.46    5.16
  -2  -7  -5  105.25    6.99
  -2  -7  -5  102.57    6.79
  -2  -7  -5  106.44    9.56
  -2  -7  -5   96.23   10.06
   2   7   5  120.62    8.82
   2   7   5  106.72    6.94
  -3  -7  -5  302.85   11.97
  -3  -7  -5  303.68   16.75
  -3  -7  -5  316.54   16.49
  -3  -7  -5  290.87   11.93
   3   7   5  309.45   12.79
  -4  -7  -5   92.17    8.26
  -4  -7  -5   89.87    6.91
  -4  -7  -5  101.57   10.97
   4   7   5   92.08    5.52
  -5  -7  -5  614.88   22.57
  -5  -7  -5  570.08   27.16
  -5  -7  -5  579.04   24.18
  -6  -7  -5   16.14    3.18
  -6  -7  -5   16.09    5.60
  -6  -7  -5   17.29    3.99
  -7  -7  -5   43.32    4.61
  -7  -7  -5   29.49    7.10
  -7  -7  -5   34.99    4.84
  -8  -7  -5    1.14    2.36
  -8  -7  -5   -5.05    3.10
  -8  -7  -5    0.68    1.64
  -9  -7  -5    3.15    1.87
  -9  -7  -5    3.46    2.67
  -9  -7  -5   -1.73    3.97
 -10  -7  -5  373.21   16.16
 -10  -7  -5  377.76   14.83
 -10  -7  -5  410.23   24.42
 -11  -7  -5   52.57    4.86
 -11  -7  -5   58.30    6.09
   5  -8  -5   23.46    6.01
  -5   8   5   28.80    4.65
  -5   8   5   36.58   10.54
  -5   8   5   23.39    6.25
   4  -8  -5  210.52   18.29
   4  -8  -5  213.11   13.39
  -4   8   5  209.58   11.96
  -4   8   5  214.61   18.53
  -4   8   5  202.84   14.55
   3  -8  -5  116.05   11.67
   3  -8  -5  133.34   15.39
   3  -8  -5  141.18   10.94
   3  -8  -5  152.90   10.44
  -3   8   5  132.25   15.21
  -3   8   5  137.06    9.90
  -3   8   5  141.13   12.74
   2  -8  -5   -3.74    2.04
   2  -8  -5    2.41    4.74
   2  -8  -5    4.68    3.69
   2  -8  -5    2.18    3.72
  -2   8   5    0.65    5.06
  -2   8   5    6.35    3.41
  -2   8   5    5.96    4.17
   1  -8  -5   66.55    7.96
   1  -8  -5   64.79   10.46
   1  -8  -5   84.74    9.71
   1  -8  -5   74.48    7.02
  -1   8   5   76.74    8.65
  -1   8   5   80.30    7.87
  -1   8   5   84.68   11.33
   0  -8  -5  446.49   24.18
   0  -8  -5  444.33   17.63
   0  -8  -5  468.24   22.18
   0  -8  -5  458.09   20.47
   0   8   5  448.64   19.50
   0   8   5  447.82   23.11
  -1  -8  -5   -1.37    2.63
  -1  -8  -5    0.62    3.86
  -1  -8  -5   -1.17    3.30
  -1  -8  -5   -0.16    2.49
  -1  -8  -5    1.09    1.48
   1   8   5    1.43    2.56
   1   8   5   -2.87    3.20
  -2  -8  -5   91.98    7.79
  -2  -8  -5   96.36    6.95
  -2  -8  -5  106.38   12.00
  -2  -8  -5   81.12   10.01
   2   8   5   93.78    7.24
  -3  -8  -5   24.90    3.38
  -3  -8  -5   17.00    5.24
  -3  -8  -5   18.26    2.89
  -3  -8  -5    6.17    4.13
   3   8   5   21.81    3.70
  -4  -8  -5   20.72    5.35
  -4  -8  -5   12.81    5.65
   4   8   5   20.53    3.43
  -5  -8  -5 1106.76   38.48
  -5  -8  -5 1116.94   44.40
  -5  -8  -5 1024.92   40.43
  -6  -8  -5   19.84    4.63
  -6  -8  -5   14.35    6.38
  -6  -8  -5   15.18    3.55
  -7  -8  -5  455.65   18.00
  -7  -8  -5  411.36   24.06
  -7  -8  -5  451.66   19.83
  -8  -8  -5   80.26   11.53
  -8  -8  -5   79.67    7.14
  -8  -8  -5   73.50    5.85
  -9  -8  -5   29.61    4.89
  -9  -8  -5   25.52    8.00
  -9  -8  -5   20.54    3.42
 -10  -8  -5    2.11    2.85
 -10  -8  -5    2.27    2.04
 -10  -8  -5   -1.32    5.11
   4  -9  -5    0.25    3.25
  -4   9   5    1.91    4.73
  -4   9   5    6.08    7.10
  -4   9   5    1.57    3.04
   3  -9  -5   11.11    5.29
   3  -9  -5   11.69    6.94
   3  -9  -5    5.37    3.83
  -3   9   5   13.95    4.47
  -3   9   5   15.32    5.82
  -3   9   5   12.81    7.38
   2  -9  -5  365.32   22.93
   2  -9  -5  317.96   18.50
   2  -9  -5  287.63   17.60
   2  -9  -5  306.82   15.64
  -2   9   5  346.55   22.75
  -2   9   5  306.63   16.28
   1  -9  -5   -0.75    3.26
   1  -9  -5    0.70    2.56
   1  -9  -5   -4.09    4.26
   1  -9  -5   -3.48    2.79
  -1   9   5   -0.72    4.83
  -1   9   5   -2.02    2.87
   0  -9  -5    3.05    3.97
   0  -9  -5    0.58    2.04
   0  -9  -5   -0.97    2.96
   0  -9  -5    1.86    4.76
   0   9   5    1.20    2.95
  -1  -9  -5   14.37    5.43
  -1  -9  -5   13.99    4.22
  -1  -9  -5   11.35    5.87
   1   9   5    9.46    3.71
  -2  -9  -5  219.47   11.56
  -2  -9  -5  200.63   15.45
  -2  -9  -5  217.83   15.41
  -2  -9  -5  219.53   11.41
   2   9   5  219.66   11.97
  -3  -9  -5  835.73   36.67
  -3  -9  -5  820.77   29.01
  -3  -9  -5  821.73   28.89
  -3  -9  -5  901.86   36.70
   3   9   5  822.41   30.80
  -4  -9  -5  377.48   20.39
  -4  -9  -5  401.15   22.17
   4   9   5  363.39   16.00
  -5  -9  -5  340.09   20.70
  -5  -9  -5  316.74   17.98
  -6  -9  -5   96.75   10.10
  -6  -9  -5   87.13   12.29
  -7  -9  -5  312.99   16.69
  -7  -9  -5  329.04   21.18
  -7  -9  -5  316.93   14.92
  -8  -9  -5   16.28    3.68
  -8  -9  -5   17.61    4.50
  -8  -9  -5   25.52    8.11
  -9  -9  -5  114.58    7.64
  -9  -9  -5  122.31    9.28
  -9  -9  -5  104.43   14.03
 -10  -9  -5   65.39    7.29
 -10  -9  -5   66.25    6.02
 -10  -9  -5   67.28   12.22
   3 -10  -5    8.59    5.27
   3 -10  -5   22.51    8.79
  -3  10   5   13.39    4.85
   2 -10  -5  100.93   12.03
   2 -10  -5   98.18   11.20
   2 -10  -5   88.62    8.73
   2 -10  -5   95.04   14.38
  -2  10   5   78.29    9.00
   1 -10  -5  411.56   26.25
   1 -10  -5  376.52   21.97
   1 -10  -5  402.49   17.42
   1 -10  -5  445.35   21.77
  -1  10   5  393.80   19.75
   0 -10  -5   32.04    9.30
   0 -10  -5   32.75    3.86
   0 -10  -5   23.75    7.06
   0 -10  -5   26.98    6.21
   0  10   5   38.01    6.51
  -1 -10  -5   10.49    6.39
  -1 -10  -5   22.30    5.13
  -1 -10  -5   17.41    6.36
   1  10   5   17.95    4.92
  -2 -10  -5    8.04    5.45
  -2 -10  -5   10.59    5.62
  -2 -10  -5    8.43    3.44
  -2 -10  -5    6.96    3.12
   2  10   5   17.38    4.58
  -3 -10  -5    8.38    5.41
  -3 -10  -5    9.70    2.66
  -3 -10  -5   10.38    6.17
  -3 -10  -5    7.18    2.63
   3  10   5    9.00    3.65
  -4 -10  -5  456.66   25.86
  -4 -10  -5  471.14   24.95
   4  10   5  481.49   23.20
  -5 -10  -5   19.97    6.27
  -5 -10  -5   33.43    8.68
  -6 -10  -5   15.54    5.31
  -6 -10  -5   12.29    6.36
  -7 -10  -5   25.05    6.12
  -7 -10  -5   21.48    8.12
  -8 -10  -5   60.00    8.19
  -8 -10  -5   42.34   10.23
  -9 -10  -5   14.81    7.91
  -9 -10  -5   19.73    5.06
   1 -11  -5   47.65    9.62
   1 -11  -5   68.38    9.67
   1 -11  -5   64.16   12.99
   1 -11  -5   62.96    6.38
  -1  11   5   58.21    8.22
   0 -11  -5   -0.61    5.60
   0 -11  -5    0.82    3.72
   0 -11  -5   -1.33    4.31
   0  11   5    0.41    3.57
  -1 -11  -5   51.21    7.59
  -1 -11  -5   53.27   11.11
  -1 -11  -5   68.16   11.28
   1  11   5   58.14    7.89
  -2 -11  -5   56.19    6.92
  -2 -11  -5   83.85   12.55
  -2 -11  -5   68.92   11.83
   2  11   5   57.55    7.84
  -3 -11  -5   52.34   10.05
  -3 -11  -5   51.43    9.92
  -3 -11  -5   48.19    4.94
  -3 -11  -5   60.60    5.61
   3  11   5   60.90    7.69
  -4 -11  -5    0.20    5.14
  -4 -11  -5    6.98    5.25
  -5 -11  -5   48.04    9.18
  -5 -11  -5   43.04    9.84
  -6 -11  -5    9.45    5.21
  -6 -11  -5   15.76    7.72
  -7 -11  -5  144.18   17.60
  -7 -11  -5  112.53   12.49
  -8 -11  -5   35.56    9.80
  -8 -11  -5   25.31    6.47
  -2 -12  -5   21.82    8.55
  -2 -12  -5   30.83    5.49
  -2 -12  -5   29.49    9.01
   2  12   5   19.68    5.92
  -3 -12  -5   24.90    8.30
  -3 -12  -5   31.09    4.11
  -3 -12  -5   24.20    3.72
  -3 -12  -5   26.31    8.83
   3  12   5   28.90    6.34
  -4 -12  -5  154.82   17.51
  -4 -12  -5  141.16   17.03
  -5 -12  -5   95.84   13.06
  -5 -12  -5   82.68   13.21
  -6 -12  -5    1.29    4.38
  -6 -12  -5    1.68    5.83
  -4 -11   6   65.47   11.09
  -4 -11   6   66.79   12.66
   3  11  -6   47.60    9.83
  -3 -11   6   52.74   11.35
  -3 -11   6   41.23    9.74
   2  11  -6  122.69   11.55
  -2 -11   6  135.23   17.26
  -2 -11   6  112.58    7.49
  -2 -11   6  120.34   16.15
  -2 -11   6  128.36    7.75
   1  11  -6   91.58   10.33
  -1 -11   6  102.18    9.32
  -1 -11   6  116.67   16.73
  -1 -11   6   81.03   13.45
  -7 -10   6   32.36    6.21
  -7 -10   6   33.55    9.05
  -6 -10   6   46.87   10.33
  -6 -10   6   32.96    7.68
  -6 -10   6   46.85    7.52
  -5 -10   6   -0.71    4.89
  -5 -10   6    2.81    3.79
  -5 -10   6   -3.50    3.33
  -4 -10   6   25.17    7.34
  -4 -10   6   36.27    9.15
   3  10  -6   14.61    4.57
  -3 -10   6   22.42    8.20
  -3 -10   6    7.23    5.55
   2  10  -6    8.24    4.26
  -2 -10   6   18.22    3.66
  -2 -10   6   16.78    3.51
  -2 -10   6   20.22    7.17
  -2 -10   6   18.56    7.50
   1  10  -6   18.10    4.92
  -1 -10   6    8.45    3.74
  -1 -10   6    7.96    6.63
  -1 -10   6   18.79    8.02
   0  10  -6    2.28    4.00
   0 -10   6   -1.59    5.77
   0 -10   6   -6.42    4.45
  -1  10  -6    2.15    3.88
   1 -10   6   -1.81    5.36
   1 -10   6    5.70    3.30
   1 -10   6   10.07    6.56
  -2  10  -6   -0.26    3.51
   2 -10   6    5.86    7.27
   2 -10   6    0.70    5.29
   2 -10   6    4.73    2.98
  -8  -9   6   35.39    6.72
  -8  -9   6   29.92    5.34
  -8  -9   6   35.52    8.87
  -7  -9   6  395.60   21.02
  -7  -9   6  396.39   19.02
  -7  -9   6  417.72   24.56
  -6  -9   6  286.11   17.60
  -6  -9   6  293.25   20.10
  -6  -9   6  286.34   15.76
  -5  -9   6   -2.86    4.31
  -5  -9   6    8.12    4.85
  -5  -9   6    5.23    3.74
  -4  -9   6   76.12   11.92
  -4  -9   6   56.22    9.23
   3   9  -6    9.81    3.44
   3   9  -6    4.04    3.25
  -3  -9   6   -0.20    4.02
  -3  -9   6    0.62    4.56
   2   9  -6   14.05    4.13
  -2  -9   6   15.85    6.31
  -2  -9   6   20.24    3.59
  -2  -9   6   15.75    6.47
  -2  -9   6   17.57    3.44
   1   9  -6    0.53    3.02
  -1  -9   6    3.82    5.18
  -1  -9   6   -5.24    3.91
   0   9  -6    1.05    3.15
   0  -9   6    6.05    5.57
   0  -9   6    2.05    5.04
  -1   9  -6   29.77    5.82
   1  -9   6   20.46    6.98
   1  -9   6   40.03    4.56
   1  -9   6   34.00    8.88
  -2   9  -6    5.35    3.79
   2  -9   6    3.25    2.70
   2  -9   6    8.27    6.57
   2  -9   6    0.42    4.61
  -3   9  -6   37.54    6.50
   3  -9   6   44.51   10.11
   3  -9   6   50.41    6.73
   3  -9   6   32.59    9.81
  -4   9  -6   74.07   16.17
  -4   9  -6   79.65    8.90
   4  -9   6   64.26   12.49
   4  -9   6   84.73    9.13
   4  -9   6   78.34   13.20
   4  -9   6   77.59   14.13
  -9  -8   6    5.31    3.79
  -9  -8   6    2.59    2.98
  -9  -8   6    4.37    5.52
  -8  -8   6   17.48    6.94
  -8  -8   6    5.14    3.82
  -8  -8   6   11.40    3.69
  -7  -8   6    5.91    5.02
  -7  -8   6   -1.08    2.74
  -7  -8   6    4.10    3.50
  -6  -8   6    9.73    5.52
  -6  -8   6    1.18    3.29
  -6  -8   6   -0.50    2.62
  -5  -8   6   65.19    7.52
  -5  -8   6   73.55    9.29
  -5  -8   6   68.86   10.55
  -4  -8   6    1.80    3.20
  -4  -8   6    0.60    3.74
  -4  -8   6   -1.01    3.80
   3   8  -6  794.79   29.01
  -3  -8   6  776.73   35.44
  -3  -8   6  752.10   33.87
  -3  -8   6  794.99   31.86
   2   8  -6   30.82    4.78
   2   8  -6   24.03    4.71
  -2  -8   6   20.85    5.19
  -2  -8   6   29.16    7.05
  -2  -8   6   31.80    4.26
  -2  -8   6   31.16    7.69
   1   8  -6  157.41    9.85
  -1  -8   6  141.10    9.31
  -1  -8   6  134.88   14.78
  -1  -8   6  134.75   14.73
   0   8  -6   36.63    5.77
   0  -8   6   46.99    3.29
   0  -8   6   41.74    8.57
   0  -8   6   29.62    7.51
  -1   8  -6   49.35    6.58
  -1   8  -6   51.68   14.03
   1  -8   6   30.04    7.98
   1  -8   6   29.35    4.11
   1  -8   6   35.31    7.95
  -2   8  -6    0.89    3.23
  -2   8  -6    9.65    6.36
   2  -8   6    5.46    5.61
   2  -8   6   12.70    6.38
   2  -8   6   13.22    3.48
  -3   8  -6  137.47   16.63
  -3   8  -6  147.90   16.93
  -3   8  -6  153.34   10.74
   3  -8   6  153.48   10.24
   3  -8   6  152.22   16.83
   3  -8   6  125.82   16.07
  -4   8  -6   14.85    5.71
  -4   8  -6    8.85    4.01
  -4   8  -6   25.83    8.96
   4  -8   6   18.10    7.81
   4  -8   6   15.62    4.67
   4  -8   6   17.22    7.71
   4  -8   6   14.33    6.63
  -5   8  -6   35.62    5.53
  -5   8  -6   39.30   10.46
  -5   8  -6   33.80    7.30
   5  -8   6   31.61    6.29
   5  -8   6   37.51    9.97
  -9  -7   6   10.78    3.38
  -9  -7   6    6.03    3.67
  -9  -7   6    4.74    4.52
  -8  -7   6  236.56   16.34
  -8  -7   6  240.00   13.75
  -8  -7   6  219.59   11.74
  -7  -7   6  115.22   12.64
  -7  -7   6  119.61    9.45
  -7  -7   6  100.68    7.76
  -6  -7   6 1036.93   41.98
  -6  -7   6  991.83   38.75
  -6  -7   6 1045.31   36.91
  -5  -7   6  102.98   10.23
  -5  -7   6   80.11    7.83
  -5  -7   6   76.51   10.33
  -4  -7   6   29.79    6.02
  -4  -7   6   31.39    6.85
  -4  -7   6   35.52    5.54
   3   7  -6    2.05    2.30
  -3  -7   6    5.87    3.89
  -3  -7   6   -0.26    3.96
  -3  -7   6    3.42    2.89
   2   7  -6  644.79   24.00
  -2  -7   6  616.27   26.17
  -2  -7   6  611.18   22.67
  -2  -7   6  637.47   29.23
  -2  -7   6  617.26   28.22
   1   7  -6  177.20   10.43
   1   7  -6  195.08   10.70
  -1  -7   6  182.95   10.36
  -1  -7   6  182.56   12.32
  -1  -7   6  203.09   14.71
  -1  -7   6  198.03   14.71
   0   7  -6    2.17    2.86
   0   7  -6    3.55    3.73
   0  -7   6    3.02    1.64
   0  -7   6    2.10    4.40
   0  -7   6    3.70    4.28
   0  -7   6    4.45    2.99
  -1   7  -6  280.18   14.21
  -1   7  -6  267.11   17.27
   1  -7   6  322.36   19.35
   1  -7   6  280.56   18.64
   1  -7   6  285.97   12.72
  -2   7  -6  734.37   30.22
  -2   7  -6  739.81   33.70
  -2   7  -6  742.77   28.49
   2  -7   6  725.18   34.16
   2  -7   6  739.63   33.91
   2  -7   6  698.56   27.34
  -3   7  -6  356.46   18.82
  -3   7  -6  351.18   22.29
  -3   7  -6  375.61   17.23
   3  -7   6  359.63   16.87
   3  -7   6  372.89   23.08
   3  -7   6  350.67   21.62
  -4   7  -6  115.31    8.68
  -4   7  -6  109.99   14.29
  -4   7  -6  102.36   10.26
   4  -7   6   91.71   12.73
   4  -7   6   94.87    9.05
   4  -7   6  111.40   14.55
  -5   7  -6  183.92   18.95
  -5   7  -6  155.47    9.84
  -5   7  -6  121.26   12.20
   5  -7   6  126.36   14.79
   5  -7   6  153.13   11.47
  -6   7  -6  237.96   15.52
  -6   7  -6  231.27   20.46
  -6   7  -6  229.33   11.30
   6  -7   6  189.49   13.84
   6  -7   6  213.23   17.69
 -10  -6   6  250.81   14.22
 -10  -6   6  264.59   12.92
  -9  -6   6    0.28    2.26
  -9  -6   6   -5.00    3.03
  -9  -6   6   -2.32    2.77
  -8  -6   6   34.09    5.66
  -8  -6   6   41.37    7.66
  -8  -6   6   38.05    4.74
  -7  -6   6   10.00    3.76
  -7  -6   6   11.02    3.05
  -7  -6   6   -0.85    3.36
  -6  -6   6    2.19    2.19
  -6  -6   6    2.08    2.90
  -6  -6   6    4.48    4.00
  -5  -6   6   -1.17    2.63
  -5  -6   6   -0.03    2.05
  -5  -6   6    1.64    3.42
  -4  -6   6   16.59    4.60
  -4  -6   6   20.62    3.95
  -4  -6   6   18.31    5.58
   3   6  -6   32.28    3.91
  -3  -6   6   26.10    6.16
  -3  -6   6   29.92    5.59
  -3  -6   6   29.81    4.90
   2   6  -6 1142.27   48.03
   2   6  -6 1115.02   38.25
  -2  -6   6 1129.39   40.61
  -2  -6   6 1114.20   37.45
  -2  -6   6 1150.63   43.75
  -2  -6   6 1106.24   42.69
   1   6  -6   78.13    7.01
   1   6  -6   89.07    7.92
   1   6  -6  101.40   11.76
  -1  -6   6   65.87    8.75
  -1  -6   6  103.48    6.86
  -1  -6   6   66.79    8.94
  -1  -6   6  101.53    9.14
   0   6  -6  717.72   27.51
   0   6  -6  742.80   30.90
   0   6  -6  762.58   29.19
   0  -6   6  744.65   32.46
   0  -6   6  781.67   32.66
   0  -6   6  752.82   29.93
   0  -6   6  751.82   25.51
   0  -6   6  753.54   28.21
  -1   6  -6   41.98    5.33
  -1   6  -6   31.04    5.27
  -1   6  -6   32.26    6.58
   1  -6   6   56.93   10.00
   1  -6   6   36.59    4.55
   1  -6   6   47.61    7.98
   1  -6   6   26.47    6.59
  -2   6  -6  399.12   18.94
  -2   6  -6  408.28   17.71
  -2   6  -6  394.30   21.57
   2  -6   6  425.55   22.30
   2  -6   6  409.84   17.22
   2  -6   6  386.55   22.08
  -3   6  -6   94.97    8.30
  -3   6  -6   73.97    8.22
  -3   6  -6  107.04   12.73
   3  -6   6   71.09    9.87
   3  -6   6   91.74    8.19
   3  -6   6   67.47    9.94
  -4   6  -6  234.77   14.11
  -4   6  -6  218.08   16.95
  -4   6  -6  227.46   11.94
   4  -6   6  216.60   12.70
   4  -6   6  232.10   17.33
   4  -6   6  241.11   16.86
  -5   6  -6   22.60    4.32
  -5   6  -6   20.38    7.56
  -5   6  -6   25.08    5.77
   5  -6   6   15.04    6.50
   5  -6   6    9.27    6.10
   5  -6   6    9.17    4.06
   5  -6   6   13.83    6.43
  -6   6  -6   27.40    3.94
  -6   6  -6   18.25    8.13
  -6   6  -6   17.53    5.24
   6  -6   6   14.64    6.70
   6  -6   6   16.46    4.99
  -7   6  -6   -1.31    3.59
  -7   6  -6   -0.48    5.97
   7  -6   6   -1.61    4.91
   7  -6   6    0.96    3.84
 -10  -5   6   -1.64    2.39
 -10  -5   6    0.76    3.13
  -9  -5   6    2.81    3.22
  -9  -5   6    3.56    2.64
  -8  -5   6  359.84   15.28
  -8  -5   6  322.77   16.41
  -8  -5   6  403.66   19.02
  -7  -5   6    4.28    3.68
  -7  -5   6    7.45    2.56
  -7  -5   6    6.11    3.26
  -6  -5   6  986.54   32.43
  -6  -5   6  973.70   36.14
  -6  -5   6  806.82   33.33
  -5  -5   6    5.27    2.42
  -5  -5   6   10.92    3.62
  -5  -5   6    7.14    3.62
   4   5  -6   55.23    4.14
  -4  -5   6   51.11    5.41
  -4  -5   6   52.30    7.59
  -4  -5   6   54.88    6.76
   3   5  -6  313.79   12.35
  -3  -5   6  334.46   16.95
  -3  -5   6  310.50   14.28
   2   5  -6  259.22   10.69
   2   5  -6  258.55   12.24
  -2  -5   6  222.03   12.05
  -2  -5   6  229.50   13.78
  -2  -5   6  232.41   13.40
  -2  -5   6  237.78   10.12
   1   5  -6   42.37    4.75
   1   5  -6   48.92    6.20
   1   5  -6   43.47    6.08
  -1  -5   6   37.56    6.11
  -1  -5   6   51.75    7.58
  -1  -5   6   42.13    4.68
  -1  -5   6   32.89    4.83
   0   5  -6  142.27    9.05
   0   5  -6  126.72    9.93
   0   5  -6  136.50    8.11
   0   5  -6  150.36    8.33
   0  -5   6  152.42    7.11
   0  -5   6  133.97    8.38
   0  -5   6  152.77    9.84
   0  -5   6  151.56   11.03
  -1   5  -6  451.31   21.83
  -1   5  -6  448.35   18.57
  -1   5  -6  489.49   20.07
   1  -5   6  466.83   22.75
   1  -5   6  469.58   22.62
   1  -5   6  494.27   22.99
   1  -5   6  464.72   17.91
  -2   5  -6  750.35   28.17
  -2   5  -6  808.47   30.07
  -2   5  -6  792.91   32.92
   2  -5   6  744.34   32.75
   2  -5   6  770.62   28.13
   2  -5   6  790.43   33.12
  -3   5  -6    3.57    3.09
  -3   5  -6   -2.40    3.35
  -3   5  -6    2.46    2.49
   3  -5   6   -2.09    3.39
   3  -5   6    0.54    2.33
  -4   5  -6  120.97    9.71
  -4   5  -6  141.00    8.58
  -4   5  -6  126.83   13.74
   4  -5   6  115.02   12.63
   4  -5   6  141.75    9.14
  -5   5  -6   -2.37    3.08
  -5   5  -6   -1.97    2.00
  -5   5  -6    7.98    5.56
   5  -5   6    1.10    4.35
   5  -5   6    1.99    3.21
  -6   5  -6   34.29    8.47
  -6   5  -6   49.25    4.54
  -6   5  -6   41.33    6.70
   6  -5   6   56.29    7.31
  -7   5  -6  101.43   14.48
  -7   5  -6  130.46   10.42
   7  -5   6  143.94   10.86
  -8   5  -6   19.73    5.09
  -8   5  -6   11.33    7.62
   8  -5   6   16.54    5.20
 -10  -4   6  123.94    8.74
 -10  -4   6  111.92   10.06
  -9  -4   6   47.35    6.85
  -9  -4   6   50.48    5.75
  -8  -4   6  248.83   13.67
  -8  -4   6  234.75   13.28
  -8  -4   6  266.19   12.23
  -7  -4   6  378.90   15.53
  -7  -4   6  361.62   17.52
  -7  -4   6  380.59   17.08
  -6  -4   6   -0.21    2.60
  -6  -4   6    1.79    2.53
  -6  -4   6   -0.13    1.74
  -5  -4   6  310.71   15.14
  -5  -4   6  296.42   14.23
  -5  -4   6  294.39   12.85
  -4  -4   6  535.02   22.42
  -4  -4   6  581.30   21.18
  -4  -4   6  570.29   23.42
   3   4  -6  502.33   16.84
  -3  -4   6  487.61   20.88
  -3  -4   6  489.02   18.82
  -3  -4   6  437.35   19.90
   2   4  -6  212.90   10.64
   2   4  -6  210.37    9.08
  -2  -4   6  200.81   11.77
  -2  -4   6  225.14   12.41
  -2  -4   6  214.96    8.98
  -2  -4   6  208.90   10.51
   1   4  -6  150.19    7.51
   1   4  -6  136.92    9.04
  -1  -4   6  153.35    9.98
  -1  -4   6  142.57    7.60
  -1  -4   6  136.40    9.99
  -1  -4   6  153.84    8.94
   0   4  -6   69.92    7.57
   0   4  -6   67.75    5.14
   0   4  -6   68.99    6.28
   0  -4   6   64.32    5.93
   0  -4   6   59.58    7.46
   0  -4   6   54.79    5.97
   0  -4   6   59.63    4.16
   0  -4   6   54.25    6.89
  -1   4  -6  124.57    8.20
  -1   4  -6  128.54    9.65
  -1   4  -6  119.65    7.28
   1  -4   6  132.29    9.97
   1  -4   6  120.19    6.90
   1  -4   6  136.77    8.85
  -2   4  -6   89.62    6.29
  -2   4  -6   89.98    9.82
  -2   4  -6   87.85    8.00
   2  -4   6   94.60    6.39
   2  -4   6   83.36    9.56
  -3   4  -6   24.47    3.77
  -3   4  -6   23.94    6.01
  -3   4  -6   17.79    3.96
   3  -4   6   27.27    4.13
   3  -4   6   20.61    5.23
  -4   4  -6   11.50    5.14
  -4   4  -6   24.60    3.72
  -4   4  -6   23.42    4.33
   4  -4   6   23.30    5.94
   4  -4   6   16.34    3.64
  -5   4  -6   16.29    2.94
  -5   4  -6   30.35    7.53
  -5   4  -6   25.14    4.78
   5  -4   6   20.95    4.41
   5  -4   6   17.48    5.53
  -6   4  -6   -2.47    2.44
  -6   4  -6    5.79    4.98
  -6   4  -6   -2.00    1.17
   6  -4   6    3.21    3.06
  -7   4  -6    8.63    3.56
  -7   4  -6    3.02    5.27
   7  -4   6    6.20    3.77
  -8   4  -6   26.99    4.92
  -8   4  -6   12.20    7.14
   8  -4   6   17.86    5.12
  -9   4  -6   35.82    9.90
  -9   4  -6   44.02    5.08
  -9   4  -6   40.13    4.98
   9  -4   6   39.12    7.12
 -10  -3   6   -1.94    3.42
 -10  -3   6    1.45    2.97
  -9  -3   6  176.57   10.80
  -9  -3   6  210.95   13.00
  -8  -3   6  208.53   11.01
  -8  -3   6  217.27   12.72
  -7  -3   6   23.75    4.67
  -7  -3   6   27.72    4.62
  -7  -3   6   23.31    3.87
  -6  -3   6   12.48    3.66
  -6  -3   6   10.88    2.77
  -6  -3   6   14.36    3.69
  -5  -3   6   31.99    4.10
  -5  -3   6   35.24    5.00
  -5  -3   6   33.27    4.80
  -4  -3   6  175.76    9.59
  -4  -3   6  149.72    9.22
  -4  -3   6  160.77    8.39
   3   3  -6   42.95    3.07
  -3  -3   6   40.09    5.31
  -3  -3   6   29.87    3.88
  -3  -3   6   50.95    5.72
   2   3  -6  886.80   31.17
   2   3  -6  892.11   29.31
  -2  -3   6  880.77   31.00
  -2  -3   6  889.38   29.39
  -2  -3   6  899.16   32.60
   1   3  -6   29.53    3.28
   1   3  -6   38.68    5.13
  -1  -3   6   29.79    3.84
  -1  -3   6   37.36    3.85
  -1  -3   6   33.74    2.17
  -1  -3   6   37.03    5.36
  -1  -3   6   30.17    2.06
  -1  -3   6   39.29    5.30
   0   3  -6  176.90    8.07
   0   3  -6  159.72    9.77
   0   3  -6  153.56    8.53
   0  -3   6  163.24    7.22
   0  -3   6  149.06    9.76
   0  -3   6  145.10    8.09
   0  -3   6  162.77    8.98
  -1   3  -6  153.05    7.65
  -1   3  -6  152.83    8.52
  -1   3  -6  143.85    7.56
  -1   3  -6  138.79    9.60
   1  -3   6  127.26    8.28
   1  -3   6  150.33   10.00
   1  -3   6  137.39    7.20
  -2   3  -6  343.71   15.00
  -2   3  -6  340.38   13.88
  -2   3  -6  337.18   17.09
   2  -3   6  330.78   13.86
   2  -3   6  355.72   15.63
   2  -3   6  360.78   17.32
  -3   3  -6   49.22    5.45
  -3   3  -6   44.79    4.61
  -3   3  -6   48.43    7.07
   3  -3   6   42.89    4.76
   3  -3   6   56.26    7.43
  -4   3  -6  213.38   14.07
  -4   3  -6  230.44    9.99
  -4   3  -6  217.30   11.46
   4  -3   6  208.19   10.83
   4  -3   6  233.77   13.93
  -5   3  -6   98.25    7.47
  -5   3  -6   71.84    9.60
  -5   3  -6   88.11    5.06
   5  -3   6   93.66   10.36
   5  -3   6   82.63    7.61
  -6   3  -6  153.06    9.58
  -6   3  -6  154.38   13.37
   6  -3   6  154.64    9.81
  -7   3  -6   57.71    6.28
  -7   3  -6   52.42    9.44
   7  -3   6   53.24    6.56
  -8   3  -6  207.43   10.54
  -8   3  -6  216.19   10.69
  -8   3  -6  180.74   16.22
   8  -3   6  192.42   12.19
  -9   3  -6   27.31    3.05
  -9   3  -6   33.81    9.07
  -9   3  -6   27.00    3.14
   9  -3   6   29.39    6.20
 -10  -2   6  433.31   22.42
 -10  -2   6  456.15   20.66
  -9  -2   6  167.62   12.29
  -9  -2   6  165.60   10.72
  -8  -2   6  569.50   24.38
  -8  -2   6  531.24   22.13
  -7  -2   6   93.95    7.09
  -7  -2   6   91.91    6.35
  -7  -2   6  117.77    9.06
  -6  -2   6   56.84    6.70
  -6  -2   6   58.38    5.45
  -6  -2   6   54.09    5.50
  -5  -2   6  779.68   28.25
  -5  -2   6  868.14   30.39
  -5  -2   6  763.60   28.04
  -4  -2   6 1010.05   34.23
  -4  -2   6  976.63   35.52
  -4  -2   6 1005.24   34.03
   3   2  -6  489.68   16.66
  -3  -2   6  501.87   18.91
  -3  -2   6  470.72   19.49
  -3  -2   6  496.33   18.45
   2   2  -6  236.50    9.55
   2   2  -6  240.12   11.13
  -2  -2   6  244.79   12.09
  -2  -2   6  242.42    9.76
  -2  -2   6  257.56   11.64
  -2  -2   6  257.48   11.03
   1   2  -6   19.58    2.60
   1   2  -6   24.39    4.03
  -1  -2   6   17.53    1.81
  -1  -2   6   18.80    3.75
  -1  -2   6   15.31    2.88
  -1  -2   6   18.63    2.82
  -1  -2   6   15.77    3.48
   0   2  -6  257.01   10.36
   0   2  -6  244.36   12.30
   0   2  -6  266.44   11.28
   0  -2   6  238.68   11.27
   0  -2   6  258.54    9.99
   0  -2   6  231.86   12.43
   0  -2   6  276.51   11.06
  -1   2  -6  414.23   16.93
  -1   2  -6  438.85   16.30
  -1   2  -6  439.63   18.84
   1  -2   6  444.53   18.64
   1  -2   6  459.54   16.19
   1  -2   6  429.25   17.40
  -2   2  -6  247.08   13.16
  -2   2  -6  230.99   10.12
  -2   2  -6  249.56   11.31
   2  -2   6  232.97   11.44
   2  -2   6  228.81   10.30
   2  -2   6  249.23   13.00
  -3   2  -6    2.78    1.79
  -3   2  -6    8.75    3.51
  -3   2  -6    1.89    1.93
   3  -2   6    7.15    3.14
   3  -2   6    5.36    2.15
  -4   2  -6  129.99    6.21
  -4   2  -6  121.60    7.72
  -4   2  -6  124.66    9.85
   4  -2   6  118.98    7.30
   4  -2   6  121.89    9.28
  -5   2  -6    6.94    2.65
  -5   2  -6    4.13    3.79
  -5   2  -6    6.98    1.22
   5  -2   6    9.68    2.93
   5  -2   6    4.70    3.15
  -6   2  -6  132.66    7.97
  -6   2  -6  130.53    7.93
  -6   2  -6  127.98   11.48
   6  -2   6  110.14    7.96
  -7   2  -6  184.67    9.70
  -7   2  -6  206.52    9.96
  -7   2  -6  192.36   14.86
   7  -2   6  194.77   11.02
  -8   2  -6   -0.58    1.55
  -8   2  -6    0.54    1.61
  -8   2  -6   -1.11    4.04
   8  -2   6    1.42    2.67
  -9   2  -6    5.73    5.34
   9  -2   6   13.26    5.57
 -10   2  -6   37.27    9.54
 -10  -1   6    5.35    4.03
 -10  -1   6    9.10    4.81
  -9  -1   6  646.19   28.90
  -9  -1   6  596.85   25.72
  -8  -1   6    9.88    3.50
  -8  -1   6   11.23    4.65
  -7  -1   6    3.99    3.52
  -7  -1   6   11.42    3.32
  -6  -1   6   51.50    6.72
  -6  -1   6   58.76    6.04
   5   1  -6    4.71    1.63
  -5  -1   6    1.92    1.54
  -5  -1   6    6.57    2.57
  -5  -1   6    6.48    3.07
   4   1  -6    2.07    1.26
  -4  -1   6    2.82    1.91
  -4  -1   6    0.12    2.03
  -4  -1   6    1.04    1.34
   3   1  -6  104.08    5.13
  -3  -1   6  102.68    5.63
  -3  -1   6  104.29    6.43
  -3  -1   6  106.01    7.33
   2   1  -6   27.32    2.86
   2   1  -6   32.34    4.16
  -2  -1   6   27.42    3.40
  -2  -1   6   26.31    2.91
  -2  -1   6   26.89    4.26
  -2  -1   6   23.09    3.32
   1   1  -6  804.17   28.51
   1   1  -6  852.41   29.98
   1   1  -6  823.05   27.68
  -1  -1   6  861.02   26.93
  -1  -1   6  803.46   28.77
  -1  -1   6  865.77   30.48
  -1  -1   6  837.29   28.21
   0   1  -6  615.61   21.31
   0   1  -6  619.34   23.60
   0   1  -6  632.67   22.15
   0  -1   6  659.07   23.96
   0  -1   6  583.67   22.26
   0  -1   6  617.85   21.05
  -1   1  -6  337.75   12.38
  -1   1  -6  299.41   14.31
  -1   1  -6  336.21   13.17
   1  -1   6  315.35   12.20
   1  -1   6  298.10   14.16
   1  -1   6  327.15   13.34
  -2   1  -6  373.75   16.43
  -2   1  -6  358.64   13.42
  -2   1  -6  353.96   14.34
   2  -1   6  348.71   13.64
   2  -1   6  348.94   15.81
   2  -1   6  368.95   14.83
  -3   1  -6    7.43    1.83
  -3   1  -6    8.41    3.31
  -3   1  -6    8.66    2.33
   3  -1   6    6.60    2.74
   3  -1   6    1.85    1.66
  -4   1  -6 2370.83   79.10
  -4   1  -6 2364.00   76.87
  -4   1  -6 2378.94   75.69
  -4   1  -6 2362.30   73.15
  -4   1  -6 2359.15   73.22
  -4   1  -6 2367.66   75.55
   4  -1   6 2369.83   78.03
   4  -1   6 2379.30   75.18
  -5   1  -6  573.84   23.73
  -5   1  -6  509.56   19.22
  -5   1  -6  491.96   19.10
  -5   1  -6  529.90   21.09
   5  -1   6  514.43   19.29
   5  -1   6  484.73   21.27
  -6   1  -6  802.12   31.35
  -6   1  -6  868.04   34.29
  -6   1  -6  831.94   28.79
  -6   1  -6  805.62   28.68
   6  -1   6  925.19   34.93
   6  -1   6  834.59   33.61
   6  -1   6  826.27   29.54
  -7   1  -6    3.34    1.73
  -7   1  -6    1.32    1.56
  -7   1  -6    0.56    3.88
   7  -1   6   -0.90    1.90
  -8   1  -6   52.84    8.92
   8  -1   6   54.61    6.13
  -9   1  -6    6.83    4.96
 -10   1  -6  224.78   17.28
 -10   0   6  277.48   16.63
 -10   0   6  277.78   19.15
  -9   0   6   25.26    6.80
  -9   0   6   19.88    5.14
  -8   0   6  605.55   27.96
  -7   0   6   24.48    4.67
  -7   0   6   24.49    5.90
   6   0  -6   27.73    3.57
  -6   0   6   31.15    6.01
  -6   0   6   35.02    5.01
   5   0  -6 1267.80   41.85
  -5   0   6 1286.69   44.05
  -5   0   6 1295.89   46.32
   4   0  -6  295.42   11.98
  -4   0   6  332.16   13.91
  -4   0   6  317.26   15.21
   3   0  -6   -0.64    1.18
   3   0  -6    2.63    2.08
  -3   0   6    0.43    0.86
  -3   0   6    0.39    2.11
  -3   0   6    1.74    1.93
   2   0  -6  295.38   13.40
   2   0  -6  304.52   11.63
  -2   0   6  300.76   10.08
  -2   0   6  307.92   10.11
  -2   0   6  303.53   11.19
  -2   0   6  321.60   14.21
  -2   0   6  305.18   11.99
  -2   0   6  294.85   12.70
   1   0  -6    0.51    2.01
   1   0  -6    0.70    1.62
   1   0  -6    2.65    1.38
  -1   0   6    0.58    1.43
  -1   0   6    0.71    1.10
  -1   0   6    1.61    2.21
  -1   0   6    0.57    1.59
   0   0  -6  181.07    8.42
   0   0  -6  184.10    7.88
   0   0  -6  175.91    9.60
   0   0   6  185.98    8.72
   0   0   6  180.99    9.72
   0   0   6  179.72    7.69
  -1   0  -6   50.21    3.69
  -1   0  -6   46.15    4.24
  -1   0  -6   52.08    5.71
   1   0   6   53.99    4.76
   1   0   6   45.21    3.75
   1   0   6   55.31    5.82
  -2   0  -6  119.50    5.73
  -2   0  -6  119.03    6.57
  -2   0  -6  117.51    7.89
  -2   0  -6  121.50    6.47
   2   0   6  129.71    7.81
   2   0   6  120.11    6.00
  -3   0  -6  163.27    6.55
  -3   0  -6  176.23    7.98
  -3   0  -6  153.69    9.63
  -3   0  -6  154.70    8.37
  -3   0  -6  166.50    7.95
   3   0   6  168.04    7.46
   3   0   6  170.82    9.31
  -4   0  -6  337.23   16.37
  -4   0  -6  363.39   13.82
  -4   0  -6  362.84   14.98
  -4   0  -6  343.64   13.68
   4   0   6  366.67   13.56
   4   0   6  371.72   15.66
  -5   0  -6  119.49    9.15
  -5   0  -6  125.34    6.26
  -5   0  -6  126.64    7.92
  -5   0  -6  125.93    6.33
   5   0   6  122.43    6.50
   5   0   6  128.14    7.97
  -6   0  -6   -1.10    1.97
  -6   0  -6    2.97    3.19
  -6   0  -6   -0.50    1.12
  -6   0  -6    1.56    1.34
   6   0   6   -2.55    1.38
  -7   0  -6   77.20    9.16
  -7   0  -6   67.35    7.02
   7   0   6   74.64    5.57
  -8   0  -6   93.86   10.75
  -9   0  -6    0.05    3.32
 -10   0  -6    1.86    4.10
 -11   0  -6   50.02    9.47
  -9   1   6   16.95    6.45
  -8   1   6    5.20    4.46
  -7   1   6    1.55    3.95
   6  -1  -6   57.42    5.64
  -6   1   6   50.88    7.76
   5  -1  -6    2.32    1.91
  -5   1   6   -0.05    2.24
  -5   1   6   -1.92    2.84
   4  -1  -6    1.68    2.27
   4  -1  -6   -0.35    1.64
  -4   1   6    2.72    2.26
  -4   1   6    0.48    1.57
  -4   1   6    4.40    3.00
   3  -1  -6  107.28    7.44
   3  -1  -6   95.41    5.71
  -3   1   6  101.88    6.88
  -3   1   6  106.59    6.18
  -3   1   6  104.66    8.02
   2  -1  -6  287.08   13.34
   2  -1  -6  279.51   11.24
   2  -1  -6  275.59   12.07
  -2   1   6  270.93   12.29
  -2   1   6  279.44   13.67
  -2   1   6  276.05   11.60
  -2   1   6  283.43   10.24
   1  -1  -6 3030.29   94.39
   1  -1  -6 3006.33   93.49
   1  -1  -6 3002.02   96.05
  -1   1   6 2994.07   93.04
  -1   1   6 2986.19   94.09
  -1   1   6 2948.28   94.02
  -1   1   6 2978.46   94.60
  -1   1   6 3048.63   96.31
   0  -1  -6  330.31   12.87
   0  -1  -6  307.24   14.00
   0  -1  -6  301.01   11.83
   0   1   6  316.44   12.88
   0   1   6  320.68   12.62
   0   1   6  313.77   13.99
   0   1   6  312.43   11.88
  -1  -1  -6  585.80   21.11
  -1  -1  -6  590.11   22.83
  -1  -1  -6  606.01   20.37
   1   1   6  594.79   21.41
   1   1   6  600.58   21.16
   1   1   6  585.35   20.44
   1   1   6  612.71   22.71
  -2  -1  -6  724.89   24.44
  -2  -1  -6  723.31   24.57
  -2  -1  -6  737.41   23.46
  -2  -1  -6  714.01   23.37
  -2  -1  -6  716.63   26.46
   2   1   6  703.44   26.00
   2   1   6  684.58   24.61
   2   1   6  693.04   23.83
  -3  -1  -6  350.19   15.14
  -3  -1  -6  320.48   13.53
  -3  -1  -6  333.87   12.88
  -3  -1  -6  345.44   12.82
   3   1   6  333.57   14.11
   3   1   6  345.96   12.52
  -4  -1  -6 1832.36   58.01
  -4  -1  -6 1841.93   57.96
  -4  -1  -6 1827.79   59.64
  -4  -1  -6 1834.11   61.38
   4   1   6 1867.53   57.97
   4   1   6 1839.22   59.92
  -5  -1  -6    3.50    1.17
  -5  -1  -6    1.79    1.66
  -5  -1  -6    0.01    0.93
  -5  -1  -6    0.87    2.46
   5   1   6    0.20    1.24
  -6  -1  -6   62.46    5.87
  -6  -1  -6   54.17    6.73
   6   1   6   63.90    4.10
  -7  -1  -6  237.15   12.28
  -7  -1  -6  259.64   14.46
   7   1   6  277.35   12.46
  -8  -1  -6  110.80    9.84
  -8  -1  -6   96.64    7.80
  -9  -1  -6    7.74    4.31
  -9  -1  -6   10.32    4.63
 -10  -1  -6    6.37    4.47
 -11  -1  -6    3.27    4.95
  -9   2   6    7.78    5.62
  -8   2   6  187.70   15.32
   7  -2  -6  118.37    8.50
  -7   2   6  115.46   12.61
   6  -2  -6  141.46    8.70
  -6   2   6  137.62    7.20
  -6   2   6  142.46   12.13
   5  -2  -6  394.85   16.43
  -5   2   6  400.96   18.27
  -5   2   6  410.10   15.92
  -5   2   6  388.46   20.26
   4  -2  -6   65.06    7.29
   4  -2  -6   62.66    5.61
  -4   2   6   47.27    7.09
  -4   2   6   63.44    5.49
  -4   2   6   50.07    5.98
   3  -2  -6  147.61    9.65
   3  -2  -6  164.58    8.93
   3  -2  -6  141.32    7.72
  -3   2   6  142.34    8.90
  -3   2   6  151.45   10.47
  -3   2   6  148.77    6.25
  -3   2   6  146.83    8.08
   2  -2  -6   64.18    5.25
   2  -2  -6   71.06    5.60
   2  -2  -6   53.36    6.51
  -2   2   6   61.23    4.12
  -2   2   6   58.13    6.95
  -2   2   6   66.06    5.15
  -2   2   6   71.98    5.86
   1  -2  -6   62.79    5.53
   1  -2  -6   69.59    7.08
   1  -2  -6   55.50    4.58
  -1   2   6   53.91    4.09
  -1   2   6   47.84    4.62
  -1   2   6   56.55    6.29
  -1   2   6   64.81    5.25
   0  -2  -6    2.41    2.35
   0  -2  -6    0.92    1.57
   0  -2  -6    1.66    1.50
   0   2   6    0.22    1.64
   0   2   6    1.39    1.39
   0   2   6    1.85    1.70
   0   2   6    1.75    2.31
  -1  -2  -6 1436.95   49.46
  -1  -2  -6 1476.13   46.52
  -1  -2  -6 1489.38   47.66
   1   2   6 1523.24   49.38
   1   2   6 1518.53   47.74
   1   2   6 1454.66   46.85
   1   2   6 1355.18   48.87
  -2  -2  -6   20.44    3.16
  -2  -2  -6   17.94    2.57
  -2  -2  -6   21.65    2.10
  -2  -2  -6   14.40    3.36
  -2  -2  -6   18.23    2.74
   2   2   6   28.38    4.02
   2   2   6   23.38    3.31
   2   2   6   29.68    2.99
  -3  -2  -6   36.76    4.80
  -3  -2  -6   37.29    3.38
  -3  -2  -6   38.64    3.43
  -3  -2  -6   36.47    3.89
   3   2   6   37.87    3.19
   3   2   6   48.00    4.77
  -4  -2  -6    1.51    1.04
  -4  -2  -6   -1.45    1.29
  -4  -2  -6    0.01    1.94
  -4  -2  -6   -1.20    0.84
   4   2   6    0.54    1.05
  -5  -2  -6  369.68   15.00
  -5  -2  -6  372.23   16.44
   5   2   6  391.35   13.51
  -6  -2  -6 1071.44   37.75
  -6  -2  -6 1029.85   35.73
  -7  -2  -6  669.59   24.94
  -7  -2  -6  681.81   26.90
  -8  -2  -6  813.28   29.67
  -8  -2  -6  803.77   31.86
  -9  -2  -6   -0.72    2.19
  -9  -2  -6    6.85    3.92
 -10  -2  -6    1.62    3.62
 -11  -2  -6  137.57   12.25
   8  -3  -6   11.69    4.34
  -8   3   6   15.23    6.48
   7  -3  -6   16.83    4.46
  -7   3   6   19.47    3.11
  -7   3   6   15.95    6.09
   6  -3  -6   16.79    4.06
  -6   3   6   14.15    5.87
  -6   3   6   18.65    3.59
   5  -3  -6   54.19    6.09
  -5   3   6   48.75    6.81
  -5   3   6   57.77    5.86
  -5   3   6   54.57    8.66
   4  -3  -6  296.46   14.93
   4  -3  -6  313.59   13.97
   4  -3  -6  302.18   16.21
  -4   3   6  300.77   10.93
  -4   3   6  329.69   14.35
  -4   3   6  337.67   15.87
  -4   3   6  316.42   10.99
  -4   3   6  325.89   17.80
   3  -3  -6  177.54    9.94
   3  -3  -6  175.08    8.90
   3  -3  -6  162.26   10.84
  -3   3   6  151.56   11.40
  -3   3   6  157.75    9.06
  -3   3   6  152.86    7.43
  -3   3   6  170.36   10.12
   2  -3  -6  366.48   13.03
   2  -3  -6  356.54   15.68
   2  -3  -6  355.41   17.31
   2  -3  -6  345.78   14.60
  -2   3   6  373.55   15.41
  -2   3   6  357.97   17.69
  -2   3   6  377.21   16.19
  -2   3   6  376.84   14.14
   1  -3  -6   56.10    5.38
   1  -3  -6   61.30    4.19
   1  -3  -6   53.17    6.30
   1  -3  -6   51.87    4.76
  -1   3   6   60.29    5.71
  -1   3   6   56.61    4.77
  -1   3   6   56.04    5.42
  -1   3   6   41.24    5.68
   0  -3  -6   63.05    4.58
   0  -3  -6   70.97    5.17
   0  -3  -6   60.39    5.54
   0  -3  -6   68.14    7.13
   0   3   6   67.26    5.24
   0   3   6   71.73    6.48
   0   3   6   63.46    4.66
   0   3   6   82.32    5.82
  -1  -3  -6  395.98   14.44
  -1  -3  -6  405.49   16.34
  -1  -3  -6  412.85   15.53
  -1  -3  -6  388.32   17.37
  -1  -3  -6  404.53   15.61
   1   3   6  405.38   15.72
   1   3   6  397.00   14.95
   1   3   6  405.32   17.13
  -2  -3  -6 1282.57   46.11
  -2  -3  -6 1372.43   44.79
  -2  -3  -6 1292.14   43.84
  -2  -3  -6 1346.35   46.26
  -2  -3  -6 1370.88   43.93
  -2  -3  -6 1375.36   42.19
  -2  -3  -6 1386.18   42.28
   2   3   6 1365.99   43.47
   2   3   6 1375.78   45.75
  -3  -3  -6 1006.06   32.91
  -3  -3  -6 1033.35   33.03
  -3  -3  -6 1005.31   35.81
  -3  -3  -6  998.86   36.67
  -3  -3  -6 1048.32   34.40
   3   3   6 1012.09   32.74
   3   3   6  999.23   34.61
  -4  -3  -6 1421.88   50.15
  -4  -3  -6 1442.15   48.11
  -4  -3  -6 1421.04   46.56
   4   3   6 1406.05   44.48
  -5  -3  -6    1.30    1.59
  -5  -3  -6    1.06    2.10
  -6  -3  -6  100.17    6.15
  -6  -3  -6   97.60    7.18
  -7  -3  -6   12.98    3.48
  -7  -3  -6   12.51    2.64
  -7  -3  -6    6.74    3.13
  -8  -3  -6   18.10    4.48
  -8  -3  -6   13.23    3.13
  -9  -3  -6   59.99    6.02
  -9  -3  -6   50.89    6.99
 -10  -3  -6   21.85    5.38
 -10  -3  -6   17.11    3.94
 -11  -3  -6  124.98   11.05
   8  -4  -6    5.91    4.12
  -8   4   6    2.92    2.14
  -8   4   6    4.13    5.74
   7  -4  -6  110.50   10.27
  -7   4   6  113.03    7.83
  -7   4   6  110.07   14.22
   6  -4  -6  304.25   15.04
  -6   4   6  303.33   19.54
  -6   4   6  253.90   13.51
   5  -4  -6    6.30    3.30
  -5   4   6    9.92    4.92
  -5   4   6    3.68    2.92
  -5   4   6    3.65    3.32
   4  -4  -6  101.37    8.50
   4  -4  -6  101.38   10.56
  -4   4   6   97.43    7.73
  -4   4   6  104.30    9.69
  -4   4   6   90.79   10.88
  -4   4   6  104.31    5.70
   3  -4  -6  418.11   15.29
   3  -4  -6  400.03   20.30
   3  -4  -6  414.05   17.48
   3  -4  -6  428.63   18.67
  -3   4   6  435.61   19.29
  -3   4   6  417.22   18.15
  -3   4   6  434.74   21.78
  -3   4   6  430.10   16.25
   2  -4  -6  704.42   27.81
   2  -4  -6  773.65   30.58
   2  -4  -6  721.88   26.70
   2  -4  -6  746.10   25.63
  -2   4   6  697.98   30.44
  -2   4   6  743.80   26.18
  -2   4   6  760.10   28.53
  -2   4   6  769.05   27.84
   1  -4  -6  846.26   33.24
   1  -4  -6  852.40   29.51
   1  -4  -6  839.45   29.52
   1  -4  -6  881.93   30.95
  -1   4   6  880.94   30.72
  -1   4   6  863.56   31.09
  -1   4   6  801.60   32.81
  -1   4   6  815.97   29.25
   0  -4  -6  227.88   11.06
   0  -4  -6  216.72   10.77
   0  -4  -6  233.56   10.00
   0  -4  -6  207.87   12.53
   0   4   6  235.02   11.29
   0   4   6  242.81   12.88
   0   4   6  224.03   10.95
   0   4   6  213.49    9.98
  -1  -4  -6  190.95    9.14
  -1  -4  -6  188.35    7.84
  -1  -4  -6  182.91    9.88
  -1  -4  -6  160.89    8.59
  -1  -4  -6  167.66   10.59
   1   4   6  181.48    8.41
   1   4   6  171.25   10.25
   1   4   6  176.81    9.11
  -2  -4  -6  464.97   20.03
  -2  -4  -6  501.99   15.65
  -2  -4  -6  485.41   17.93
  -2  -4  -6  473.31   17.68
  -2  -4  -6  447.85   18.47
  -2  -4  -6  483.64   20.42
  -2  -4  -6  482.19   15.58
   2   4   6  485.61   17.43
   2   4   6  531.83   19.83
  -3  -4  -6   34.23    4.04
  -3  -4  -6   29.31    5.18
  -3  -4  -6   34.49    3.19
  -3  -4  -6   35.72    3.19
   3   4   6   34.85    3.11
   3   4   6   27.33    3.91
  -4  -4  -6   51.09    6.97
  -4  -4  -6   57.80    5.46
  -4  -4  -6   57.00    5.03
   4   4   6   49.96    3.06
  -5  -4  -6  623.60   22.81
  -5  -4  -6  642.32   27.31
  -5  -4  -6  656.57   24.47
  -6  -4  -6  671.19   23.70
  -6  -4  -6  589.09   21.85
  -6  -4  -6  625.75   27.44
  -6  -4  -6  570.61   23.15
  -7  -4  -6  285.43   11.91
  -7  -4  -6  268.61   13.10
  -7  -4  -6  286.09   13.43
  -8  -4  -6  696.80   25.41
  -8  -4  -6  723.44   27.21
  -9  -4  -6  182.11   11.17
  -9  -4  -6  191.34    9.67
 -10  -4  -6    1.04    2.87
 -10  -4  -6    1.70    2.22
 -11  -4  -6  171.99   10.31
 -11  -4  -6  165.21   11.91
   7  -5  -6    0.18    3.52
  -7   5   6   -3.60    4.77
  -7   5   6   -2.06    2.56
  -7   5   6    5.15    4.55
   6  -5  -6    2.64    3.50
  -6   5   6    1.14    4.02
  -6   5   6    2.34    3.13
  -6   5   6    1.07    5.09
   5  -5  -6   45.96    6.48
  -5   5   6   29.69    8.19
  -5   5   6   52.91    6.87
  -5   5   6   41.27    3.36
  -5   5   6   44.89    7.41
   4  -5  -6   90.06    8.35
   4  -5  -6  124.18   12.78
  -4   5   6  107.90   10.72
  -4   5   6   99.30    6.45
  -4   5   6  104.09   12.43
  -4   5   6  111.59    9.83
   3  -5  -6  296.97   14.28
   3  -5  -6  263.12   16.82
   3  -5  -6  306.07   12.82
   3  -5  -6  312.25   15.53
  -3   5   6  284.45   12.91
  -3   5   6  304.51   15.92
  -3   5   6  278.51   14.74
  -3   5   6  312.12   18.39
   2  -5  -6    5.21    3.20
   2  -5  -6    1.73    3.56
   2  -5  -6    7.27    2.89
   2  -5  -6   13.85    3.20
  -2   5   6    7.24    3.07
  -2   5   6   12.48    3.82
  -2   5   6    6.85    2.79
  -2   5   6    9.19    4.59
   1  -5  -6  130.79    8.90
   1  -5  -6  124.28   10.28
   1  -5  -6  131.34    7.80
   1  -5  -6  135.87    8.27
  -1   5   6  111.50    9.90
  -1   5   6  142.26    9.22
  -1   5   6  132.63    7.83
   0  -5  -6  685.45   25.40
   0  -5  -6  678.19   23.76
   0  -5  -6  680.13   25.55
   0  -5  -6  665.00   28.00
   0   5   6  669.79   24.28
   0   5   6  662.69   25.33
   0   5   6  618.70   27.09
   0   5   6  659.37   25.53
  -1  -5  -6    0.76    1.84
  -1  -5  -6    2.97    2.89
  -1  -5  -6    1.29    1.43
  -1  -5  -6    0.20    2.20
  -1  -5  -6    4.55    1.94
   1   5   6    0.96    1.87
   1   5   6   -1.45    2.21
   1   5   6    1.15    1.64
  -2  -5  -6  301.67   12.47
  -2  -5  -6  308.68   14.98
  -2  -5  -6  291.90   13.31
  -2  -5  -6  293.59   12.16
  -2  -5  -6  270.35   14.61
   2   5   6  297.40   12.00
   2   5   6  282.45   13.87
  -3  -5  -6 1191.87   40.45
  -3  -5  -6 1156.39   43.20
  -3  -5  -6 1208.32   42.41
  -3  -5  -6 1190.12   38.42
  -3  -5  -6 1164.55   38.51
   3   5   6 1208.84   40.65
   3   5   6 1182.84   38.65
  -4  -5  -6    0.24    2.28
  -4  -5  -6    5.21    3.39
  -4  -5  -6    4.27    2.10
   4   5   6    3.31    1.34
  -5  -5  -6  109.44    6.56
  -5  -5  -6  120.14    7.91
  -5  -5  -6   84.35    9.43
  -6  -5  -6    4.91    2.00
  -6  -5  -6   -1.01    3.25
  -6  -5  -6    0.23    2.16
  -6  -5  -6    0.27    1.93
  -7  -5  -6    1.95    2.42
  -7  -5  -6   -2.85    3.10
  -7  -5  -6    0.06    1.60
  -8  -5  -6   21.32    4.19
  -8  -5  -6   27.45    7.13
  -8  -5  -6   30.57    3.74
  -9  -5  -6    1.62    2.00
  -9  -5  -6    6.25    2.99
 -10  -5  -6    0.67    2.89
 -10  -5  -6    3.29    2.25
 -11  -5  -6   46.43    5.39
 -11  -5  -6   43.19    6.57
   7  -6  -6   59.33    8.52
  -7   6   6   81.41   13.81
  -7   6   6   65.61    8.00
   6  -6  -6  174.33   12.56
  -6   6   6  181.13   12.35
  -6   6   6  191.39   17.51
   5  -6  -6   -4.53    2.79
  -5   6   6    3.04    2.02
  -5   6   6    3.01    3.43
  -5   6   6    0.08    4.99
   4  -6  -6  134.84    9.96
   4  -6  -6  120.23   14.15
  -4   6   6  142.96   10.71
  -4   6   6  137.56   15.20
  -4   6   6  152.54    8.53
   3  -6  -6  116.50    8.06
   3  -6  -6  121.64   12.80
   3  -6  -6  130.24   10.33
   3  -6  -6  121.61    8.92
  -3   6   6  121.82   12.36
  -3   6   6  136.85   12.86
  -3   6   6  137.97    8.44
  -3   6   6  130.66   10.00
   2  -6  -6   78.26    6.67
   2  -6  -6   83.66    7.28
   2  -6  -6   77.42    8.42
   2  -6  -6   79.48   10.57
  -2   6   6   87.36   11.01
  -2   6   6   76.61    7.03
  -2   6   6   71.42    8.03
  -2   6   6   64.93    7.49
   1  -6  -6   16.90    4.06
   1  -6  -6   17.75    5.29
   1  -6  -6   18.87    4.31
   1  -6  -6   24.23    3.91
  -1   6   6   25.08    4.10
  -1   6   6   19.72    4.53
  -1   6   6   17.36    5.20
  -1   6   6   24.37    4.52
   0  -6  -6  114.05    8.42
   0  -6  -6  138.83    9.48
   0  -6  -6  119.74   10.28
   0  -6  -6  113.35    7.03
   0  -6  -6  122.24    8.89
   0   6   6  115.11    7.63
   0   6   6  119.82    9.94
   0   6   6  111.94    8.41
  -1  -6  -6   85.23    6.43
  -1  -6  -6   89.96    5.11
  -1  -6  -6   85.39    8.56
  -1  -6  -6   69.22    6.68
  -1  -6  -6   85.00    9.47
   1   6   6   94.90    7.24
   1   6   6   67.46    8.19
   1   6   6   89.66    6.29
  -2  -6  -6   74.77    5.46
  -2  -6  -6   56.53    6.01
  -2  -6  -6   79.42    8.67
  -2  -6  -6   76.93    8.54
  -2  -6  -6   73.68    5.71
   2   6   6   65.75    5.75
   2   6   6   63.23    7.13
   2   6   6   61.14    7.89
  -3  -6  -6   -0.57    1.40
  -3  -6  -6   -1.20    1.32
  -3  -6  -6   -1.03    1.94
  -3  -6  -6   -0.11    2.64
  -3  -6  -6   -3.53    2.49
   3   6   6    0.13    1.92
   3   6   6   -1.57    1.36
  -4  -6  -6    1.56    2.62
  -4  -6  -6   -1.97    1.75
  -4  -6  -6   -1.85    2.81
   4   6   6   -2.00    1.25
  -5  -6  -6  210.65   10.30
  -5  -6  -6  207.54   11.82
  -5  -6  -6  217.11   14.37
  -6  -6  -6  978.36   39.89
  -6  -6  -6 1027.53   35.93
  -6  -6  -6  944.65   33.81
  -7  -6  -6   17.52    3.17
  -7  -6  -6   21.78    6.39
  -7  -6  -6   20.75    4.14
  -8  -6  -6  182.95   14.98
  -8  -6  -6  206.63    9.67
  -8  -6  -6  193.49   10.85
  -9  -6  -6  371.90   14.97
  -9  -6  -6  382.79   22.67
  -9  -6  -6  362.88   16.48
 -10  -6  -6    1.71    2.05
 -10  -6  -6   -1.36    2.36
 -11  -6  -6    1.68    2.33
 -11  -6  -6    5.74    3.52
   6  -7  -6   73.54    9.29
  -6   7   6   56.59    8.09
  -6   7   6   77.50   13.73
   5  -7  -6   -1.91    3.47
  -5   7   6    0.58    2.08
  -5   7   6   -0.70    5.71
  -5   7   6   -2.97    3.01
   4  -7  -6  409.91   19.68
   4  -7  -6  440.24   24.80
  -4   7   6  412.45   17.82
  -4   7   6  470.73   26.48
  -4   7   6  381.47   20.34
   3  -7  -6  304.08   19.84
   3  -7  -6  278.58   14.78
   3  -7  -6  310.87   17.09
   3  -7  -6  285.70   14.72
  -3   7   6  290.79   14.33
  -3   7   6  280.47   16.27
   2  -7  -6    1.93    2.84
   2  -7  -6   -1.57    4.10
   2  -7  -6    2.19    2.98
   2  -7  -6    5.52    3.44
  -2   7   6    2.68    4.62
  -2   7   6   -0.34    3.01
  -2   7   6    4.46    3.05
   1  -7  -6   19.42    5.06
   1  -7  -6   48.91    8.87
   1  -7  -6   39.07    5.22
   1  -7  -6   35.77    5.98
  -1   7   6   26.32    6.81
  -1   7   6   32.10    4.93
  -1   7   6   30.77    5.93
   0  -7  -6  575.37   27.01
   0  -7  -6  563.82   21.18
   0  -7  -6  583.23   24.62
   0  -7  -6  566.72   23.38
   0   7   6  536.10   25.77
   0   7   6  561.70   22.37
   0   7   6  549.14   23.58
  -1  -7  -6    9.69    3.07
  -1  -7  -6    4.46    2.77
  -1  -7  -6   17.94    5.38
  -1  -7  -6    6.30    3.69
  -1  -7  -6    5.15    1.91
   1   7   6    9.95    4.24
   1   7   6    7.04    3.44
   1   7   6    6.77    2.83
  -2  -7  -6 1212.38   46.03
  -2  -7  -6 1251.05   41.51
  -2  -7  -6 1188.10   45.29
  -2  -7  -6 1193.78   41.53
   2   7   6 1187.98   41.45
   2   7   6 1264.95   44.50
  -3  -7  -6  704.69   23.92
  -3  -7  -6  650.29   28.81
  -3  -7  -6  680.46   23.67
  -3  -7  -6  670.80   28.46
  -3  -7  -6  671.26   26.30
   3   7   6  657.26   24.36
  -4  -7  -6  470.00   21.62
  -4  -7  -6  463.72   23.26
  -4  -7  -6  501.09   20.10
   4   7   6  471.86   17.77
  -5  -7  -6   42.31    6.22
  -5  -7  -6   42.39    5.20
  -5  -7  -6   45.96    8.19
  -6  -7  -6   46.23    6.28
  -6  -7  -6   35.03    4.68
  -6  -7  -6   53.72    9.26
  -7  -7  -6   90.20   11.89
  -7  -7  -6   92.21    7.79
  -7  -7  -6  102.04    6.84
  -8  -7  -6   68.45   10.20
  -8  -7  -6   57.24    6.65
  -8  -7  -6   65.00    5.74
  -9  -7  -6  119.63   14.34
  -9  -7  -6   77.00    7.74
  -9  -7  -6   69.76    5.66
 -10  -7  -6   -0.60    2.85
 -10  -7  -6    3.91    2.30
 -10  -7  -6    4.59    6.02
 -11  -7  -6  141.42    9.59
 -11  -7  -6  139.18    8.20
   5  -8  -6   11.03    4.31
  -5   8   6   -3.75    5.87
  -5   8   6    1.00    2.50
  -5   8   6   -1.47    3.90
   4  -8  -6    1.44    3.46
  -4   8   6    6.45    4.67
  -4   8   6   -2.72    5.60
  -4   8   6    1.90    2.96
   3  -8  -6   84.23   12.44
   3  -8  -6   92.27    9.04
   3  -8  -6   61.72    8.95
  -3   8   6   97.20   13.35
  -3   8   6   84.56   10.05
  -3   8   6   67.35    7.52
   2  -8  -6   70.38    8.71
   2  -8  -6   67.96    7.29
   2  -8  -6   72.82   11.13
   2  -8  -6   70.66    9.42
  -2   8   6   64.83    7.46
  -2   8   6   50.68    7.65
  -2   8   6   61.33   10.60
   1  -8  -6   -1.91    3.21
   1  -8  -6    0.87    2.52
   1  -8  -6    1.33    3.28
   1  -8  -6   -2.18    4.21
  -1   8   6    5.13    3.39
  -1   8   6   -0.06    4.40
  -1   8   6    4.94    3.86
   0  -8  -6   45.00    6.69
   0  -8  -6   52.43    5.31
   0  -8  -6   48.68    7.46
   0  -8  -6   37.84    7.90
   0   8   6   42.96    7.98
   0   8   6   35.84    5.64
  -1  -8  -6  755.30   33.90
  -1  -8  -6  750.17   29.49
  -1  -8  -6  814.86   34.28
  -1  -8  -6  763.74   25.65
  -1  -8  -6  748.96   32.20
   1   8   6  741.34   28.83
   1   8   6  801.31   32.89
  -2  -8  -6 1374.35   52.69
  -2  -8  -6 1446.13   48.09
  -2  -8  -6 1458.85   53.93
  -2  -8  -6 1411.56   48.20
   2   8   6 1386.94   48.30
  -3  -8  -6   70.08    9.53
  -3  -8  -6   70.71    5.36
  -3  -8  -6   65.80    9.23
  -3  -8  -6   68.82    5.55
   3   8   6   89.15    6.67
  -4  -8  -6  113.95   12.19
  -4  -8  -6  140.31   11.17
   4   8   6  127.50    7.71
  -5  -8  -6  379.64   18.89
  -5  -8  -6  358.45   21.06
  -5  -8  -6  362.21   16.75
  -6  -8  -6  159.35   10.97
  -6  -8  -6  108.10   12.76
  -6  -8  -6  151.31    9.31
  -7  -8  -6   46.14    5.36
  -7  -8  -6   47.13    8.92
  -7  -8  -6   38.39    6.22
  -8  -8  -6    6.89    2.68
  -8  -8  -6    1.06    4.15
  -8  -8  -6    3.41    3.17
  -9  -8  -6  147.28   16.23
  -9  -8  -6  123.35    9.15
  -9  -8  -6  117.50    7.73
 -10  -8  -6  115.45   15.24
 -10  -8  -6  127.87    7.93
 -10  -8  -6  145.02    9.69
   4  -9  -6   21.80    5.54
  -4   9   6   30.27    7.39
  -4   9   6   16.19    4.48
  -4   9   6   20.22    9.27
   3  -9  -6  563.24   28.83
   3  -9  -6  470.03   28.75
   3  -9  -6  498.86   22.29
  -3   9   6  489.36   29.31
  -3   9   6  476.48   21.65
  -3   9   6  474.96   24.54
   2  -9  -6   -0.21    3.75
   2  -9  -6   -0.08    3.64
   2  -9  -6    4.43    5.90
   2  -9  -6   -0.79    3.00
  -2   9   6    5.70    5.97
  -2   9   6   -0.28    3.11
   1  -9  -6    2.18    4.07
   1  -9  -6    4.49    2.95
   1  -9  -6    0.95    3.55
   1  -9  -6    0.09    5.28
  -1   9   6    4.52    3.29
  -1   9   6    6.50    5.51
   0  -9  -6  330.61   21.43
   0  -9  -6  345.49   17.82
   0  -9  -6  341.03   19.31
   0  -9  -6  349.34   14.46
   0   9   6  337.87   16.91
  -1  -9  -6    2.33    1.42
  -1  -9  -6    6.68    4.78
  -1  -9  -6    2.20    4.20
  -1  -9  -6    5.64    3.40
   1   9   6    7.71    3.67
  -2  -9  -6   42.39    5.68
  -2  -9  -6   49.64    8.88
  -2  -9  -6   38.76    7.99
  -2  -9  -6   55.21    6.03
   2   9   6   60.79    6.75
  -3  -9  -6  216.25   15.63
  -3  -9  -6  203.97   10.01
  -3  -9  -6  221.61   15.62
  -3  -9  -6  204.43   10.13
   3   9   6  189.44   11.16
  -4  -9  -6  148.74   15.20
  -4  -9  -6  143.42   12.41
   4   9   6  155.51    9.23
  -5  -9  -6   45.26    7.78
  -5  -9  -6   66.07   10.15
  -6  -9  -6   -7.60    3.71
  -6  -9  -6   -1.56    3.03
  -6  -9  -6   -1.86    2.98
  -7  -9  -6   33.81    5.32
  -7  -9  -6   32.59    8.45
  -7  -9  -6   37.75    6.64
  -8  -9  -6   94.99    9.88
  -8  -9  -6  100.75   13.89
  -8  -9  -6  102.37    7.71
  -9  -9  -6  205.30   12.62
  -9  -9  -6  183.69   10.57
  -9  -9  -6  221.06   21.33
 -10  -9  -6    3.83    2.49
 -10  -9  -6    3.99    3.41
 -10  -9  -6    4.99    6.13
   2 -10  -6    2.21    3.01
   2 -10  -6    7.30    4.86
   2 -10  -6   -2.37    5.72
  -2  10   6   -0.14    3.27
   1 -10  -6   91.88   14.37
   1 -10  -6   90.83    8.16
   1 -10  -6   92.86   11.16
   1 -10  -6   98.61   12.04
  -1  10   6   95.59   10.10
   0 -10  -6  150.23   11.97
   0 -10  -6  144.53   14.87
   0 -10  -6  147.93   16.76
   0 -10  -6  141.64    7.78
   0  10   6  146.60   11.05
  -1 -10  -6   44.24    6.95
  -1 -10  -6   23.24    7.43
  -1 -10  -6   29.35    7.28
   1  10   6   30.22    5.79
  -2 -10  -6  178.75   15.60
  -2 -10  -6  161.01   10.55
  -2 -10  -6  184.62   15.29
   2  10   6  179.61   11.72
  -3 -10  -6  105.99   13.39
  -3 -10  -6   82.26    6.34
  -3 -10  -6   85.60   11.92
  -3 -10  -6   89.89    6.68
   3  10   6  105.30    9.34
  -4 -10  -6   59.16    9.51
  -4 -10  -6   59.35   10.44
   4  10   6   57.99    6.60
  -5 -10  -6  315.54   21.23
  -5 -10  -6  328.60   19.65
  -6 -10  -6  152.27   16.72
  -6 -10  -6  192.40   14.03
  -7 -10  -6   -3.77    2.80
  -7 -10  -6    7.19    5.57
  -8 -10  -6   18.05    5.24
  -8 -10  -6    9.18    6.18
  -9 -10  -6   59.60    8.31
  -9 -10  -6   71.82   12.68
   1 -11  -6    8.73    7.47
   0 -11  -6   52.77   11.32
   0 -11  -6   34.68    7.03
   0 -11  -6   45.41    9.51
   0  11   6   53.71    8.01
  -1 -11  -6   13.41    6.56
  -1 -11  -6    4.75    3.94
  -1 -11  -6   10.60    7.00
   1  11   6    5.89    4.43
  -2 -11  -6   18.31    7.17
  -2 -11  -6   11.44    7.01
  -2 -11  -6   13.34    4.23
   2  11   6   28.16    6.05
  -3 -11  -6   21.56    7.66
  -3 -11  -6   19.33    3.58
  -3 -11  -6   17.78    3.57
  -3 -11  -6   15.08    7.29
   3  11   6   18.31    4.96
  -4 -11  -6    8.97    5.56
  -4 -11  -6    8.69    6.31
   4  11   6    8.17    4.04
  -5 -11  -6   42.25    8.74
  -5 -11  -6   46.93   10.00
  -6 -11  -6   44.42   10.13
  -6 -11  -6   35.24    7.81
  -7 -11  -6   23.23    8.55
  -7 -11  -6   10.53    5.13
  -8 -11  -6   59.76   11.54
  -8 -11  -6   74.51   10.08
  -3 -12  -6   69.46   12.55
  -3 -12  -6   88.13    6.50
  -3 -12  -6   84.03    6.34
  -3 -12  -6   84.32   13.22
   3  12   6   92.93   10.32
  -4 -12  -6   48.84   10.95
  -4 -12  -6   40.86    9.67
  -5 -12  -6   51.50   10.45
  -5 -12  -6   70.83   12.79
  -6 -10   7   33.82    8.13
  -6 -10   7   71.09   11.89
  -6 -10   7   45.35    7.85
  -5 -10   7   29.76    8.88
  -5 -10   7   35.82    8.30
  -5 -10   7   44.20    7.71
  -4 -10   7   20.68    6.95
  -4 -10   7   24.72    8.27
   3  10  -7   77.42    9.32
  -3 -10   7   65.26   11.54
  -3 -10   7   79.79   12.24
   2  10  -7  363.22   18.29
  -2 -10   7  349.73   14.97
  -2 -10   7  321.70   23.29
  -2 -10   7  378.16   24.44
  -2 -10   7  343.97   14.87
   1  10  -7   -0.59    3.49
  -1 -10   7   12.09    7.25
  -1 -10   7    1.78    5.49
   0  10  -7   65.87    8.65
   0 -10   7   96.07   14.74
   0 -10   7   70.57   12.42
  -1  10  -7   -1.32    3.64
   1 -10   7   -5.87    4.83
   1 -10   7   -3.47    5.88
  -7  -9   7    1.41    3.12
  -7  -9   7    4.22    5.47
  -7  -9   7    3.29    3.93
  -6  -9   7   -0.08    3.73
  -6  -9   7    1.41    4.47
  -6  -9   7    2.33    3.47
  -5  -9   7   75.13    9.13
  -5  -9   7   82.95   11.84
  -5  -9   7   61.11    9.67
  -4  -9   7   70.53   11.22
  -4  -9   7   60.46    8.48
  -4  -9   7   56.66    9.57
   3   9  -7   -2.85    3.05
   3   9  -7    3.14    3.15
  -3  -9   7   -0.23    4.08
  -3  -9   7   -0.01    4.72
  -3  -9   7    1.09    3.95
   2   9  -7  247.76   13.48
  -2  -9   7  225.77   11.02
  -2  -9   7  208.38   10.81
  -2  -9   7  231.67   18.28
  -2  -9   7  212.66   17.12
   1   9  -7   -0.48    3.09
  -1  -9   7    3.22    5.18
  -1  -9   7    1.57    4.34
   0   9  -7   -1.29    3.41
   0  -9   7   -2.56    4.82
   0  -9   7   -3.62    4.70
  -1   9  -7    5.03    3.79
   1  -9   7    9.35    2.78
   1  -9   7    5.30    6.20
   1  -9   7   11.47    6.58
  -2   9  -7   39.55    6.77
   2  -9   7   42.45   10.01
   2  -9   7   44.69    9.99
   2  -9   7   29.43    4.88
  -3   9  -7   52.02    7.66
   3  -9   7   55.10   11.22
   3  -9   7   51.13    6.67
   3  -9   7   53.54   12.41
  -8  -8   7  314.26   20.33
  -8  -8   7  298.24   15.27
  -8  -8   7  281.40   16.90
  -7  -8   7    2.39    3.22
  -7  -8   7    1.67    4.00
  -7  -8   7    0.42    3.59
  -6  -8   7   64.90    7.86
  -6  -8   7   65.64   10.41
  -6  -8   7   84.35    9.94
  -5  -8   7   26.27    7.62
  -5  -8   7   23.21    6.02
  -5  -8   7   10.43    3.90
  -4  -8   7   18.93    4.96
  -4  -8   7   12.72    5.23
  -4  -8   7   11.14    5.55
   3   8  -7   31.26    5.09
  -3  -8   7   37.14    8.66
  -3  -8   7   32.39    6.54
  -3  -8   7   31.81    7.30
   2   8  -7   27.34    4.81
   2   8  -7   24.78    4.67
  -2  -8   7   27.37    6.95
  -2  -8   7   23.66    6.81
  -2  -8   7   19.30    5.48
  -2  -8   7   25.49    3.91
   1   8  -7  253.32   13.39
  -1  -8   7  227.73   17.37
  -1  -8   7  250.78   17.88
  -1  -8   7  238.71   12.68
   0   8  -7    2.83    3.02
   0  -8   7    4.12    5.15
   0  -8   7    4.95    5.23
  -1   8  -7  126.88    9.70
   1  -8   7  117.68    7.39
   1  -8   7  123.75   14.94
   1  -8   7  106.83   13.96
  -2   8  -7  193.21   16.47
  -2   8  -7  204.05   12.58
   2  -8   7  185.76   16.50
   2  -8   7  179.76   10.69
   2  -8   7  223.40   17.92
  -3   8  -7   -2.71    5.30
  -3   8  -7    1.21    3.30
   3  -8   7    3.80    5.68
   3  -8   7   -2.27    4.50
   3  -8   7   -0.19    2.69
  -4   8  -7    2.54    3.28
  -4   8  -7   -0.62    4.17
  -4   8  -7    2.43    6.52
   4  -8   7   -2.13    2.85
   4  -8   7    7.15    6.38
   4  -8   7   -0.24    5.01
  -5   8  -7  163.72   14.96
  -5   8  -7  152.71   10.60
  -5   8  -7  155.49   18.92
   5  -8   7  126.60   12.05
   5  -8   7  159.34   17.99
  -9  -7   7    0.99    2.59
  -9  -7   7    2.26    4.32
  -9  -7   7   -1.90    3.32
  -8  -7   7  147.51   11.17
  -8  -7   7  148.39   13.04
  -8  -7   7  117.52    9.01
  -7  -7   7    1.01    3.38
  -7  -7   7    2.57    4.33
  -7  -7   7    5.77    3.02
  -6  -7   7   52.29    6.42
  -6  -7   7   63.42    9.85
  -6  -7   7   68.99    8.67
  -5  -7   7   59.30    9.34
  -5  -7   7   51.74    7.77
  -5  -7   7   46.96    6.34
  -4  -7   7  472.22   22.51
  -4  -7   7  435.60   20.15
  -4  -7   7  440.90   23.50
   3   7  -7  395.83   16.68
  -3  -7   7  394.78   21.99
  -3  -7   7  419.32   19.29
  -3  -7   7  382.84   20.83
   2   7  -7   14.09    3.68
  -2  -7   7   16.04    4.66
  -2  -7   7   10.07    5.75
  -2  -7   7   11.53    2.86
  -2  -7   7    8.38    4.55
   1   7  -7   63.82    6.93
   1   7  -7   61.89    6.78
  -1  -7   7   87.95    7.57
  -1  -7   7   56.99    9.31
  -1  -7   7   75.33   10.59
  -1  -7   7   73.36    8.67
   0   7  -7  262.46   16.93
   0   7  -7  305.59   14.46
   0  -7   7  292.39   11.18
   0  -7   7  288.09   18.64
   0  -7   7  292.37   18.73
  -1   7  -7  221.35   12.56
  -1   7  -7  228.29   16.10
   1  -7   7  246.44   17.40
   1  -7   7  220.22   16.48
   1  -7   7  241.50   11.14
  -2   7  -7   -1.79    2.76
  -2   7  -7   -1.01    4.47
  -2   7  -7    8.64    4.10
   2  -7   7    6.49    5.29
   2  -7   7    1.27    4.40
   2  -7   7    5.59    3.05
  -3   7  -7   72.32    9.03
  -3   7  -7   86.12    8.48
  -3   7  -7   93.12   12.72
   3  -7   7  104.19   13.66
   3  -7   7   74.08   11.62
   3  -7   7   83.75    8.16
  -4   7  -7  125.78    9.37
  -4   7  -7  108.97   11.29
  -4   7  -7  149.84   17.29
   4  -7   7  119.92   15.19
   4  -7   7  122.72   10.85
   4  -7   7  134.93   15.69
  -5   7  -7   -1.57    4.21
  -5   7  -7   20.44    7.98
  -5   7  -7   -3.37    2.49
   5  -7   7   -0.44    3.06
   5  -7   7    6.48    6.03
  -6   7  -7   -1.05    2.54
  -6   7  -7    1.63    4.48
  -6   7  -7    7.39    7.10
   6  -7   7   -4.37    4.45
   6  -7   7    0.04    3.82
  -9  -6   7    9.80    3.98
  -9  -6   7    3.04    2.79
  -8  -6   7  576.20   27.01
  -8  -6   7  572.82   23.38
  -8  -6   7  621.19   25.73
  -7  -6   7    6.50    4.38
  -7  -6   7    5.40    3.07
  -7  -6   7    2.69    3.26
  -6  -6   7    6.92    3.01
  -6  -6   7    5.20    3.83
  -6  -6   7   11.82    4.63
  -5  -6   7  593.61   23.55
  -5  -6   7  577.35   26.75
  -4  -6   7  366.66   16.63
  -4  -6   7  351.50   19.13
  -4  -6   7  340.18   18.05
   3   6  -7    0.71    2.02
  -3  -6   7    3.63    3.65
  -3  -6   7    4.52    2.94
  -3  -6   7   -4.41    3.08
   2   6  -7   44.18    4.98
  -2  -6   7   41.95    7.31
  -2  -6   7   44.25    6.01
  -2  -6   7   52.43    4.94
  -2  -6   7   42.40    7.09
   1   6  -7   34.46    4.90
   1   6  -7   56.94    7.61
  -1  -6   7   42.57    5.13
  -1  -6   7   38.15    7.47
  -1  -6   7   36.67    7.10
  -1  -6   7   46.58    6.43
   0   6  -7  515.99   24.40
   0   6  -7  496.82   21.24
   0   6  -7  557.10   23.88
   0  -6   7  549.08   21.99
   0  -6   7  551.52   26.45
   0  -6   7  561.97   26.39
   0  -6   7  527.71   23.68
   0  -6   7  544.34   19.11
  -1   6  -7   22.32    4.34
  -1   6  -7   18.28    4.75
  -1   6  -7   20.12    5.65
   1  -6   7   15.44    5.71
   1  -6   7   13.88    3.11
   1  -6   7   15.52    5.86
  -2   6  -7  749.65   33.75
  -2   6  -7  767.05   29.01
  -2   6  -7  785.30   30.83
   2  -6   7  740.03   28.23
   2  -6   7  782.26   34.43
   2  -6   7  775.74   34.61
  -3   6  -7   61.28    6.80
  -3   6  -7   68.08   11.14
  -3   6  -7   48.64    7.38
   3  -6   7   69.95   10.68
   3  -6   7   68.67   10.45
   3  -6   7   57.41    6.63
  -4   6  -7   41.13    5.63
  -4   6  -7   49.86   10.05
  -4   6  -7   59.33    7.86
   4  -6   7   50.44    9.68
   4  -6   7   44.50    6.22
   4  -6   7   52.11    9.97
  -5   6  -7    7.93    6.14
  -5   6  -7    5.68    3.10
  -5   6  -7    7.48    4.45
   5  -6   7    7.04    3.83
   5  -6   7   -0.12    4.52
   5  -6   7    4.70    5.46
  -6   6  -7   88.53    9.74
  -6   6  -7   98.80   14.25
  -6   6  -7  100.56    6.89
   6  -6   7   77.75   12.30
   6  -6   7   98.65   10.04
  -7   6  -7   35.83   10.19
  -7   6  -7   36.14    6.99
   7  -6   7   22.29    7.79
   7  -6   7   34.44    6.73
  -9  -5   7    4.75    3.05
  -9  -5   7    2.30    3.26
  -8  -5   7   -1.21    2.37
  -8  -5   7    1.93    3.32
  -8  -5   7   -0.01    3.03
  -7  -5   7   -0.94    2.10
  -7  -5   7    7.70    3.88
  -7  -5   7    6.77    3.56
  -6  -5   7  209.03   10.97
  -6  -5   7  201.82   12.24
  -6  -5   7  206.56   13.15
  -5  -5   7   -2.35    2.68
  -5  -5   7    2.23    3.01
  -5  -5   7    1.76    2.31
   4   5  -7  144.95    8.31
  -4  -5   7  122.10   10.38
  -4  -5   7  153.10   10.67
  -4  -5   7  153.58    9.16
   3   5  -7  140.88    7.36
  -3  -5   7  125.57    9.96
  -3  -5   7  144.18   10.66
  -3  -5   7  140.81    8.92
   2   5  -7   79.03    5.52
   2   5  -7   76.27    7.44
  -2  -5   7   66.62    8.17
  -2  -5   7   62.33    4.91
  -2  -5   7   54.92    6.49
  -2  -5   7   50.99    7.73
   1   5  -7  106.97    8.69
   1   5  -7  109.91    7.12
   1   5  -7  114.10    8.12
  -1  -5   7  103.02    6.95
  -1  -5   7  112.70    8.39
  -1  -5   7  101.78    9.28
  -1  -5   7  121.92   10.26
   0   5  -7    4.68    2.50
   0   5  -7   -0.64    2.23
   0   5  -7    2.35    2.33
   0   5  -7    7.46    3.73
   0  -5   7    5.29    3.79
   0  -5   7    4.31    2.54
   0  -5   7    4.30    2.95
   0  -5   7    1.42    1.68
   0  -5   7    1.24    3.63
  -1   5  -7   43.43    5.32
  -1   5  -7   35.98    5.28
  -1   5  -7   37.41    7.01
   1  -5   7   46.34    5.87
   1  -5   7   29.18    6.37
   1  -5   7   45.72    6.56
   1  -5   7   49.14    7.99
   1  -5   7   41.80    4.57
  -2   5  -7  198.01   14.15
  -2   5  -7  210.80   10.92
  -2   5  -7  217.02   12.19
   2  -5   7  198.54   10.48
   2  -5   7  198.37   14.38
   2  -5   7  186.59   13.99
  -3   5  -7   22.59    4.25
  -3   5  -7   14.83    5.99
  -3   5  -7   15.29    4.66
   3  -5   7   17.72    5.77
   3  -5   7   17.54    4.14
  -4   5  -7  430.15   19.16
  -4   5  -7  383.62   16.62
  -4   5  -7  392.73   22.49
   4  -5   7  360.31   17.28
   4  -5   7  372.75   21.59
  -5   5  -7   34.92    8.19
  -5   5  -7   44.44    6.75
  -5   5  -7   33.99    4.75
   5  -5   7   30.12    5.40
   5  -5   7   26.96    7.43
  -6   5  -7   18.68    5.09
  -6   5  -7   23.79    7.55
  -6   5  -7   14.80    3.04
   6  -5   7   30.71    5.57
  -7   5  -7   -2.62    3.12
  -7   5  -7    3.45    6.08
   7  -5   7   -1.65    3.21
  -8   5  -7  151.99   11.26
  -8   5  -7  141.79   17.91
   8  -5   7  161.87   13.57
 -10  -4   7   12.43    5.10
 -10  -4   7   17.30    4.48
  -9  -4   7   53.81    7.70
  -9  -4   7   47.45    6.05
  -8  -4   7  158.41    9.58
  -8  -4   7  157.14   11.09
  -7  -4   7    0.02    2.58
  -7  -4   7    0.92    2.31
  -7  -4   7   -0.37    2.98
  -6  -4   7    1.75    2.86
  -6  -4   7   -3.04    2.44
  -6  -4   7   -0.96    2.09
  -5  -4   7  260.64   14.16
  -5  -4   7  261.96   12.62
  -5  -4   7  296.38   14.76
   4   4  -7 1329.51   42.32
  -4  -4   7 1342.08   46.82
  -4  -4   7 1301.56   44.74
  -4  -4   7 1288.59   46.75
   3   4  -7   99.06    5.70
  -3  -4   7   99.79    8.28
  -3  -4   7   99.08    7.11
  -3  -4   7  107.76    8.41
  -3  -4   7   98.63    4.32
   2   4  -7 1599.29   50.60
   2   4  -7 1584.08   52.82
  -2  -4   7 1588.34   50.40
  -2  -4   7 1510.43   52.42
  -2  -4   7 1508.15   54.32
  -2  -4   7 1561.13   54.69
   1   4  -7    8.26    3.25
   1   4  -7   -0.50    2.07
   1   4  -7    4.53    2.01
  -1  -4   7    4.55    2.11
  -1  -4   7    0.28    2.79
  -1  -4   7    2.96    2.80
  -1  -4   7    3.83    0.95
  -1  -4   7    1.72    2.21
   0   4  -7   79.29    7.47
   0   4  -7   84.13    7.24
   0   4  -7   87.97    6.11
   0  -4   7   94.80    6.66
   0  -4   7   71.07    8.26
   0  -4   7   88.73    7.07
   0  -4   7   75.84    8.52
   0  -4   7   80.71    5.02
  -1   4  -7   20.80    3.86
  -1   4  -7   27.79    5.35
  -1   4  -7   22.77    3.61
   1  -4   7   38.20    6.72
   1  -4   7   35.72    5.41
   1  -4   7   20.94    3.19
  -2   4  -7   12.72    5.01
  -2   4  -7   14.79    3.30
  -2   4  -7    7.90    3.09
   2  -4   7    9.19    2.79
   2  -4   7   14.89    4.80
  -3   4  -7   38.78    4.87
  -3   4  -7   35.83    6.86
  -3   4  -7   31.03    5.11
   3  -4   7   41.17    5.30
   3  -4   7   50.87    8.10
  -4   4  -7   81.93    6.18
  -4   4  -7   71.49    9.90
  -4   4  -7   63.35    7.05
   4  -4   7   56.18    8.58
   4  -4   7   63.69    6.66
  -5   4  -7   56.13    5.30
  -5   4  -7   63.55   10.35
  -5   4  -7   52.61    6.89
   5  -4   7   62.44    6.94
   5  -4   7   49.67    8.52
  -6   4  -7   -0.38    2.66
  -6   4  -7    1.05    5.27
  -6   4  -7    0.12    1.49
   6  -4   7    0.50    2.84
  -7   4  -7  315.89   21.72
  -7   4  -7  335.41   16.60
   7  -4   7  351.61   17.47
  -8   4  -7  128.30   16.31
  -8   4  -7  143.96    9.92
   8  -4   7  125.13   11.67
 -10  -3   7    4.87    4.36
 -10  -3   7   11.41    4.16
  -9  -3   7  160.91   10.57
  -9  -3   7  177.48   12.71
  -8  -3   7   92.60    8.19
  -8  -3   7   76.77    8.97
  -7  -3   7    3.41    2.53
  -7  -3   7    4.75    2.95
  -7  -3   7    4.67    3.24
  -6  -3   7  391.19   17.07
  -6  -3   7  411.93   16.78
  -6  -3   7  382.78   18.19
  -5  -3   7   43.70    6.02
  -5  -3   7   48.30    5.21
  -5  -3   7   40.62    5.39
   4   3  -7   49.81    3.72
  -4  -3   7   42.90    5.91
  -4  -3   7   50.70    5.38
  -4  -3   7   55.14    6.36
   3   3  -7  384.59   14.29
  -3  -3   7  475.59   18.53
  -3  -3   7  363.36   16.76
  -3  -3   7  374.31   15.98
  -3  -3   7  367.34   13.24
   2   3  -7   66.93    5.86
   2   3  -7   69.20    4.79
  -2  -3   7   66.03    6.28
  -2  -3   7   83.28    5.08
  -2  -3   7   78.47    6.94
  -2  -3   7  114.69    8.07
   1   3  -7  154.63    7.92
   1   3  -7  162.61    9.68
   1   3  -7  165.28    8.96
  -1  -3   7  153.89    8.22
  -1  -3   7  160.73    6.29
  -1  -3   7  213.53   11.43
  -1  -3   7  160.19    6.32
  -1  -3   7  171.13    9.28
  -1  -3   7  163.01   10.21
   0   3  -7  462.38   17.85
   0   3  -7  474.01   20.44
   0   3  -7  452.79   18.68
   0  -3   7  458.05   18.35
   0  -3   7  486.29   19.52
   0  -3   7  515.70   21.35
   0  -3   7  472.17   17.05
  -1   3  -7    3.98    2.89
  -1   3  -7    6.63    2.15
  -1   3  -7    0.95    2.20
  -1   3  -7    1.93    1.89
   1  -3   7    2.22    1.75
   1  -3   7    0.31    2.67
   1  -3   7    0.41    2.10
  -2   3  -7  172.04    9.75
  -2   3  -7  152.25   11.06
  -2   3  -7  176.03    8.77
   2  -3   7  166.61   10.08
   2  -3   7  170.90    8.70
   2  -3   7  153.96   11.15
  -3   3  -7  254.70   12.62
  -3   3  -7  247.68   11.23
  -3   3  -7  245.43   15.04
   3  -3   7  246.19   14.60
   3  -3   7  243.21   11.63
  -4   3  -7   41.25    4.31
  -4   3  -7   28.98    6.58
  -4   3  -7   44.65    5.77
   4  -3   7   31.47    6.26
   4  -3   7   31.85    4.69
  -5   3  -7   17.70    5.89
  -5   3  -7   19.14    4.26
  -5   3  -7   21.01    2.99
   5  -3   7   13.09    4.76
   5  -3   7   14.79    3.79
  -6   3  -7  194.49   11.32
  -6   3  -7  193.04   15.18
   6  -3   7  206.65   11.61
  -7   3  -7   16.16    3.81
  -7   3  -7   24.83    7.79
  -7   3  -7   21.21    4.41
   7  -3   7   21.22    4.60
  -8   3  -7    2.60    2.64
  -8   3  -7    3.88    5.12
  -8   3  -7   -0.95    2.23
   8  -3   7   -3.63    2.48
  -9   3  -7    7.54    6.10
  -9   3  -7    9.30    2.48
  -9   3  -7    7.95    2.41
   9  -3   7   11.17    4.87
 -10  -2   7   12.30    4.34
 -10  -2   7   11.32    5.36
  -9  -2   7  186.72   11.97
  -9  -2   7  205.95   14.06
  -8  -2   7  162.16   10.14
  -8  -2   7  141.93   11.29
  -7  -2   7    2.15    3.24
  -7  -2   7    6.66    2.94
  -6  -2   7  364.28   17.34
  -6  -2   7  348.69   14.21
  -6  -2   7  329.58   15.28
   5   2  -7   49.12    3.74
  -5  -2   7   53.94    6.54
  -5  -2   7   56.29    4.79
  -5  -2   7   61.39    6.02
   4   2  -7   69.43    4.41
  -4  -2   7   82.95    7.08
  -4  -2   7   67.42    5.44
  -4  -2   7   78.42    6.06
   3   2  -7  425.26   15.06
  -3  -2   7  427.40   16.78
  -3  -2   7  378.84   17.77
  -3  -2   7  409.30   16.66
   2   2  -7  790.22   26.29
   2   2  -7  774.73   28.40
  -2  -2   7  799.34   28.41
  -2  -2   7  759.17   27.78
  -2  -2   7  724.54   29.15
  -2  -2   7  804.24   26.51
   1   2  -7  641.95   24.59
   1   2  -7  641.58   23.22
   1   2  -7  604.22   21.95
  -1  -2   7  593.12   24.81
  -1  -2   7  642.29   20.83
  -1  -2   7  634.45   22.60
  -1  -2   7  670.14   23.75
   0   2  -7  102.89    7.78
   0   2  -7   96.17    5.82
   0   2  -7  108.82    6.83
   0  -2   7  110.94    8.12
   0  -2   7  100.78    6.74
   0  -2   7   85.25    6.07
   0  -2   7  113.62    5.67
  -1   2  -7  278.73   11.94
  -1   2  -7  303.00   13.03
  -1   2  -7  295.18   14.71
   1  -2   7  286.27   14.53
   1  -2   7  296.01   11.86
   1  -2   7  274.22   13.10
  -2   2  -7 3748.90  119.38
  -2   2  -7 3676.72  116.41
  -2   2  -7 3664.28  115.09
   2  -2   7 3627.68  115.31
   2  -2   7 3701.90  117.01
   2  -2   7 3715.23  119.08
  -3   2  -7    0.98    1.51
  -3   2  -7    0.64    2.86
  -3   2  -7   -0.22    1.89
   3  -2   7    2.16    2.72
   3  -2   7   -2.10    1.55
   3  -2   7    0.61    2.64
  -4   2  -7   35.23    3.63
  -4   2  -7   38.17    6.47
  -4   2  -7   29.66    4.46
   4  -2   7   29.14    5.61
   4  -2   7   29.91    4.10
  -5   2  -7  108.54    7.52
  -5   2  -7  112.20    5.02
  -5   2  -7  113.60   10.33
  -5   2  -7  109.11    5.00
   5  -2   7  104.33    7.46
   5  -2   7   98.85    8.93
  -6   2  -7   48.69    5.52
  -6   2  -7   46.84    8.52
  -6   2  -7   44.27    5.41
   6  -2   7   38.47    5.52
  -7   2  -7  737.79   32.94
  -7   2  -7  710.13   26.17
  -7   2  -7  689.11   26.02
   7  -2   7  718.15   27.53
  -8   2  -7    4.03    2.16
  -8   2  -7    9.68    5.62
  -8   2  -7    4.05    2.24
   8  -2   7    6.75    3.24
  -9   2  -7  223.26   17.71
   9  -2   7  224.63   13.35
 -10   2  -7   32.08    9.01
 -10  -1   7   91.22   11.58
  -9  -1   7   44.18    7.99
  -9  -1   7   43.89    6.78
  -8  -1   7  220.87   14.76
  -8  -1   7  228.78   13.16
  -7  -1   7   84.29    9.36
  -7  -1   7   71.91    7.47
  -6  -1   7  653.27   27.32
  -6  -1   7  648.85   25.23
   5   1  -7 1820.57   58.00
  -5  -1   7 1849.96   57.36
  -5  -1   7 1834.46   60.39
  -5  -1   7 1771.59   62.32
   4   1  -7   13.87    2.35
  -4  -1   7   12.25    2.29
  -4  -1   7   14.16    3.73
  -4  -1   7   13.53    3.13
   3   1  -7   22.67    3.81
   3   1  -7   18.87    2.64
  -3  -1   7   19.21    2.88
  -3  -1   7   18.14    3.45
  -3  -1   7   15.22    3.79
   2   1  -7 1428.57   44.55
   2   1  -7 1388.30   46.81
  -2  -1   7 1359.44   44.66
  -2  -1   7 1394.90   45.34
  -2  -1   7 1387.89   46.03
  -2  -1   7 1290.13   47.25
   1   1  -7 1701.74   55.38
   1   1  -7 1720.79   57.07
   1   1  -7 1705.23   54.33
  -1  -1   7 1705.18   55.82
  -1  -1   7 1669.81   57.40
  -1  -1   7 1728.49   53.44
  -1  -1   7 1676.00   54.95
   0   1  -7 2368.56   73.42
   0   1  -7 2276.27   76.08
   0   1  -7 2233.68   74.08
   0  -1   7 2292.83   72.90
   0  -1   7 2281.37   74.62
   0  -1   7 2485.92   76.69
  -1   1  -7   38.19    4.35
  -1   1  -7   53.08    6.50
  -1   1  -7   47.33    4.43
   1  -1   7   40.37    4.45
   1  -1   7   42.15    5.68
   1  -1   7   45.61    4.02
  -2   1  -7    1.13    1.82
  -2   1  -7    1.47    1.58
  -2   1  -7    0.29    1.45
  -2   1  -7   -0.77    2.27
   2  -1   7    1.07    2.13
   2  -1   7    1.27    1.84
   2  -1   7    1.73    1.61
  -3   1  -7   23.05    3.61
  -3   1  -7   30.87    3.26
  -3   1  -7   18.02    3.29
  -3   1  -7   21.61    4.63
   3  -1   7   26.00    4.69
   3  -1   7   20.89    3.14
  -4   1  -7  557.19   25.21
  -4   1  -7  593.99   20.14
  -4   1  -7  615.55   22.46
  -4   1  -7  631.53   22.52
   4  -1   7  601.97   24.65
   4  -1   7  597.45   21.90
  -5   1  -7  147.91    9.24
  -5   1  -7  131.96    7.74
  -5   1  -7  142.61    7.97
  -5   1  -7  134.44   10.70
   5  -1   7  133.61    9.56
   5  -1   7  137.31    7.84
  -6   1  -7  229.92   10.77
  -6   1  -7  217.54   12.74
  -6   1  -7  244.34   10.97
  -6   1  -7  236.11   15.16
   6  -1   7  255.46   11.66
  -7   1  -7  217.54    9.89
  -7   1  -7  216.04   15.21
  -7   1  -7  230.02   10.07
   7  -1   7  249.37   11.77
  -8   1  -7    1.80    4.10
   8  -1   7    1.52    2.78
  -9   1  -7  124.05   13.93
 -10   1  -7   30.63    8.17
  -9   0   7   63.63    8.45
  -9   0   7   62.03   10.00
  -8   0   7   65.10    7.94
  -8   0   7   69.96    9.97
  -7   0   7   -4.06    2.63
  -7   0   7   -0.14    2.87
   6   0  -7  499.39   20.06
  -6   0   7  574.86   24.92
  -6   0   7  562.39   22.71
   5   0  -7   14.66    2.94
  -5   0   7   13.42    4.33
  -5   0   7   15.11    3.73
   4   0  -7    2.06    1.75
   4   0  -7    9.89    4.46
  -4   0   7    4.78    3.11
  -4   0   7    7.00    2.64
   3   0  -7   34.96    3.62
   3   0  -7   32.00    4.67
  -3   0   7   35.47    5.44
  -3   0   7   30.00    2.42
  -3   0   7   27.12    4.03
   2   0  -7  398.91   14.35
   2   0  -7  362.08   16.09
  -2   0   7  374.79   16.89
  -2   0   7  334.31   12.40
  -2   0   7  392.95   12.60
  -2   0   7  367.22   15.44
  -2   0   7  376.26   14.53
   1   0  -7  500.02   20.31
   1   0  -7  483.75   18.76
   1   0  -7  496.92   17.90
  -1   0   7  500.10   17.26
  -1   0   7  492.81   19.06
  -1   0   7  506.82   20.58
  -1   0   7  495.91   18.43
   0   0  -7  293.34   12.41
   0   0  -7  293.07   11.63
   0   0  -7  291.15   13.91
   0   0   7  290.25   13.93
   0   0   7  281.15   11.33
   0   0   7  312.03   12.89
  -1   0  -7 1264.98   43.95
  -1   0  -7 1227.55   41.72
  -1   0  -7 1248.41   40.81
   1   0   7 1262.31   42.14
   1   0   7 1265.18   40.88
   1   0   7 1262.21   43.76
  -2   0  -7 1890.50   58.60
  -2   0  -7 1816.88   58.57
  -2   0  -7 1791.63   62.01
  -2   0  -7 1820.59   59.65
   2   0   7 1926.22   61.11
   2   0   7 1881.17   59.03
   2   0   7 1812.12   61.56
  -3   0  -7  275.09   14.05
  -3   0  -7  282.10   11.78
  -3   0  -7  269.62   11.78
  -3   0  -7  271.44   10.33
   3   0   7  272.75   11.25
   3   0   7  276.41   13.29
  -4   0  -7  101.24    7.09
  -4   0  -7  106.77    6.33
  -4   0  -7  108.45    6.32
  -4   0  -7  113.35    8.66
   4   0   7  100.92    7.68
   4   0   7  107.37    6.17
  -5   0  -7   58.54    7.17
  -5   0  -7   59.19    4.58
  -5   0  -7   57.98    6.02
  -5   0  -7   59.02    4.58
   5   0   7   53.98    4.92
   5   0   7   60.56    6.49
  -6   0  -7   37.21    3.70
  -6   0  -7   28.77    5.81
  -6   0  -7   32.49    4.87
  -6   0  -7   41.08    3.72
   6   0   7   30.92    3.97
  -7   0  -7  162.80   10.18
  -7   0  -7  139.81   11.69
   7   0   7  151.42    8.41
  -8   0  -7   44.41    7.63
  -9   0  -7  261.77   17.39
 -10   0  -7   33.25    8.07
  -9   1   7   -0.87    3.72
  -9   1   7    2.37    4.91
  -8   1   7   16.56    4.99
  -8   1   7   18.02    6.23
  -7   1   7   98.59   11.32
  -7   1   7   82.05    8.63
   6  -1  -7  449.55   18.21
  -6   1   7  456.32   20.39
  -6   1   7  442.23   22.53
   5  -1  -7  440.30   17.45
  -5   1   7  434.08   19.30
  -5   1   7  450.27   21.58
   4  -1  -7  150.68    7.89
   4  -1  -7  149.15    9.54
  -4   1   7  156.93    9.41
  -4   1   7  137.83    7.62
  -4   1   7  132.23   10.13
   3  -1  -7  104.21    7.70
   3  -1  -7   90.59    5.92
  -3   1   7   92.34    7.99
  -3   1   7   74.37    6.42
  -3   1   7  102.00    6.28
   2  -1  -7  282.74   14.03
   2  -1  -7  313.04   12.10
   2  -1  -7  280.58   12.79
  -2   1   7  296.59   12.40
  -2   1   7  298.12   10.84
  -2   1   7  292.88   13.23
  -2   1   7  288.76   12.44
  -2   1   7  258.11   14.14
   1  -1  -7  214.99   10.12
   1  -1  -7  204.21    9.22
   1  -1  -7  205.39   11.34
  -1   1   7  221.57   10.42
  -1   1   7  197.78    9.70
  -1   1   7  213.13    9.87
  -1   1   7  215.27    8.82
  -1   1   7  210.00   11.47
   0  -1  -7  841.67   30.77
   0  -1  -7  838.28   28.83
   0  -1  -7  825.58   27.84
   0   1   7  838.31   29.14
   0   1   7  787.25   28.52
   0   1   7  830.61   27.79
   0   1   7  808.97   30.51
  -1  -1  -7  998.54   33.42
  -1  -1  -7  998.42   36.44
   1   1   7 1057.60   36.44
   1   1   7 1016.56   33.61
   1   1   7 1013.22   34.71
   1   1   7 1010.25   34.47
  -2  -1  -7   85.88    5.47
  -2  -1  -7   76.05    5.38
  -2  -1  -7   81.10    4.63
  -2  -1  -7   89.78    7.14
   2   1   7   76.14    4.87
   2   1   7   78.66    6.49
   2   1   7   78.05    5.50
  -3  -1  -7   58.50    3.13
  -3  -1  -7   50.51    5.01
  -3  -1  -7   61.06    6.50
  -3  -1  -7   55.56    4.77
  -3  -1  -7   60.38    4.51
   3   1   7   74.29    8.84
   3   1   7   55.50    4.08
   3   1   7   59.11    5.50
  -4  -1  -7  106.74    5.80
  -4  -1  -7   96.73    5.67
  -4  -1  -7   96.48    6.57
  -4  -1  -7  101.48    8.00
   4   1   7  105.95    7.23
   4   1   7  106.16    5.67
  -5  -1  -7   67.42    4.11
  -5  -1  -7   65.03    6.13
  -5  -1  -7   56.84    6.93
  -5  -1  -7   59.76    3.96
   5   1   7   63.55    4.40
  -6  -1  -7  153.02    9.15
  -6  -1  -7  159.92   10.96
   6   1   7  161.35    7.71
  -7  -1  -7  244.75   14.88
  -7  -1  -7  268.82   13.16
   7   1   7  272.86   11.32
  -8  -1  -7  119.33   10.50
  -8  -1  -7  121.34    8.94
  -9  -1  -7    3.67    4.01
 -10  -1  -7   44.72    8.45
 -11  -1  -7   -0.31    4.10
  -9   2   7   35.98    7.60
  -9   2   7   20.37    7.67
  -8   2   7    3.47    4.05
  -8   2   7    0.26    4.63
   7  -2  -7   33.70    5.29
  -7   2   7   24.68    5.88
  -7   2   7   24.04    7.06
   6  -2  -7  111.63    8.20
  -6   2   7  123.87    6.88
  -6   2   7  117.21   12.67
  -6   2   7  130.38   10.23
   5  -2  -7   38.58    4.94
  -5   2   7   43.34    7.44
  -5   2   7   45.56    4.92
  -5   2   7   39.64    6.21
   4  -2  -7   53.57    5.48
   4  -2  -7   69.97    7.44
   4  -2  -7   66.12    7.58
  -4   2   7   72.71    7.38
  -4   2   7   63.61    5.86
  -4   2   7   56.74    8.09
   3  -2  -7   18.63    3.76
   3  -2  -7   18.65    3.31
   3  -2  -7   25.84    5.04
  -3   2   7   12.27    3.50
  -3   2   7   22.24    2.38
  -3   2   7   23.34    3.68
  -3   2   7   18.58    4.65
   2  -2  -7  153.57   10.24
   2  -2  -7  168.29    9.14
   2  -2  -7  165.74    8.30
  -2   2   7  162.25   10.69
  -2   2   7  173.01    9.66
  -2   2   7  155.41    8.67
  -2   2   7  161.90    7.50
   1  -2  -7   25.32    3.45
   1  -2  -7   36.18    4.63
   1  -2  -7   28.96    4.98
  -1   2   7   26.97    3.86
  -1   2   7   35.04    3.65
  -1   2   7   34.82    4.07
  -1   2   7   20.87    4.44
   0  -2  -7  100.02    5.76
   0  -2  -7   99.09    6.50
   0  -2  -7   96.53    7.62
   0   2   7  104.56    6.71
   0   2   7   98.51    6.39
   0   2   7   94.42    7.50
   0   2   7   99.77    5.73
  -1  -2  -7  395.43   15.65
  -1  -2  -7  392.24   14.53
  -1  -2  -7  393.55   17.50
   1   2   7  401.66   17.29
   1   2   7  421.99   15.88
   1   2   7  377.70   15.73
   1   2   7  395.99   14.85
  -2  -2  -7  989.96   34.26
  -2  -2  -7 1059.64   34.32
  -2  -2  -7  975.17   36.48
  -2  -2  -7 1026.34   33.00
   2   2   7 1072.10   36.42
   2   2   7 1021.36   34.62
   2   2   7 1004.12   33.69
  -3  -2  -7   -0.43    1.95
  -3  -2  -7    1.72    1.51
  -3  -2  -7    1.58    1.46
  -3  -2  -7   -1.57    1.52
   3   2   7    1.04    1.92
   3   2   7    1.69    1.36
  -4  -2  -7  749.92   25.75
  -4  -2  -7  790.10   29.31
  -4  -2  -7  764.48   25.73
  -4  -2  -7  791.76   27.62
   4   2   7  779.19   27.63
   4   2   7  765.70   25.80
  -5  -2  -7   11.17    1.37
  -5  -2  -7   14.13    2.91
  -5  -2  -7   12.97    3.49
  -5  -2  -7   13.67    1.47
   5   2   7   11.49    2.04
  -6  -2  -7    7.15    3.20
  -6  -2  -7    5.46    2.30
   6   2   7    9.46    1.97
  -7  -2  -7    2.56    2.20
  -7  -2  -7   -2.75    2.68
  -8  -2  -7    0.16    3.21
  -8  -2  -7   -0.77    2.06
  -9  -2  -7    1.12    2.39
  -9  -2  -7   -3.20    2.97
 -10  -2  -7    5.38    4.34
 -11  -2  -7   97.09   11.83
   8  -3  -7   44.41    6.92
  -8   3   7   34.80    9.17
  -8   3   7   39.16    7.79
   7  -3  -7  385.46   18.18
  -7   3   7  388.42   15.27
  -7   3   7  377.75   20.35
  -7   3   7  390.84   23.38
   6  -3  -7  202.01   11.55
  -6   3   7  183.88   15.39
  -6   3   7  196.00   13.23
  -6   3   7  194.74   10.23
   5  -3  -7   33.97    4.94
  -5   3   7   31.14    5.68
  -5   3   7   25.83    6.96
  -5   3   7   32.15    4.62
   4  -3  -7  101.64    9.31
   4  -3  -7  106.06    7.37
  -4   3   7   91.60    7.25
  -4   3   7   82.37    8.33
  -4   3   7  124.83   11.04
  -4   3   7   97.71    4.44
  -4   3   7  100.62    4.46
   3  -3  -7  197.55   11.29
   3  -3  -7  205.86   12.86
   3  -3  -7  206.36   10.47
  -3   3   7  197.13   11.57
  -3   3   7  199.63    8.81
  -3   3   7  192.28   10.58
  -3   3   7  208.18   13.36
   2  -3  -7  645.81   24.91
   2  -3  -7  672.77   27.18
   2  -3  -7  622.49   23.54
  -2   3   7  653.60   25.21
  -2   3   7  636.60   27.09
  -2   3   7  638.77   22.84
  -2   3   7  656.15   24.45
   1  -3  -7   23.13    4.82
   1  -3  -7   24.19    3.15
   1  -3  -7   24.54    4.24
   1  -3  -7   22.18    3.36
  -1   3   7   21.23    4.92
  -1   3   7   27.74    4.11
  -1   3   7   22.37    3.17
  -1   3   7   24.17    4.02
   0  -3  -7 1576.41   51.52
   0  -3  -7 1603.42   54.61
   0  -3  -7 1560.75   50.78
   0  -3  -7 1544.21   51.95
   0   3   7 1593.00   50.97
   0   3   7 1568.82   51.87
   0   3   7 1552.47   52.32
   0   3   7 1544.76   54.11
  -1  -3  -7  299.93   15.19
  -1  -3  -7  319.31   13.87
  -1  -3  -7  315.54   12.19
  -1  -3  -7  325.42   13.49
  -1  -3  -7  307.20   13.93
   1   3   7  319.08   14.90
   1   3   7  327.64   12.79
   1   3   7  304.04   13.27
  -2  -3  -7  276.87   11.61
  -2  -3  -7  283.23   13.55
  -2  -3  -7  289.93   14.08
  -2  -3  -7  256.29   11.58
  -2  -3  -7  274.05   10.25
   2   3   7  268.61   13.18
   2   3   7  288.07   11.31
   2   3   7  290.10   12.13
  -3  -3  -7  309.81   14.57
  -3  -3  -7  301.24   12.00
  -3  -3  -7  302.80   13.10
  -3  -3  -7  293.37   11.87
  -3  -3  -7  279.13   14.49
   3   3   7  361.55   14.30
   3   3   7  278.22   11.55
  -4  -3  -7  152.94    8.26
  -4  -3  -7  155.68    6.57
  -4  -3  -7  155.87    6.53
  -4  -3  -7  149.21    9.36
   4   3   7  155.11    6.82
  -5  -3  -7  221.98   10.52
  -5  -3  -7  236.24   12.28
   5   3   7  217.13    8.63
  -6  -3  -7  255.02   13.58
  -6  -3  -7  285.71   12.33
  -7  -3  -7   10.00    3.72
  -7  -3  -7    8.25    2.64
  -8  -3  -7  297.26   15.31
  -8  -3  -7  266.82   13.10
  -9  -3  -7  333.90   15.25
  -9  -3  -7  322.52   17.09
 -10  -3  -7  206.95   13.97
 -10  -3  -7  232.78   12.35
 -11  -3  -7  148.98   12.31
   8  -4  -7   17.34    5.34
  -8   4   7   24.05    8.89
  -8   4   7    8.59    5.66
   7  -4  -7   -3.63    3.07
  -7   4   7   -0.77    2.40
  -7   4   7    3.06    4.34
  -7   4   7   -0.84    5.22
   6  -4  -7  210.48   12.68
  -6   4   7  216.44   17.10
  -6   4   7  209.29   11.55
  -6   4   7  205.78   14.43
   5  -4  -7   88.05    8.48
  -5   4   7   83.16    7.77
  -5   4   7  111.87   10.77
  -5   4   7   80.90   11.04
   4  -4  -7   10.25    3.69
   4  -4  -7    7.67    4.51
  -4   4   7    8.89    4.07
  -4   4   7   11.87    5.54
  -4   4   7    9.58    2.24
  -4   4   7   12.69    3.61
   3  -4  -7  175.21   10.06
   3  -4  -7  171.31    7.25
   3  -4  -7  161.78   12.19
   3  -4  -7  195.02   11.43
  -3   4   7  186.38   11.60
  -3   4   7  173.99   10.36
  -3   4   7  172.81   13.04
  -3   4   7  183.30    8.79
   2  -4  -7   35.25    6.29
   2  -4  -7   35.09    4.55
   2  -4  -7   34.17    3.71
   2  -4  -7   28.83    4.77
  -2   4   7   27.55    4.95
  -2   4   7   28.48    3.87
  -2   4   7   29.51    4.67
  -2   4   7   35.48    6.51
   1  -4  -7    0.05    1.81
   1  -4  -7    0.87    1.87
   1  -4  -7   -2.66    1.97
   1  -4  -7   -2.09    1.91
  -1   4   7   -1.57    1.88
  -1   4   7   -0.97    2.57
  -1   4   7    5.16    2.56
  -1   4   7   -0.33    1.60
   0  -4  -7 1152.34   38.81
   0  -4  -7 1127.09   40.21
   0  -4  -7 1135.55   39.78
   0  -4  -7 1206.97   43.09
   0   4   7 1179.43   42.76
   0   4   7 1187.73   39.16
   0   4   7 1193.31   40.61
   0   4   7 1137.90   40.12
  -1  -4  -7  695.80   25.22
  -1  -4  -7  673.66   27.76
  -1  -4  -7  695.85   23.90
  -1  -4  -7  692.35   26.22
  -1  -4  -7  718.98   25.58
   1   4   7  701.64   25.66
   1   4   7  680.52   27.19
   1   4   7  710.96   24.69
  -2  -4  -7 2150.26   71.64
  -2  -4  -7 2116.06   69.21
  -2  -4  -7 2089.57   72.11
  -2  -4  -7 2195.51   69.18
  -2  -4  -7 2325.46   72.24
  -2  -4  -7 2184.53   67.08
   2   4   7 2089.92   71.19
   2   4   7 2158.96   69.79
   2   4   7 2154.75   68.74
  -3  -4  -7  455.82   19.90
  -3  -4  -7  489.19   18.46
  -3  -4  -7  460.59   16.72
  -3  -4  -7  453.12   20.34
  -3  -4  -7  470.65   16.93
   3   4   7  466.28   16.73
   3   4   7  414.84   18.31
  -4  -4  -7  866.90   27.29
  -4  -4  -7  834.39   31.75
  -4  -4  -7  834.26   33.23
  -4  -4  -7  854.37   29.97
  -4  -4  -7  840.52   27.19
   4   4   7  854.65   28.02
  -5  -4  -7   26.76    4.64
  -5  -4  -7   31.87    5.99
  -5  -4  -7   29.81    3.96
   5   4   7   31.18    2.69
  -6  -4  -7   59.70    5.51
  -6  -4  -7   59.81    6.72
  -7  -4  -7  320.54   13.02
  -7  -4  -7  248.07   13.80
  -8  -4  -7   38.35    4.74
  -8  -4  -7   42.30    5.98
  -9  -4  -7   13.77    3.36
  -9  -4  -7   11.26    4.34
 -10  -4  -7  296.69   15.98
 -10  -4  -7  276.84   13.86
 -11  -4  -7   15.11    4.36
 -11  -4  -7   15.57    5.03
   7  -5  -7   10.00    4.74
  -7   5   7   11.37    3.71
  -7   5   7    5.47    6.39
   6  -5  -7  351.53   18.33
  -6   5   7  398.64   24.58
  -6   5   7  377.54   21.14
  -6   5   7  382.61   17.95
   5  -5  -7  319.45   16.14
  -5   5   7  309.56   11.10
  -5   5   7  334.60   16.31
  -5   5   7  300.01   18.03
   4  -5  -7   55.58    6.80
   4  -5  -7   62.71    9.55
  -4   5   7   65.99    8.67
  -4   5   7   76.25   11.11
  -4   5   7   56.94    5.15
  -4   5   7   59.96    7.16
   3  -5  -7  719.21   28.82
   3  -5  -7  657.15   24.62
   3  -5  -7  719.27   31.25
   3  -5  -7  688.22   27.00
  -3   5   7  744.64   28.36
  -3   5   7  676.71   31.86
  -3   5   7  715.91   29.27
  -3   5   7  743.95   25.90
   2  -5  -7   42.62    5.36
   2  -5  -7   47.32    7.58
   2  -5  -7   44.71    6.11
   2  -5  -7   56.79    4.98
  -2   5   7   49.78    6.48
  -2   5   7   53.82    6.93
  -2   5   7   45.97    5.23
  -2   5   7   50.51    8.22
   1  -5  -7  275.99   16.26
   1  -5  -7  289.27   14.13
   1  -5  -7  278.24   12.70
   1  -5  -7  269.69   12.79
  -1   5   7  279.46   12.65
  -1   5   7  259.12   15.62
  -1   5   7  268.63   14.12
  -1   5   7  286.31   13.91
   0  -5  -7  923.67   33.21
   0  -5  -7  928.20   33.29
   0  -5  -7  904.89   31.49
   0  -5  -7  922.95   36.33
   0   5   7  899.08   31.91
   0   5   7  914.00   33.27
   0   5   7  892.93   33.39
   0   5   7  913.35   35.74
  -1  -5  -7    7.00    3.24
  -1  -5  -7    6.01    1.94
  -1  -5  -7    4.92    2.32
  -1  -5  -7    4.30    2.36
  -1  -5  -7   10.20    4.07
   1   5   7    8.14    3.46
   1   5   7    3.48    2.46
   1   5   7    6.23    2.34
  -2  -5  -7  361.09   12.26
  -2  -5  -7  344.76   16.86
  -2  -5  -7  368.62   14.71
  -2  -5  -7  368.19   17.49
  -2  -5  -7  367.17   14.90
  -2  -5  -7  346.91   17.55
  -2  -5  -7  348.40   12.16
   2   5   7  344.15   15.26
   2   5   7  360.63   16.53
   2   5   7  371.36   14.51
  -3  -5  -7  257.16   11.04
  -3  -5  -7  261.17   14.30
  -3  -5  -7  273.71   11.41
  -3  -5  -7  291.41   12.95
  -3  -5  -7  295.05   15.04
   3   5   7  271.66   11.36
   3   5   7  272.17   13.03
  -4  -5  -7 1310.66   41.19
  -4  -5  -7 1334.05   46.58
  -4  -5  -7 1319.63   44.59
  -4  -5  -7 1310.81   41.15
  -4  -5  -7 1344.49   48.38
   4   5   7 1280.67   42.43
  -5  -5  -7  686.55   30.15
  -5  -5  -7  728.45   27.90
  -5  -5  -7  712.77   25.96
   5   5   7  706.58   23.50
  -6  -5  -7  801.08   31.26
  -6  -5  -7  827.27   34.93
  -6  -5  -7  870.85   29.76
  -7  -5  -7   71.14    9.72
  -7  -5  -7   62.17    6.91
  -7  -5  -7   59.27    5.70
  -8  -5  -7  203.06   10.30
  -8  -5  -7  212.56   11.98
  -9  -5  -7  158.87   10.21
  -9  -5  -7  127.20    8.20
 -10  -5  -7  126.92    8.38
 -10  -5  -7  134.97   10.06
 -11  -5  -7   68.87    6.87
 -11  -5  -7   81.24    8.90
   6  -6  -7   68.51    8.70
  -6   6   7   79.82   13.86
  -6   6   7   65.85    8.21
   5  -6  -7    4.06    3.66
  -5   6   7    3.12    1.97
  -5   6   7    0.33    5.66
  -5   6   7    2.18    3.30
   4  -6  -7    7.82    3.83
   4  -6  -7   11.58    5.71
  -4   6   7   11.28    2.94
  -4   6   7   10.94    4.46
  -4   6   7   26.16    7.79
   3  -6  -7  179.44   14.43
   3  -6  -7  185.68   11.29
   3  -6  -7  183.41   12.56
  -3   6   7  182.45   15.24
  -3   6   7  196.07   12.47
  -3   6   7  190.96   10.36
   2  -6  -7    5.19    3.72
   2  -6  -7    0.73    2.40
   2  -6  -7    1.79    4.14
   2  -6  -7    3.17    2.65
  -2   6   7    2.52    3.82
  -2   6   7   -0.31    2.12
  -2   6   7   -0.46    2.77
   1  -6  -7   10.74    4.03
   1  -6  -7   13.81    3.40
   1  -6  -7   18.00    4.00
   1  -6  -7   11.77    4.92
  -1   6   7    6.55    4.45
  -1   6   7    9.97    3.80
  -1   6   7   13.35    3.55
   0  -6  -7 1138.61   40.40
   0  -6  -7 1117.58   38.15
   0  -6  -7 1113.92   43.72
   0  -6  -7 1090.40   40.38
   0   6   7 1127.73   43.21
   0   6   7 1121.12   39.08
   0   6   7 1152.98   40.59
  -1  -6  -7    1.15    1.67
  -1  -6  -7   -3.97    1.67
  -1  -6  -7    1.21    2.05
  -1  -6  -7   -0.13    3.14
  -1  -6  -7   -1.35    2.54
   1   6   7   -1.55    1.77
   1   6   7   -0.17    2.36
   1   6   7   -0.68    2.69
  -2  -6  -7   81.42    6.43
  -2  -6  -7   74.26    8.66
  -2  -6  -7   91.24    9.37
  -2  -6  -7   78.44    6.01
   2   6   7   95.81    8.29
   2   6   7   75.40    6.45
   2   6   7   95.69    7.93
  -3  -6  -7    5.31    2.75
  -3  -6  -7    9.77    4.15
  -3  -6  -7    5.73    2.12
  -3  -6  -7    5.50    3.69
  -3  -6  -7    5.01    2.06
   3   6   7    6.20    2.94
   3   6   7    9.57    2.49
  -4  -6  -7  877.24   28.07
  -4  -6  -7  895.64   35.70
  -4  -6  -7  928.36   34.33
  -4  -6  -7  854.50   31.82
  -4  -6  -7  866.58   28.01
   4   6   7  870.65   29.84
  -5  -6  -7    1.17    3.42
  -5  -6  -7   -0.03    2.72
  -5  -6  -7   -2.37    1.71
   5   6   7    0.23    1.39
  -6  -6  -7  101.96    7.11
  -6  -6  -7  100.67    8.29
  -6  -6  -7  117.05   12.67
  -7  -6  -7  365.39   17.00
  -7  -6  -7  345.11   15.05
  -7  -6  -7  350.66   20.77
  -8  -6  -7  109.42   12.97
  -8  -6  -7  145.86    8.30
  -8  -6  -7  141.55    9.57
  -9  -6  -7   76.61    6.10
  -9  -6  -7   63.96    7.52
 -10  -6  -7    2.26    2.95
 -10  -6  -7    0.92    2.10
 -11  -6  -7    4.74    2.72
 -11  -6  -7    0.38    3.34
  -6   7   7   78.67   14.16
   5  -7  -7   76.26    8.97
  -5   7   7   61.58   11.83
  -5   7   7   61.09    8.52
  -5   7   7   79.28    5.91
   4  -7  -7   11.96    4.42
  -4   7   7   12.07    6.83
  -4   7   7    2.47    3.69
  -4   7   7   10.99    3.23
   3  -7  -7  463.49   22.14
   3  -7  -7  454.60   20.04
   3  -7  -7  412.95   24.60
  -3   7   7  454.42   19.08
  -3   7   7  429.07   21.19
  -3   7   7  420.35   25.21
   2  -7  -7    3.72    2.90
   2  -7  -7    6.28    4.01
   2  -7  -7   10.10    3.65
   2  -7  -7    6.10    5.20
  -2   7   7    7.73    5.18
  -2   7   7    4.38    2.87
  -2   7   7    7.72    3.89
   1  -7  -7   11.51    5.47
   1  -7  -7    8.90    3.23
   1  -7  -7    7.51    3.77
   1  -7  -7    6.38    3.68
  -1   7   7    6.74    4.01
  -1   7   7   10.72    3.47
  -1   7   7   11.21    5.39
   0  -7  -7  273.51   17.36
   0  -7  -7  256.71   14.42
   0  -7  -7  274.35   14.46
   0  -7  -7  271.99   12.11
   0   7   7  228.87   12.64
   0   7   7  235.86   13.96
   0   7   7  266.52   16.40
  -1  -7  -7   76.61    7.72
  -1  -7  -7   88.84    7.95
  -1  -7  -7   83.32    5.48
  -1  -7  -7  103.21   10.21
  -1  -7  -7   92.69   10.83
   1   7   7  106.55    9.49
   1   7   7  101.81   10.72
   1   7   7   95.33    8.05
  -2  -7  -7 1496.38   48.99
  -2  -7  -7 1436.69   53.53
  -2  -7  -7 1520.29   48.76
  -2  -7  -7 1508.51   52.89
   2   7   7 1475.76   48.70
   2   7   7 1212.99   50.48
  -3  -7  -7   24.92    3.64
  -3  -7  -7   35.11    6.73
  -3  -7  -7   26.85    5.89
  -3  -7  -7   33.62    3.87
  -3  -7  -7   29.81    4.97
   3   7   7   31.32    4.29
  -4  -7  -7   80.84    9.22
  -4  -7  -7   54.68    8.59
  -4  -7  -7   69.19    3.66
  -4  -7  -7   63.11    3.63
  -4  -7  -7   63.20    6.76
   4   7   7   70.70    5.87
  -5  -7  -7    4.20    2.69
  -5  -7  -7    3.67    4.09
  -5  -7  -7   -1.50    2.80
  -6  -7  -7  287.84   15.25
  -6  -7  -7  266.63   13.19
  -6  -7  -7  273.70   17.64
  -7  -7  -7  128.11   13.99
  -7  -7  -7  110.45    7.62
  -7  -7  -7  105.57    8.78
  -8  -7  -7   46.88    5.44
  -8  -7  -7   54.02    9.89
  -8  -7  -7   52.00    6.75
  -9  -7  -7  197.13   10.14
  -9  -7  -7  192.56   16.43
  -9  -7  -7  164.28   11.10
 -10  -7  -7  305.10   15.56
 -10  -7  -7  297.76   13.75
 -11  -7  -7   98.21    8.55
 -11  -7  -7   82.86    6.96
  -5   8   7   12.96    8.43
  -5   8   7    2.50    4.67
  -5   8   7   12.50    3.50
   4  -8  -7    6.15    4.01
  -4   8   7    5.17    3.21
  -4   8   7    2.41    4.25
  -4   8   7   -1.48    5.82
   3  -8  -7  150.77   10.77
   3  -8  -7  164.36   15.34
  -3   8   7  124.13   15.33
  -3   8   7  164.28   14.24
  -3   8   7  136.53    9.87
   2  -8  -7  372.58   19.48
   2  -8  -7  350.35   16.86
   2  -8  -7  354.08   22.64
   2  -8  -7  349.78   18.05
  -2   8   7  346.31   19.04
  -2   8   7  346.78   17.00
  -2   8   7  376.32   22.66
   1  -8  -7  157.94   11.65
   1  -8  -7  174.62   12.22
   1  -8  -7  165.55   10.03
   1  -8  -7  155.55   14.88
  -1   8   7  160.17   14.26
  -1   8   7  180.40   11.17
  -1   8   7  172.11   12.54
   0  -8  -7  252.58   17.83
   0  -8  -7  262.59   12.15
   0  -8  -7  238.82   14.45
   0  -8  -7  260.27   15.34
   0   8   7  246.71   13.51
   0   8   7  300.95   18.19
  -1  -8  -7  272.65   13.97
  -1  -8  -7  246.52   10.32
  -1  -8  -7  252.80   17.07
  -1  -8  -7  245.99   15.20
   1   8   7  252.34   13.20
   1   8   7  233.29   15.65
  -2  -8  -7   -2.02    3.57
  -2  -8  -7   10.78    4.69
  -2  -8  -7   -3.27    2.20
  -2  -8  -7   -2.44    1.65
   2   8   7   -2.47    2.30
  -3  -8  -7   62.01    8.85
  -3  -8  -7   78.70   10.30
  -3  -8  -7   73.51    5.66
  -3  -8  -7   72.11    6.30
   3   8   7   64.75    6.43
  -4  -8  -7  347.81   20.29
  -4  -8  -7  359.37   12.49
  -4  -8  -7  350.59   12.39
  -4  -8  -7  352.73   19.23
   4   8   7  372.92   15.42
  -5  -8  -7  109.00    8.73
  -5  -8  -7  120.60   13.46
  -5  -8  -7  125.60   10.77
  -6  -8  -7   11.94    6.02
  -6  -8  -7   13.61    3.80
  -6  -8  -7   19.77    5.07
  -7  -8  -7   35.42    5.16
  -7  -8  -7   56.61    7.49
  -7  -8  -7   34.63    8.78
  -8  -8  -7   -2.48    2.23
  -8  -8  -7   -2.32    2.81
  -8  -8  -7   -2.85    3.44
  -9  -8  -7   16.25    6.58
  -9  -8  -7    9.17    3.14
  -9  -8  -7    5.79    3.66
 -10  -8  -7    2.94    2.49
 -10  -8  -7    7.33    6.23
 -10  -8  -7   -0.52    3.04
   3  -9  -7   12.63    7.34
   3  -9  -7   16.85    4.89
  -3   9   7    5.71    6.86
  -3   9   7    3.76    3.69
  -3   9   7    9.04    5.33
   2  -9  -7   21.34    5.94
   2  -9  -7   14.15    4.38
   2  -9  -7   19.52    7.88
  -2   9   7   26.01    7.88
  -2   9   7   16.71    4.76
   1  -9  -7  216.59   14.34
   1  -9  -7  199.61   11.45
   1  -9  -7  206.18   14.37
   1  -9  -7  203.24   17.59
  -1   9   7  201.65   16.59
  -1   9   7  206.84   12.80
   0  -9  -7    0.87    3.46
   0  -9  -7    0.99    2.20
   0  -9  -7    3.22    3.72
   0  -9  -7    1.32    4.77
   0   9   7    4.13    3.64
  -1  -9  -7   41.02    3.51
  -1  -9  -7   40.63    7.82
  -1  -9  -7   35.06    8.35
  -1  -9  -7   37.21    6.23
   1   9   7   49.25    6.85
  -2  -9  -7   29.11    5.00
  -2  -9  -7   22.83    6.74
  -2  -9  -7   27.97    6.56
  -2  -9  -7   37.21    5.49
   2   9   7   43.08    5.92
  -3  -9  -7  384.01   16.08
  -3  -9  -7  370.39   21.64
  -3  -9  -7  385.68   21.63
  -3  -9  -7  389.04   15.88
   3   9   7  371.11   17.15
  -4  -9  -7    6.22    4.40
  -4  -9  -7   10.50    5.72
   4   9   7    7.38    3.13
  -5  -9  -7  141.77   11.82
  -5  -9  -7  107.70   13.25
  -6  -9  -7   95.79   12.88
  -6  -9  -7   81.58    9.90
  -7  -9  -7  115.86   10.38
  -7  -9  -7  102.98   13.73
  -8  -9  -7    4.14    3.01
  -8  -9  -7    1.92    5.02
  -8  -9  -7    6.32    3.92
  -9  -9  -7    9.88    6.16
  -9  -9  -7    6.39    3.81
  -9  -9  -7    5.87    3.04
 -10  -9  -7   60.98   12.18
 -10  -9  -7   65.66    8.30
 -10  -9  -7   74.53    7.18
   2 -10  -7    1.22    3.27
   2 -10  -7    8.47    5.40
   2 -10  -7    3.65    6.64
  -2  10   7    5.31    3.95
   1 -10  -7  168.31   18.72
   1 -10  -7  186.93   14.50
   1 -10  -7  164.32   10.37
   1 -10  -7  204.87   14.56
  -1  10   7  177.08   12.39
   0 -10  -7   48.95   10.60
   0 -10  -7   68.27   10.04
   0 -10  -7   45.62    7.72
   0 -10  -7   54.26    5.30
   0  10   7   49.27    7.18
  -1 -10  -7   20.65    6.89
  -1 -10  -7   14.92    6.88
  -1 -10  -7   11.52    4.26
   1  10   7   21.31    5.06
  -2 -10  -7   31.07    7.70
  -2 -10  -7   25.55    5.13
  -2 -10  -7   17.80    6.82
   2  10   7   31.03    5.96
  -3 -10  -7   88.12    6.70
  -3 -10  -7   72.95   11.09
  -3 -10  -7   79.06   11.40
  -3 -10  -7   99.22    7.15
   3  10   7   83.56    8.67
  -4 -10  -7   -2.80    4.13
  -4 -10  -7    3.01    4.48
   4  10   7   -0.46    2.77
  -5 -10  -7  179.49   18.43
  -5 -10  -7  194.28   14.85
  -6 -10  -7    6.89    5.98
  -6 -10  -7   -0.07    3.73
  -7 -10  -7   12.74    5.14
  -7 -10  -7   15.88    6.79
  -8 -10  -7    5.26    4.40
  -8 -10  -7    1.32    5.20
  -9 -10  -7   29.90    6.50
  -9 -10  -7   30.46    9.44
   0 -11  -7   -6.10    4.86
   0 -11  -7    0.92    4.76
   0 -11  -7    0.43    3.95
   0  11   7    0.55    3.92
  -1 -11  -7   -3.62    4.06
  -1 -11  -7   -1.38    3.50
  -1 -11  -7    2.87    6.22
   1  11   7    2.09    3.78
  -2 -11  -7   25.29    7.80
  -2 -11  -7   23.38    5.10
  -2 -11  -7    9.52    6.37
   2  11   7   21.28    5.72
  -3 -11  -7  115.72    8.02
  -3 -11  -7  119.87   14.29
  -3 -11  -7  119.42   14.88
  -3 -11  -7  121.80    7.93
   3  11   7  132.01   11.49
  -4 -11  -7   15.48    7.23
  -4 -11  -7   11.80    6.36
   4  11   7    7.69    3.98
  -5 -11  -7   21.83    7.66
  -5 -11  -7   22.15    7.34
  -6 -11  -7   58.69   11.57
  -6 -11  -7   51.60    9.28
  -7 -11  -7   47.81   10.95
  -7 -11  -7   63.57   10.28
  -8 -11  -7    5.11    4.72
  -4 -12  -7   29.33    8.55
  -4 -12  -7    5.45    6.40
   4  12   7   14.05    5.30
  -5 -10   8   46.26   10.75
  -5 -10   8   34.70    8.57
  -5 -10   8   54.69    8.67
  -4 -10   8   32.69    9.56
  -4 -10   8   32.13    7.36
  -4 -10   8   34.15    8.38
   3  10  -8   21.47    5.87
  -3 -10   8   10.09    6.96
  -3 -10   8   12.34    6.83
   2  10  -8    8.32    4.76
  -2 -10   8   15.15    7.63
  -2 -10   8   15.38    3.44
  -2 -10   8   13.97    3.27
  -2 -10   8    9.81    6.64
   1  10  -8   66.93    8.71
  -1 -10   8   69.15   12.85
  -1 -10   8   63.15   12.34
   0  10  -8  401.13   20.21
   0 -10   8  372.21   25.48
   0 -10   8  379.92   26.05
  -1  10  -8   22.80    6.12
  -7  -9   8   21.95    7.44
  -7  -9   8   19.62    6.25
  -7  -9   8   22.68    5.62
  -6  -9   8   40.77    6.81
  -6  -9   8   34.89    7.95
  -6  -9   8   42.11    9.17
  -5  -9   8   -3.54    4.14
  -5  -9   8    1.86    3.88
  -5  -9   8    5.00    4.66
  -4  -9   8    1.44    4.84
  -4  -9   8    4.88    4.64
  -4  -9   8    5.56    5.78
   3   9  -8   89.32    8.93
  -3  -9   8   76.93   12.41
  -3  -9   8   75.44    9.74
  -3  -9   8   66.33   10.90
   2   9  -8  127.84   11.09
  -2  -9   8  147.78   16.27
  -2  -9   8  107.87   14.16
  -2  -9   8  147.26    8.54
   1   9  -8  140.70   10.87
  -1  -9   8  162.18   17.25
  -1  -9   8  121.57   14.87
   0   9  -8   29.67    6.05
   0  -9   8   31.93    9.43
   0  -9   8   27.14    8.35
  -1   9  -8   55.61    7.90
   1  -9   8   61.75    5.18
   1  -9   8   40.46   10.11
   1  -9   8   73.35   12.63
  -2   9  -8   23.91    5.87
   2  -9   8   16.49    7.67
   2  -9   8   16.63    3.94
   2  -9   8   10.30    7.25
  -3   9  -8   26.12    5.81
   3  -9   8   28.59    5.38
   3  -9   8   10.81    8.07
   3  -9   8   27.33    8.96
  -8  -8   8   -3.23    4.28
  -8  -8   8    0.68    3.67
  -8  -8   8    0.47    3.27
  -7  -8   8  120.02   14.28
  -7  -8   8  118.81   10.81
  -7  -8   8  120.40   11.22
  -6  -8   8   33.94    6.28
  -6  -8   8   18.89    5.75
  -6  -8   8   39.48    8.48
  -5  -8   8   74.80   10.97
  -5  -8   8   80.99   10.63
  -5  -8   8   57.02    7.73
  -4  -8   8   93.41   12.51
  -4  -8   8   77.29    9.12
  -4  -8   8   86.37   11.60
   3   8  -8   70.86    7.46
  -3  -8   8   74.47    9.18
  -3  -8   8   68.91   10.33
  -3  -8   8   55.90    9.77
   2   8  -8   21.31    4.86
   2   8  -8   33.19    5.55
  -2  -8   8   19.58    6.97
  -2  -8   8   22.72    7.48
  -2  -8   8   25.56    4.08
  -2  -8   8   18.36    5.64
   1   8  -8  331.17   17.28
  -1  -8   8  411.16   23.54
  -1  -8   8  400.57   23.54
  -1  -8   8  379.11   23.10
   0   8  -8  251.70   14.05
   0  -8   8  234.37   18.19
   0  -8   8  260.82   19.11
  -1   8  -8   35.96    6.20
   1  -8   8   27.85    4.02
   1  -8   8   45.48    9.92
   1  -8   8   34.68    9.17
  -2   8  -8   13.55    4.55
   2  -8   8    6.83    3.13
   2  -8   8    2.99    5.93
   2  -8   8   10.89    6.30
  -3   8  -8   -2.27    2.81
  -3   8  -8   -5.86    4.75
   3  -8   8   -4.07    4.93
   3  -8   8    3.83    5.47
   3  -8   8   -0.31    2.56
  -4   8  -8   11.77    6.25
  -4   8  -8    6.58    3.93
  -4   8  -8   16.55    8.23
   4  -8   8   26.71    9.25
   4  -8   8   26.27    8.29
   4  -8   8   17.40    5.23
  -8  -7   8   55.08    6.91
  -8  -7   8   81.01   10.88
  -8  -7   8   56.71    8.72
  -7  -7   8   44.46    8.23
  -7  -7   8   31.88    5.66
  -7  -7   8   61.10    8.37
  -6  -7   8   11.88    3.87
  -6  -7   8   12.75    4.92
  -6  -7   8    5.45    4.35
  -5  -7   8   -1.69    2.73
  -5  -7   8    3.30    4.56
  -5  -7   8   -0.17    3.69
  -4  -7   8  210.62   15.02
  -4  -7   8  224.09   12.98
  -4  -7   8  144.32   12.35
   3   7  -8   36.78    5.16
  -3  -7   8   25.36    6.83
  -3  -7   8   22.30    6.29
  -3  -7   8   19.80    5.02
   2   7  -8  235.15   12.36
  -2  -7   8  238.15   14.42
  -2  -7   8  227.32   11.00
  -2  -7   8  262.78   17.00
  -2  -7   8  212.87   15.83
   1   7  -8  690.76   27.28
   1   7  -8  677.47   27.22
  -1  -7   8  703.02   32.84
  -1  -7   8  722.79   30.26
  -1  -7   8  727.97   32.78
  -1  -7   8  710.39   26.84
   0   7  -8  294.90   15.27
   0  -7   8  325.45   11.99
   0  -7   8  343.76   20.67
   0  -7   8  311.63   20.08
  -1   7  -8  114.37   12.82
  -1   7  -8  119.98    9.23
   1  -7   8  106.04   13.15
   1  -7   8  126.61    7.59
   1  -7   8  104.73   13.17
  -2   7  -8   70.04    8.17
  -2   7  -8   71.27   11.11
   2  -7   8   78.54   11.85
   2  -7   8   96.37   13.12
   2  -7   8   65.18    6.80
  -3   7  -8   46.45    6.59
  -3   7  -8   32.29    6.59
  -3   7  -8   51.90   10.01
   3  -7   8   58.36    6.93
   3  -7   8   53.18   10.50
   3  -7   8   50.45   10.17
  -4   7  -8   34.37    9.60
  -4   7  -8   25.43    5.06
  -4   7  -8   31.42    6.91
   4  -7   8   35.52    5.95
   4  -7   8   31.16    8.96
   4  -7   8   31.87    8.81
  -5   7  -8   14.12    5.62
  -5   7  -8   25.39    5.03
  -5   7  -8   10.04    7.20
   5  -7   8   27.05    8.18
   5  -7   8   23.01    5.57
  -6   7  -8   30.47    7.33
  -6   7  -8   27.90    9.62
  -6   7  -8   31.42    5.13
   6  -7   8   47.92   10.72
   6  -7   8   40.51    7.07
  -9  -6   8   -3.60    3.12
  -9  -6   8   -3.81    2.36
  -8  -6   8    1.56    2.97
  -8  -6   8    2.95    4.24
  -8  -6   8    4.67    3.98
  -7  -6   8   18.44    5.26
  -7  -6   8   21.59    4.39
  -6  -6   8    0.06    3.55
  -6  -6   8    3.11    3.84
  -6  -6   8   -1.73    2.32
  -5  -6   8    7.54    4.20
  -5  -6   8    2.43    3.92
  -5  -6   8    1.09    2.71
  -4  -6   8   32.15    6.91
  -4  -6   8   24.61    5.72
  -4  -6   8   23.48    4.85
   3   6  -8    4.04    2.42
  -3  -6   8   -2.88    3.48
  -3  -6   8    1.57    1.24
  -3  -6   8    2.37    2.90
  -3  -6   8   -1.51    3.27
   2   6  -8   45.83    5.50
  -2  -6   8   58.64    5.45
  -2  -6   8   51.19    6.98
  -2  -6   8   44.71    7.72
  -2  -6   8   45.53    7.88
   1   6  -8  525.85   22.09
   1   6  -8  555.51   33.44
  -1  -6   8  581.07   27.36
  -1  -6   8  571.25   22.15
  -1  -6   8  583.07   24.77
  -1  -6   8  555.08   26.83
   0   6  -8  242.90   15.44
   0   6  -8  240.60   12.65
   0   6  -8  248.98   12.78
   0  -6   8  248.73   10.22
   0  -6   8  231.74   16.27
   0  -6   8  269.99   16.94
   0  -6   8  242.29   13.01
   0  -6   8  247.22   14.81
  -1   6  -8   72.53    9.72
  -1   6  -8   52.61    6.53
  -1   6  -8   55.88    7.45
   1  -6   8   64.87   10.04
   1  -6   8   71.15    6.22
   1  -6   8   56.65    9.44
  -2   6  -8   -1.55    2.51
  -2   6  -8    0.66    4.19
  -2   6  -8   -1.63    2.97
   2  -6   8   -0.54    4.09
   2  -6   8   -1.15    4.39
   2  -6   8   -1.99    2.16
  -3   6  -8    2.46    4.81
  -3   6  -8   -0.60    3.17
  -3   6  -8   -2.18    2.78
   3  -6   8    0.98    4.18
   3  -6   8    0.05    2.55
   3  -6   8   -0.69    4.30
  -4   6  -8    4.97    3.07
  -4   6  -8    2.13    3.57
  -4   6  -8    6.77    5.40
   4  -6   8    1.17    3.11
   4  -6   8    1.52    5.31
   4  -6   8   12.11    6.11
  -5   6  -8  146.12   13.09
  -5   6  -8  138.24    8.91
  -5   6  -8  107.77   14.51
   5  -6   8  120.81   10.75
   5  -6   8  110.80   14.65
   5  -6   8   92.14   13.01
  -6   6  -8    5.02    6.36
  -6   6  -8    4.10    2.71
  -6   6  -8   -3.10    3.39
   6  -6   8    7.02    5.57
   6  -6   8    0.32    3.41
  -7   6  -8    7.41    6.78
  -7   6  -8    5.31    4.47
   7  -6   8    8.67    4.83
   7  -6   8   -0.13    6.05
  -9  -5   8  131.33   11.04
  -9  -5   8  120.35    9.39
  -8  -5   8  109.59   10.04
  -8  -5   8  114.25    8.62
  -7  -5   8  158.47   11.60
  -7  -5   8  168.07   11.83
  -7  -5   8  152.02    9.86
  -6  -5   8  204.53   13.04
  -6  -5   8  199.24   11.29
  -6  -5   8  199.58   13.03
  -5  -5   8  178.74   12.48
  -5  -5   8  194.32   12.65
  -5  -5   8  206.21   11.36
   4   5  -8   29.97    5.36
  -4  -5   8   27.97    4.84
  -4  -5   8   26.94    5.87
  -4  -5   8   29.36    5.91
   3   5  -8   59.63    5.48
  -3  -5   8   58.48    6.63
  -3  -5   8   62.21    8.14
  -3  -5   8   63.42    8.38
  -3  -5   8   64.52    3.75
   2   5  -8  408.84   20.18
   2   5  -8  398.25   15.79
  -2  -5   8  414.33   15.45
  -2  -5   8  390.02   17.80
  -2  -5   8  289.95   18.02
  -2  -5   8  380.58   19.58
   1   5  -8 1032.01   38.57
   1   5  -8  994.92   37.93
   1   5  -8 1037.07   35.21
  -1  -5   8  943.10   39.29
  -1  -5   8  992.23   39.31
  -1  -5   8  994.58   35.10
  -1  -5   8  996.40   37.11
   0   5  -8   52.54    6.39
   0   5  -8   63.54    8.56
   0   5  -8   42.12    5.12
   0  -5   8   50.56    6.08
   0  -5   8   60.85    7.33
   0  -5   8   37.49    7.08
   0  -5   8   35.45    6.96
   0  -5   8   51.71    4.55
  -1   5  -8    0.67    3.12
  -1   5  -8    7.04    4.05
  -1   5  -8    0.47    2.33
   1  -5   8    1.02    2.12
   1  -5   8    1.19    3.68
   1  -5   8   -0.21    3.68
   1  -5   8   -0.11    2.71
   1  -5   8    4.44    3.35
  -2   5  -8  407.19   19.05
  -2   5  -8  404.90   22.14
  -2   5  -8  401.22   17.63
   2  -5   8  418.45   17.35
   2  -5   8  424.82   22.45
  -3   5  -8   -4.02    3.74
  -3   5  -8    0.54    3.23
  -3   5  -8   -0.02    2.53
   3  -5   8    0.48    2.41
   3  -5   8   -3.33    3.32
  -4   5  -8    3.04    3.28
  -4   5  -8    3.50    2.66
  -4   5  -8    1.80    4.66
   4  -5   8   -0.80    4.05
   4  -5   8    5.11    3.12
  -5   5  -8  255.55   15.11
  -5   5  -8  284.10   19.57
  -5   5  -8  277.19   12.82
   5  -5   8  260.35   18.47
   5  -5   8  258.12   14.37
  -6   5  -8   -2.49    1.82
  -6   5  -8    1.11    5.06
  -6   5  -8   -3.08    3.39
   6  -5   8   -3.80    2.94
  -7   5  -8  216.81   13.69
  -7   5  -8  176.67   19.20
   7  -5   8  207.58   13.69
  -8   5  -8   26.42    6.07
  -8   5  -8   48.84   11.59
   8  -5   8   26.55    6.39
  -9  -4   8    0.93    3.79
  -9  -4   8    3.90    3.47
  -8  -4   8    8.51    4.19
  -8  -4   8    2.97    3.13
  -7  -4   8    0.13    2.98
  -7  -4   8   -0.42    2.44
  -7  -4   8   -3.05    2.52
  -6  -4   8   84.88    9.05
  -6  -4   8   86.44    8.62
  -6  -4   8   78.60    7.26
  -5  -4   8  119.20    9.40
  -5  -4   8  122.75    8.39
  -5  -4   8  132.51    9.91
   4   4  -8  134.11    7.29
  -4  -4   8  176.32   11.40
  -4  -4   8  145.52   10.06
  -4  -4   8  136.62    9.02
   3   4  -8    5.68    2.20
  -3  -4   8    5.46    1.59
  -3  -4   8    3.95    2.64
  -3  -4   8    5.30    3.42
  -3  -4   8    4.81    3.23
   2   4  -8  333.92   14.09
   2   4  -8  337.49   15.94
  -2  -4   8  418.58   18.59
  -2  -4   8  323.84   15.71
  -2  -4   8  348.64   17.53
  -2  -4   8  348.27   13.99
   1   4  -8   34.69    4.25
   1   4  -8   44.25    5.56
   1   4  -8   33.79    5.49
  -1  -4   8   34.95    6.45
  -1  -4   8   29.67    2.12
  -1  -4   8   30.66    4.20
  -1  -4   8   43.02    5.89
  -1  -4   8   32.49    2.20
  -1  -4   8   31.72    5.85
   0   4  -8   86.60    9.01
   0   4  -8   96.11    6.68
   0   4  -8   77.35    7.50
   0  -4   8   87.58    9.80
   0  -4   8   82.21    9.23
   0  -4   8   78.65    6.99
   0  -4   8   77.52    7.65
   0  -4   8   94.30    5.48
  -1   4  -8   86.83    6.55
  -1   4  -8  102.72    7.85
  -1   4  -8   90.60    6.72
  -1   4  -8   86.47    9.46
   1  -4   8   89.66    8.35
   1  -4   8   95.54    6.27
   1  -4   8   84.03    9.79
  -2   4  -8   67.10    7.07
  -2   4  -8   61.11    5.95
  -2   4  -8   69.20    9.16
   2  -4   8   66.56    9.05
   2  -4   8   57.49    5.70
   2  -4   8   68.86    7.68
  -3   4  -8  153.62    8.83
  -3   4  -8  149.51   12.35
  -3   4  -8  133.31    9.62
   3  -4   8  129.71   11.53
   3  -4   8  148.35    9.01
  -4   4  -8   40.09    5.83
  -4   4  -8   37.43    8.01
  -4   4  -8   38.15    4.73
   4  -4   8   35.13    5.35
   4  -4   8   43.09    8.03
  -5   4  -8   35.98    4.36
  -5   4  -8   26.76    7.23
  -5   4  -8   35.81    5.81
   5  -4   8   37.16    5.91
   5  -4   8   48.37    8.73
  -6   4  -8   49.24    6.78
  -6   4  -8   49.56    4.14
  -6   4  -8   46.33    9.16
   6  -4   8   45.88    6.79
  -7   4  -8    6.04    5.77
  -7   4  -8    5.06    3.66
   7  -4   8    1.74    3.62
  -8   4  -8   -2.93    2.99
  -8   4  -8    7.53    6.36
   8  -4   8   -0.17    3.60
  -9  -3   8   30.87    5.59
  -9  -3   8   28.47    6.39
  -8  -3   8   38.41    6.79
  -8  -3   8   31.07    5.27
  -7  -3   8  686.48   29.71
  -7  -3   8  764.66   28.19
  -6  -3   8  106.42    7.82
  -6  -3   8  130.64    9.97
  -6  -3   8  122.85    8.47
  -5  -3   8   89.94    7.17
  -5  -3   8  108.94    7.70
  -5  -3   8   85.66    8.19
   4   3  -8  434.70   16.15
  -4  -3   8  448.24   18.75
  -4  -3   8  438.63   18.23
  -4  -3   8  409.51   19.72
   3   3  -8  804.06   26.90
  -3  -3   8  785.53   29.66
  -3  -3   8  761.79   28.69
  -3  -3   8  810.63   25.92
  -3  -3   8  717.54   30.18
   2   3  -8    1.79    2.45
   2   3  -8    3.46    1.90
  -2  -3   8    6.81    3.39
  -2  -3   8    2.40    1.80
  -2  -3   8    1.39    2.74
  -2  -3   8    1.39    2.10
   1   3  -8  160.19    9.20
   1   3  -8  149.62    9.96
   1   3  -8  166.77    8.33
  -1  -3   8  168.07    6.54
  -1  -3   8  174.23   10.69
  -1  -3   8  150.87    8.33
  -1  -3   8  157.23    9.42
  -1  -3   8  157.18    6.43
  -1  -3   8  141.68   10.46
   0   3  -8    4.08    2.09
   0   3  -8    6.93    3.36
   0   3  -8    5.96    2.71
   0  -3   8    7.59    2.42
   0  -3   8    6.44    1.97
   0  -3   8    7.40    3.87
   0  -3   8    3.99    2.27
  -1   3  -8   88.78    8.46
  -1   3  -8  102.71    7.55
  -1   3  -8  103.95    6.72
   1  -3   8   90.93    8.67
   1  -3   8  104.61    7.72
   1  -3   8  104.05    6.33
  -2   3  -8  634.48   23.33
  -2   3  -8  664.00   24.90
  -2   3  -8  605.16   27.02
   2  -3   8  644.14   25.42
   2  -3   8  625.32   27.36
   2  -3   8  613.85   23.27
  -3   3  -8    7.11    2.61
  -3   3  -8    6.74    4.07
  -3   3  -8    8.01    3.19
   3  -3   8    8.18    2.80
   3  -3   8    8.74    4.05
  -4   3  -8  267.84   13.65
  -4   3  -8  269.82   16.93
  -4   3  -8  265.06   11.89
   4  -3   8  264.01   13.01
   4  -3   8  279.26   16.48
  -5   3  -8  592.49   20.67
  -5   3  -8  550.92   27.53
  -5   3  -8  551.85   23.32
   5  -3   8  567.44   23.04
   5  -3   8  597.06   26.91
  -6   3  -8   93.30    8.45
  -6   3  -8   72.57   10.46
   6  -3   8   70.04    7.77
  -7   3  -8  305.37   20.86
  -7   3  -8  305.89   15.07
   7  -3   8  323.55   16.04
  -8   3  -8   46.62   10.23
  -8   3  -8   53.19    6.12
  -8   3  -8   64.04    6.65
   8  -3   8   55.34    7.46
  -9   3  -8   19.02    3.24
  -9   3  -8   35.76    9.20
  -9   3  -8   19.78    3.41
   9  -3   8   16.77    5.23
  -9  -2   8   29.21    6.70
  -9  -2   8   29.83    5.90
  -8  -2   8    7.47    3.65
  -8  -2   8    7.91    4.52
  -7  -2   8  237.55   14.76
  -7  -2   8  236.34   12.91
  -6  -2   8   12.80    2.86
  -6  -2   8    9.36    3.45
  -6  -2   8   16.68    4.60
   5   2  -8   -1.26    1.61
  -5  -2   8   -1.24    1.73
  -5  -2   8   -0.45    2.08
  -5  -2   8   -0.31    2.64
   4   2  -8  121.83    6.38
  -4  -2   8  109.69    7.72
  -4  -2   8  101.00    8.53
  -4  -2   8  109.17    7.10
   3   2  -8   22.45    3.25
   3   2  -8   22.71    4.52
  -3  -2   8   37.85    4.82
  -3  -2   8   27.70    3.11
  -3  -2   8   22.84    3.96
  -3  -2   8   28.20    5.27
   2   2  -8   -1.15    1.97
   2   2  -8    0.74    1.72
  -2  -2   8    1.47    2.07
  -2  -2   8   -0.11    1.35
  -2  -2   8    2.42    2.42
  -2  -2   8    1.86    2.59
   1   2  -8  146.43    8.29
   1   2  -8  129.36    8.97
   1   2  -8  145.95    7.36
  -1  -2   8  119.57    8.09
  -1  -2   8  136.20    6.04
  -1  -2   8  132.75    9.44
  -1  -2   8  141.02    7.67
   0   2  -8   16.35    3.47
   0   2  -8   14.11    2.68
   0   2  -8   14.96    4.14
   0  -2   8   13.67    2.41
   0  -2   8   18.98    3.91
   0  -2   8   14.08    4.08
   0  -2   8    8.43    2.59
  -1   2  -8  564.24   21.82
  -1   2  -8  551.28   20.78
  -1   2  -8  584.90   24.30
   1  -2   8  554.62   20.52
   1  -2   8  578.18   22.51
   1  -2   8  548.73   23.89
  -2   2  -8    0.94    2.80
  -2   2  -8   -0.36    1.64
  -2   2  -8    0.76    2.10
   2  -2   8   -2.13    1.72
   2  -2   8    1.67    1.86
   2  -2   8    1.91    2.74
  -3   2  -8  299.18   16.55
  -3   2  -8  304.02   12.48
  -3   2  -8  295.52   13.83
   3  -2   8  281.43   12.98
   3  -2   8  292.57   14.25
   3  -2   8  293.18   15.96
  -4   2  -8   13.71    3.36
  -4   2  -8   10.51    4.39
  -4   2  -8   11.46    2.51
   4  -2   8   11.58    4.23
   4  -2   8   15.40    3.46
  -5   2  -8   25.51    4.25
  -5   2  -8   22.86    4.38
  -5   2  -8   22.58    6.09
  -5   2  -8   23.88    2.72
   5  -2   8   19.74    5.21
   5  -2   8   24.31    4.25
  -6   2  -8    2.11    2.31
  -6   2  -8    3.45    4.08
  -6   2  -8   -1.73    2.30
   6  -2   8    0.15    2.47
  -7   2  -8  348.16   15.54
  -7   2  -8  368.51   15.72
  -7   2  -8  329.22   21.03
   7  -2   8  381.03   17.08
  -8   2  -8   67.51    6.03
  -8   2  -8   80.56    5.85
  -8   2  -8   57.01   10.24
   8  -2   8   71.94    7.99
  -9   2  -8  117.80   14.90
   9  -2   8  129.43   11.29
  -9  -1   8  107.66   12.40
  -9  -1   8   96.75   10.00
  -8  -1   8    6.05    4.33
  -8  -1   8    1.75    3.15
  -7  -1   8   74.19    8.01
  -7  -1   8   85.40   10.14
  -6  -1   8  130.57   10.54
  -6  -1   8  109.87    8.68
   5   1  -8   12.67    2.75
  -5  -1   8   10.06    4.24
  -5  -1   8   12.04    3.60
  -5  -1   8   20.62    2.47
   4   1  -8   66.29    4.87
  -4  -1   8   55.02    7.29
  -4  -1   8   60.16    4.35
  -4  -1   8   58.47    6.09
   3   1  -8  115.18    8.04
   3   1  -8  126.09    6.90
  -3  -1   8  135.63    7.12
  -3  -1   8  131.14    8.17
  -3  -1   8  133.18    9.49
   2   1  -8  392.62   17.40
   2   1  -8  399.00   15.29
  -2  -1   8  367.79   16.43
  -2  -1   8  411.78   15.59
  -2  -1   8  389.68   15.90
  -2  -1   8  421.36   18.54
   1   1  -8   22.55    4.42
   1   1  -8   29.40    4.12
   1   1  -8   31.70    3.62
  -1  -1   8   29.60    3.84
  -1  -1   8   26.84    4.01
  -1  -1   8   27.81    2.83
  -1  -1   8   19.47    4.55
   0   1  -8  210.30   11.89
   0   1  -8  212.32    9.72
   0  -1   8  227.81   12.29
   0  -1   8  205.17   10.70
   0  -1   8  216.04    9.30
  -1   1  -8  998.22   32.90
  -1   1  -8  937.60   33.63
  -1   1  -8  967.81   36.07
   1  -1   8  957.33   32.57
   1  -1   8  969.16   35.93
  -2   1  -8  180.73   11.43
  -2   1  -8  174.15    9.46
  -2   1  -8  177.30    8.54
  -2   1  -8  179.20    8.52
   2  -1   8  174.57   10.99
   2  -1   8  167.18    8.57
   2  -1   8  177.60    9.78
  -3   1  -8  185.92   12.05
  -3   1  -8  179.96    9.73
  -3   1  -8  185.99    9.92
  -3   1  -8  196.18    8.74
   3  -1   8  194.29   11.77
   3  -1   8  201.15    9.47
  -4   1  -8   12.60    2.18
  -4   1  -8   16.13    3.45
  -4   1  -8   10.66    2.85
  -4   1  -8    8.21    4.17
   4  -1   8   12.99    2.96
   4  -1   8   10.34    3.89
  -5   1  -8   60.40    8.48
  -5   1  -8   58.77    5.76
  -5   1  -8   54.18    5.69
   5  -1   8   55.71    5.70
   5  -1   8   59.19    7.50
  -6   1  -8  142.62    8.12
  -6   1  -8  140.46    8.15
  -6   1  -8  133.04   11.65
   6  -1   8  127.42    8.30
  -7   1  -8  449.41   23.25
  -7   1  -8  417.74   16.59
  -7   1  -8  411.68   16.53
   7  -1   8  437.60   18.18
  -8   1  -8   13.85    2.25
  -8   1  -8   11.60    2.05
  -8   1  -8   11.65    5.69
   8  -1   8   16.21    4.13
  -9   1  -8   32.83    8.27
 -10   1  -8    6.36    5.68
  -9   0   8   -4.38    3.09
  -9   0   8   -4.18    3.84
  -8   0   8   17.91    5.17
  -8   0   8   30.21    7.06
  -7   0   8  443.79   22.94
  -7   0   8  459.21   20.93
   6   0  -8  113.50    7.50
  -6   0   8  114.98   10.51
  -6   0   8  114.24    9.03
   5   0  -8  583.69   22.00
  -5   0   8  604.86   26.41
  -5   0   8  608.28   24.26
   4   0  -8  596.81   21.66
   4   0  -8  576.93   23.26
  -4   0   8  609.42   25.61
  -4   0   8  568.67   23.22
   3   0  -8   56.52    6.32
   3   0  -8   40.54    4.33
  -3   0   8   49.84    3.34
  -3   0   8   52.46    5.55
  -3   0   8   40.66    6.03
   2   0  -8  273.60   13.53
   2   0  -8  259.43   11.27
  -2   0   8  265.29    9.61
  -2   0   8  266.25   11.53
  -2   0   8  245.32   13.69
  -2   0   8  268.59   12.56
   1   0  -8  379.74   16.71
   1   0  -8  346.29   13.92
   1   0  -8  343.64   14.84
  -1   0   8  353.72   16.74
  -1   0   8  348.23   14.45
  -1   0   8  346.53   15.18
  -1   0   8  356.62   13.23
   0   0  -8  162.66    7.94
   0   0  -8  163.31    8.79
   0   0  -8  156.75   10.05
   0   0   8  172.93   10.36
   0   0   8  164.98    9.08
   0   0   8  157.92    7.60
  -1   0  -8 1970.70   63.63
  -1   0  -8 1975.25   62.51
  -1   0  -8 1931.79   65.97
   1   0   8 1936.12   62.46
   1   0   8 1977.85   65.96
   1   0   8 1946.88   63.99
  -2   0  -8  308.10   13.35
  -2   0  -8  306.37   12.28
  -2   0  -8  298.13   15.31
   2   0   8  305.99   14.86
   2   0   8  311.25   12.59
  -3   0  -8  305.99   15.70
  -3   0  -8  303.71   11.77
  -3   0  -8  312.54   13.26
  -3   0  -8  320.97   13.40
   3   0   8  304.09   12.67
   3   0   8  299.14   14.81
  -4   0  -8  220.32   10.36
  -4   0  -8  221.29    8.12
  -4   0  -8  225.11    8.19
  -4   0  -8  216.68   10.40
  -4   0  -8  222.42   13.22
   4   0   8  205.11   12.02
   4   0   8  225.72   10.22
  -5   0  -8  212.55   10.22
  -5   0  -8  210.21   10.23
  -5   0  -8  238.15   14.01
  -5   0  -8  232.61   12.05
   5   0   8  210.94   10.24
   5   0   8  238.43   12.57
  -6   0  -8   48.21    6.14
  -6   0  -8   52.60    4.64
  -6   0  -8   50.04    4.56
  -6   0  -8   55.73    8.06
   6   0   8   46.43    5.09
  -7   0  -8   69.26    4.33
  -7   0  -8   74.18    4.35
  -7   0  -8   67.21    9.13
   7   0   8   74.61    6.68
  -8   0  -8  214.87   15.60
   8   0   8  256.04   13.36
  -9   0  -8  152.07   13.60
 -10   0  -8    2.23    4.80
  -9   1   8  117.80   12.11
  -9   1   8  115.36   14.27
  -8   1   8   41.78    8.52
  -8   1   8   70.63    9.10
  -7   1   8   54.05    8.86
  -7   1   8   65.84    8.10
   6  -1  -8  882.86   31.33
  -6   1   8  848.44   33.58
  -6   1   8  852.24   36.24
   5  -1  -8  110.71    7.30
  -5   1   8  104.60    8.68
  -5   1   8   85.26    9.85
   4  -1  -8  158.73    8.77
   4  -1  -8  150.89   10.13
  -4   1   8  172.95   10.32
  -4   1   8  152.96   11.34
   3  -1  -8   -1.16    1.98
   3  -1  -8    3.01    2.62
   3  -1  -8   -0.79    1.58
  -3   1   8    2.19    2.39
  -3   1   8    0.34    1.80
  -3   1   8   -1.67    2.44
   2  -1  -8  557.45   20.75
   2  -1  -8  584.32   21.97
   2  -1  -8  566.33   23.55
  -2   1   8  572.80   22.23
  -2   1   8  564.29   21.31
  -2   1   8  556.59   19.34
  -2   1   8  577.43   24.15
  -2   1   8  540.29   21.03
   1  -1  -8   46.30    4.56
   1  -1  -8   42.28    5.95
   1  -1  -8   45.53    4.87
  -1   1   8   34.91    5.47
  -1   1   8   35.37    3.61
  -1   1   8   40.37    4.56
  -1   1   8   38.53    4.69
  -1   1   8   33.79    4.22
   0  -1  -8   69.17    4.85
   0  -1  -8   76.34    6.91
   0  -1  -8   66.18    5.87
   0   1   8   57.51    5.76
   0   1   8   64.98    5.95
   0   1   8   59.68    4.54
   0   1   8   53.48    6.51
  -1  -1  -8 1662.34   58.16
  -1  -1  -8 1724.65   54.77
  -1  -1  -8 1715.10   55.91
   1   1   8 1750.87   58.18
   1   1   8 1678.83   56.16
   1   1   8 1678.42   54.87
   1   1   8 1718.75   55.94
  -2  -1  -8 3017.57   97.76
  -2  -1  -8 2995.39   93.57
  -2  -1  -8 2878.59   94.60
  -2  -1  -8 2985.17   94.89
   2   1   8 3065.33   95.25
   2   1   8 2998.39   94.10
   2   1   8 3056.11   97.34
  -3  -1  -8  575.62   24.96
  -3  -1  -8  640.34   20.80
  -3  -1  -8  644.95   22.58
  -3  -1  -8  624.62   22.58
   3   1   8  630.09   23.17
   3   1   8  618.06   22.01
   3   1   8  593.55   24.33
  -4  -1  -8   59.82    7.02
  -4  -1  -8   71.66    5.12
  -4  -1  -8   61.02    4.73
  -4  -1  -8   59.17    6.08
   4   1   8   64.62    4.77
   4   1   8   63.50    6.79
  -5  -1  -8   42.43    3.97
  -5  -1  -8   40.85    3.95
  -5  -1  -8   38.68    5.11
  -5  -1  -8   31.44    6.00
   5   1   8   35.51    3.97
   5   1   8   38.75    5.25
  -6  -1  -8    6.59    3.87
  -6  -1  -8   13.88    2.12
  -6  -1  -8    7.34    1.74
  -6  -1  -8    4.45    2.57
   6   1   8   10.76    2.51
  -7  -1  -8    9.84    3.32
  -7  -1  -8    3.11    3.61
   7   1   8    4.86    2.27
  -8  -1  -8   -1.11    3.35
  -9  -1  -8   84.61   10.74
 -10  -1  -8  486.91   25.45
 -11  -1  -8   -3.40    4.05
  -8   2   8   93.20   12.93
  -8   2   8   91.47   10.77
   7  -2  -8  144.32   10.02
  -7   2   8  145.23   13.79
  -7   2   8  164.79   12.42
   6  -2  -8   54.75    6.47
  -6   2   8   62.20    9.63
  -6   2   8   53.30    7.45
   5  -2  -8  375.13   16.27
  -5   2   8  372.07   18.26
  -5   2   8  371.90   15.53
  -5   2   8  356.81   20.08
   4  -2  -8   -0.88    2.78
   4  -2  -8    7.70    2.99
  -4   2   8    4.43    2.55
  -4   2   8    3.09    3.06
  -4   2   8    4.91    3.79
   3  -2  -8  585.90   21.96
   3  -2  -8  603.31   24.85
   3  -2  -8  553.94   22.99
  -3   2   8  597.21   22.36
  -3   2   8  558.34   23.47
  -3   2   8  564.02   25.57
  -3   2   8  584.41   19.59
   2  -2  -8 1954.78   66.27
   2  -2  -8 1960.63   64.27
   2  -2  -8 1989.71   63.00
  -2   2   8 1913.06   61.57
  -2   2   8 1984.71   64.74
  -2   2   8 1911.22   63.48
  -2   2   8 1855.05   66.60
   1  -2  -8  358.33   15.83
   1  -2  -8  370.29   14.95
   1  -2  -8  383.84   17.86
  -1   2   8  386.84   15.81
  -1   2   8  372.55   14.52
  -1   2   8  391.62   16.52
  -1   2   8  355.45   17.73
   0  -2  -8  355.28   14.82
   0  -2  -8  324.55   13.48
   0  -2  -8  342.23   16.52
   0   2   8  344.83   15.00
   0   2   8  316.48   14.30
   0   2   8  371.96   16.79
   0   2   8  347.58   13.65
  -1  -2  -8   -1.53    2.56
  -1  -2  -8    0.38    1.90
  -1  -2  -8    3.10    1.63
   1   2   8    1.58    2.36
   1   2   8    5.26    2.25
   1   2   8    0.55    1.69
   1   2   8    2.28    2.05
  -2  -2  -8 3152.02  106.51
  -2  -2  -8 3315.02  102.31
  -2  -2  -8 3099.40  103.41
  -2  -2  -8 3351.29  103.85
   2   2   8 3289.82  104.08
   2   2   8 3495.90  106.44
   2   2   8 3365.36  103.06
  -3  -2  -8   32.94    2.30
  -3  -2  -8   30.06    3.75
  -3  -2  -8   29.09    3.56
  -3  -2  -8   28.30    2.17
  -3  -2  -8   24.96    4.77
  -3  -2  -8   29.13    4.15
   3   2   8   26.36    4.37
   3   2   8   30.65    3.42
   3   2   8   26.22    3.86
  -4  -2  -8   67.88    7.40
  -4  -2  -8   83.17    6.21
  -4  -2  -8   67.82    4.73
  -4  -2  -8   78.11    5.10
   4   2   8   69.64    5.98
   4   2   8   77.46    4.91
  -5  -2  -8  555.18   19.06
  -5  -2  -8  570.23   21.82
  -5  -2  -8  539.47   23.40
  -5  -2  -8  562.30   19.12
   5   2   8  554.34   19.77
  -6  -2  -8   60.30    7.41
  -6  -2  -8   65.05    6.40
   6   2   8   57.21    4.44
  -7  -2  -8  128.37    8.64
  -7  -2  -8  121.55   10.23
  -8  -2  -8 1423.92   49.05
  -8  -2  -8 1374.73   51.43
  -9  -2  -8   25.04    6.07
 -10  -2  -8   94.59   11.55
 -11  -2  -8    5.77    4.80
   8  -3  -8    8.94    4.63
  -8   3   8    8.78    6.82
  -8   3   8    7.69    5.39
   7  -3  -8   15.60    4.55
  -7   3   8   -3.22    3.56
  -7   3   8   14.95    6.58
   6  -3  -8  160.68   10.47
  -6   3   8  143.63   13.10
  -6   3   8  159.72   14.29
  -6   3   8  160.56    9.33
   5  -3  -8   83.29    8.00
  -5   3   8   86.22   11.26
  -5   3   8  104.43    7.50
  -5   3   8   79.44    8.87
   4  -3  -8    7.46    3.28
   4  -3  -8    6.84    4.00
  -4   3   8    8.65    1.45
  -4   3   8   12.76    1.86
  -4   3   8   10.20    3.26
  -4   3   8    2.37    3.42
  -4   3   8    7.34    4.43
   3  -3  -8   66.61    8.40
   3  -3  -8   50.84    5.69
   3  -3  -8   73.10    7.77
  -3   3   8   61.10    7.09
  -3   3   8   60.74    6.19
  -3   3   8   61.01    4.47
  -3   3   8   56.65    8.30
   2  -3  -8   15.27    4.77
   2  -3  -8    6.66    3.27
   2  -3  -8   17.28    3.41
  -2   3   8   12.88    3.91
  -2   3   8   12.42    3.23
  -2   3   8   13.51    4.53
  -2   3   8   14.25    2.78
   1  -3  -8   36.23    4.82
   1  -3  -8   37.67    6.17
   1  -3  -8   42.29    4.56
  -1   3   8   31.94    5.66
  -1   3   8   34.94    4.52
  -1   3   8   36.45    4.06
  -1   3   8   37.53    5.03
   0  -3  -8  543.14   20.16
   0  -3  -8  538.00   21.34
   0  -3  -8  555.52   23.87
   0   3   8  558.87   21.76
   0   3   8  544.30   21.31
   0   3   8  547.23   23.40
   0   3   8  554.32   20.32
  -1  -3  -8 2437.51   76.28
  -1  -3  -8 2337.05   80.48
  -1  -3  -8 2432.08   77.79
   1   3   8 2400.76   77.84
   1   3   8 2470.20   76.88
   1   3   8 2425.15   78.10
   1   3   8 2404.17   79.98
  -2  -3  -8  199.25    8.21
  -2  -3  -8  194.15    9.38
  -2  -3  -8  188.75   11.51
  -2  -3  -8  183.93    9.45
   2   3   8  187.47    8.97
   2   3   8  212.55   10.09
   2   3   8  194.23   11.04
  -3  -3  -8  772.88   27.32
  -3  -3  -8  788.04   27.22
  -3  -3  -8  785.29   28.58
  -3  -3  -8  764.10   30.32
   3   3   8  806.30   29.51
   3   3   8  805.08   27.12
  -4  -3  -8   93.63    5.25
  -4  -3  -8   95.69    6.69
  -4  -3  -8   88.71    5.19
  -4  -3  -8   85.07    7.67
   4   3   8   86.60    5.32
   4   3   8   89.25    6.46
  -5  -3  -8   27.40    2.11
  -5  -3  -8   31.28    2.18
  -5  -3  -8   20.39    4.61
  -5  -3  -8   30.85    4.19
   5   3   8   26.02    3.10
  -6  -3  -8  100.76    7.24
  -6  -3  -8  112.25    8.95
   6   3   8  108.49    5.75
  -7  -3  -8   16.67    4.67
  -7  -3  -8   21.71    3.98
  -8  -3  -8   -0.76    1.95
  -8  -3  -8    1.59    3.48
  -9  -3  -8    4.40    2.93
  -9  -3  -8    7.12    4.07
 -10  -3  -8  474.48   23.44
 -11  -3  -8    2.60    4.57
   7  -4  -8   33.28    6.21
  -7   4   8   26.32    4.63
  -7   4   8   26.29    6.86
  -7   4   8   27.22    8.34
   6  -4  -8   66.88    7.71
  -6   4   8   47.24    9.63
  -6   4   8   57.42    8.77
  -6   4   8   44.42    6.08
   5  -4  -8  626.63   24.77
  -5   4   8  575.92   24.03
  -5   4   8  584.26   29.57
  -5   4   8  574.10   26.49
   4  -4  -8   28.93    6.49
   4  -4  -8   43.18    5.77
  -4   4   8   47.43    6.30
  -4   4   8   20.38    6.30
  -4   4   8   41.13    6.82
  -4   4   8   33.20    3.34
   3  -4  -8  358.50   19.19
   3  -4  -8  325.15   15.58
   3  -4  -8  340.31   17.06
  -3   4   8  361.34   17.71
  -3   4   8  352.53   16.49
  -3   4   8  351.02   14.28
  -3   4   8  358.90   19.92
   2  -4  -8  747.28   27.99
   2  -4  -8  770.52   29.50
   2  -4  -8  763.00   31.98
   2  -4  -8  740.83   25.97
  -2   4   8  793.24   30.12
  -2   4   8  762.30   27.19
  -2   4   8  755.22   32.31
  -2   4   8  763.62   28.96
   1  -4  -8   88.64    7.93
   1  -4  -8   84.18    6.50
   1  -4  -8   99.80    6.38
   1  -4  -8   99.67    9.25
  -1   4   8  108.07    7.67
  -1   4   8  101.81    8.03
  -1   4   8   88.37    6.32
  -1   4   8   96.21    8.78
   0  -4  -8  257.25   14.99
   0  -4  -8  266.87   11.82
   0  -4  -8  268.50   12.53
   0  -4  -8  277.87   13.16
   0   4   8  279.92   13.09
   0   4   8  263.53   13.20
   0   4   8  266.39   11.98
   0   4   8  257.34   14.72
  -1  -4  -8    4.35    2.51
  -1  -4  -8    6.17    3.54
  -1  -4  -8    4.93    2.00
  -1  -4  -8    7.47    2.56
  -1  -4  -8    5.31    2.75
   1   4   8    6.87    2.27
   1   4   8    7.21    3.28
   1   4   8    7.23    2.74
  -2  -4  -8  102.33    8.60
  -2  -4  -8   93.87    6.27
  -2  -4  -8   84.78    4.78
  -2  -4  -8   84.69    7.47
  -2  -4  -8  104.10    6.59
   2   4   8   94.69    7.70
   2   4   8   96.53    6.72
   2   4   8   89.90    5.97
  -3  -4  -8 1239.42   42.32
  -3  -4  -8 1241.23   40.67
  -3  -4  -8 1221.43   40.73
  -3  -4  -8 1254.32   44.59
  -3  -4  -8 1234.29   44.54
   3   4   8 1207.39   40.44
   3   4   8 1185.75   42.87
  -4  -4  -8   33.19    5.49
  -4  -4  -8   44.55    5.09
  -4  -4  -8   43.75    3.72
  -4  -4  -8   41.86    6.35
  -4  -4  -8   38.20    3.51
   4   4   8   43.57    4.04
  -5  -4  -8  349.13   15.05
  -5  -4  -8  341.86   16.65
   5   4   8  340.67   13.00
  -6  -4  -8  170.25   11.59
  -6  -4  -8  213.52   10.79
   6   4   8  222.05    9.47
  -7  -4  -8  459.46   20.15
  -7  -4  -8  407.97   17.78
  -8  -4  -8  439.53   18.62
  -8  -4  -8  457.58   20.81
  -9  -4  -8   31.04    5.02
  -9  -4  -8   37.14    6.58
 -10  -4  -8   11.84    4.82
 -10  -4  -8   15.54    3.99
 -11  -4  -8   91.74   10.87
   7  -5  -8    7.27    4.43
  -7   5   8    0.43    5.72
  -7   5   8    0.12    2.80
   6  -5  -8   16.32    4.85
  -6   5   8   14.43    6.74
  -6   5   8   19.34    7.44
  -6   5   8    8.85    3.94
   5  -5  -8   40.03    6.57
  -5   5   8   27.04    7.96
  -5   5   8   32.78    7.09
  -5   5   8   44.51    6.61
   4  -5  -8   32.00    7.40
   4  -5  -8   25.19    5.08
  -4   5   8   31.95    6.48
  -4   5   8   26.45    3.65
  -4   5   8   18.05    6.43
  -4   5   8   22.69    4.95
   3  -5  -8   11.01    4.27
   3  -5  -8   15.05    5.66
   3  -5  -8   11.58    3.82
  -3   5   8   11.31    5.77
  -3   5   8   16.49    4.37
  -3   5   8   15.75    4.75
  -3   5   8   14.56    3.25
   2  -5  -8  206.46   12.69
   2  -5  -8  214.38   11.51
   2  -5  -8  213.54   10.26
   2  -5  -8  225.71   14.96
  -2   5   8  237.32   13.50
  -2   5   8  209.71   14.78
  -2   5   8  190.14   10.53
  -2   5   8  231.83   12.75
   1  -5  -8   37.56    7.16
   1  -5  -8   43.88    5.10
   1  -5  -8   46.00    6.39
   1  -5  -8   45.18    5.32
  -1   5   8   47.70    7.69
  -1   5   8   34.98    5.23
  -1   5   8   37.20    5.91
  -1   5   8   38.15    4.95
   0  -5  -8  326.77   15.60
   0  -5  -8  334.12   15.37
   0  -5  -8  322.68   17.93
   0  -5  -8  339.72   14.26
   0   5   8  350.37   18.12
   0   5   8  329.89   15.87
   0   5   8  350.62   16.00
   0   5   8  349.78   14.73
  -1  -5  -8  364.37   15.22
  -1  -5  -8  327.84   15.87
  -1  -5  -8  346.18   17.93
  -1  -5  -8  333.16   13.42
  -1  -5  -8  323.70   15.07
   1   5   8  326.77   17.02
   1   5   8  349.41   15.59
   1   5   8  338.39   14.50
  -2  -5  -8  209.58   10.25
  -2  -5  -8  192.53    8.08
  -2  -5  -8  206.10   12.08
  -2  -5  -8  208.97   10.53
  -2  -5  -8  201.47   12.87
   2   5   8  205.63   10.93
   2   5   8  207.54   12.05
   2   5   8  209.96   10.02
  -3  -5  -8  384.91   15.57
  -3  -5  -8  393.69   18.79
  -3  -5  -8  397.81   19.12
  -3  -5  -8  382.43   15.32
  -3  -5  -8  408.25   17.17
   3   5   8  376.31   17.37
   3   5   8  403.37   15.50
  -4  -5  -8   90.59   10.17
  -4  -5  -8   75.30    7.08
  -4  -5  -8   74.38    4.67
  -4  -5  -8   76.46    8.41
  -4  -5  -8   82.78    4.65
   4   5   8   82.60    5.31
  -5  -5  -8   55.59    5.88
  -5  -5  -8   46.44    7.92
  -5  -5  -8   48.90    6.68
   5   5   8   44.49    4.14
  -6  -5  -8   95.34    6.96
  -6  -5  -8   91.26   11.05
  -6  -5  -8   91.25    8.24
  -7  -5  -8   14.93    4.23
  -7  -5  -8    8.16    2.96
  -8  -5  -8   27.88    5.39
  -8  -5  -8   22.54    4.03
  -9  -5  -8   75.99    7.00
  -9  -5  -8   63.82    7.91
 -10  -5  -8   16.20    3.95
 -10  -5  -8   24.73    5.69
 -11  -5  -8   47.75    7.80
 -11  -5  -8   45.79    7.99
   6  -6  -8   22.10    5.98
  -6   6   8    6.26    4.10
  -6   6   8   14.39    8.00
   5  -6  -8  357.45   17.98
  -5   6   8  354.80   18.13
  -5   6   8  331.17   12.85
  -5   6   8  314.68   22.83
   4  -6  -8    7.09    3.90
  -4   6   8    3.82    3.83
  -4   6   8    6.41    5.79
  -4   6   8    3.42    2.46
   3  -6  -8  119.08   11.64
   3  -6  -8   88.80    8.60
   3  -6  -8   95.12   11.89
  -3   6   8  102.18   13.13
  -3   6   8  101.05    7.51
  -3   6   8   98.39    9.54
   2  -6  -8    6.43    4.63
   2  -6  -8    4.99    2.86
   2  -6  -8    6.80    3.22
   2  -6  -8    3.33    3.64
  -2   6   8    3.57    2.72
  -2   6   8    9.90    5.25
  -2   6   8    6.82    3.67
   1  -6  -8  249.99   16.34
   1  -6  -8  221.63   11.75
   1  -6  -8  208.36   13.05
   1  -6  -8  241.40   12.44
  -1   6   8  241.80   15.96
  -1   6   8  253.56   13.86
  -1   6   8  223.13   11.99
   0  -6  -8   -3.62    2.38
   0  -6  -8    0.43    2.56
   0  -6  -8    2.24    4.02
   0  -6  -8    2.55    2.32
   0   6   8    0.12    3.55
   0   6   8   -0.64    2.29
   0   6   8    1.67    2.76
  -1  -6  -8  342.16   15.52
  -1  -6  -8  326.50   13.57
  -1  -6  -8  374.73   19.55
  -1  -6  -8  335.71   16.80
  -1  -6  -8  322.73   15.58
   1   6   8  352.79   16.41
   1   6   8  338.95   18.03
   1   6   8  355.47   15.21
  -2  -6  -8   57.35    5.79
  -2  -6  -8   58.95    3.34
  -2  -6  -8   59.85    3.44
  -2  -6  -8   55.87    5.94
  -2  -6  -8   69.92    8.97
  -2  -6  -8   51.45    7.20
   2   6   8   44.49    5.83
   2   6   8   51.65    7.07
   2   6   8   49.25    5.32
  -3  -6  -8  743.21   31.14
  -3  -6  -8  736.67   31.19
  -3  -6  -8  747.28   26.92
  -3  -6  -8  725.78   28.66
  -3  -6  -8  751.13   26.71
   3   6   8  808.21   29.71
   3   6   8  775.08   27.17
  -4  -6  -8   -2.01    2.05
  -4  -6  -8   -1.30    2.69
  -4  -6  -8    2.25    3.71
  -4  -6  -8    1.05    1.42
  -4  -6  -8   -0.91    1.30
   4   6   8   -0.80    1.80
  -5  -6  -8   17.83    5.53
  -5  -6  -8   18.27    4.84
  -5  -6  -8   15.80    3.75
   5   6   8   11.29    2.47
  -6  -6  -8 1257.77   48.96
  -6  -6  -8 1169.23   42.67
  -6  -6  -8 1294.79   45.53
  -7  -6  -8  442.63   18.48
  -7  -6  -8  442.35   20.42
  -7  -6  -8  426.06   23.57
  -8  -6  -8   -0.37    4.07
  -8  -6  -8    0.64    3.04
  -8  -6  -8    0.93    2.35
  -9  -6  -8  485.95   20.49
  -9  -6  -8  522.18   22.75
 -10  -6  -8  210.42   11.36
 -10  -6  -8  191.55   12.64
 -11  -6  -8    1.85    2.48
 -11  -6  -8    1.01    3.83
   5  -7  -8   77.65    9.37
  -5   7   8   68.78    8.88
  -5   7   8   67.85    5.62
  -5   7   8   59.45   11.94
   4  -7  -8   34.86    6.27
  -4   7   8   35.27    6.63
  -4   7   8   37.59    5.31
  -4   7   8   30.97    8.74
   3  -7  -8  180.16   15.93
   3  -7  -8  180.62   11.71
  -3   7   8  206.05   13.51
  -3   7   8  170.30   15.64
  -3   7   8  189.05   10.99
   2  -7  -8   -2.62    2.55
   2  -7  -8   -0.57    2.75
   2  -7  -8   -3.50    4.08
   2  -7  -8    3.74    3.62
  -2   7   8   -1.89    3.99
  -2   7   8    3.22    3.57
  -2   7   8    0.91    2.51
   1  -7  -8  399.38   18.69
   1  -7  -8  361.80   22.28
   1  -7  -8  430.17   19.92
   1  -7  -8  416.81   17.61
  -1   7   8  392.62   22.34
  -1   7   8  414.36   18.11
  -1   7   8  376.65   19.30
   0  -7  -8   96.70    7.16
   0  -7  -8  111.40   12.46
   0  -7  -8   97.99    8.76
   0  -7  -8  121.62    9.47
   0   7   8   86.41    8.16
   0   7   8   86.66    8.84
   0   7   8  118.30   11.08
  -1  -7  -8  185.90   11.51
  -1  -7  -8  207.63   13.07
  -1  -7  -8  185.94    9.10
  -1  -7  -8  229.80   15.38
   1   7   8  203.67   13.76
   1   7   8  201.91   15.08
   1   7   8  202.44   11.22
  -2  -7  -8  196.01   14.30
  -2  -7  -8  191.25   13.04
  -2  -7  -8  203.25   11.10
  -2  -7  -8  190.73   10.57
   2   7   8  195.44   10.78
   2   7   8  213.90   13.21
  -3  -7  -8   91.33   10.54
  -3  -7  -8  118.30    7.31
  -3  -7  -8  113.39    7.05
  -3  -7  -8  117.10   12.01
   3   7   8   96.34    7.25
  -4  -7  -8  313.66   15.58
  -4  -7  -8  364.63   18.48
  -4  -7  -8  318.46   12.15
  -4  -7  -8  308.91   12.22
  -4  -7  -8  295.48   17.87
   4   7   8  329.93   13.87
  -5  -7  -8   -3.94    3.42
  -5  -7  -8    3.79    3.52
  -5  -7  -8   -0.99    2.48
   5   7   8    0.36    1.87
  -6  -7  -8  117.46   10.14
  -6  -7  -8  136.66    9.08
  -6  -7  -8  144.53   14.50
  -7  -7  -8   -2.59    2.08
  -7  -7  -8   -0.06    4.49
  -7  -7  -8   -2.07    3.06
  -8  -7  -8    9.17    3.25
  -8  -7  -8   10.17    5.85
  -8  -7  -8    2.86    3.42
  -9  -7  -8   60.15   10.66
  -9  -7  -8   52.51    6.19
  -9  -7  -8   60.65    7.82
 -10  -7  -8  164.80   11.72
 -10  -7  -8  170.52   10.16
 -11  -7  -8   45.64    5.73
 -11  -7  -8   44.20    7.18
   4  -8  -8   -1.52    3.41
  -4   8   8    3.00    7.06
  -4   8   8   25.61    6.91
  -4   8   8    8.09    3.34
   3  -8  -8   27.59    5.67
   3  -8  -8   32.24    8.57
  -3   8   8   16.07    5.45
  -3   8   8   26.43    8.43
  -3   8   8   22.47    4.94
   2  -8  -8   48.34   10.03
   2  -8  -8   65.58    9.24
   2  -8  -8   49.36    6.60
  -2   8   8   54.90    8.11
  -2   8   8   45.59    6.53
  -2   8   8   59.29   10.63
   1  -8  -8  317.33   15.24
   1  -8  -8  305.64   16.83
   1  -8  -8  324.09   21.04
   1  -8  -8  328.91   17.70
  -1   8   8  326.43   18.41
  -1   8   8  310.56   20.26
  -1   8   8  320.62   16.20
   0  -8  -8  269.32   15.89
   0  -8  -8  294.01   19.42
   0  -8  -8  303.04   13.24
   0  -8  -8  265.21   15.47
   0   8   8  272.55   14.55
   0   8   8  279.47   18.34
  -1  -8  -8  362.70   13.98
  -1  -8  -8  357.84   19.20
  -1  -8  -8  342.26   21.08
  -1  -8  -8  347.65   17.23
   1   8   8  361.52   16.81
   1   8   8  373.29   20.73
  -2  -8  -8   36.03    7.25
  -2  -8  -8   25.62    4.53
  -2  -8  -8   26.83    6.78
  -2  -8  -8   26.05    4.74
   2   8   8   34.74    5.14
  -3  -8  -8  280.84   13.09
  -3  -8  -8  284.34   17.79
  -3  -8  -8  300.62   17.80
  -3  -8  -8  277.49   12.80
   3   8   8  291.60   13.90
  -4  -8  -8   88.47   11.55
  -4  -8  -8   76.14    4.74
  -4  -8  -8   67.78    9.42
  -4  -8  -8   79.88    4.87
   4   8   8   71.77    6.78
  -5  -8  -8    7.76    4.46
  -5  -8  -8   13.90    5.72
  -6  -8  -8  603.28   26.95
  -6  -8  -8  616.27   26.16
  -6  -8  -8  533.02   28.71
  -7  -8  -8   -1.36    3.21
  -7  -8  -8    0.10    2.64
  -7  -8  -8   -2.28    4.23
  -8  -8  -8   28.01    8.30
  -8  -8  -8   30.01    6.00
  -8  -8  -8   28.57    4.93
  -9  -8  -8  130.26   10.81
  -9  -8  -8  144.24    9.52
  -9  -8  -8  138.08   16.50
 -10  -8  -8  456.82   19.38
 -10  -8  -8  418.79   26.75
 -10  -8  -8  457.75   21.42
   3  -9  -8   38.82    6.58
   3  -9  -8   41.15   10.72
  -3   9   8   47.35    6.86
  -3   9   8   48.42    8.96
  -3   9   8   37.65   10.33
   2  -9  -8   76.05   10.27
   2  -9  -8   86.17    8.79
   2  -9  -8   92.80   13.86
  -2   9   8   73.26   12.56
  -2   9   8   82.38    9.19
   1  -9  -8  118.79   15.25
   1  -9  -8  116.91    8.62
   1  -9  -8  115.53   11.99
   1  -9  -8  115.55   11.69
  -1   9   8  108.14   15.79
  -1   9   8   95.32    9.63
   0  -9  -8   63.48   10.99
   0  -9  -8   67.08    9.41
   0  -9  -8   73.41    6.46
   0  -9  -8   74.83    8.97
   0   9   8   67.65    8.09
  -1  -9  -8   87.16   10.85
  -1  -9  -8   89.59   12.77
  -1  -9  -8   91.80    5.24
  -1  -9  -8   74.49    8.61
   1   9   8  104.32    9.43
  -2  -9  -8   17.70    4.28
  -2  -9  -8   11.32    6.09
  -2  -9  -8    9.69    5.03
   2   9   8    4.96    3.37
  -3  -9  -8    2.99    4.85
  -3  -9  -8    7.42    5.25
  -3  -9  -8   11.82    3.12
  -3  -9  -8    7.56    3.09
   3   9   8    7.12    3.43
  -4  -9  -8   14.97    2.46
  -4  -9  -8   17.61    6.28
  -4  -9  -8   18.94    2.66
  -4  -9  -8    9.89    5.19
   4   9   8   16.03    3.88
  -5  -9  -8   58.00   10.14
  -5  -9  -8   75.01   10.20
  -6  -9  -8    0.38    3.62
  -6  -9  -8    0.61    4.83
  -7  -9  -8   17.73    7.10
  -7  -9  -8   29.93    6.99
  -8  -9  -8   75.90    9.36
  -8  -9  -8   78.12   12.69
  -9  -9  -8    8.70    4.64
  -9  -9  -8   24.84    8.73
 -10  -9  -8  116.10   10.58
   2 -10  -8   -0.08    6.22
   2 -10  -8    7.81    5.40
   2 -10  -8   -1.99    3.11
  -2  10   8    1.20    3.15
   1 -10  -8  130.05    9.26
   1 -10  -8  124.78   13.05
   1 -10  -8  122.16   16.85
  -1  10   8  125.13   11.69
   0 -10  -8   59.55    9.61
   0 -10  -8   72.68    9.32
   0 -10  -8   67.51    6.05
   0 -10  -8   62.95   11.72
   0  10   8   69.26    8.75
  -1 -10  -8    0.28    3.48
  -1 -10  -8    4.88    4.87
  -1 -10  -8   -1.82    5.07
   1  10   8    2.96    3.63
  -2 -10  -8    1.92    4.41
  -2 -10  -8    9.84    6.18
  -2 -10  -8    3.45    3.51
   2  10   8    7.11    4.12
  -3 -10  -8  176.10   15.59
  -3 -10  -8  181.23   10.33
  -3 -10  -8  177.17   14.95
  -3 -10  -8  181.36   10.09
   3  10   8  178.57   11.70
  -4 -10  -8    4.65    5.09
  -4 -10  -8    4.51    1.78
  -4 -10  -8   11.10    5.66
  -4 -10  -8    8.55    1.95
   4  10   8    7.31    3.58
  -5 -10  -8  118.63   14.44
  -5 -10  -8  131.95   14.08
  -6 -10  -8   86.05   13.05
  -6 -10  -8   85.69   11.26
  -7 -10  -8   50.27    8.62
  -7 -10  -8   50.55   10.95
  -8 -10  -8    0.19    5.04
  -8 -10  -8   -0.43    3.72
  -9 -10  -8    2.24    5.84
  -9 -10  -8    3.35    3.97
   0 -11  -8   14.32    7.64
   0 -11  -8   23.45    6.61
   0 -11  -8   23.03    7.43
   0  11   8   28.81    6.37
  -1 -11  -8    1.52    5.73
  -1 -11  -8   -2.64    4.26
  -1 -11  -8   -0.73    3.44
   1  11   8    4.66    4.25
  -2 -11  -8    6.88    3.92
  -2 -11  -8    9.65    6.66
  -2 -11  -8    7.11    5.54
   2  11   8    7.01    4.21
  -3 -11  -8    7.83    3.43
  -3 -11  -8    7.91    3.07
  -3 -11  -8    6.40    5.99
  -3 -11  -8    7.64    5.78
   3  11   8    2.94    3.94
  -4 -11  -8    9.07    5.78
  -4 -11  -8   16.42    7.22
   4  11   8   10.06    4.12
  -5 -11  -8    2.18    4.63
  -5 -11  -8    5.80    6.04
  -6 -11  -8   39.44    9.19
  -6 -11  -8   32.01    8.01
  -7 -11  -8   25.66    8.66
  -7 -11  -8   26.28    7.42
  -4 -10   9   32.76    9.97
   3  10  -9   18.49    5.61
  -3 -10   9   22.98    8.60
  -3 -10   9   18.96    7.37
   2  10  -9   -4.09    3.63
  -2 -10   9    8.06    6.16
  -2 -10   9    2.38    2.44
  -2 -10   9   -2.89    5.69
  -2 -10   9    2.27    2.25
   1  10  -9    8.13    4.61
  -1 -10   9   27.87    9.08
  -1 -10   9   14.08    7.73
  -6  -9   9  183.63   13.48
  -6  -9   9  178.07   18.19
  -6  -9   9  190.34   15.64
  -5  -9   9   -1.99    4.10
  -5  -9   9   -8.79    3.39
  -5  -9   9   -3.45    3.27
  -4  -9   9   59.44   10.64
  -4  -9   9   50.42    8.12
  -4  -9   9   50.10   10.23
   3   9  -9    4.80    3.64
  -3  -9   9   10.73    6.37
  -3  -9   9   -0.42    4.99
  -3  -9   9   13.92    5.82
   2   9  -9   64.87    8.26
  -2  -9   9   76.23   12.37
  -2  -9   9   64.63    9.53
  -2  -9   9   52.69    5.65
  -2  -9   9   38.06    9.31
   1   9  -9   58.27    7.87
  -1  -9   9   76.78   12.19
  -1  -9   9   53.12   10.62
   0   9  -9   -0.26    3.54
   0  -9   9   -2.69    5.70
   0  -9   9    3.42    5.20
  -1   9  -9   43.16    7.12
   1  -9   9   49.77   11.41
   1  -9   9   46.30   10.40
   1  -9   9   45.26    4.32
  -2   9  -9   -2.43    3.44
   2  -9   9    0.00    2.64
   2  -9   9   -2.33    5.95
   2  -9   9    9.75    6.60
  -7  -8   9   19.68    5.38
  -7  -8   9   22.30    7.32
  -7  -8   9   22.50    6.31
  -6  -8   9   51.73    7.72
  -6  -8   9   32.51    7.38
  -6  -8   9   45.25    9.25
  -5  -8   9  198.72   13.52
  -5  -8   9  212.92   16.75
  -5  -8   9  185.11   14.83
  -4  -8   9    5.58    4.65
  -4  -8   9   19.94    7.07
  -4  -8   9    5.53    4.10
   3   8  -9  279.02   14.56
  -3  -8   9  248.29   18.65
  -3  -8   9  290.27   19.42
  -3  -8   9  280.22   16.90
   2   8  -9  450.86   19.71
  -2  -8   9  403.04   24.23
  -2  -8   9  429.47   22.11
  -2  -8   9  400.67   17.12
   1   8  -9  429.31   19.78
  -1  -8   9  434.68   22.63
  -1  -8   9  436.37   25.36
  -1  -8   9  384.84   24.42
   0   8  -9   36.71    6.49
   0  -8   9   48.06   10.07
   0  -8   9   31.27    8.44
  -1   8  -9    3.92    3.67
   1  -8   9   -0.97    2.01
   1  -8   9    6.28    5.68
   1  -8   9    5.61    5.09
  -2   8  -9    9.18    4.26
   2  -8   9    4.31    2.96
   2  -8   9   18.27    7.44
   2  -8   9    4.94    5.97
  -3   8  -9   -1.31    3.27
   3  -8   9    4.63    6.18
   3  -8   9   11.45    4.02
   3  -8   9    1.11    5.42
  -4   8  -9   18.98    8.51
  -4   8  -9   16.56    4.80
   4  -8   9   30.15    5.85
   4  -8   9   23.36    9.33
   4  -8   9    7.19    6.18
  -8  -7   9    5.68    3.65
  -8  -7   9   -3.20    3.59
  -8  -7   9   -6.03    3.84
  -7  -7   9    1.11    3.85
  -7  -7   9    1.85    3.05
  -7  -7   9    2.39    4.21
  -6  -7   9   52.14    9.12
  -6  -7   9   41.24    6.46
  -6  -7   9   34.98    6.99
  -5  -7   9  219.14   14.03
  -5  -7   9  290.16   17.41
  -5  -7   9  236.82   16.68
  -4  -7   9   61.81    7.93
  -4  -7   9   43.14    8.80
  -4  -7   9   37.39    7.41
   3   7  -9  407.75   17.64
  -3  -7   9  388.56   19.55
  -3  -7   9  383.26   13.69
  -3  -7   9  391.89   21.86
  -3  -7   9  411.68   22.81
   2   7  -9    4.70    3.24
  -2  -7   9   -0.89    4.17
  -2  -7   9    2.04    3.33
  -2  -7   9   -4.39    3.35
  -2  -7   9   -1.25    1.88
   1   7  -9  155.89   10.37
   1   7  -9  154.06   10.21
  -1  -7   9  153.57    9.93
  -1  -7   9  153.13   12.32
  -1  -7   9  158.43   14.04
   0   7  -9   78.87    8.46
   0  -7   9   80.38   11.89
   0  -7   9   94.40   10.95
   0  -7   9   82.93    4.60
   0  -7   9   82.32   11.53
  -1   7  -9  445.37   20.03
   1  -7   9  456.44   25.73
   1  -7   9  420.83   24.91
   1  -7   9  433.49   17.50
  -2   7  -9   56.94    7.27
  -2   7  -9   89.03   12.71
   2  -7   9   85.49   12.33
   2  -7   9   77.20   11.23
   2  -7   9   81.21    7.56
  -3   7  -9   15.77    4.62
  -3   7  -9   28.67    8.18
  -3   7  -9   20.28    5.79
   3  -7   9   18.28    6.77
   3  -7   9   12.62    6.95
   3  -7   9   23.14    4.75
  -4   7  -9    7.46    4.74
  -4   7  -9   10.25    6.88
  -4   7  -9    0.72    2.98
   4  -7   9   -4.02    4.51
   4  -7   9    8.07    3.65
   4  -7   9   -0.24    5.26
  -5   7  -9   78.89    8.24
  -5   7  -9   80.01   14.04
  -5   7  -9   85.44   10.37
   5  -7   9  100.40   14.68
   5  -7   9   65.24    8.24
  -8  -6   9   27.11    5.18
  -8  -6   9   28.38    6.63
  -7  -6   9  191.35   13.62
  -7  -6   9  170.53   13.18
  -7  -6   9  192.52   11.96
  -6  -6   9  197.06   13.58
  -6  -6   9  152.25   10.90
  -6  -6   9  151.10   12.56
  -5  -6   9  167.72   12.99
  -5  -6   9  187.39   11.73
  -5  -6   9  169.71   13.04
  -4  -6   9   -2.21    2.49
  -4  -6   9    3.99    4.09
  -4  -6   9   -0.60    3.41
   3   6  -9  494.66   20.19
  -3  -6   9  519.33   22.86
  -3  -6   9  499.89   17.41
  -3  -6   9  503.00   24.80
  -3  -6   9  506.68   24.74
   2   6  -9    3.83    2.82
  -2  -6   9   -0.20    3.74
  -2  -6   9   12.62    4.30
  -2  -6   9    8.23    4.76
  -2  -6   9    6.54    2.52
   1   6  -9  850.30   31.81
  -1  -6   9  904.11   37.54
  -1  -6   9  826.82   36.81
  -1  -6   9  830.49   31.46
  -1  -6   9  891.50   34.58
   0   6  -9    0.60    2.79
   0   6  -9    0.07    3.73
   0   6  -9   -0.61    2.55
   0  -6   9    0.11    4.34
   0  -6   9   -3.04    3.06
   0  -6   9   -0.54    4.10
   0  -6   9    1.06    1.69
  -1   6  -9   34.61    7.39
  -1   6  -9   35.27    5.40
   1  -6   9   26.61    6.19
   1  -6   9   23.47    6.64
   1  -6   9   30.99    7.55
   1  -6   9   28.71    4.15
  -2   6  -9  152.88   15.40
  -2   6  -9  137.03   11.11
  -2   6  -9  147.70   10.01
   2  -6   9  152.42    9.36
   2  -6   9  138.76   15.11
   2  -6   9  146.91   13.80
  -3   6  -9   33.08    6.13
  -3   6  -9   23.00    4.82
  -3   6  -9   23.05    7.58
   3  -6   9   26.44    7.47
   3  -6   9   27.20    4.92
   3  -6   9   30.75    7.86
  -4   6  -9   47.83   10.18
  -4   6  -9   38.33    5.76
  -4   6  -9   53.32    7.75
   4  -6   9   59.87   10.64
   4  -6   9   48.14    9.93
   4  -6   9   46.24    6.71
  -5   6  -9    7.01    3.30
  -5   6  -9    5.80    6.77
  -5   6  -9    6.07    4.47
   5  -6   9   12.04   10.20
   5  -6   9    3.07    3.52
  -6   6  -9    0.80    2.53
  -6   6  -9   -1.99    5.48
  -6   6  -9    3.94    4.74
   6  -6   9    0.73    3.75
  -9  -5   9  129.08   10.18
  -9  -5   9  115.02   12.13
  -8  -5   9   12.40    4.03
  -8  -5   9   15.58    5.20
  -7  -5   9    9.08    4.65
  -7  -5   9    7.85    4.06
  -7  -5   9    5.65    3.52
  -6  -5   9    6.38    3.52
  -6  -5   9   13.61    5.08
  -6  -5   9   12.49    4.61
  -5  -5   9   -1.81    2.42
  -5  -5   9    1.28    3.35
  -5  -5   9   -2.48    2.68
   4   5  -9  222.13   12.88
  -4  -5   9  188.98   11.82
  -4  -5   9  185.26   13.06
  -4  -5   9  221.72   14.26
   3   5  -9   32.69    4.43
  -3  -5   9   30.60    5.24
  -3  -5   9   22.57    5.68
  -3  -5   9   28.00    3.07
  -3  -5   9   23.47    5.88
   2   5  -9   64.57    6.05
  -2  -5   9   49.59    5.12
  -2  -5   9   56.31    8.07
  -2  -5   9   39.29    7.28
   1   5  -9  953.74   37.47
   1   5  -9  950.84   34.44
  -1  -5   9  924.02   34.25
  -1  -5   9 1110.77   39.94
  -1  -5   9  951.52   36.66
  -1  -5   9  912.73   38.73
   0   5  -9  144.25   10.23
   0   5  -9  134.14   11.31
   0   5  -9  140.05    9.09
   0  -5   9  134.21   11.92
   0  -5   9  135.14   13.46
   0  -5   9  141.56    9.27
   0  -5   9  144.70   10.61
   0  -5   9  140.86    7.21
  -1   5  -9  115.05    8.18
  -1   5  -9   90.13    8.91
  -1   5  -9  118.73   11.21
   1  -5   9  111.69   12.56
   1  -5   9  115.32   12.37
   1  -5   9  111.34   10.54
   1  -5   9  111.64    7.14
  -2   5  -9  238.03   16.26
  -2   5  -9  236.58   13.71
  -2   5  -9  225.85   12.26
   2  -5   9  217.34   11.67
   2  -5   9  265.65   17.35
  -3   5  -9    0.71    3.19
  -3   5  -9   -3.70    3.66
  -3   5  -9    0.15    2.62
   3  -5   9   -0.01    4.37
   3  -5   9   -1.51    2.27
  -4   5  -9   11.53    3.51
  -4   5  -9   14.98    6.49
  -4   5  -9   14.21    4.64
   4  -5   9   18.80    6.60
   4  -5   9   11.29    3.79
  -5   5  -9    9.73    6.61
  -5   5  -9   21.77    4.18
  -5   5  -9   17.60    4.90
   5  -5   9   13.11    6.26
   5  -5   9   15.52    4.43
  -6   5  -9   60.81   11.38
  -6   5  -9   61.53    5.55
  -6   5  -9   55.23    7.70
   6  -5   9   45.10    7.17
  -7   5  -9  111.83   15.66
  -7   5  -9  137.02   12.32
   7  -5   9  145.85   12.77
  -9  -4   9   37.00    6.14
  -9  -4   9   29.79    6.64
  -8  -4   9   78.13    8.24
  -8  -4   9   75.89    9.66
  -7  -4   9   57.41    7.08
  -7  -4   9   90.09   10.03
  -6  -4   9  149.06   10.24
  -6  -4   9  141.45    9.75
  -6  -4   9  123.85   10.87
  -5  -4   9  162.87   11.62
  -5  -4   9  141.16    9.56
  -5  -4   9  123.39    9.63
   4   4  -9   63.73    5.71
  -4  -4   9   55.63    7.55
  -4  -4   9   72.15    9.05
  -4  -4   9   60.02    6.77
   3   4  -9    8.48    2.63
  -3  -4   9    6.48    3.93
  -3  -4   9    2.64    3.32
  -3  -4   9    5.35    3.05
  -3  -4   9    7.90    2.06
   2   4  -9   14.43    4.16
   2   4  -9   12.67    3.10
  -2  -4   9   16.14    3.06
  -2  -4   9   18.95    5.27
  -2  -4   9   13.93    4.74
  -2  -4   9   17.88    4.24
   1   4  -9  109.38    7.46
   1   4  -9  107.07    9.19
   1   4  -9  123.26    8.92
  -1  -4   9  130.13    9.21
  -1  -4   9  115.50    9.93
  -1  -4   9  124.78    5.04
  -1  -4   9  125.80    5.00
  -1  -4   9  117.71    7.76
  -1  -4   9  141.00   11.12
   0   4  -9   80.72    8.03
   0   4  -9   58.62    6.07
   0   4  -9   76.06    9.08
   0  -4   9   69.83    6.78
   0  -4   9   61.15    8.14
   0  -4   9   60.98    4.71
   0  -4   9   66.46    9.02
   0  -4   9   61.50    7.24
  -1   4  -9   10.82    3.22
  -1   4  -9   11.23    3.70
  -1   4  -9   10.51    4.40
  -1   4  -9    8.81    3.10
   1  -4   9    8.99    3.53
   1  -4   9    6.38    4.22
   1  -4   9    6.32    2.46
  -2   4  -9  549.09   23.18
  -2   4  -9  552.58   21.59
  -2   4  -9  518.86   25.59
   2  -4   9  566.89   21.51
   2  -4   9  540.13   26.01
   2  -4   9  530.85   23.66
  -3   4  -9  394.95   21.52
  -3   4  -9  408.04   16.78
  -3   4  -9  364.42   17.97
   3  -4   9  365.11   20.83
   3  -4   9  377.08   16.82
  -4   4  -9    1.34    4.22
  -4   4  -9    4.83    2.67
  -4   4  -9    3.06    2.89
   4  -4   9    2.86    2.77
   4  -4   9    3.39    4.29
  -5   4  -9  127.05    7.76
  -5   4  -9  120.73   13.97
  -5   4  -9  134.05   10.24
   5  -4   9  136.08    9.77
   5  -4   9  136.00   12.45
  -6   4  -9  162.28    7.63
  -6   4  -9  138.22   10.82
  -6   4  -9  132.33   15.48
   6  -4   9  159.20   11.07
  -7   4  -9    0.16    5.20
  -7   4  -9    0.85    3.05
   7  -4   9   -0.61    3.34
  -8   4  -9   13.45    7.39
  -8   4  -9    9.55    4.11
   8  -4   9   14.54    5.24
  -9  -3   9   45.12    8.24
  -9  -3   9   41.93    6.60
  -8  -3   9  100.20    9.67
  -8  -3   9  103.52   11.22
  -7  -3   9    3.40    3.24
  -7  -3   9   11.84    4.87
  -6  -3   9    6.03    3.93
  -6  -3   9    4.87    3.11
  -6  -3   9   13.93    3.60
  -5  -3   9   38.99    6.49
  -5  -3   9   20.07    4.35
  -5  -3   9   28.17    4.78
   4   3  -9 1282.68   42.14
  -4  -3   9 1257.40   44.36
  -4  -3   9 1277.87   44.74
  -4  -3   9 1236.95   46.63
   3   3  -9  589.34   21.65
  -3  -3   9  591.41   20.61
  -3  -3   9  613.99   25.81
  -3  -3   9  547.98   23.34
  -3  -3   9  593.61   24.18
   2   3  -9    0.21    2.40
   2   3  -9    0.30    1.84
  -2  -3   9    0.77    2.78
  -2  -3   9   -0.86    2.12
  -2  -3   9    1.47    2.93
  -2  -3   9    0.74    1.91
   1   3  -9   82.17    6.12
   1   3  -9   83.13    7.43
   1   3  -9   84.14    7.64
  -1  -3   9   84.25    4.37
  -1  -3   9   87.56    6.37
  -1  -3   9   86.81    5.11
  -1  -3   9   74.18    9.04
  -1  -3   9   74.83    7.38
  -1  -3   9   89.33    9.07
   0   3  -9   70.00    8.16
   0   3  -9   74.41    6.64
   0   3  -9   94.38    8.12
   0  -3   9   54.81    6.52
   0  -3   9   70.18    8.51
   0  -3   9   66.06    4.91
   0  -3   9   76.45    6.78
  -1   3  -9   85.82    9.87
  -1   3  -9   83.73    6.49
  -1   3  -9   90.66    8.08
   1  -3   9   99.86    6.31
   1  -3   9  102.03    9.12
   1  -3   9   89.49    8.51
  -2   3  -9   91.42   10.46
  -2   3  -9   96.05    6.84
  -2   3  -9   78.97    7.89
   2  -3   9  102.68    6.96
   2  -3   9  108.70    9.99
   2  -3   9  109.08    8.49
  -3   3  -9   59.60    6.75
  -3   3  -9   90.49   10.87
  -3   3  -9   69.57    6.19
   3  -3   9   75.72    6.96
   3  -3   9   68.15    9.01
   3  -3   9   70.32    7.69
  -4   3  -9  185.50    9.74
  -4   3  -9  182.41   11.42
  -4   3  -9  215.83   15.10
   4  -3   9  198.99   14.00
   4  -3   9  190.95   10.81
  -5   3  -9   -1.72    3.96
  -5   3  -9   -0.86    1.75
  -5   3  -9    0.59    2.74
   5  -3   9    3.89    3.97
   5  -3   9   -1.65    2.23
  -6   3  -9   36.04    8.33
  -6   3  -9   49.13    6.60
  -6   3  -9   42.87    2.99
   6  -3   9   43.63    6.23
  -7   3  -9  130.58   15.03
  -7   3  -9  163.58   10.49
   7  -3   9  150.71   10.88
  -8   3  -9    8.40    3.38
  -8   3  -9    9.08    6.35
   8  -3   9    7.20    4.06
  -9   3  -9   51.35    5.36
  -9   3  -9   52.63   11.49
  -9   3  -9   46.94    5.25
   9  -3   9   54.27    8.27
  -9  -2   9  129.04   12.10
  -9  -2   9   91.75    9.84
  -8  -2   9   16.53    5.60
  -8  -2   9   15.32    4.66
  -7  -2   9  191.67   13.68
  -7  -2   9  182.20   11.81
  -6  -2   9 1461.92   49.87
  -6  -2   9 1370.35   51.90
   5   2  -9 1087.12   38.58
  -5  -2   9 1216.71   43.86
  -5  -2   9 1146.50   40.99
  -5  -2   9 1144.00   39.00
   4   2  -9    2.40    2.15
  -4  -2   9    4.59    2.52
  -4  -2   9    0.34    3.28
  -4  -2   9    3.92    2.80
   3   2  -9   96.59    7.45
   3   2  -9  101.39    6.42
  -3  -2   9  102.03    5.92
  -3  -2   9   94.23    7.08
  -3  -2   9   85.90    9.16
  -3  -2   9   91.96    7.43
   2   2  -9  341.39   14.09
   2   2  -9  343.26   16.38
  -2  -2   9  354.42   15.89
  -2  -2   9  343.85   14.26
  -2  -2   9  351.06   15.92
   1   2  -9 1210.73   41.71
   1   2  -9 1186.83   44.71
   1   2  -9 1215.70   42.99
  -1  -2   9 1233.25   40.11
  -1  -2   9 1484.52   47.00
  -1  -2   9 1206.04   42.21
  -1  -2   9 1248.16   43.65
   0   2  -9   22.40    5.03
   0   2  -9   17.95    3.70
   0   2  -9   20.47    3.33
   0  -2   9   23.72    5.47
   0  -2   9   19.42    3.05
   0  -2   9   25.90    3.94
   0  -2   9   25.00    4.37
  -1   2  -9 1129.26   39.14
  -1   2  -9 1165.13   43.12
  -1   2  -9 1152.43   40.40
   1  -2   9 1149.03   43.22
   1  -2   9 1179.59   41.15
   1  -2   9 1147.61   38.85
  -2   2  -9  573.22   25.95
  -2   2  -9  599.91   22.05
  -2   2  -9  603.39   23.38
  -2   2  -9  613.60   22.12
   2  -2   9  592.11   22.11
   2  -2   9  559.93   23.49
   2  -2   9  571.05   25.50
  -3   2  -9  651.75   25.60
  -3   2  -9  637.88   23.83
  -3   2  -9  654.16   28.76
   3  -2   9  683.07   28.62
   3  -2   9  672.60   24.82
   3  -2   9  657.43   26.21
  -4   2  -9  131.57    8.93
  -4   2  -9  144.09   11.93
  -4   2  -9  122.99    8.77
  -4   2  -9  144.39    7.62
   4  -2   9  132.26   10.87
   4  -2   9  142.01    8.76
  -5   2  -9  563.36   19.41
  -5   2  -9  612.82   27.77
  -5   2  -9  522.14   22.22
  -5   2  -9  573.84   22.68
   5  -2   9  554.92   25.56
   5  -2   9  506.65   21.99
  -6   2  -9  398.74   17.66
  -6   2  -9  389.73   17.53
  -6   2  -9  372.68   22.04
   6  -2   9  431.61   18.33
  -7   2  -9    1.33    2.54
  -7   2  -9    3.82    4.80
  -7   2  -9    4.15    3.04
   7  -2   9   -0.68    2.55
  -8   2  -9  436.20   17.42
  -8   2  -9  418.71   25.07
  -8   2  -9  407.18   17.27
   8  -2   9  441.77   20.07
  -9   2  -9   -1.30    1.32
  -9   2  -9    0.42    4.90
   9  -2   9   -3.31    3.01
  -9  -1   9    0.30    3.77
  -9  -1   9    5.29    4.75
  -8  -1   9  180.95   12.63
  -8  -1   9  194.68   14.90
  -7  -1   9   56.11    7.24
  -7  -1   9   45.43    7.87
  -6  -1   9   85.31    8.59
  -6  -1   9   72.51    9.54
   5   1  -9   47.16    5.14
  -5  -1   9   48.15    7.55
  -5  -1   9   65.77    6.95
   4   1  -9  304.06   13.28
  -4  -1   9  326.82   15.30
  -4  -1   9  320.92   12.67
  -4  -1   9  313.35   16.81
   3   1  -9    5.31    2.32
   3   1  -9    5.24    3.16
  -3  -1   9    8.21    3.54
  -3  -1   9    8.60    2.45
  -3  -1   9    7.66    2.38
  -3  -1   9    6.34    2.81
   2   1  -9   67.58    6.65
   2   1  -9   55.58    6.68
   2   1  -9   54.77    5.04
  -2  -1   9   50.76    5.48
  -2  -1   9   51.24    5.94
  -2  -1   9   50.47    7.10
  -2  -1   9   53.32    5.24
   1   1  -9   12.34    2.72
   1   1  -9   14.97    3.49
   1   1  -9   24.70    4.66
  -1  -1   9   13.10    2.27
  -1  -1   9   10.88    3.79
  -1  -1   9    9.49    2.93
  -1  -1   9   11.40    3.02
   0   1  -9    1.68    2.79
   0   1  -9    0.86    1.92
   0   1  -9    0.51    1.73
   0  -1   9    2.97    2.22
   0  -1   9   -0.56    2.63
   0  -1   9    1.42    1.66
  -1   1  -9  188.30   11.78
  -1   1  -9  163.55    8.80
  -1   1  -9  173.60    9.86
   1  -1   9  185.28   11.67
   1  -1   9  185.82    8.87
   1  -1   9  190.61   10.34
  -2   1  -9   71.80    5.43
  -2   1  -9   74.50    5.50
  -2   1  -9   77.61    8.72
  -2   1  -9   72.42    6.64
   2  -1   9   91.35    8.09
   2  -1   9   72.30    6.99
   2  -1   9   79.74    5.77
  -3   1  -9  808.91   28.64
  -3   1  -9  848.23   31.00
  -3   1  -9  888.10   34.07
  -3   1  -9  822.59   30.41
   3  -1   9  836.95   32.79
   3  -1   9  802.11   29.39
  -4   1  -9   30.71    3.50
  -4   1  -9   27.23    4.44
  -4   1  -9   24.04    3.98
  -4   1  -9   29.16    6.33
   4  -1   9   23.66    3.94
   4  -1   9   25.41    5.22
  -5   1  -9   -4.60    1.62
  -5   1  -9    0.63    1.06
  -5   1  -9   -2.26    3.28
  -5   1  -9    1.55    2.07
  -5   1  -9   -0.51    0.97
   5  -1   9   -1.65    1.92
   5  -1   9    0.54    2.95
  -6   1  -9   15.28    3.49
  -6   1  -9    9.92    3.18
  -6   1  -9   24.10    6.66
   6  -1   9   12.18    3.39
  -7   1  -9  827.37   29.69
  -7   1  -9  825.56   36.66
  -7   1  -9  867.02   29.88
   7  -1   9  823.56   31.06
  -8   1  -9  245.17   17.95
  -8   1  -9  239.10   10.41
  -8   1  -9  258.76   10.55
   8  -1   9  252.65   13.46
  -9   1  -9   15.98    6.49
   9  -1   9    4.56    4.81
 -10   1  -9   19.87    7.67
  -9   0   9  188.93   13.79
  -9   0   9  151.82   14.61
  -8   0   9    6.34    5.14
  -8   0   9    6.73    4.11
  -7   0   9    1.96    4.12
  -7   0   9    8.22    3.98
   6   0  -9   56.30    5.95
  -6   0   9   59.59    7.52
  -6   0   9   43.37    7.74
   5   0  -9 1561.87   52.47
  -5   0   9 1593.06   54.89
  -5   0   9 1576.00   57.58
   4   0  -9  125.88    7.91
  -4   0   9  151.53   11.15
  -4   0   9  144.71    9.64
   3   0  -9   30.26    3.92
   3   0  -9   35.65    5.63
  -3   0   9   30.71    3.26
  -3   0   9   28.44    4.87
  -3   0   9   29.18    5.63
   2   0  -9  240.91   11.01
   2   0  -9  239.55   13.30
   2   0  -9  232.07   11.96
  -2   0   9  247.51   12.52
  -2   0   9  241.74   13.77
  -2   0   9  240.32    9.16
  -2   0   9  244.33   11.33
   1   0  -9  234.34   11.69
   1   0  -9  235.88   10.59
   1   0  -9  236.19   13.09
  -1   0   9  238.15   13.42
  -1   0   9  234.40    9.77
  -1   0   9  210.39   11.49
  -1   0   9  229.20   11.04
   0   0  -9  177.96   11.22
   0   0  -9  174.91    8.68
   0   0  -9  182.57    9.80
   0   0   9  175.32   11.17
   0   0   9  164.06    9.67
   0   0   9  173.82    8.32
  -1   0  -9  537.67   22.92
  -1   0  -9  536.29   20.67
  -1   0  -9  535.94   19.50
   1   0   9  511.90   22.52
   1   0   9  509.74   20.83
   1   0   9  511.72   19.31
  -2   0  -9   14.43    2.64
  -2   0  -9   10.74    2.95
  -2   0  -9    5.90    3.69
   2   0   9   11.91    2.68
   2   0   9   10.52    3.68
   2   0   9    5.89    2.33
  -3   0  -9  462.33   16.90
  -3   0  -9  496.71   21.89
  -3   0  -9  453.92   18.41
  -3   0  -9  461.28   18.59
   3   0   9  449.36   20.30
   3   0   9  457.41   17.85
  -4   0  -9 1128.35   38.11
  -4   0  -9 1113.61   38.29
  -4   0  -9 1096.81   41.96
  -4   0  -9 1115.75   35.59
   4   0   9 1119.22   37.74
   4   0   9 1057.47   40.56
  -5   0  -9   74.55    9.51
  -5   0  -9   89.67    8.37
  -5   0  -9  101.18    6.63
  -5   0  -9   81.91    6.31
   5   0   9   87.62    6.38
   5   0   9  106.31    8.55
  -6   0  -9   57.14    5.25
  -6   0  -9   77.55    9.81
  -6   0  -9   51.48    5.14
   6   0   9   75.16    6.57
  -7   0  -9  235.10    9.99
  -7   0  -9  221.30   15.42
  -7   0  -9  236.30   10.04
   7   0   9  235.30   11.78
  -8   0  -9  109.45   12.78
   8   0   9  107.72    8.13
  -9   0  -9   82.82   11.77
 -10   0  -9    7.88    5.62
  -8   1   9   -0.18    4.16
  -8   1   9   -0.15    3.86
  -7   1   9    0.22    3.73
  -7   1   9    3.65    3.90
   6  -1  -9  157.96    9.57
  -6   1   9  140.86   12.64
  -6   1   9  130.57   10.61
   5  -1  -9  414.70   17.72
  -5   1   9  407.32   21.81
  -5   1   9  431.25   19.85
   4  -1  -9   47.69    8.13
   4  -1  -9   37.56    4.88
  -4   1   9   36.96    5.68
  -4   1   9   43.17    7.43
   3  -1  -9   54.35    6.46
   3  -1  -9   62.41    7.53
   3  -1  -9   57.47    5.64
  -3   1   9   48.95    5.56
  -3   1   9   56.86    7.70
  -3   1   9   44.24    5.89
   2  -1  -9  279.78   12.30
   2  -1  -9  263.66   14.44
   2  -1  -9  282.97   13.35
  -2   1   9  265.45   12.49
  -2   1   9  261.09   12.59
  -2   1   9  270.58   10.69
  -2   1   9  279.64   15.26
  -2   1   9  271.53   13.50
   1  -1  -9   91.63    6.32
   1  -1  -9   97.74    7.20
   1  -1  -9   99.98    8.32
  -1   1   9   98.93    5.76
  -1   1   9   93.90    8.29
  -1   1   9  102.84    7.46
  -1   1   9   96.27    6.80
  -1   1   9   97.74    6.91
   0  -1  -9   27.15    5.06
   0  -1  -9   33.68    3.99
   0  -1  -9   31.48    4.34
   0   1   9   39.41    5.12
   0   1   9   42.35    5.04
   0   1   9   42.89    6.40
   0   1   9   32.58    3.80
  -1  -1  -9  149.56    7.71
  -1  -1  -9  138.47    8.47
  -1  -1  -9  146.88   10.32
   1   1   9  139.82    8.68
   1   1   9  143.54    7.71
   1   1   9  164.23   10.44
   1   1   9  147.76    8.66
  -2  -1  -9  228.25   11.15
  -2  -1  -9  229.86   10.02
  -2  -1  -9  226.02   13.17
   2   1   9  233.19   12.56
   2   1   9  231.10   12.87
   2   1   9  224.52   11.37
   2   1   9  225.15   10.36
  -3  -1  -9   92.12    6.54
  -3  -1  -9   78.55    6.02
  -3  -1  -9   91.54    5.08
  -3  -1  -9   77.48    8.57
   3   1   9   90.70    6.02
   3   1   9  111.86    8.28
  -4  -1  -9  358.78   18.25
  -4  -1  -9  387.35   15.22
  -4  -1  -9  389.81   16.74
  -4  -1  -9  362.97   15.28
   4   1   9  376.34   17.28
   4   1   9  356.13   14.90
  -5  -1  -9  136.10    7.36
  -5  -1  -9  124.97   10.27
  -5  -1  -9  132.55    8.81
  -5  -1  -9  132.62    7.16
   5   1   9  111.19    7.14
   5   1   9  134.93    9.20
  -6  -1  -9   -0.33    1.63
  -6  -1  -9   10.00    4.29
  -6  -1  -9    1.26    1.55
  -6  -1  -9    5.27    2.81
   6   1   9    2.23    2.22
  -7  -1  -9  487.71   24.09
  -7  -1  -9  572.60   30.60
   7   1   9  502.81   19.71
  -8  -1  -9  151.73   12.75
  -9  -1  -9   44.19    8.44
 -10  -1  -9   97.90   12.76
  -8   2   9    5.71    4.73
  -8   2   9   -0.22    4.77
   7  -2  -9  106.49    9.54
  -7   2   9  109.09   11.28
  -7   2   9  103.78   13.03
   6  -2  -9   15.64    4.33
  -6   2   9   17.23    4.99
  -6   2   9   16.75    6.08
   5  -2  -9  991.59   35.61
  -5   2   9  964.24   40.41
  -5   2   9  936.15   34.36
  -5   2   9 1029.63   37.97
   4  -2  -9  109.84    7.89
   4  -2  -9  106.79   10.01
  -4   2   9  118.30    7.90
  -4   2   9  117.01    9.50
  -4   2   9   99.83   11.13
   3  -2  -9    0.03    2.93
   3  -2  -9    2.46    2.76
   3  -2  -9   -3.27    1.71
  -3   2   9   -1.47    1.16
  -3   2   9    4.82    3.04
  -3   2   9   -1.26    2.09
  -3   2   9    3.96    3.62
   2  -2  -9   84.39    6.51
   2  -2  -9   95.39    7.49
   2  -2  -9   91.21    9.52
  -2   2   9   91.29    6.92
  -2   2   9   86.53    9.56
  -2   2   9   90.94    8.28
  -2   2   9   93.24    7.03
  -2   2   9   80.34    5.38
   1  -2  -9  426.16   16.90
   1  -2  -9  441.78   20.19
   1  -2  -9  391.80   17.70
  -1   2   9  421.53   18.24
  -1   2   9  407.48   19.91
  -1   2   9  448.36   16.48
  -1   2   9  415.96   17.57
   0  -2  -9 1262.33   41.14
   0  -2  -9 1267.63   45.22
   0  -2  -9 1186.04   42.25
   0   2   9 1197.80   44.63
   0   2   9 1213.96   40.95
   0   2   9 1247.25   42.32
   0   2   9 1226.84   42.76
  -1  -2  -9    1.88    1.68
  -1  -2  -9    1.29    2.22
  -1  -2  -9    2.25    2.95
   1   2   9    1.26    1.94
   1   2   9    4.37    1.95
   1   2   9    3.29    2.07
   1   2   9    2.81    2.70
  -2  -2  -9   45.07    6.40
  -2  -2  -9   48.36    4.30
  -2  -2  -9   38.84    4.67
  -2  -2  -9   45.55    5.00
   2   2   9   54.70    6.95
   2   2   9   35.52    4.51
   2   2   9   45.91    4.62
  -3  -2  -9 1195.05   44.06
  -3  -2  -9 1214.93   38.47
  -3  -2  -9 1212.70   40.57
  -3  -2  -9 1210.75   40.78
   3   2   9 1067.11   42.25
   3   2   9 1242.45   41.46
   3   2   9 1286.41   40.36
  -4  -2  -9   49.39    5.90
  -4  -2  -9   45.17    6.74
  -4  -2  -9   44.79    4.53
  -4  -2  -9   37.66    4.31
   4   2   9   42.20    4.28
   4   2   9   52.34    6.10
  -5  -2  -9   30.44    5.78
  -5  -2  -9   40.05    5.24
  -5  -2  -9   41.67    4.05
  -5  -2  -9   42.30    4.16
   5   2   9   38.55    4.18
   5   2   9   41.73    5.48
  -6  -2  -9   19.10    2.12
  -6  -2  -9   21.53    2.21
  -6  -2  -9   21.44    4.15
  -6  -2  -9   21.56    5.25
   6   2   9   24.66    3.58
  -7  -2  -9   90.88   10.10
  -7  -2  -9   94.39    7.81
   7   2   9   90.80    6.12
  -8  -2  -9  887.38   36.50
  -9  -2  -9  303.00   18.28
 -10  -2  -9  474.34   25.02
 -11  -2  -9   38.49    8.48
   8  -3  -9   57.43    7.84
  -8   3   9   35.91    9.15
  -8   3   9   33.31    7.66
   7  -3  -9   18.86    5.20
  -7   3   9   11.03    5.21
  -7   3   9   13.06    6.61
   6  -3  -9  110.34    9.83
  -6   3   9   86.22    7.58
  -6   3   9  101.85   10.93
  -6   3   9   88.62   12.44
   5  -3  -9  487.82   21.09
  -5   3   9  525.52   20.78
  -5   3   9  480.43   25.66
  -5   3   9  467.76   22.82
   4  -3  -9  155.73    9.62
   4  -3  -9  141.02   12.56
  -4   3   9  151.10   12.67
  -4   3   9  128.49    9.11
  -4   3   9  133.49   10.59
   3  -3  -9   56.91    8.30
   3  -3  -9   55.98    6.89
   3  -3  -9   69.32    6.94
  -3   3   9   61.47    7.57
  -3   3   9   65.33    4.70
  -3   3   9   62.48    8.83
  -3   3   9   63.23    6.90
   2  -3  -9  301.72   13.56
   2  -3  -9  283.94   14.53
   2  -3  -9  297.64   16.47
  -2   3   9  291.04   16.92
  -2   3   9  274.15   13.89
  -2   3   9  296.77   12.47
  -2   3   9  283.43   14.82
   1  -3  -9  276.39   15.54
   1  -3  -9  268.07   12.41
   1  -3  -9  259.20   13.27
  -1   3   9  276.91   13.31
  -1   3   9  271.43   13.87
  -1   3   9  270.05   11.99
  -1   3   9  268.50   15.52
   0  -3  -9  201.52    9.93
   0  -3  -9  201.15   12.89
   0  -3  -9  208.29   11.17
   0   3   9  226.14   13.32
   0   3   9  216.88   10.21
   0   3   9  199.00   11.33
   0   3   9  221.34   11.25
  -1  -3  -9  291.51   13.73
  -1  -3  -9  282.91   12.21
  -1  -3  -9  302.83   16.04
   1   3   9  296.80   15.51
   1   3   9  295.96   13.83
   1   3   9  304.93   12.78
   1   3   9  303.74   13.79
  -2  -3  -9  193.94    9.78
  -2  -3  -9  194.17    9.95
  -2  -3  -9  191.18    8.45
  -2  -3  -9  183.29   12.06
   2   3   9  178.00   11.11
   2   3   9  179.71    9.97
   2   3   9  207.17    9.50
  -3  -3  -9   11.46    1.57
  -3  -3  -9   11.45    1.56
  -3  -3  -9    8.02    2.48
  -3  -3  -9   11.91    2.72
  -3  -3  -9   10.01    3.45
  -3  -3  -9    8.56    3.71
   3   3   9    5.17    2.58
   3   3   9   12.74    3.73
   3   3   9   10.96    2.63
  -4  -3  -9    4.40    2.06
  -4  -3  -9    7.76    2.16
  -4  -3  -9    6.12    3.46
  -4  -3  -9    7.94    2.66
   4   3   9    6.99    3.05
   4   3   9    4.00    1.97
  -5  -3  -9  137.19    6.50
  -5  -3  -9  134.83   10.09
  -5  -3  -9  146.51    9.02
  -5  -3  -9  134.94    6.46
   5   3   9  141.01    7.34
  -6  -3  -9 1224.00   44.46
  -6  -3  -9 1162.39   41.74
   6   3   9 1188.27   39.44
  -7  -3  -9   81.25    9.23
  -7  -3  -9   84.20    7.85
  -8  -3  -9    1.83    2.64
  -8  -3  -9    0.53    3.72
  -9  -3  -9   -3.23    3.34
 -10  -3  -9  215.97   15.32
 -11  -3  -9   44.68    8.62
   7  -4  -9   12.32    4.84
  -7   4   9    3.91    5.92
  -7   4   9    7.61    5.29
  -7   4   9    7.38    3.22
   6  -4  -9   21.39    5.49
  -6   4   9   33.50    8.69
  -6   4   9   18.99    4.36
  -6   4   9   18.96    6.19
   5  -4  -9  156.23   10.61
  -5   4   9  154.06   13.41
  -5   4   9  145.73   10.26
  -5   4   9  145.76   15.70
   4  -4  -9  126.82    9.23
  -4   4   9  133.95   14.45
  -4   4   9  113.17   11.16
  -4   4   9  130.12    6.35
  -4   4   9  105.28    9.53
   3  -4  -9   17.44    5.88
   3  -4  -9   14.43    4.41
   3  -4  -9   14.92    4.06
  -3   4   9   14.58    4.75
  -3   4   9   14.86    5.52
  -3   4   9    9.13    2.74
  -3   4   9   17.65    4.26
   2  -4  -9   46.80    6.90
   2  -4  -9   55.19    6.29
   2  -4  -9   56.05    8.32
  -2   4   9   49.69    5.46
  -2   4   9   47.42    6.04
  -2   4   9   43.04    6.31
  -2   4   9   46.96    7.67
   1  -4  -9  231.37   12.52
   1  -4  -9  234.67   14.58
   1  -4  -9  224.36   11.13
  -1   4   9  213.31   14.15
  -1   4   9  200.14   11.77
  -1   4   9  213.71   12.32
  -1   4   9  215.93   10.72
   0  -4  -9   49.31    6.03
   0  -4  -9   63.47    5.69
   0  -4  -9   64.32    8.41
   0   4   9   49.76    6.08
   0   4   9   49.83    5.18
   0   4   9   41.20    6.82
   0   4   9   51.59    5.78
  -1  -4  -9  144.79    9.07
  -1  -4  -9  126.24    8.49
  -1  -4  -9  128.00   10.35
  -1  -4  -9  125.37    7.08
   1   4   9  121.40    7.54
   1   4   9  133.31    9.84
   1   4   9  123.96    8.36
  -2  -4  -9 1324.68   45.66
  -2  -4  -9 1317.58   45.54
  -2  -4  -9 1384.56   49.64
  -2  -4  -9 1329.85   43.57
  -2  -4  -9 1319.57   47.68
   2   4   9 1392.89   48.58
   2   4   9 1380.17   45.27
   2   4   9 1375.82   46.32
  -3  -4  -9 1615.48   51.89
  -3  -4  -9 1584.06   51.64
  -3  -4  -9 1532.82   55.61
  -3  -4  -9 1562.71   53.27
   3   4   9 1576.61   51.42
   3   4   9 1588.31   52.82
   3   4   9 1519.12   54.10
  -4  -4  -9  228.68    9.64
  -4  -4  -9  215.48    9.62
  -4  -4  -9  225.88   13.19
  -4  -4  -9  221.48   11.54
   4   4   9  208.35    9.70
   4   4   9  179.51   10.83
  -5  -4  -9   58.67    7.57
  -5  -4  -9   56.56    6.13
  -5  -4  -9   55.60    3.42
  -5  -4  -9   59.27    3.43
   5   4   9   64.53    4.77
  -6  -4  -9   12.93    3.48
  -6  -4  -9   14.23    4.60
   6   4   9   13.41    2.64
  -7  -4  -9  957.71   37.28
  -7  -4  -9  963.61   35.00
  -8  -4  -9   16.00    4.87
  -8  -4  -9   23.91    4.51
  -9  -4  -9  350.45   16.72
  -9  -4  -9  364.07   19.20
 -10  -4  -9  152.98   12.46
 -11  -4  -9    1.88    4.07
   6  -5  -9   72.85    8.88
  -6   5   9   77.13    8.47
  -6   5   9   74.66   12.23
   5  -5  -9  183.62   12.12
  -5   5   9  182.71   16.11
  -5   5   9  157.22   11.41
   4  -5  -9   82.21    8.36
  -4   5   9   77.74   11.34
  -4   5   9   77.32    9.48
  -4   5   9   84.68    5.78
  -4   5   9   81.07    8.72
   3  -5  -9  112.56    8.78
   3  -5  -9  124.99   13.41
  -3   5   9  115.75   10.14
  -3   5   9  124.28    7.73
  -3   5   9  109.96   12.61
  -3   5   9  109.97   11.03
   2  -5  -9   73.48    8.11
   2  -5  -9   58.17    5.13
   2  -5  -9   72.00   10.02
   2  -5  -9   71.38    7.27
  -2   5   9   77.24   10.18
  -2   5   9   66.97    8.31
  -2   5   9   72.13    6.56
  -2   5   9   66.02    7.46
   1  -5  -9   84.58   10.65
   1  -5  -9  107.54    7.22
   1  -5  -9   98.03    9.14
   1  -5  -9  100.71    7.43
  -1   5   9   92.63    8.46
  -1   5   9   93.86    7.14
  -1   5   9   97.72    9.65
  -1   5   9   97.69   11.14
   0  -5  -9  257.99   16.13
   0  -5  -9  258.65   13.14
   0  -5  -9  273.42   12.31
   0  -5  -9  277.52   13.96
   0   5   9  277.87   14.27
   0   5   9  252.76   12.49
   0   5   9  245.35   13.52
   0   5   9  278.53   16.18
  -1  -5  -9   -0.77    2.30
  -1  -5  -9    1.84    3.47
  -1  -5  -9    5.22    2.93
  -1  -5  -9    1.50    1.85
  -1  -5  -9    3.91    2.54
   1   5   9    1.02    2.13
   1   5   9    4.93    3.43
   1   5   9    8.04    3.41
  -2  -5  -9   30.23    3.12
  -2  -5  -9   23.91    4.25
  -2  -5  -9   16.48    3.43
  -2  -5  -9   31.73    6.00
  -2  -5  -9   26.58    5.36
   2   5   9   34.43    6.02
   2   5   9   17.00    3.82
   2   5   9   27.03    3.95
  -3  -5  -9    2.54    2.00
  -3  -5  -9    3.22    2.87
  -3  -5  -9   -3.04    2.82
  -3  -5  -9   -0.57    1.86
  -3  -5  -9    5.83    3.74
   3   5   9    1.12    2.62
   3   5   9    0.87    2.72
   3   5   9    1.54    1.91
  -4  -5  -9   58.36    4.59
  -4  -5  -9   52.64    7.62
  -4  -5  -9   70.67    8.60
  -4  -5  -9   70.00    6.96
  -4  -5  -9   59.55    4.78
   4   5   9   70.79    6.46
   4   5   9   72.74    5.97
  -5  -5  -9  185.39   10.95
  -5  -5  -9  194.98   13.77
  -5  -5  -9  214.27   13.11
   5   5   9  201.20    9.40
  -6  -5  -9  460.79   21.74
  -6  -5  -9  470.88   19.72
  -7  -5  -9  262.52   15.41
  -7  -5  -9  278.22   13.62
  -8  -5  -9    0.86    2.48
  -8  -5  -9    2.02    3.30
  -9  -5  -9   56.82    6.65
  -9  -5  -9   44.71    7.22
 -10  -5  -9    8.03    5.00
 -10  -5  -9   -3.55    3.37
 -11  -5  -9   16.56    5.50
   6  -6  -9   23.63    6.19
  -6   6   9   34.21    6.46
  -6   6   9   37.10    9.95
   5  -6  -9    3.10    4.08
  -5   6   9   -4.81    4.66
  -5   6   9    0.37    3.56
  -5   6   9   -1.16    2.58
   4  -6  -9  126.47   11.17
  -4   6   9  121.96    7.71
  -4   6   9  122.93   11.15
   3  -6  -9  143.23   13.56
   3  -6  -9  133.19   10.08
  -3   6   9  150.42    9.13
  -3   6   9  144.55   15.31
  -3   6   9  144.52   10.99
   2  -6  -9   67.16    8.75
   2  -6  -9   58.46    6.77
   2  -6  -9   67.02   10.26
  -2   6   9   58.81    6.51
  -2   6   9   66.34    8.56
  -2   6   9   63.58   10.17
   1  -6  -9   51.20    6.29
   1  -6  -9   38.19    5.54
   1  -6  -9   35.09    5.88
   1  -6  -9   55.00    8.63
  -1   6   9   34.68    4.99
  -1   6   9   41.30    8.13
  -1   6   9   35.84    6.31
   0  -6  -9 1111.78   40.98
   0  -6  -9 1130.30   45.14
   0  -6  -9 1088.87   38.93
   0  -6  -9 1181.13   41.60
   0   6   9 1117.18   41.37
   0   6   9 1136.94   40.04
   0   6   9 1185.62   44.97
  -1  -6  -9  448.07   19.32
  -1  -6  -9  463.47   17.47
  -1  -6  -9  469.59   20.88
  -1  -6  -9  442.73   19.67
  -1  -6  -9  471.95   23.32
   1   6   9  480.02   20.43
   1   6   9  416.80   18.62
   1   6   9  447.39   22.22
  -2  -6  -9   20.05    5.55
  -2  -6  -9   11.98    3.61
  -2  -6  -9   18.08    3.71
  -2  -6  -9   14.59    4.61
  -2  -6  -9   17.31    2.39
   2   6   9   11.60    4.26
   2   6   9   12.60    3.79
   2   6   9   15.06    3.51
  -3  -6  -9 1148.46   43.11
  -3  -6  -9 1151.99   40.59
  -3  -6  -9 1153.87   38.07
  -3  -6  -9 1089.14   42.21
  -3  -6  -9 1152.34   38.31
   3   6   9 1103.66   38.23
   3   6   9  947.15   40.06
  -4  -6  -9  147.59    9.63
  -4  -6  -9  144.03    7.37
  -4  -6  -9  104.59   11.19
  -4  -6  -9  133.75   10.97
  -4  -6  -9  141.26    7.17
   4   6   9  148.60    8.18
  -5  -6  -9   11.08    5.59
  -5  -6  -9    8.93    4.23
   5   6   9   12.94    2.94
  -6  -6  -9  193.31   10.86
  -6  -6  -9  178.76   12.34
  -6  -6  -9  155.94   13.32
  -7  -6  -9  102.37    9.30
  -7  -6  -9  103.69    7.97
  -7  -6  -9   81.63   10.92
  -8  -6  -9  148.51   11.34
  -8  -6  -9  158.26    9.87
  -9  -6  -9    3.89    2.84
  -9  -6  -9    3.74    3.66
 -10  -6  -9  103.26    9.87
 -10  -6  -9  111.66    8.80
 -11  -6  -9   13.36    5.31
   5  -7  -9    6.40    4.68
  -5   7   9   -2.90    5.57
  -5   7   9   10.67    5.30
  -5   7   9    4.53    2.30
   4  -7  -9   18.05    5.09
  -4   7   9   15.78    3.92
  -4   7   9   14.45    7.49
  -4   7   9    9.65    4.64
   3  -7  -9  141.19   15.74
   3  -7  -9  148.01   10.66
  -3   7   9  130.50    9.11
  -3   7   9  131.73   15.24
  -3   7   9  142.72   12.68
   2  -7  -9  102.92    9.22
   2  -7  -9  132.71   14.82
   2  -7  -9  108.52   11.19
  -2   7   9  126.67   12.09
  -2   7   9  108.59   13.48
  -2   7   9  117.93    8.87
   1  -7  -9 1100.95   46.81
   1  -7  -9 1132.26   41.54
   1  -7  -9 1135.38   40.53
   1  -7  -9 1134.39   43.06
  -1   7   9 1135.14   41.11
  -1   7   9 1139.43   46.96
  -1   7   9 1213.14   43.54
   0  -7  -9  233.29   13.51
   0  -7  -9  233.91   13.42
   0  -7  -9  198.26   10.93
   0  -7  -9  223.26   16.25
   0   7   9  219.79   13.65
   0   7   9  229.62   15.83
   0   7   9  209.68   12.12
  -1  -7  -9   71.68    5.85
  -1  -7  -9   62.22    9.83
  -1  -7  -9   71.91    8.79
  -1  -7  -9   65.73    7.33
   1   7   9   82.24   10.26
   1   7   9   78.72    7.77
  -2  -7  -9   -0.82    2.96
  -2  -7  -9    1.30    2.70
  -2  -7  -9    0.96    1.21
  -2  -7  -9   -1.34    2.00
  -2  -7  -9    2.02    3.81
   2   7   9   -0.14    2.37
   2   7   9   -0.37    3.12
  -3  -7  -9  130.44    8.15
  -3  -7  -9  147.58   12.09
  -3  -7  -9  134.17   11.43
  -3  -7  -9  144.40    8.60
   3   7   9  146.57    8.94
  -4  -7  -9   96.95   10.50
  -4  -7  -9   67.63    5.01
  -4  -7  -9   72.96    5.25
  -4  -7  -9   78.32   10.29
   4   7   9   73.20    6.62
  -5  -7  -9  426.60   23.41
  -5  -7  -9  337.17   20.01
  -5  -7  -9  342.61   18.65
   5   7   9  331.53   14.67
  -6  -7  -9  164.32   14.35
  -6  -7  -9  156.09   10.53
  -6  -7  -9  188.15   13.05
  -7  -7  -9 1065.14   40.74
  -7  -7  -9 1009.80   37.82
  -7  -7  -9 1040.64   44.47
  -8  -7  -9  234.95   18.50
  -8  -7  -9  286.14   15.98
  -8  -7  -9  248.13   13.45
  -9  -7  -9   54.80    6.71
  -9  -7  -9   62.95    8.42
 -10  -7  -9   67.28    8.62
 -10  -7  -9   39.00    6.68
   4  -8  -9  150.39   12.99
  -4   8   9  140.15   13.30
  -4   8   9  141.18   18.12
  -4   8   9  144.93    9.61
   3  -8  -9   50.08    7.38
   3  -8  -9   47.71   10.33
  -3   8   9   50.16    6.74
  -3   8   9   48.40    8.48
  -3   8   9   47.09   10.91
   2  -8  -9    9.55    4.72
   2  -8  -9    4.81    3.45
   2  -8  -9    5.79    5.66
  -2   8   9   -0.09    3.06
  -2   8   9    6.72    4.50
  -2   8   9    7.91    6.07
   1  -8  -9   21.03    5.87
   1  -8  -9   31.66    6.28
   1  -8  -9   18.56    4.30
   1  -8  -9   18.94    7.24
  -1   8   9   29.82    9.14
  -1   8   9   36.15    8.50
  -1   8   9   25.36    5.07
   0  -8  -9   87.02   12.20
   0  -8  -9   94.16   10.41
   0  -8  -9  109.76    7.53
   0  -8  -9   80.62    9.00
   0   8   9  105.64    9.70
   0   8   9  113.70   13.28
  -1  -8  -9   42.36    9.01
  -1  -8  -9   38.50    4.31
  -1  -8  -9   51.17    7.85
  -1  -8  -9   34.06    5.98
   1   8   9   41.61    5.97
  -2  -8  -9   10.93    5.82
  -2  -8  -9   11.00    3.89
  -2  -8  -9    8.41    4.62
   2   8   9   22.53    4.69
  -3  -8  -9    5.04    2.80
  -3  -8  -9    7.75    2.78
  -3  -8  -9    5.89    4.44
  -3  -8  -9    4.81    4.51
   3   8   9    8.41    3.35
  -4  -8  -9   17.03    2.99
  -4  -8  -9   16.91    2.86
  -4  -8  -9   24.45    6.59
  -4  -8  -9   18.87    6.26
   4   8   9   20.07    4.24
  -5  -8  -9  145.93   14.99
  -5  -8  -9  136.33   11.95
   5   8   9  126.45    9.40
  -6  -8  -9   52.99    8.23
  -6  -8  -9   69.54   10.80
  -7  -8  -9   84.42   10.14
  -7  -8  -9   62.22   11.09
  -8  -8  -9   -1.88    4.92
  -8  -8  -9    4.81    4.23
  -9  -8  -9    0.01    5.16
  -9  -8  -9    2.11    3.84
 -10  -8  -9   77.89    9.82
   3  -9  -9   20.28    5.70
  -3   9   9   12.94    7.85
  -3   9   9   26.19    5.36
  -3   9   9   17.25    6.47
   2  -9  -9   18.86    6.11
   2  -9  -9   19.20    8.16
   2  -9  -9   29.13    5.51
  -2   9   9   32.75    6.07
  -2   9   9   16.21    7.72
   1  -9  -9   10.39    5.16
   1  -9  -9   16.96    4.40
   1  -9  -9   17.88    7.70
  -1   9   9   16.06    4.75
   0  -9  -9  402.68   16.51
   0  -9  -9  396.66   20.74
   0  -9  -9  346.37   23.55
   0  -9  -9  377.40   19.91
   0   9   9  390.79   18.94
  -1  -9  -9    3.83    4.34
  -1  -9  -9    0.84    1.87
  -1  -9  -9   -4.47    4.33
  -1  -9  -9    1.58    3.36
   1   9   9   -3.35    2.70
  -2  -9  -9  226.61   17.25
  -2  -9  -9  217.52   15.58
  -2  -9  -9  205.86   12.57
   2   9   9  209.08   12.56
  -3  -9  -9    4.47    2.83
  -3  -9  -9   -4.52    3.71
  -3  -9  -9    3.47    4.91
  -3  -9  -9    4.19    2.55
   3   9   9    3.69    3.05
  -4  -9  -9  110.93    6.37
  -4  -9  -9  104.74   12.82
  -4  -9  -9  102.82   12.85
  -4  -9  -9  104.58    6.34
   4   9   9  110.87    9.49
  -5  -9  -9    2.93    3.99
  -5  -9  -9    1.43    4.64
  -6  -9  -9   67.41   11.26
  -6  -9  -9   65.34    9.72
  -7  -9  -9  339.86   19.77
  -7  -9  -9  361.23   23.15
  -8  -9  -9  225.85   15.49
  -8  -9  -9  231.66   19.04
  -9  -9  -9    1.86    5.30
  -9  -9  -9   -2.84    3.61
   1 -10  -9   31.51    5.31
   1 -10  -9   38.71   10.67
   1 -10  -9   22.78    6.57
  -1  10   9   28.52    5.85
   0 -10  -9    6.27    2.78
   0 -10  -9    8.04    6.61
   0 -10  -9    6.52    5.04
   0 -10  -9    2.84    4.54
   0  10   9    9.19    4.41
  -1 -10  -9   38.29    8.22
  -1 -10  -9   37.56    9.38
  -1 -10  -9   25.81    5.81
   1  10   9   39.42    6.78
  -2 -10  -9   34.75    8.09
  -2 -10  -9   41.50    9.41
  -2 -10  -9   40.70    6.56
   2  10   9   46.28    7.07
  -3 -10  -9    4.33    2.86
  -3 -10  -9   -2.81    2.25
  -3 -10  -9   -1.50    4.51
  -3 -10  -9    3.10    4.74
   3  10   9    2.74    3.60
  -4 -10  -9   80.80   11.67
  -4 -10  -9   57.22   10.20
  -4 -10  -9   78.58    5.24
  -4 -10  -9   69.36    5.07
   4  10   9   66.92    7.95
  -5 -10  -9   31.82    8.37
  -5 -10  -9   28.47    7.52
  -6 -10  -9    9.56    6.23
  -6 -10  -9   -0.26    3.94
  -7 -10  -9   -4.73    5.15
  -7 -10  -9   -0.55    4.17
  -8 -10  -9   -2.97    3.74
  -8 -10  -9    3.45    5.97
  -1 -11  -9   25.90    6.23
  -1 -11  -9   23.40    9.21
  -1 -11  -9   16.13    6.83
   1  11   9   20.02    5.74
  -2 -11  -9   -6.40    3.97
  -2 -11  -9   -2.65    5.38
  -2 -11  -9    1.48    3.54
   2  11   9    0.53    4.08
  -3 -11  -9   23.26    8.02
  -3 -11  -9    6.63    3.50
  -3 -11  -9   17.90    7.02
   3  11   9    9.36    4.61
  -4 -11  -9   -1.19    5.75
  -4 -11  -9    0.95    1.62
  -4 -11  -9   -1.87    1.48
  -4 -11  -9    3.01    5.43
   4  11   9    2.92    3.90
  -5 -11  -9   33.26    8.76
  -5 -11  -9   23.96    7.83
  -6 -11  -9   50.28    9.92
  -6 -11  -9   67.42   12.02
  -7 -11  -9    0.23    4.68
  -7 -11  -9   -0.85    5.17
  -5  -9  10   35.04    8.68
  -5  -9  10   23.01    8.07
  -5  -9  10   34.66    7.20
  -4  -9  10   58.74    9.06
  -4  -9  10   47.01    9.43
  -4  -9  10   37.07    9.63
   3   9 -10    8.63    4.49
  -3  -9  10   15.47    7.47
  -3  -9  10    6.74    5.35
  -3  -9  10   12.39    6.67
   2   9 -10   82.28    9.15
   2   9 -10   85.66    9.48
  -2  -9  10  101.13   14.57
  -2  -9  10   78.12   11.06
  -2  -9  10   73.16   12.29
  -2  -9  10   72.72    6.71
   1   9 -10   78.28    9.23
  -1  -9  10   76.14   13.06
  -1  -9  10   78.60   13.05
   0   9 -10  111.23   11.02
   0  -9  10  105.83   15.03
   0  -9  10   99.73   15.13
  -1   9 -10   72.47    8.97
   1  -9  10   91.62   14.62
   1  -9  10   57.23   12.08
  -6  -8  10  422.43   24.80
  -6  -8  10  424.55   23.85
  -6  -8  10  433.16   21.99
  -5  -8  10   62.85    8.68
  -5  -8  10   56.41   10.59
  -5  -8  10   50.48    9.30
  -4  -8  10   39.73    7.17
  -4  -8  10   25.57    7.18
  -4  -8  10   43.43    9.07
   3   8 -10   10.47    4.17
  -3  -8  10   18.00    7.22
  -3  -8  10   20.71    7.57
  -3  -8  10   17.27    5.86
   2   8 -10   33.85    6.08
  -2  -8  10   32.67    8.35
  -2  -8  10   27.64    7.14
  -2  -8  10   36.18    4.75
  -2  -8  10   28.88    8.22
   1   8 -10   22.83    5.44
  -1  -8  10   31.35    7.17
  -1  -8  10   15.84    7.05
  -1  -8  10   26.79    7.95
   0   8 -10    2.09    3.67
   0  -8  10    1.49    5.15
   0  -8  10    5.46    5.84
  -1   8 -10   23.77    5.85
   1  -8  10   18.03    7.45
   1  -8  10    9.71    6.27
   1  -8  10   15.92    3.14
  -2   8 -10    8.57    4.29
   2  -8  10   11.73    3.54
   2  -8  10    9.64    6.00
   2  -8  10    8.75    6.82
  -3   8 -10   18.66    5.15
   3  -8  10   11.05    4.13
   3  -8  10   20.40    8.44
   3  -8  10    9.57    6.67
  -7  -7  10    7.75    5.13
  -7  -7  10    3.82    3.84
  -7  -7  10    7.55    5.10
  -6  -7  10    5.09    4.53
  -6  -7  10    4.38    4.76
  -6  -7  10    1.06    3.28
  -5  -7  10  187.30   12.78
  -5  -7  10  142.03   14.74
  -5  -7  10  158.46   13.82
  -4  -7  10   39.63    8.37
  -4  -7  10   24.02    5.89
  -4  -7  10   30.45    7.22
   3   7 -10  194.87   11.56
  -3  -7  10  173.37   14.90
  -3  -7  10  204.39   15.68
  -3  -7  10  193.58   13.43
  -3  -7  10  189.25    7.92
   2   7 -10    8.56    3.93
  -2  -7  10    4.54    4.94
  -2  -7  10    4.72    4.15
  -2  -7  10    1.28    2.35
  -2  -7  10    2.71    4.75
   1   7 -10   28.47    5.52
   1   7 -10   39.75    6.33
  -1  -7  10   26.68    6.71
  -1  -7  10   33.71    8.33
  -1  -7  10   28.28    7.93
   0   7 -10    1.57    3.06
   0  -7  10   -3.54    3.93
   0  -7  10   -0.65    1.28
   0  -7  10    1.31    3.89
   0  -7  10    1.23    4.47
  -1   7 -10   16.44    4.60
   1  -7  10   30.31    4.24
   1  -7  10   27.40    7.61
   1  -7  10   25.17    7.54
  -2   7 -10   54.77   10.53
  -2   7 -10   85.05    8.99
   2  -7  10   82.89   12.91
   2  -7  10   77.87    7.49
   2  -7  10   56.07   10.46
  -3   7 -10   47.83   10.61
  -3   7 -10   66.43    8.03
   3  -7  10   48.66    6.74
   3  -7  10   82.86   12.99
   3  -7  10   61.06   10.86
  -4   7 -10    3.54    6.17
  -4   7 -10    0.46    4.21
  -4   7 -10   -0.76    2.88
   4  -7  10   -1.34    5.45
   4  -7  10    5.08    3.55
   4  -7  10    9.12    6.69
  -5   7 -10   43.91    6.34
  -5   7 -10   34.02    7.47
  -5   7 -10   41.37   11.06
   5  -7  10   31.22    9.48
   5  -7  10   34.59    6.37
  -8  -6  10  163.24   13.75
  -8  -6  10  152.70   11.64
  -7  -6  10   25.29    6.35
  -7  -6  10    5.51    3.86
  -7  -6  10    9.81    5.08
  -6  -6  10  123.33   10.42
  -6  -6  10  168.98   13.50
  -6  -6  10  144.36   12.29
  -5  -6  10  449.48   22.06
  -5  -6  10  354.39   20.22
  -5  -6  10  322.88   17.97
  -4  -6  10   62.40    9.51
  -4  -6  10   42.44    6.63
  -4  -6  10   53.98    8.45
   3   6 -10  232.86   12.12
  -3  -6  10  252.88   16.71
  -3  -6  10  237.44   14.36
  -3  -6  10  216.27    9.42
  -3  -6  10  221.71   15.59
   2   6 -10   -2.29    2.35
  -2  -6  10    1.38    4.11
  -2  -6  10    2.56    3.49
  -2  -6  10    1.43    2.23
  -2  -6  10    9.92    5.02
   1   6 -10  986.61   35.74
  -1  -6  10 1010.76   41.34
  -1  -6  10  911.25   40.48
  -1  -6  10  997.01   38.52
  -1  -6  10  934.42   35.08
   0   6 -10   45.20    6.25
   0   6 -10   48.60    6.47
   0  -6  10   47.45    9.03
   0  -6  10   55.64    8.14
   0  -6  10   46.41    9.15
   0  -6  10   51.76    4.31
  -1   6 -10   16.85    6.18
  -1   6 -10   16.77    4.34
   1  -6  10   24.78    7.05
   1  -6  10   28.82    6.36
   1  -6  10    7.84    5.32
   1  -6  10   19.45    3.66
  -2   6 -10   57.78   10.05
  -2   6 -10   43.73    8.91
  -2   6 -10   41.27    6.22
   2  -6  10   46.91    9.33
   2  -6  10   48.20    5.90
   2  -6  10   50.54    9.76
  -3   6 -10   75.22    9.67
  -3   6 -10   74.74   11.82
  -3   6 -10   80.90    8.38
   3  -6  10   54.46    9.79
   3  -6  10   68.07    7.44
   3  -6  10   69.11   11.26
  -4   6 -10  301.52   21.59
  -4   6 -10  286.36   17.17
  -4   6 -10  289.25   14.74
   4  -6  10  285.91   15.27
   4  -6  10  258.13   19.61
   4  -6  10  307.24   21.39
  -5   6 -10   14.04    5.73
  -5   6 -10   17.69    7.95
  -5   6 -10   11.13    3.67
   5  -6  10   18.34    5.09
  -6   6 -10   12.99    3.50
  -6   6 -10   10.62    5.33
  -6   6 -10    6.51    7.17
   6  -6  10   18.13    5.34
  -8  -5  10  233.16   14.49
  -8  -5  10  291.36   17.63
  -7  -5  10   18.26    5.77
  -7  -5  10   26.24    5.36
  -6  -5  10   52.62    7.96
  -6  -5  10   56.11    7.24
  -6  -5  10   41.67    7.66
  -5  -5  10   83.65   10.16
  -5  -5  10   84.87    8.71
  -5  -5  10   90.52    9.97
   4   5 -10    4.52    3.14
  -4  -5  10    5.89    3.95
  -4  -5  10   -1.13    3.49
  -4  -5  10   -1.35    2.45
   3   5 -10 1015.50   34.15
  -3  -5  10  859.54   38.36
  -3  -5  10  971.82   31.84
  -3  -5  10  994.46   38.72
  -3  -5  10  912.32   36.12
   2   5 -10  137.64    8.72
  -2  -5  10  130.32   10.22
  -2  -5  10  134.66   11.55
  -2  -5  10  136.81   12.05
  -2  -5  10  125.29    7.96
   1   5 -10  473.16   20.58
  -1  -5  10  511.60   25.06
  -1  -5  10  554.59   25.56
  -1  -5  10  493.35   20.63
  -1  -5  10  496.30   22.86
   0   5 -10   78.77    7.71
   0   5 -10   78.47    9.88
   0  -5  10   91.12    9.70
   0  -5  10   81.44    5.39
   0  -5  10   85.06   11.00
   0  -5  10   71.51   10.01
  -1   5 -10  135.48   11.66
  -1   5 -10  121.38   12.90
  -1   5 -10   97.14    8.65
   1  -5  10  105.30    7.30
   1  -5  10  131.08   11.59
   1  -5  10  127.69   13.73
   1  -5  10  118.80   13.30
  -2   5 -10  123.45   13.88
  -2   5 -10  115.33    8.64
  -2   5 -10  117.44   11.14
   2  -5  10  109.46   13.25
   2  -5  10  111.09    7.92
  -3   5 -10    2.01    4.55
  -3   5 -10   -1.60    2.50
  -3   5 -10    4.28    3.74
   3  -5  10   -1.85    4.18
   3  -5  10   -0.14    2.41
  -4   5 -10  291.84   16.51
  -4   5 -10  291.48   14.34
  -4   5 -10  292.43   20.42
   4  -5  10  313.59   20.24
   4  -5  10  270.94   14.89
  -5   5 -10   49.09    6.02
  -5   5 -10   65.60   11.99
  -5   5 -10   50.48    7.65
   5  -5  10   49.63    6.99
   5  -5  10   40.44    9.14
  -6   5 -10   24.32    8.40
  -6   5 -10    8.09    2.83
  -6   5 -10   20.63    5.95
   6  -5  10   12.08    4.75
  -7   5 -10    3.20    6.41
  -7   5 -10   -2.70    3.44
   7  -5  10    1.25    3.83
  -8  -4  10  338.76   18.16
  -8  -4  10  400.20   21.25
  -7  -4  10   15.47    4.49
  -7  -4  10   13.95    5.45
  -6  -4  10   68.06    7.71
  -6  -4  10   68.14    9.39
  -6  -4  10   80.68    8.70
  -5  -4  10  371.35   17.68
  -5  -4  10  348.14   16.96
  -5  -4  10  308.73   18.28
   4   4 -10   60.88    5.89
  -4  -4  10   38.69    6.05
  -4  -4  10   59.44    7.96
  -4  -4  10   50.10    8.19
   3   4 -10   46.03    5.33
  -3  -4  10   44.48    4.33
  -3  -4  10   52.26    8.11
  -3  -4  10   36.37    5.75
  -3  -4  10   36.62    6.45
   2   4 -10  319.32   14.71
  -2  -4  10  327.64   17.87
  -2  -4  10  313.50   14.24
  -2  -4  10  324.86   16.51
  -2  -4  10  394.01   19.56
   1   4 -10  203.78   10.62
   1   4 -10  182.69   12.59
  -1  -4  10  189.90   11.90
  -1  -4  10  157.80   13.00
  -1  -4  10  204.74   10.77
  -1  -4  10  195.15   13.22
  -1  -4  10  189.68    7.11
  -1  -4  10  190.83    7.12
   0   4 -10    0.05    2.81
   0   4 -10    2.40    3.54
   0   4 -10    2.91    2.60
   0  -4  10    2.94    2.58
   0  -4  10    0.06    3.29
   0  -4  10    4.13    3.44
   0  -4  10   -0.63    1.71
   0  -4  10    1.79    3.75
  -1   4 -10  186.53   10.57
  -1   4 -10  196.72   11.94
  -1   4 -10  198.27   10.83
  -1   4 -10  191.17   13.76
   1  -4  10  181.62   12.08
   1  -4  10  203.26   14.33
   1  -4  10  177.72    9.64
  -2   4 -10  331.56   16.69
  -2   4 -10  316.45   14.89
  -2   4 -10  330.33   19.43
   2  -4  10  317.07   14.71
   2  -4  10  347.96   19.97
   2  -4  10  317.37   17.02
  -3   4 -10   26.14    5.12
  -3   4 -10   24.49    4.38
  -3   4 -10   25.58    6.82
   3  -4  10   14.54    3.82
   3  -4  10   22.71    6.65
  -4   4 -10  331.01   15.20
  -4   4 -10  307.48   16.95
  -4   4 -10  356.55   21.38
   4  -4  10  332.83   20.48
   4  -4  10  370.62   16.70
  -5   4 -10    4.62    5.58
  -5   4 -10   13.30    3.36
  -5   4 -10   16.00    4.95
   5  -4  10    3.07    4.67
   5  -4  10   10.59    4.03
  -6   4 -10   42.26    4.31
  -6   4 -10   47.60    9.77
  -6   4 -10   45.05    7.25
   6  -4  10   42.95    6.83
  -7   4 -10   30.07    9.25
  -7   4 -10   27.01    5.87
   7  -4  10   20.56    5.31
  -8   4 -10   -1.72    5.85
  -8   4 -10   -1.78    2.93
   8  -4  10   -2.37    3.73
  -9  -3  10    6.63    5.06
  -8  -3  10   31.26    6.09
  -8  -3  10   46.11    8.18
  -7  -3  10    1.61    3.07
  -7  -3  10    1.37    3.89
  -6  -3  10   33.86    6.81
  -6  -3  10   37.28    5.95
  -5  -3  10    0.15    2.41
  -5  -3  10   -2.11    3.03
  -5  -3  10   -1.97    2.52
   4   3 -10   25.87    4.01
  -4  -3  10   24.69    4.94
  -4  -3  10   27.95    5.18
  -4  -3  10   27.00    5.94
   3   3 -10   54.45    5.51
  -3  -3  10   40.81    5.92
  -3  -3  10   67.20    9.01
  -3  -3  10   48.87    6.72
  -3  -3  10   55.15    4.82
   2   3 -10   86.96    7.94
   2   3 -10   78.85    6.72
  -2  -3  10   85.48    6.37
  -2  -3  10   83.56    8.88
  -2  -3  10   92.12    9.97
  -2  -3  10   98.09    9.06
   1   3 -10 1030.51   37.77
   1   3 -10 1046.98   36.34
   1   3 -10 1010.68   39.37
  -1  -3  10 1045.61   34.96
  -1  -3  10 1071.90   38.53
  -1  -3  10 1052.33   33.59
  -1  -3  10 1040.67   39.58
  -1  -3  10 1060.07   36.74
  -1  -3  10 1008.65   40.65
   0   3 -10   89.85    9.97
   0   3 -10   93.48    8.57
   0   3 -10   87.00    6.72
   0  -3  10   72.74    7.92
   0  -3  10   91.75    5.81
   0  -3  10  101.32   10.82
   0  -3  10   76.97    7.24
  -1   3 -10   20.82    3.99
  -1   3 -10   19.60    5.37
  -1   3 -10   32.72    5.55
   1  -3  10   36.38    6.86
   1  -3  10   17.98    3.40
   1  -3  10   27.07    5.10
  -2   3 -10  170.37    9.63
  -2   3 -10  173.69   11.01
  -2   3 -10  157.72   12.55
   2  -3  10  166.00    9.43
   2  -3  10  177.73   11.31
   2  -3  10  160.38   12.69
  -3   3 -10  195.03   10.39
  -3   3 -10  193.28   11.93
  -3   3 -10  200.14   14.73
   3  -3  10  193.13   10.86
   3  -3  10  205.76   14.38
  -4   3 -10   37.67    4.81
  -4   3 -10   32.04    5.70
  -4   3 -10   31.40    7.57
   4  -3  10   29.50    7.06
   4  -3  10   33.91    5.13
  -5   3 -10    1.53    2.13
  -5   3 -10    4.84    3.33
  -5   3 -10    2.77    4.68
   5  -3  10    6.83    4.69
   5  -3  10    0.52    2.94
  -6   3 -10   97.49    5.08
  -6   3 -10   87.58   12.23
  -6   3 -10  104.59    9.86
   6  -3  10   90.24    9.12
  -7   3 -10   80.36   12.52
  -7   3 -10   75.35    8.17
   7  -3  10   75.75    8.55
  -8   3 -10   19.36    4.53
  -8   3 -10   14.82    7.17
   8  -3  10   27.79    6.04
  -9  -2  10   74.49   10.71
  -8  -2  10  323.07   17.99
  -8  -2  10  400.90   21.70
  -7  -2  10  147.15   12.45
  -7  -2  10  126.80   10.54
  -6  -2  10  202.45   12.47
  -6  -2  10  198.54   14.17
   5   2 -10    0.67    2.30
  -5  -2  10    6.21    3.95
  -5  -2  10    1.37    2.88
  -5  -2  10   -0.02    2.10
   4   2 -10  396.42   16.74
  -4  -2  10  439.28   21.29
  -4  -2  10  410.08   17.37
  -4  -2  10  409.45   18.84
   3   2 -10   39.70    4.80
  -3  -2  10   30.27    4.87
  -3  -2  10   24.42    3.53
  -3  -2  10   24.30    5.67
  -3  -2  10   21.91    4.50
   2   2 -10   77.62    8.31
   2   2 -10   90.73    7.94
   2   2 -10   79.91    5.98
  -2  -2  10   53.61    8.03
  -2  -2  10   71.84    7.51
  -2  -2  10   65.53    6.83
  -2  -2  10   61.18    5.96
   1   2 -10  369.67   16.54
   1   2 -10  374.14   15.41
   1   2 -10  357.19   18.06
  -1  -2  10  353.98   16.89
  -1  -2  10  371.72   13.64
  -1  -2  10  375.86   19.05
  -1  -2  10  371.46   15.81
   0   2 -10   -1.54    2.75
   0   2 -10    4.42    2.21
   0   2 -10    1.50    2.56
   0  -2  10    1.39    2.97
   0  -2  10    1.13    1.85
   0  -2  10    1.26    2.01
   0  -2  10    2.89    2.66
  -1   2 -10   17.90    4.99
  -1   2 -10   10.61    3.61
  -1   2 -10   17.51    3.40
   1  -2  10   18.64    4.42
   1  -2  10   11.10    4.48
   1  -2  10   17.23    3.11
  -2   2 -10  373.54   19.20
  -2   2 -10  334.13   14.70
  -2   2 -10  332.18   14.62
  -2   2 -10  330.14   15.92
   2  -2  10  354.21   14.91
   2  -2  10  332.17   16.22
   2  -2  10  339.68   17.98
  -3   2 -10   33.08    7.08
  -3   2 -10   40.95    5.85
  -3   2 -10   38.22    4.60
   3  -2  10   27.73    4.41
   3  -2  10   31.23    6.24
   3  -2  10   29.43    5.33
  -4   2 -10    4.37    4.49
  -4   2 -10    7.09    2.44
  -4   2 -10    9.30    3.38
   4  -2  10    8.89    3.27
   4  -2  10    6.94    4.21
  -5   2 -10  162.41   10.48
  -5   2 -10  161.11   13.69
  -5   2 -10  164.94    7.92
   5  -2  10  170.43   10.38
   5  -2  10  164.92   12.75
  -6   2 -10  262.03   18.19
  -6   2 -10  260.62   13.53
   6  -2  10  247.82   13.64
  -7   2 -10    3.61    3.80
  -7   2 -10    6.07    3.09
  -7   2 -10    3.23    5.25
   7  -2  10    6.52    3.66
  -8   2 -10   95.59   13.58
  -8   2 -10  103.00    7.57
  -8   2 -10   89.62    7.19
   8  -2  10   93.79    9.54
  -9   2 -10   22.80    3.28
  -9   2 -10   23.67    3.32
  -9   2 -10   22.65    8.08
   9  -2  10   27.15    6.00
  -8  -1  10    3.05    4.63
  -8  -1  10    6.57    4.40
  -7  -1  10   79.85    9.22
  -7  -1  10   92.90   11.33
  -6  -1  10   20.27    6.11
  -6  -1  10   15.34    4.48
   5   1 -10   84.48    7.29
  -5  -1  10   83.70   10.00
  -5  -1  10   99.90    9.22
   4   1 -10  971.18   34.16
  -4  -1  10  948.46   38.52
  -4  -1  10 1009.52   36.54
  -4  -1  10  969.46   33.08
   3   1 -10  202.18   11.98
   3   1 -10  190.36   10.16
  -3  -1  10  210.28   10.32
  -3  -1  10  213.45   12.02
  -3  -1  10  214.44   10.13
  -3  -1  10  207.55   13.50
   2   1 -10  462.35   21.27
   2   1 -10  497.00   19.03
   2   1 -10  496.01   20.40
  -2  -1  10  473.90   15.78
  -2  -1  10  470.25   19.07
  -2  -1  10  484.31   19.73
  -2  -1  10  542.01   23.66
  -2  -1  10  466.72   15.75
  -2  -1  10  512.69   20.96
   1   1 -10  679.21   25.20
   1   1 -10  707.36   28.61
   1   1 -10  689.57   26.61
  -1  -1  10  689.46   27.11
  -1  -1  10  716.54   26.06
  -1  -1  10  702.63   23.89
  -1  -1  10  677.57   29.04
   0   1 -10  168.32   11.46
   0   1 -10  158.79    8.68
   0   1 -10  152.48    9.49
   0  -1  10  163.46    8.16
   0  -1  10  151.13    9.68
   0  -1  10  163.66   11.42
  -1   1 -10    0.18    2.36
  -1   1 -10   -1.88    1.45
  -1   1 -10    3.15    3.22
   1  -1  10    2.66    3.15
   1  -1  10   -1.70    1.94
   1  -1  10   -0.20    1.66
  -2   1 -10  705.34   27.04
  -2   1 -10  675.38   29.66
  -2   1 -10  695.21   25.64
   2  -1  10  714.94   27.71
   2  -1  10  753.46   30.11
   2  -1  10  705.93   25.79
  -3   1 -10 1032.10   36.03
  -3   1 -10  960.05   39.09
  -3   1 -10  999.57   33.95
   3  -1  10 1026.66   37.84
   3  -1  10  980.67   34.80
   3  -1  10  965.38   38.38
  -4   1 -10  139.28   11.69
  -4   1 -10  135.13    7.13
  -4   1 -10  136.91    8.68
  -4   1 -10  125.87    8.75
   4  -1  10  122.26   10.34
   4  -1  10  120.49    8.01
  -5   1 -10   92.64    7.32
  -5   1 -10   96.67    8.51
  -5   1 -10   95.32    4.86
  -5   1 -10   84.53   10.92
   5  -1  10  100.97    7.52
   5  -1  10   96.30   10.62
  -6   1 -10  385.60   16.85
  -6   1 -10  362.30   21.43
  -6   1 -10  402.12   17.12
   6  -1  10  396.64   17.38
  -7   1 -10   77.63   11.84
  -7   1 -10   56.03    6.01
  -7   1 -10   60.60    5.98
   7  -1  10   50.24    6.42
  -8   1 -10   52.04    5.04
  -8   1 -10   55.56   10.20
  -8   1 -10   56.07    5.14
   8  -1  10   65.66    7.63
  -9   1 -10   22.41    7.76
   9  -1  10   25.66    5.85
 -10   1 -10   15.69    7.21
  -8   0  10    3.09    4.06
  -8   0  10    2.86    4.85
  -7   0  10  392.46   22.25
  -7   0  10  363.63   19.25
   6   0 -10  217.89   11.54
  -6   0  10  194.20   12.87
  -6   0  10  188.78   14.60
   5   0 -10  628.03   24.17
  -5   0  10  625.04   28.83
  -5   0  10  630.53   26.38
   4   0 -10  244.84   12.16
  -4   0  10  265.52   14.17
  -4   0  10  246.36   15.58
   3   0 -10  405.00   16.58
   3   0 -10  409.12   18.97
  -3   0  10  391.90   18.14
  -3   0  10  394.80   20.26
  -3   0  10  381.53   14.90
   2   0 -10  523.93   21.27
   2   0 -10  508.42   19.78
   2   0 -10  511.52   22.64
  -2   0  10  487.96   19.91
  -2   0  10  518.34   17.58
  -2   0  10  510.61   21.47
  -2   0  10  501.99   23.35
   1   0 -10  182.27   11.71
   1   0 -10  159.70    8.96
   1   0 -10  171.47   10.15
  -1   0  10  175.13   10.50
  -1   0  10  180.67   12.26
  -1   0  10  168.23    9.53
  -1   0  10  182.96    8.35
   0   0 -10   30.31    4.09
   0   0 -10   22.38    5.00
   0   0 -10   25.28    4.11
   0   0  10   22.81    3.27
   0   0  10   27.46    5.53
   0   0  10   33.96    5.13
  -1   0 -10  280.65   13.44
  -1   0 -10  273.58   15.40
  -1   0 -10  290.75   12.45
   1   0  10  266.57   13.62
   1   0  10  288.94   15.61
   1   0  10  282.50   12.26
  -2   0 -10  230.37   12.12
  -2   0 -10  241.11   11.01
  -2   0 -10  248.61   14.63
   2   0  10  256.52   12.69
   2   0  10  229.23   13.87
   2   0  10  249.22   11.33
  -3   0 -10  397.78   15.24
  -3   0 -10  394.98   16.96
  -3   0 -10  385.01   16.64
  -3   0 -10  384.45   19.82
   3   0  10  384.21   16.10
   3   0  10  403.92   19.22
  -4   0 -10  313.07   12.09
  -4   0 -10  314.40   17.61
  -4   0 -10  312.22   14.39
  -4   0 -10  330.21   14.42
   4   0  10  296.62   13.73
   4   0  10  318.36   16.64
  -5   0 -10  220.00   11.18
  -5   0 -10  211.16   10.95
  -5   0 -10  245.67   15.34
   5   0  10  202.34   13.09
   5   0  10  219.07   11.11
  -6   0 -10  117.11    7.33
  -6   0 -10   84.74   10.65
  -6   0 -10  100.49    7.05
   6   0  10  107.45    7.60
  -7   0 -10   54.20    5.07
  -7   0 -10   54.90    5.18
  -7   0 -10   47.60    8.56
   7   0  10   51.05    5.98
  -8   0 -10   20.91    6.87
   8   0  10   12.04    3.86
  -9   0 -10  286.81   19.82
 -10   0 -10   94.65   13.27
  -8   1  10  103.44   13.73
  -8   1  10  128.92   12.91
  -7   1  10   10.12    4.94
  -7   1  10   10.72    5.67
   6  -1 -10    6.40    3.32
  -6   1  10   12.91    4.61
  -6   1  10    1.92    4.30
   5  -1 -10  274.18   13.43
  -5   1  10  267.00   15.27
  -5   1  10  262.22   17.21
   4  -1 -10   18.62    4.06
  -4   1  10   22.26    5.93
  -4   1  10   22.01    5.18
   3  -1 -10 1236.02   42.67
   3  -1 -10 1229.87   45.81
  -3   1  10 1248.11   44.87
  -3   1  10 1263.07   47.58
   2  -1 -10   31.48    4.48
   2  -1 -10   42.96    6.78
   2  -1 -10   36.55    5.25
  -2   1  10   52.73    6.44
  -2   1  10   51.10    7.79
  -2   1  10   46.16    5.34
  -2   1  10   46.80    4.04
  -2   1  10   42.23    5.27
   1  -1 -10 2509.04   80.10
   1  -1 -10 2418.98   78.39
   1  -1 -10 2498.09   82.71
  -1   1  10 2385.82   80.28
  -1   1  10 2445.86   79.54
  -1   1  10 2369.40   79.16
  -1   1  10 2476.35   83.02
  -1   1  10 2439.88   77.44
   0  -1 -10  293.46   13.78
   0  -1 -10  280.58   12.59
   0  -1 -10  288.53   15.83
   0   1  10  298.32   16.07
   0   1  10  273.30   13.58
   0   1  10  292.92   12.43
  -1  -1 -10  186.47    9.27
  -1  -1 -10  179.29   12.02
  -1  -1 -10  184.00   10.26
   1   1  10  171.39   10.23
   1   1  10  184.96    9.20
   1   1  10  190.27   10.39
   1   1  10  187.25   12.15
  -2  -1 -10  382.96   15.11
  -2  -1 -10  372.61   16.45
  -2  -1 -10  386.90   19.12
   2   1  10  392.25   15.61
   2   1  10  384.54   16.76
   2   1  10  381.89   16.77
   2   1  10  373.59   18.52
  -3  -1 -10  126.01   10.23
  -3  -1 -10  133.92    8.15
  -3  -1 -10  124.97    6.50
  -3  -1 -10  105.35    7.48
   3   1  10  113.60    7.23
   3   1  10  116.69    9.34
  -4  -1 -10   13.05    1.86
  -4  -1 -10   14.06    1.94
  -4  -1 -10   10.76    3.20
  -4  -1 -10    3.25    3.73
  -4  -1 -10    9.26    2.71
   4   1  10   12.41    3.13
   4   1  10   11.98    4.20
  -5  -1 -10  377.57   19.84
  -5  -1 -10  368.57   15.33
  -5  -1 -10  371.61   17.43
  -5  -1 -10  360.53   15.43
   5   1  10  384.58   18.15
   5   1  10  379.52   15.69
  -6  -1 -10   32.89    6.73
  -6  -1 -10   31.54    3.98
  -6  -1 -10   37.16    4.21
   6   1  10   31.21    4.38
  -7  -1 -10 1347.50   43.38
  -7  -1 -10 1345.27   43.34
  -7  -1 -10 1402.75   52.16
   7   1  10 1338.36   46.19
  -8  -1 -10   31.68    7.24
  -9  -1 -10   -2.71    4.22
 -10  -1 -10  113.65   13.47
  -8   2  10   90.56   13.28
  -8   2  10   88.17   11.37
   7  -2 -10    6.56    3.66
  -7   2  10    2.51    4.16
  -7   2  10    3.19    5.04
   6  -2 -10   18.58    4.46
  -6   2  10   12.94    5.70
  -6   2  10    6.43    4.32
   5  -2 -10   71.36    7.51
  -5   2  10   77.56    9.14
  -5   2  10   68.43   10.26
   4  -2 -10  204.66   11.44
  -4   2  10  212.58   15.36
  -4   2  10  214.91   11.47
  -4   2  10  207.16   13.14
   3  -2 -10  566.58   22.06
   3  -2 -10  534.61   24.85
  -3   2  10  548.35   18.90
  -3   2  10  542.36   26.06
  -3   2  10  558.02   23.77
  -3   2  10  543.99   22.17
   2  -2 -10  167.92   10.41
   2  -2 -10  163.60   11.72
   2  -2 -10  159.09    9.25
  -2   2  10  157.48    7.94
  -2   2  10  157.99    9.60
  -2   2  10  149.39   10.36
  -2   2  10  160.97   12.23
  -2   2  10  161.30    9.86
   1  -2 -10  548.26   20.86
   1  -2 -10  513.79   21.87
   1  -2 -10  516.75   24.08
  -1   2  10  544.01   21.71
  -1   2  10  526.78   19.91
  -1   2  10  537.23   24.53
  -1   2  10  552.96   22.72
   0  -2 -10    3.92    2.63
   0  -2 -10    3.20    1.97
   0  -2 -10    8.30    3.83
   0   2  10    8.70    3.11
   0   2  10    2.59    1.90
   0   2  10    4.75    3.55
   0   2  10    3.97    2.63
  -1  -2 -10   11.78    2.64
  -1  -2 -10    6.53    2.81
  -1  -2 -10   11.28    4.07
   1   2  10    8.49    3.69
   1   2  10    9.20    3.12
   1   2  10    7.46    2.75
   1   2  10    9.10    2.55
  -2  -2 -10   19.98    3.83
  -2  -2 -10   22.52    3.19
  -2  -2 -10   15.71    4.55
  -2  -2 -10   23.47    4.04
   2   2  10   20.27    3.31
   2   2  10   20.60    3.82
   2   2  10   10.98    3.65
  -3  -2 -10  113.67    7.40
  -3  -2 -10  115.87    6.04
  -3  -2 -10  126.69    7.96
  -3  -2 -10  131.99   10.29
   3   2  10  123.10    9.44
   3   2  10  128.96    7.48
   3   2  10  116.88    8.11
  -4  -2 -10   38.51    6.57
  -4  -2 -10   35.12    4.40
  -4  -2 -10   40.22    4.70
  -4  -2 -10   41.61    5.65
   4   2  10   40.53    5.32
   4   2  10   39.84    4.54
   4   2  10   46.82    6.58
  -5  -2 -10  704.42   25.12
  -5  -2 -10  728.72   25.13
  -5  -2 -10  704.06   27.55
  -5  -2 -10  712.72   30.16
   5   2  10  664.68   25.31
   5   2  10  705.14   27.71
  -6  -2 -10   16.55    5.31
  -6  -2 -10   21.95    2.91
  -6  -2 -10   16.98    2.62
  -6  -2 -10   26.10    4.77
   6   2  10   25.22    3.88
  -7  -2 -10  114.20   11.99
   7   2  10  107.23    7.37
  -8  -2 -10  475.67   24.20
  -9  -2 -10   10.50    5.41
 -10  -2 -10    8.65    5.33
   7  -3 -10   15.07    5.13
  -7   3  10   14.30    5.59
  -7   3  10   16.75    7.11
   6  -3 -10   57.08    7.45
  -6   3  10   48.06    9.54
  -6   3  10   58.03    6.26
  -6   3  10   80.42   10.01
   5  -3 -10   82.73    8.24
  -5   3  10   60.27    8.31
  -5   3  10   84.75    7.95
  -5   3  10   68.33   10.57
   4  -3 -10    6.19    3.44
  -4   3  10    2.68    2.97
  -4   3  10    4.11    3.42
  -4   3  10    0.99    4.18
   3  -3 -10 1680.50   61.94
   3  -3 -10 1695.21   58.13
  -3   3  10 1759.07   60.65
  -3   3  10 1739.45   58.70
  -3   3  10 1729.98   55.44
  -3   3  10 1743.13   63.72
   2  -3 -10  140.13    8.86
   2  -3 -10  116.35    9.14
   2  -3 -10  136.31   11.10
  -2   3  10  127.69   11.38
  -2   3  10  132.72    9.81
  -2   3  10  125.36    9.12
  -2   3  10  128.56    7.54
   1  -3 -10  713.30   26.75
   1  -3 -10  716.89   28.25
   1  -3 -10  740.32   31.00
  -1   3  10  706.00   28.52
  -1   3  10  746.71   28.09
  -1   3  10  733.08   26.35
  -1   3  10  731.43   31.03
   0  -3 -10    1.53    3.54
   0  -3 -10    4.61    2.59
   0  -3 -10    4.02    2.81
   0   3  10    2.22    2.10
   0   3  10    6.47    3.15
   0   3  10    0.30    2.52
   0   3  10    4.91    3.43
  -1  -3 -10  344.88   18.32
  -1  -3 -10  356.68   14.47
  -1  -3 -10  369.92   16.19
   1   3  10  371.47   16.15
   1   3  10  346.14   16.14
   1   3  10  357.54   18.13
   1   3  10  344.65   14.92
  -2  -3 -10   10.46    2.35
  -2  -3 -10    3.26    2.50
  -2  -3 -10   11.92    3.05
  -2  -3 -10    5.28    3.44
   2   3  10   14.94    3.56
   2   3  10   10.42    3.89
   2   3  10    9.18    2.72
  -3  -3 -10  176.20    7.39
  -3  -3 -10  173.96   12.20
  -3  -3 -10  169.25    9.56
  -3  -3 -10  174.40    7.40
  -3  -3 -10  177.10    9.42
   3   3  10  176.55   10.14
   3   3  10  183.23    9.17
   3   3  10  174.50   11.13
  -4  -3 -10   52.87    6.29
  -4  -3 -10   50.50    5.03
  -4  -3 -10   54.39    7.60
  -4  -3 -10   62.06    5.68
   4   3  10   64.84    5.66
   4   3  10   54.89    6.74
  -5  -3 -10   -1.54    2.03
  -5  -3 -10    1.62    1.73
  -5  -3 -10   -0.44    1.63
  -5  -3 -10    2.55    3.49
   5   3  10    4.00    2.05
  -6  -3 -10  114.93   10.49
  -6  -3 -10  127.32    5.34
  -6  -3 -10  141.86    9.48
  -6  -3 -10  131.97    5.42
   6   3  10  136.59    7.65
  -7  -3 -10 1602.81   55.45
  -7  -3 -10 1602.41   58.40
  -8  -3 -10  118.11   12.26
  -9  -3 -10   62.93    9.44
 -10  -3 -10    5.81    4.92
 -11  -3 -10   10.03    5.73
   7  -4 -10   36.16    6.74
  -7   4  10   47.97    9.54
  -7   4  10   54.44   10.82
   6  -4 -10    0.31    3.47
  -6   4  10   -0.68    5.15
  -6   4  10    4.33    3.22
  -6   4  10    7.53    5.15
   5  -4 -10   60.17    7.82
  -5   4  10   61.82    7.45
  -5   4  10   84.40   12.57
  -5   4  10   63.40    9.25
   4  -4 -10    3.10    3.44
  -4   4  10    8.20    4.41
  -4   4  10    3.60    3.42
  -4   4  10    8.65    5.65
  -4   4  10   10.22    2.15
   3  -4 -10  531.91   22.65
   3  -4 -10  550.96   26.64
  -3   4  10  566.76   23.60
  -3   4  10  552.27   27.62
  -3   4  10  530.05   24.54
  -3   4  10  558.48   20.62
   2  -4 -10  330.83   18.44
   2  -4 -10  276.92   15.54
   2  -4 -10  277.26   14.17
  -2   4  10  318.47   16.50
  -2   4  10  300.84   15.28
  -2   4  10  285.61   18.12
  -2   4  10  301.94   13.42
   1  -4 -10    9.21    4.46
   1  -4 -10    7.27    3.35
   1  -4 -10    4.64    2.70
  -1   4  10   10.08    3.57
  -1   4  10    6.99    3.80
  -1   4  10    3.38    2.40
  -1   4  10    6.46    4.25
   0  -4 -10  266.09   13.83
   0  -4 -10  278.93   12.35
   0  -4 -10  272.59   16.25
   0   4  10  244.10   12.13
   0   4  10  269.00   14.02
   0   4  10  259.93   13.55
   0   4  10  246.22   15.41
  -1  -4 -10  336.28   18.66
  -1  -4 -10  331.05   15.98
  -1  -4 -10  360.64   14.56
   1   4  10  373.70   18.60
   1   4  10  349.27   16.23
   1   4  10  357.72   16.53
   1   4  10  359.58   15.24
  -2  -4 -10  594.52   23.25
  -2  -4 -10  616.82   23.24
  -2  -4 -10  593.26   21.18
  -2  -4 -10  613.95   26.90
   2   4  10  591.81   23.72
   2   4  10  603.40   25.89
   2   4  10  570.72   22.44
  -3  -4 -10    2.75    2.21
  -3  -4 -10    3.82    1.20
  -3  -4 -10    0.87    3.21
  -3  -4 -10    2.27    1.16
  -3  -4 -10    0.45    2.01
   3   4  10    2.63    2.80
   3   4  10    8.04    2.58
   3   4  10    2.02    2.43
  -4  -4 -10   12.52    2.86
  -4  -4 -10    9.38    4.35
  -4  -4 -10   16.21    3.79
  -4  -4 -10    6.48    2.42
   4   4  10   13.20    3.99
   4   4  10    8.50    2.70
  -5  -4 -10   50.56    3.91
  -5  -4 -10   46.22    4.03
  -5  -4 -10   46.63    5.91
  -5  -4 -10   38.33    6.65
   5   4  10   35.00    4.34
  -6  -4 -10  282.22   14.10
  -6  -4 -10  247.69   15.37
   6   4  10  272.27   11.90
  -7  -4 -10  264.65   16.30
  -7  -4 -10  296.65   14.68
  -8  -4 -10  343.66   19.41
  -8  -4 -10  408.52   20.55
  -9  -4 -10  106.30   11.79
 -10  -4 -10   71.76   10.12
 -11  -4 -10  144.24   13.11
   6  -5 -10   63.21    8.41
  -6   5  10   55.76   11.46
  -6   5  10   51.04    7.02
   5  -5 -10   18.92    5.08
  -5   5  10   12.09    6.90
  -5   5  10   13.55    4.88
   4  -5 -10  112.80   10.21
  -4   5  10  109.15   10.55
  -4   5  10  111.62   13.93
  -4   5  10  122.74    6.85
   3  -5 -10  348.97   21.00
   3  -5 -10  349.10   16.98
  -3   5  10  344.65   15.08
  -3   5  10  368.39   18.01
  -3   5  10  350.01   21.51
   2  -5 -10  115.06    8.49
   2  -5 -10   91.65   11.51
   2  -5 -10   96.80    9.59
  -2   5  10   99.63    9.37
  -2   5  10   92.28    7.15
   1  -5 -10    0.65    3.71
   1  -5 -10    0.36    2.91
   1  -5 -10    1.55    2.37
  -1   5  10    1.26    2.93
  -1   5  10   -1.05    2.03
  -1   5  10    7.96    4.50
   0  -5 -10 1303.17   46.83
   0  -5 -10 1381.89   51.25
   0  -5 -10 1324.84   46.11
   0  -5 -10 1304.09   44.66
   0   5  10 1317.57   50.15
   0   5  10 1296.16   45.25
   0   5  10 1301.27   46.78
  -1  -5 -10  738.40   26.56
  -1  -5 -10  719.01   28.27
  -1  -5 -10  774.46   32.78
  -1  -5 -10  717.72   28.61
  -1  -5 -10  755.87   29.51
   1   5  10  747.82   27.68
   1   5  10  776.59   31.79
   1   5  10  735.32   28.89
  -2  -5 -10    4.37    1.79
  -2  -5 -10    2.46    2.37
  -2  -5 -10   -0.17    2.81
  -2  -5 -10    6.63    2.90
  -2  -5 -10    1.10    3.29
   2   5  10    2.13    2.66
   2   5  10    2.84    3.33
   2   5  10    4.10    2.50
  -3  -5 -10    4.05    3.45
  -3  -5 -10    2.48    2.17
  -3  -5 -10    1.78    3.66
  -3  -5 -10    0.59    2.27
   3   5  10   -0.67    1.92
   3   5  10    2.94    2.90
   3   5  10   -0.47    2.44
  -4  -5 -10  976.70   35.07
  -4  -5 -10  905.96   32.30
  -4  -5 -10  943.31   32.19
  -4  -5 -10  972.27   37.85
   4   5  10  898.62   32.63
  -5  -5 -10   37.57    5.47
  -5  -5 -10   32.67    3.08
  -5  -5 -10   29.03    6.13
  -5  -5 -10   27.82    2.94
   5   5  10   29.43    4.07
  -6  -5 -10   22.91    5.76
  -6  -5 -10   18.81    4.32
   6   5  10   25.00    3.84
  -7  -5 -10  256.28   13.66
  -7  -5 -10  256.37   15.62
  -8  -5 -10   19.49    5.48
  -8  -5 -10   10.53    3.68
  -9  -5 -10   37.69    7.23
 -10  -5 -10   16.56    5.67
 -11  -5 -10    9.69    4.85
   5  -6 -10  178.39   12.66
  -5   6  10  168.82   18.62
  -5   6  10  158.93   12.32
   4  -6 -10  155.68   11.69
  -4   6  10  162.97   12.35
  -4   6  10  154.74   17.76
  -4   6  10  167.40    9.08
   3  -6 -10   52.98    7.04
   3  -6 -10   59.21   10.60
  -3   6  10   38.89    6.82
  -3   6  10   50.73    9.84
  -3   6  10   59.64    6.31
   2  -6 -10   62.67    8.15
   2  -6 -10   47.31    6.46
   2  -6 -10   69.11   10.79
  -2   6  10   53.80    9.81
  -2   6  10   50.57    6.22
  -2   6  10   36.92    6.58
   1  -6 -10   10.63    5.61
   1  -6 -10    2.53    2.66
   1  -6 -10    9.78    4.22
   1  -6 -10    5.82    3.17
  -1   6  10    8.81    3.29
  -1   6  10    4.49    4.66
  -1   6  10    2.72    3.33
   0  -6 -10   -1.60    3.87
   0  -6 -10   -0.90    2.24
   0  -6 -10    2.26    3.16
   0  -6 -10    0.25    2.93
   0   6  10    2.51    2.70
   0   6  10    6.86    4.75
   0   6  10   -0.71    2.81
  -1  -6 -10  210.01   10.05
  -1  -6 -10  212.54   12.81
  -1  -6 -10  189.18   14.58
  -1  -6 -10  190.49   11.78
   1   6  10  199.10   11.27
   1   6  10  203.86   12.35
   1   6  10  211.69   14.20
  -2  -6 -10   15.99    5.54
  -2  -6 -10   23.04    4.62
  -2  -6 -10   14.16    2.49
  -2  -6 -10   12.37    4.55
  -2  -6 -10   16.92    3.78
   2   6  10   11.64    3.50
   2   6  10   13.39    4.75
  -3  -6 -10  190.62   13.69
  -3  -6 -10  163.67   12.40
  -3  -6 -10  183.06   10.06
  -3  -6 -10  170.76    9.72
   3   6  10  178.88   10.01
   3   6  10  192.61   12.54
  -4  -6 -10  508.67   24.96
  -4  -6 -10  526.18   19.61
  -4  -6 -10  529.96   19.90
  -4  -6 -10  510.46   25.08
   4   6  10  546.82   20.83
  -5  -6 -10  142.82   12.72
  -5  -6 -10  175.28    6.78
  -5  -6 -10  175.25   14.17
  -5  -6 -10  162.23    6.76
  -5  -6 -10  154.94   12.34
   5   6  10  167.54    9.11
  -6  -6 -10  148.70   15.15
  -6  -6 -10  148.08   10.13
  -6  -6 -10  141.24   11.62
  -7  -6 -10  398.77   18.51
  -7  -6 -10  370.45   19.91
  -8  -6 -10   12.10    5.01
  -8  -6 -10    9.71    4.91
  -9  -6 -10  114.06   10.75
 -10  -6 -10   78.35   10.07
   4  -7 -10  476.91   22.34
  -4   7  10  477.76   28.53
  -4   7  10  414.94   22.41
  -4   7  10  466.07   18.99
   3  -7 -10   14.90    6.76
   3  -7 -10   25.35    5.48
  -3   7  10   19.64    7.58
  -3   7  10   12.03    4.83
  -3   7  10   14.95    4.09
   2  -7 -10  135.94   12.93
   2  -7 -10  160.41   17.00
   2  -7 -10  131.14    9.78
  -2   7  10  139.29    9.61
  -2   7  10  114.88   11.32
  -2   7  10  110.51   14.01
   1  -7 -10  376.49   19.36
   1  -7 -10  330.55   16.92
   1  -7 -10  372.38   22.51
   1  -7 -10  352.56   16.64
  -1   7  10  370.63   17.29
  -1   7  10  389.95   22.54
  -1   7  10  365.62   19.17
   0  -7 -10  518.47   20.51
   0  -7 -10  500.27   22.51
   0  -7 -10  532.24   27.15
   0  -7 -10  532.67   23.42
   0   7  10  488.89   23.19
   0   7  10  514.31   21.95
   0   7  10  494.83   25.92
  -1  -7 -10   99.31    9.40
  -1  -7 -10  115.57   13.28
  -1  -7 -10  119.57    7.19
  -1  -7 -10  108.27    9.62
   1   7  10  116.00    8.72
   1   7  10  113.14   12.20
  -2  -7 -10    4.19    1.62
  -2  -7 -10   -2.06    3.35
  -2  -7 -10    2.52    4.23
  -2  -7 -10    7.67    3.59
   2   7  10    4.48    4.62
   2   7  10    5.92    3.05
  -3  -7 -10  291.36   17.24
  -3  -7 -10  300.44   18.33
  -3  -7 -10  296.23   13.91
  -3  -7 -10  281.07   13.44
   3   7  10  291.17   14.08
  -4  -7 -10    8.28    2.55
  -4  -7 -10    5.40    4.56
  -4  -7 -10    2.76    4.06
  -4  -7 -10   11.30    2.87
   4   7  10    7.58    3.13
  -5  -7 -10  445.28   23.65
  -5  -7 -10  432.89   22.59
   5   7  10  444.52   18.13
  -6  -7 -10  140.02   11.86
  -6  -7 -10  131.48   14.01
  -7  -7 -10   45.40    7.77
  -7  -7 -10   66.86   11.33
  -8  -7 -10  174.43   13.15
  -9  -7 -10    1.03    3.60
 -10  -7 -10   89.67   10.65
   3  -8 -10  205.58   13.59
  -3   8  10  217.71   12.50
  -3   8  10  231.57   19.79
  -3   8  10  202.81   15.13
   2  -8 -10    3.65    5.34
   2  -8 -10    4.08    3.47
   2  -8 -10    1.76    4.11
  -2   8  10   -1.28    3.79
  -2   8  10   -2.01    2.86
  -2   8  10    3.94    5.59
   1  -8 -10    8.49    3.82
   1  -8 -10    7.61    4.72
   1  -8 -10   22.50    7.46
  -1   8  10   19.39    4.99
  -1   8  10    8.36    6.23
   0  -8 -10  361.26   22.44
   0  -8 -10  358.01   18.46
   0  -8 -10  344.23   15.33
   0  -8 -10  338.27   18.20
   0   8  10  304.05   20.25
   0   8  10  338.29   16.97
  -1  -8 -10  117.59   11.63
  -1  -8 -10  108.81    6.75
  -1  -8 -10   96.61    9.90
  -1  -8 -10   99.03   12.81
   1   8  10   98.06    9.38
  -2  -8 -10  264.23   14.14
  -2  -8 -10  262.88   18.13
  -2  -8 -10  250.48   16.14
   2   8  10  244.38   13.62
  -3  -8 -10   52.05    9.28
  -3  -8 -10   64.02    6.47
  -3  -8 -10   51.26    6.05
  -3  -8 -10   47.56    8.30
   3   8  10   48.41    6.32
  -4  -8 -10  126.57    7.43
  -4  -8 -10  111.34    7.00
  -4  -8 -10  113.73   12.84
  -4  -8 -10  140.89   14.58
   4   8  10  116.12    8.52
  -5  -8 -10   35.17    7.59
  -5  -8 -10   30.38    7.43
   5   8  10   28.46    4.79
  -6  -8 -10    9.59    5.16
  -6  -8 -10    8.92    5.84
  -7  -8 -10   48.30    8.36
  -7  -8 -10   54.61   10.40
  -8  -8 -10   38.64    9.39
  -8  -8 -10   40.18    7.71
  -9  -8 -10   56.03    8.69
 -10  -8 -10    2.73    4.07
   2  -9 -10   10.77    4.09
   2  -9 -10   18.24    8.29
   2  -9 -10   12.67    5.66
  -2   9  10    5.44    6.79
  -2   9  10   17.78    4.94
   1  -9 -10  121.86   15.44
   1  -9 -10  114.74    9.70
   1  -9 -10  113.18   12.15
  -1   9  10   88.11    9.89
   0  -9 -10    7.54    4.51
   0  -9 -10    5.13    2.87
   0  -9 -10    7.95    4.67
   0  -9 -10    9.48    6.32
   0   9  10    8.55    4.01
  -1  -9 -10    6.18    4.31
  -1  -9 -10   11.09    6.73
  -1  -9 -10    6.14    4.55
  -1  -9 -10    2.66    2.16
   1   9  10   12.02    4.44
  -2  -9 -10    5.79    5.71
  -2  -9 -10    1.63    3.40
  -2  -9 -10   -1.64    3.80
   2   9  10    0.17    3.22
  -3  -9 -10  164.03   15.09
  -3  -9 -10  149.29    9.78
  -3  -9 -10  135.87   14.51
  -3  -9 -10  161.00    9.89
   3   9  10  131.51   10.15
  -4  -9 -10   -1.26    1.73
  -4  -9 -10    1.77    4.34
  -4  -9 -10   -3.26    4.19
  -4  -9 -10    4.45    2.34
   4   9  10    6.77    3.76
  -5  -9 -10   -4.10    3.85
  -5  -9 -10   -1.54    4.54
   5   9  10    2.32    3.20
  -6  -9 -10   96.49   11.65
  -6  -9 -10  100.43   13.24
  -7  -9 -10    0.71    4.12
  -7  -9 -10    5.71    5.76
  -8  -9 -10   -3.08    5.01
  -8  -9 -10    4.42    4.46
  -9  -9 -10   42.64    8.01
  -9  -9 -10   50.39   11.30
   1 -10 -10   37.71   10.41
   1 -10 -10   56.12    9.19
  -1  10  10   44.17    7.48
   0 -10 -10  138.06   17.29
   0 -10 -10  140.54    8.52
   0 -10 -10  132.39   13.03
   0  10  10  128.29   11.95
  -1 -10 -10   31.21    6.83
  -1 -10 -10   25.39    8.37
  -1 -10 -10   25.53    7.15
   1  10  10   28.38    6.19
  -2 -10 -10  120.45   15.36
  -2 -10 -10  105.34   10.29
  -2 -10 -10  138.15   14.52
   2  10  10  108.45   10.94
  -3 -10 -10   53.60   10.78
  -3 -10 -10   44.74    6.03
  -3 -10 -10   61.92   10.08
   3  10  10   59.65    7.86
  -4 -10 -10  186.24    9.29
  -4 -10 -10  192.11   16.19
  -4 -10 -10  177.14    9.13
  -4 -10 -10  185.58   16.70
   4  10  10  188.86   12.32
  -5 -10 -10   20.32    7.94
  -5 -10 -10   16.78    7.01
  -6 -10 -10   96.53   13.76
  -6 -10 -10  111.77   13.44
  -7 -10 -10  115.73   15.04
  -7 -10 -10  159.60   14.08
  -8 -10 -10   95.54   15.13
  -8 -10 -10  121.35   13.77
  -2 -11 -10    5.02    5.60
  -2 -11 -10    1.70    6.24
  -2 -11 -10    7.57    4.06
   2  11  10    0.55    3.49
  -3 -11 -10   16.16    7.52
  -3 -11 -10   18.64    8.06
  -3 -11 -10   17.31    4.23
   3  11  10   11.69    5.20
  -4 -11 -10   13.38    2.90
  -4 -11 -10   17.97    3.12
  -4 -11 -10   18.30    7.07
  -4 -11 -10   15.31    7.52
   4  11  10   15.75    5.43
  -5 -11 -10   20.77    7.77
  -5 -11 -10   16.61    7.48
  -6 -11 -10   40.30   10.09
  -6 -11 -10   40.62    9.35
  -4  -9  11   80.13   13.35
   3   9 -11    9.37    4.67
  -3  -9  11    7.09    6.11
  -3  -9  11   15.75    6.58
  -3  -9  11    1.52    5.70
   2   9 -11   -0.65    3.76
   2   9 -11   -1.25    3.23
  -2  -9  11   -3.60    2.03
  -2  -9  11   -2.70    4.80
  -2  -9  11    1.99    6.11
  -2  -9  11    6.33    5.33
   1   9 -11   86.47    9.87
  -1  -9  11   83.44   13.74
  -1  -9  11   57.98   11.94
   0   9 -11   50.34    7.91
   0  -9  11   36.03    9.92
   0  -9  11   50.17   11.40
  -5  -8  11  107.62   13.89
  -5  -8  11  121.14   14.02
  -5  -8  11   84.38   10.54
  -4  -8  11  314.10   20.94
  -4  -8  11  309.15   18.44
  -4  -8  11  300.01   20.75
   3   8 -11  573.46   24.67
  -3  -8  11  567.77   27.53
  -3  -8  11  557.08   30.41
  -3  -8  11  548.75   29.98
   2   8 -11    0.66    3.30
  -2  -8  11    3.02    5.37
  -2  -8  11    5.26    4.96
  -2  -8  11    1.41    5.45
  -2  -8  11    5.25    2.93
   1   8 -11   27.46    5.83
  -1  -8  11    8.30    6.23
  -1  -8  11   28.43    7.28
  -1  -8  11   28.01    8.86
   0   8 -11  313.94   17.20
   0  -8  11  334.82   22.84
   0  -8  11  326.31   23.05
  -1   8 -11   26.92    6.03
   1  -8  11   31.48    9.00
   1  -8  11   34.16    3.98
   1  -8  11   18.80    8.50
  -2   8 -11    3.68    3.78
   2  -8  11   -4.03    2.22
   2  -8  11    6.83    6.98
   2  -8  11   -5.07    4.66
  -3   8 -11   -0.55    3.55
   3  -8  11    3.67    6.01
   3  -8  11   -1.52    5.78
   3  -8  11   -2.42    2.82
  -6  -7  11   74.96   11.00
  -6  -7  11   88.19   10.17
  -6  -7  11   86.26   11.30
  -5  -7  11   31.14    7.83
  -5  -7  11   25.07    7.21
  -5  -7  11   37.69    6.97
  -4  -7  11   37.74    8.10
  -4  -7  11   42.24    7.77
  -4  -7  11   40.64    8.75
   3   7 -11  523.88   22.28
  -3  -7  11  560.57   25.40
  -3  -7  11  520.99   27.23
  -3  -7  11  466.19   26.46
  -3  -7  11  498.69   17.84
   2   7 -11   72.81    8.12
  -2  -7  11   66.63   10.95
  -2  -7  11   62.04    8.72
  -2  -7  11   69.87   11.22
  -2  -7  11   76.36    7.06
   1   7 -11   66.71    8.25
   1   7 -11   69.89    8.15
  -1  -7  11   45.56    7.99
  -1  -7  11   66.63   11.36
  -1  -7  11   70.20   11.49
   0   7 -11  138.13   10.52
   0  -7  11  116.03   14.54
   0  -7  11  127.37   15.89
   0  -7  11  144.09   20.83
  -1   7 -11    7.88    4.19
   1  -7  11    7.60    2.82
   1  -7  11   10.79    6.27
   1  -7  11   -0.20    5.25
  -2   7 -11    2.68    3.29
   2  -7  11   -0.69    5.12
   2  -7  11   -0.33    5.37
   2  -7  11   -2.27    2.54
  -3   7 -11   -5.34    2.65
  -3   7 -11   -1.96    5.24
   3  -7  11    2.49    3.20
   3  -7  11   -3.04    5.42
   3  -7  11    8.40    6.23
  -4   7 -11    7.89    3.82
  -4   7 -11    9.73    5.23
  -4   7 -11   10.51    7.65
   4  -7  11    9.00    7.30
   4  -7  11   -0.05    3.25
   4  -7  11    1.17    5.58
  -7  -6  11   -0.35    4.12
  -7  -6  11    1.71    3.56
  -6  -6  11    3.76    3.57
  -6  -6  11    4.85    4.62
  -6  -6  11    0.86    4.10
  -5  -6  11   85.79   10.91
  -5  -6  11   75.12    9.04
  -5  -6  11   68.73   10.11
  -4  -6  11   92.87   11.76
  -4  -6  11  114.90   12.40
  -4  -6  11   89.39   10.22
   3   6 -11  245.85   13.09
  -3  -6  11  246.52   10.41
  -3  -6  11  218.07   16.61
  -3  -6  11  264.15   15.66
  -3  -6  11  255.19   16.85
   2   6 -11   15.08    4.35
  -2  -6  11    7.86    5.57
  -2  -6  11   19.38    5.56
  -2  -6  11   10.76    3.24
  -2  -6  11   15.41    6.00
   1   6 -11   10.96    3.91
  -1  -6  11    1.88    3.63
  -1  -6  11    1.01    4.52
  -1  -6  11   -8.16    3.10
   0   6 -11    3.64    3.24
   0   6 -11    4.96    3.27
   0  -6  11   -1.04    4.33
   0  -6  11    2.50    1.80
   0  -6  11    5.60    5.45
   0  -6  11   -1.18    3.44
  -1   6 -11   31.60    5.59
  -1   6 -11   19.89    7.49
   1  -6  11   22.75    3.95
   1  -6  11   34.47    8.31
   1  -6  11   37.71    8.60
  -2   6 -11   99.25   13.43
  -2   6 -11   78.15    8.35
   2  -6  11   95.21   13.25
   2  -6  11   74.88   11.23
   2  -6  11   97.36    8.30
  -3   6 -11   32.62    8.81
  -3   6 -11   32.06    5.68
  -3   6 -11   40.09    7.26
   3  -6  11   38.93    9.60
   3  -6  11   27.52    8.50
   3  -6  11   39.47    6.06
  -4   6 -11  192.08   17.39
  -4   6 -11  176.62   15.23
  -4   6 -11  171.31   11.22
   4  -6  11  185.60   11.90
   4  -6  11  181.92   19.46
   4  -6  11  136.80   16.53
  -5   6 -11   80.46   13.67
  -5   6 -11   61.67    9.07
  -5   6 -11   58.09    7.08
   5  -6  11   75.39    8.99
  -6   6 -11    1.40    6.20
  -6   6 -11   -0.70    2.61
  -6   6 -11   -1.90    4.30
   6  -6  11   -0.47    3.63
  -8  -5  11   -1.59    3.14
  -8  -5  11   -3.02    3.75
  -7  -5  11  109.29   12.67
  -7  -5  11  129.54   11.79
  -6  -5  11   -3.23    3.02
  -6  -5  11   -1.40    3.23
  -6  -5  11   -1.08    3.74
  -5  -5  11   54.86    7.60
  -5  -5  11   57.43    8.44
  -5  -5  11   53.01    9.22
   4   5 -11  178.34   11.10
  -4  -5  11  170.29   12.00
  -4  -5  11  170.47   12.65
  -4  -5  11  141.36   13.14
   3   5 -11  881.24   31.83
  -3  -5  11  870.25   34.12
  -3  -5  11  867.88   35.92
  -3  -5  11  845.76   29.18
  -3  -5  11  802.86   36.44
   2   5 -11  246.68   12.15
  -2  -5  11  190.26   15.22
  -2  -5  11  215.53   11.14
  -2  -5  11  198.42   13.24
  -2  -5  11  204.10   14.59
   1   5 -11   93.62    8.35
  -1  -5  11   85.60   11.02
  -1  -5  11  101.89    7.93
  -1  -5  11  101.16   11.91
  -1  -5  11  108.01   10.56
   0   5 -11   12.78    5.57
   0   5 -11   12.98    3.93
   0  -5  11   17.32    6.11
   0  -5  11   14.96    4.95
   0  -5  11   14.72    5.48
   0  -5  11   24.97    3.35
  -1   5 -11  271.18   17.56
  -1   5 -11  241.87   13.25
   1  -5  11  238.95   17.27
   1  -5  11  256.33   17.96
   1  -5  11  245.82   11.85
   1  -5  11  237.54   15.23
  -2   5 -11   19.07    4.53
  -2   5 -11   30.97    7.72
  -2   5 -11   26.84    5.64
   2  -5  11   24.40    6.98
   2  -5  11   26.70    4.51
  -3   5 -11    1.05    3.38
  -3   5 -11   -2.04    2.63
  -3   5 -11   -1.92    4.38
   3  -5  11    0.08    4.54
   3  -5  11    1.56    2.78
  -4   5 -11    1.42    2.84
  -4   5 -11    5.46    4.19
  -4   5 -11    0.98    5.06
   4  -5  11   -2.13    4.22
   4  -5  11   -2.37    2.66
  -5   5 -11   67.46    9.22
  -5   5 -11   95.32   14.06
  -5   5 -11   77.76    7.52
   5  -5  11   93.10    9.41
  -6   5 -11    2.15    6.57
  -6   5 -11    4.20    4.58
  -6   5 -11    5.54    2.82
   6  -5  11    4.67    4.04
  -7   5 -11   47.36    7.90
  -7   5 -11   41.66   10.75
   7  -5  11   17.77    5.87
  -8  -4  11   57.58    9.65
  -8  -4  11   63.43    8.58
  -7  -4  11  124.17   13.38
  -7  -4  11  108.49   10.53
  -6  -4  11   56.66    8.93
  -6  -4  11   57.12    7.57
  -5  -4  11   20.34    6.00
  -5  -4  11   16.18    4.97
  -5  -4  11   25.80    5.40
   4   4 -11   71.52    6.89
  -4  -4  11   84.46    9.34
  -4  -4  11   77.59    8.54
  -4  -4  11   82.37   10.45
   3   4 -11   31.71    4.85
  -3  -4  11   19.17    5.08
  -3  -4  11   40.21    6.81
  -3  -4  11   38.08    7.54
  -3  -4  11   34.59    4.14
   2   4 -11  442.90   18.62
  -2  -4  11  421.75   17.98
  -2  -4  11  397.07   20.11
  -2  -4  11  462.76   22.26
  -2  -4  11  486.07   23.53
   1   4 -11  234.58   11.91
   1   4 -11  199.37   13.76
  -1  -4  11  206.88   11.52
  -1  -4  11  203.95   13.06
  -1  -4  11  212.28   14.34
  -1  -4  11  221.62   15.39
   0   4 -11   59.90    7.02
   0   4 -11   57.44    8.63
   0  -4  11   51.53    8.65
   0  -4  11   61.21    5.26
   0  -4  11   65.28    9.60
   0  -4  11   56.23    7.58
  -1   4 -11   32.18    5.03
  -1   4 -11   48.89    7.21
  -1   4 -11   24.93    4.69
  -1   4 -11   52.49    8.88
   1  -4  11   38.97    7.59
   1  -4  11   33.37    6.12
   1  -4  11   36.24    4.67
  -2   4 -11   57.97    7.64
  -2   4 -11   50.02    8.63
  -2   4 -11   51.36    6.14
   2  -4  11   61.56    9.85
   2  -4  11   49.90    5.78
  -3   4 -11  133.45   14.43
  -3   4 -11  146.12   10.99
  -3   4 -11  154.54    9.59
   3  -4  11  142.90    9.63
   3  -4  11  145.37   13.32
  -4   4 -11  294.70   19.81
  -4   4 -11  275.33   13.70
  -4   4 -11  281.92   15.79
   4  -4  11  257.07   14.32
   4  -4  11  297.18   19.43
  -5   4 -11  466.54   27.01
  -5   4 -11  485.39   19.00
  -5   4 -11  466.74   21.89
   5  -4  11  431.77   25.17
   5  -4  11  446.96   20.89
  -6   4 -11  336.75   18.28
  -6   4 -11  358.00   23.86
  -6   4 -11  360.49   14.33
   6  -4  11  360.89   18.35
  -7   4 -11    2.55    3.83
  -7   4 -11    2.46    6.13
   7  -4  11   -0.26    3.76
  -8  -3  11   74.61    9.25
  -8  -3  11   85.32   11.31
  -7  -3  11    5.71    3.95
  -7  -3  11    8.90    5.21
  -6  -3  11  219.78   15.34
  -6  -3  11  194.97   12.98
  -5  -3  11  161.32   11.30
  -5  -3  11  173.90   13.58
  -5  -3  11  155.59   10.13
   4   3 -11 1256.61   43.92
  -4  -3  11 1243.06   46.31
  -4  -3  11 1272.26   45.87
  -4  -3  11 1361.66   49.78
   3   3 -11  145.52    8.66
  -3  -3  11  100.85   11.30
  -3  -3  11  129.77    9.94
  -3  -3  11  129.16    9.75
  -3  -3  11  132.34    7.48
   2   3 -11   -0.58    2.22
  -2  -3  11    0.76    2.98
  -2  -3  11    0.11    2.04
  -2  -3  11   -1.69    2.76
  -2  -3  11   -3.05    3.36
   1   3 -11  290.25   13.69
   1   3 -11  280.41   16.20
  -1  -3  11  296.09   10.91
  -1  -3  11  255.99   16.75
  -1  -3  11  284.59   16.14
  -1  -3  11  286.29   15.34
  -1  -3  11  303.35   14.03
   0   3 -11    2.41    3.41
   0   3 -11   23.97    4.21
   0   3 -11   15.99    5.06
   0  -3  11    9.90    3.39
   0  -3  11   13.93    5.44
   0  -3  11   14.10    2.89
   0  -3  11   10.99    4.03
  -1   3 -11  643.20   25.22
  -1   3 -11  665.53   26.83
  -1   3 -11  642.62   29.35
   1  -3  11  676.78   27.58
   1  -3  11  648.52   29.55
   1  -3  11  658.61   24.33
  -2   3 -11    4.07    2.76
  -2   3 -11   -0.56    3.57
  -2   3 -11    1.75    3.02
   2  -3  11    9.16    4.70
   2  -3  11    3.46    2.52
   2  -3  11    4.03    3.44
  -3   3 -11   59.35    6.30
  -3   3 -11   56.31    9.55
  -3   3 -11   47.02    6.62
   3  -3  11   50.09    8.96
   3  -3  11   49.76    6.16
  -4   3 -11    2.59    2.48
  -4   3 -11    2.38    3.13
  -4   3 -11    5.42    4.95
   4  -3  11    4.90    4.43
   4  -3  11    3.62    3.02
  -5   3 -11  106.70   10.26
  -5   3 -11   81.87    6.39
  -5   3 -11  132.62   15.08
   5  -3  11   98.54    9.27
   5  -3  11  101.27   12.74
  -6   3 -11   52.92   10.48
  -6   3 -11   53.27    4.20
  -6   3 -11   33.54    6.30
   6  -3  11   47.40    6.77
  -7   3 -11   86.58   13.09
  -7   3 -11   68.49    7.78
   7  -3  11   68.60    8.57
  -8   3 -11   18.07    7.95
  -8   3 -11   19.62    4.52
   8  -3  11   25.09    5.81
  -8  -2  11   40.35    7.11
  -8  -2  11   53.60    9.32
  -7  -2  11   63.76    9.80
  -7  -2  11   73.05    8.96
  -6  -2  11   34.66    6.27
  -6  -2  11   30.88    7.04
   5   2 -11    6.03    3.12
  -5  -2  11    1.56    3.54
  -5  -2  11    3.40    3.12
   4   2 -11   16.54    3.87
  -4  -2  11   21.38    5.85
  -4  -2  11   21.53    4.96
  -4  -2  11   23.05    4.36
   3   2 -11    3.10    2.64
  -3  -2  11   -0.31    1.91
  -3  -2  11    7.19    3.25
  -3  -2  11    4.18    3.96
  -3  -2  11   10.18    3.82
   2   2 -11  448.38   21.59
   2   2 -11  471.63   19.13
  -2  -2  11  493.93   21.35
  -2  -2  11  479.43   19.25
  -2  -2  11  500.08   23.79
  -2  -2  11  458.30   20.60
   1   2 -11  192.08   11.75
   1   2 -11  209.48   13.45
   1   2 -11  207.52   10.88
  -1  -2  11  215.09   14.28
  -1  -2  11  215.83    9.11
  -1  -2  11  230.23   11.57
  -1  -2  11  223.79   12.75
   0   2 -11   74.71    6.75
   0   2 -11   95.05   10.22
   0   2 -11   87.96    8.08
   0  -2  11   72.66    5.62
   0  -2  11  103.16    7.57
   0  -2  11   84.09    8.23
   0  -2  11   78.86   10.16
  -1   2 -11   26.30    4.40
  -1   2 -11   31.05    6.40
  -1   2 -11   28.00    5.11
   1  -2  11   27.51    4.02
   1  -2  11   37.07    5.71
   1  -2  11   34.16    6.90
  -2   2 -11   -3.54    3.25
  -2   2 -11   -0.48    2.06
  -2   2 -11   -0.56    2.13
  -2   2 -11   -5.54    2.21
   2  -2  11   -2.09    1.84
   2  -2  11   -2.23    2.95
   2  -2  11   -2.89    2.32
  -3   2 -11   40.80    7.80
  -3   2 -11   47.49    5.38
  -3   2 -11   47.49    6.53
   3  -2  11   49.43    8.22
   3  -2  11   33.64    5.13
  -4   2 -11  223.10   12.68
  -4   2 -11  209.10   15.58
  -4   2 -11  199.82   10.35
   4  -2  11  219.51   14.82
   4  -2  11  217.58   11.91
  -5   2 -11 1015.18   33.50
  -5   2 -11  975.60   36.85
  -5   2 -11  947.74   41.80
   5  -2  11 1000.86   36.57
   5  -2  11  996.81   40.72
  -6   2 -11    4.77    3.21
  -6   2 -11    7.85    5.48
   6  -2  11   -2.03    2.67
  -7   2 -11   22.56    7.62
  -7   2 -11   18.55    4.42
   7  -2  11   10.21    3.94
  -8   2 -11    5.73    6.10
  -8   2 -11    9.75    4.30
  -8   2 -11    8.38    3.34
   8  -2  11   12.56    4.68
  -9   2 -11   11.08    2.87
  -9   2 -11   10.84    2.86
  -9   2 -11   11.71    6.90
   9  -2  11   17.88    5.62
  -8  -1  11    5.39    4.19
  -8  -1  11    5.60    4.99
  -7  -1  11   12.72    5.22
  -7  -1  11   14.04    5.93
  -6  -1  11   22.28    5.37
  -6  -1  11   27.95    7.02
   5   1 -11   68.57    6.83
  -5  -1  11   58.27    7.53
  -5  -1  11   50.32    8.44
   4   1 -11    5.25    2.69
  -4  -1  11    1.48    3.39
  -4  -1  11    0.55    1.83
  -4  -1  11   -0.35    2.84
   3   1 -11    1.09    2.35
  -3  -1  11    4.79    3.33
  -3  -1  11    0.82    2.39
  -3  -1  11    1.47    3.54
  -3  -1  11    1.30    2.04
   2   1 -11    1.09    3.23
   2   1 -11    1.84    3.18
   2   1 -11    1.02    2.16
  -2  -1  11   -3.61    2.33
  -2  -1  11    0.67    2.10
  -2  -1  11   -2.17    2.18
  -2  -1  11    0.40    1.01
  -2  -1  11   -0.11    0.98
  -2  -1  11   -2.21    2.90
   1   1 -11    4.30    2.49
   1   1 -11    5.47    3.71
   1   1 -11    4.63    3.11
  -1  -1  11    4.04    2.67
  -1  -1  11    9.15    3.34
  -1  -1  11    5.07    1.95
  -1  -1  11    9.92    4.41
   0   1 -11    0.08    2.62
   0   1 -11    1.12    2.15
   0   1 -11    1.60    3.07
   0  -1  11    2.40    1.94
   0  -1  11    0.89    3.43
   0  -1  11    2.47    2.66
   0  -1  11    3.08    2.62
  -1   1 -11   23.53    4.07
  -1   1 -11   26.15    5.96
  -1   1 -11   31.14    5.15
   1  -1  11   25.87    3.92
   1  -1  11   20.69    4.44
   1  -1  11   25.00    5.90
  -2   1 -11  409.41   18.25
  -2   1 -11  399.68   16.85
  -2   1 -11  450.62   21.74
   2  -1  11  396.68   20.66
   2  -1  11  391.34   16.80
   2  -1  11  412.08   18.82
  -3   1 -11  125.89    7.70
  -3   1 -11  138.14    9.32
  -3   1 -11  123.49   11.26
   3  -1  11  132.94    8.43
   3  -1  11  124.94   10.75
  -4   1 -11    1.72    2.82
  -4   1 -11    3.81    2.14
  -4   1 -11    6.84    4.53
  -4   1 -11    0.56    2.55
   4  -1  11    3.02    2.65
   4  -1  11    8.97    4.15
  -5   1 -11   27.90    4.73
  -5   1 -11   32.79    3.33
  -5   1 -11   25.29    6.70
  -5   1 -11   24.00    4.98
   5  -1  11   18.25    5.56
   5  -1  11   28.40    5.03
  -6   1 -11   69.19    6.88
  -6   1 -11   45.45    8.80
  -6   1 -11   61.95    6.74
   6  -1  11   80.78    7.89
  -7   1 -11  146.32    9.17
  -7   1 -11  134.85    9.00
  -7   1 -11  135.70   15.05
   7  -1  11  155.37   10.28
  -8   1 -11   78.30   12.22
  -8   1 -11   92.06    6.62
  -8   1 -11   94.16    6.60
   8  -1  11   81.04    8.66
  -9   1 -11  240.59   19.71
   9  -1  11  243.25   14.75
  -8   0  11   18.83    7.10
  -8   0  11   18.99    5.65
  -7   0  11   34.27    7.96
  -7   0  11   44.66    7.42
   6   0 -11    4.72    3.05
  -6   0  11    4.03    4.38
  -6   0  11   -1.88    3.10
   5   0 -11   -0.61    2.45
  -5   0  11    3.33    3.40
  -5   0  11    3.34    4.14
   4   0 -11   99.02    7.71
  -4   0  11  101.16    9.50
  -4   0  11  106.92   11.59
   3   0 -11  280.67   15.72
   3   0 -11  290.61   13.65
  -3   0  11  292.73   15.50
  -3   0  11  287.63   12.19
  -3   0  11  295.38   17.38
   2   0 -11  214.28   11.17
   2   0 -11  213.33   12.33
   2   0 -11  233.71   13.73
  -2   0  11  217.85   14.46
  -2   0  11  216.47    8.90
  -2   0  11  222.75   11.44
  -2   0  11  206.65   12.44
   1   0 -11  625.53   23.54
   1   0 -11  630.23   27.03
   1   0 -11  629.02   24.96
  -1   0  11  637.57   22.29
  -1   0  11  590.73   24.00
  -1   0  11  628.57   25.46
  -1   0  11  608.53   27.58
   0   0 -11  619.79   24.78
   0   0 -11  631.57   23.36
   0   0 -11  624.50   27.16
   0   0  11  604.84   22.64
   0   0  11  635.07   27.70
   0   0  11  599.29   24.98
  -1   0 -11   26.19    4.79
  -1   0 -11   23.80    3.79
  -1   0 -11   23.43    5.43
   1   0  11   20.52    3.60
   1   0  11   25.13    4.77
   1   0  11   33.25    6.09
  -2   0 -11  487.97   20.28
  -2   0 -11  489.12   23.12
  -2   0 -11  472.69   18.63
   2   0  11  463.97   20.36
   2   0  11  473.74   18.87
   2   0  11  467.43   22.42
  -3   0 -11  135.68    8.67
  -3   0 -11   89.72   10.41
  -3   0 -11  127.91    7.21
  -3   0 -11  126.78    8.73
   3   0  11  115.26   10.14
   3   0  11  113.11    7.61
  -4   0 -11  670.61   29.41
  -4   0 -11  638.42   25.01
  -4   0 -11  634.77   22.33
  -4   0 -11  637.68   24.79
   4   0  11  615.95   24.14
   4   0  11  627.48   27.37
  -5   0 -11   10.28    4.95
  -5   0 -11   11.81    3.30
  -5   0 -11   16.31    3.79
   5   0  11   10.25    3.28
   5   0  11   14.76    4.55
  -6   0 -11   17.07    3.82
  -6   0 -11    6.99    3.06
  -6   0 -11    8.14    5.23
   6   0  11   14.77    3.75
  -7   0 -11  125.38    7.70
  -7   0 -11  125.55   14.06
  -7   0 -11  115.01    7.65
   7   0  11  147.08    9.42
  -8   0 -11  165.43    7.61
  -8   0 -11  151.88    7.48
  -8   0 -11  162.09   14.97
   8   0  11  162.86   10.70
  -9   0 -11   -0.28    4.76
 -10   0 -11   38.15    9.76
  -8   1  11    5.29    5.89
  -8   1  11   11.06    5.50
  -7   1  11    3.40    5.31
  -7   1  11    9.16    4.75
   6  -1 -11   99.90    8.99
  -6   1  11   85.11   11.44
  -6   1  11   72.47    9.14
   5  -1 -11  365.28   16.90
  -5   1  11  369.60   21.51
  -5   1  11  364.86   18.95
   4  -1 -11   92.33    8.22
  -4   1  11   73.39    8.45
  -4   1  11   77.83   10.59
   3  -1 -11  213.76   11.84
   3  -1 -11  223.37   14.22
  -3   1  11  244.83   15.79
  -3   1  11  248.64   10.55
  -3   1  11  224.74   13.51
   2  -1 -11  224.06   11.56
   2  -1 -11  232.17   14.43
   2  -1 -11  255.38   13.25
  -2   1  11  233.13   12.04
  -2   1  11  213.05   12.97
  -2   1  11  220.78   14.73
  -2   1  11  231.02    9.87
   1  -1 -11  246.15   11.99
   1  -1 -11  243.30   14.91
   1  -1 -11  264.90   13.52
  -1   1  11  242.81   12.58
  -1   1  11  248.25   15.41
  -1   1  11  247.82   11.04
  -1   1  11  241.15   13.46
   0  -1 -11  159.71   10.19
   0  -1 -11  151.77   11.63
   0  -1 -11  156.27    9.00
   0   1  11  171.18   10.61
   0   1  11  180.24   12.39
   0   1  11  169.43    8.79
  -1  -1 -11    4.88    2.79
  -1  -1 -11   -3.19    2.79
  -1  -1 -11    3.61    2.17
   1   1  11    0.44    2.39
   1   1  11   -0.30    2.89
   1   1  11    2.11    2.02
  -2  -1 -11 1166.24   39.19
  -2  -1 -11 1122.04   44.15
  -2  -1 -11 1151.49   40.94
   2   1  11 1214.27   39.88
   2   1  11 1146.49   43.77
   2   1  11 1146.02   41.22
  -3  -1 -11  136.52    9.09
  -3  -1 -11  157.09    7.82
  -3  -1 -11  154.58    9.20
  -3  -1 -11  156.19   12.02
  -3  -1 -11  146.56    7.66
   3   1  11  138.83    8.36
   3   1  11  126.11   10.26
  -4  -1 -11  605.13   19.84
  -4  -1 -11  579.42   22.42
  -4  -1 -11  559.35   22.46
  -4  -1 -11  578.98   26.68
   4   1  11  579.16   22.08
   4   1  11  531.69   24.37
  -5  -1 -11 1150.14   39.98
  -5  -1 -11 1180.02   45.53
  -5  -1 -11 1150.02   39.76
   5   1  11 1153.89   39.93
   5   1  11 1132.57   43.01
  -6  -1 -11   97.02   11.28
  -6  -1 -11  105.33    7.05
  -6  -1 -11  109.25    7.10
   6   1  11  108.14    7.74
  -7  -1 -11    2.53    1.93
  -7  -1 -11    4.34    5.07
  -7  -1 -11    3.32    1.97
   7   1  11    2.46    2.72
  -8  -1 -11  128.58   14.07
   8   1  11  138.74    9.44
  -9  -1 -11  838.60   37.91
 -10  -1 -11   66.82   10.91
   7  -2 -11   -0.98    3.50
  -7   2  11    2.92    5.15
  -7   2  11    0.14    4.25
   6  -2 -11   23.30    5.35
  -6   2  11   30.58    6.96
  -6   2  11   52.54   10.40
   5  -2 -11   51.49    6.61
  -5   2  11   54.44    8.04
  -5   2  11   35.20    8.18
   4  -2 -11  350.86   16.95
  -4   2  11  361.65   16.78
  -4   2  11  393.04   21.81
  -4   2  11  373.86   19.03
   3  -2 -11   23.10    5.83
   3  -2 -11   31.91    5.06
  -3   2  11   29.54    5.68
  -3   2  11   23.02    4.49
  -3   2  11   26.32    2.89
  -3   2  11   31.03    6.99
   2  -2 -11  240.07   13.61
   2  -2 -11  236.08   12.40
   2  -2 -11  252.24   15.52
  -2   2  11  241.66   10.81
  -2   2  11  256.04   16.18
  -2   2  11  245.58   13.08
  -2   2  11  252.02   13.04
  -2   2  11  261.47   14.29
   1  -2 -11  182.27   13.09
   1  -2 -11  184.55   11.21
   1  -2 -11  171.50    9.78
  -1   2  11  163.52   10.89
  -1   2  11  154.57   10.23
  -1   2  11  174.65   12.69
  -1   2  11  186.49    9.27
   0  -2 -11  503.21   21.49
   0  -2 -11  527.89   20.13
   0  -2 -11  512.37   24.17
   0   2  11  491.23   21.16
   0   2  11  490.63   21.59
   0   2  11  531.99   19.96
   0   2  11  503.52   23.92
  -1  -2 -11  186.92    9.64
  -1  -2 -11  185.14   12.97
  -1  -2 -11  200.79   11.20
   1   2  11  186.13    9.88
   1   2  11  183.18   10.91
   1   2  11  192.17   12.74
   1   2  11  192.98   11.32
  -2  -2 -11  358.20   14.75
  -2  -2 -11  355.71   16.31
  -2  -2 -11  369.87   19.35
   2   2  11  374.60   21.03
   2   2  11  361.06   15.40
   2   2  11  354.94   16.52
   2   2  11  368.31   18.58
  -3  -2 -11   -0.15    1.49
  -3  -2 -11   -0.39    2.06
  -3  -2 -11   -0.40    1.50
  -3  -2 -11    1.13    2.27
  -3  -2 -11   -1.76    3.15
   3   2  11    1.01    2.01
   3   2  11   -2.41    2.59
   3   2  11   -0.13    2.27
  -4  -2 -11   69.20    3.44
  -4  -2 -11   60.99    6.06
  -4  -2 -11   64.49    3.45
  -4  -2 -11   78.05    9.71
  -4  -2 -11   58.77    6.09
   4   2  11   67.89    6.96
   4   2  11   78.65    8.65
   4   2  11   60.42    5.93
  -5  -2 -11  729.57   26.00
  -5  -2 -11  706.58   26.10
  -5  -2 -11  687.26   30.91
   5   2  11  700.87   26.30
   5   2  11  735.40   32.03
  -6  -2 -11   14.35    2.87
  -6  -2 -11   11.13    2.65
  -6  -2 -11   15.63    5.48
   6   2  11   14.15    3.41
  -7  -2 -11 1761.98   55.65
  -7  -2 -11 1756.10   65.43
   7   2  11 1852.62   59.69
  -8  -2 -11  104.81   12.11
  -9  -2 -11   36.53    8.02
 -10  -2 -11   -3.73    4.06
   7  -3 -11   15.79    5.25
  -7   3  11    5.99    5.27
  -7   3  11    7.06    6.26
   6  -3 -11  117.48   10.85
  -6   3  11  102.43   13.48
  -6   3  11  133.43   13.48
   5  -3 -11   -0.74    3.07
  -5   3  11    0.70    4.80
  -5   3  11    3.75    4.49
  -5   3  11    1.78    2.89
   4  -3 -11   16.97    4.44
  -4   3  11   28.79    5.24
  -4   3  11   30.76    6.25
  -4   3  11   16.62    6.45
   3  -3 -11  465.35   20.26
   3  -3 -11  508.29   24.49
  -3   3  11  474.46   24.90
  -3   3  11  447.21   21.88
  -3   3  11  472.93   17.52
  -3   3  11  464.29   20.64
   2  -3 -11  281.10   14.05
   2  -3 -11  291.70   15.52
   2  -3 -11  279.09   17.17
  -2   3  11  275.42   17.80
  -2   3  11  311.88   16.28
  -2   3  11  281.63   14.76
  -2   3  11  304.58   12.83
   1  -3 -11   52.87    8.42
   1  -3 -11   54.20    6.98
   1  -3 -11   54.86    6.02
  -1   3  11   47.26    7.88
  -1   3  11   68.75    7.81
  -1   3  11   66.92    7.24
  -1   3  11   54.94    5.59
   0  -3 -11  124.82    9.11
   0  -3 -11  120.11    7.70
   0  -3 -11  109.47   10.33
   0   3  11  116.43    9.02
   0   3  11  111.56    8.61
   0   3  11  114.51    7.58
   0   3  11  127.71   10.69
  -1  -3 -11   15.58    3.91
  -1  -3 -11   17.67    3.27
  -1  -3 -11   13.30    4.91
   1   3  11   17.50    3.34
   1   3  11   22.76    4.70
   1   3  11   12.84    4.69
   1   3  11   17.41    4.11
  -2  -3 -11  216.09   11.29
  -2  -3 -11  210.20   11.48
  -2  -3 -11  198.18   13.76
  -2  -3 -11  204.70    9.64
   2   3  11  202.22   11.49
   2   3  11  202.57   13.05
   2   3  11  191.69   10.33
  -3  -3 -11   25.22    4.37
  -3  -3 -11   29.80    4.50
  -3  -3 -11   28.93    3.22
  -3  -3 -11   28.96    3.19
  -3  -3 -11   27.11    6.29
   3   3  11   27.79    4.25
   3   3  11   25.13    4.75
   3   3  11   29.83    5.65
  -4  -3 -11  666.12   25.23
  -4  -3 -11  655.21   24.93
  -4  -3 -11  626.69   29.15
   4   3  11  754.18   28.30
   4   3  11  671.70   25.07
  -5  -3 -11  292.21   12.79
  -5  -3 -11  290.99   12.58
  -5  -3 -11  273.16   17.01
  -5  -3 -11  329.51   17.68
   5   3  11  281.81   13.16
  -6  -3 -11  383.42   14.46
  -6  -3 -11  389.31   20.63
  -6  -3 -11  384.58   14.47
   6   3  11  405.86   16.44
  -7  -3 -11   20.48    6.27
   7   3  11   23.86    4.24
  -8  -3 -11   70.01   10.20
  -9  -3 -11  221.59   15.93
 -10  -3 -11   59.80    9.89
   6  -4 -11   68.26    8.51
  -6   4  11   61.37    7.12
  -6   4  11   62.25   11.71
   5  -4 -11  255.42   15.19
  -5   4  11  274.46   15.06
  -5   4  11  294.48   20.59
  -5   4  11  278.51   17.53
   4  -4 -11   14.10    4.28
  -4   4  11    5.62    4.45
  -4   4  11   10.76    2.11
  -4   4  11   10.42    6.24
  -4   4  11   14.82    4.31
   3  -4 -11   75.71    8.13
   3  -4 -11   72.14   10.63
  -3   4  11   57.63    7.57
  -3   4  11   74.39    9.63
  -3   4  11   61.41   10.18
  -3   4  11   74.88    5.63
   2  -4 -11    8.99    3.60
   2  -4 -11   10.39    4.49
   2  -4 -11   13.70    5.34
  -2   4  11    6.77    3.88
  -2   4  11   10.14    3.11
  -2   4  11    8.09    4.86
  -2   4  11    5.15    3.28
   1  -4 -11    7.74    3.96
   1  -4 -11    7.57    4.80
   1  -4 -11    5.53    3.09
  -1   4  11    7.73    3.54
  -1   4  11    9.64    3.92
  -1   4  11    5.75    2.77
  -1   4  11    5.76    4.39
   0  -4 -11   56.54    6.01
   0  -4 -11   52.21    8.34
   0  -4 -11   41.96    6.12
   0   4  11   50.70    5.78
   0   4  11   51.23    6.42
   0   4  11   45.29    6.54
   0   4  11   56.46    8.90
  -1  -4 -11   31.94    4.26
  -1  -4 -11   45.81    7.88
  -1  -4 -11   30.47    5.50
   1   4  11   35.13    6.72
   1   4  11   33.51    4.78
   1   4  11   42.90    6.12
  -2  -4 -11  203.21   11.70
  -2  -4 -11  242.42   15.24
  -2  -4 -11  210.84   11.49
  -2  -4 -11  213.74    9.90
   2   4  11  221.97   12.31
   2   4  11  207.68   10.96
   2   4  11  226.93   13.99
  -3  -4 -11  182.27   13.06
  -3  -4 -11  170.64    7.22
  -3  -4 -11  167.13    7.17
  -3  -4 -11  157.41    9.67
  -3  -4 -11  163.49    9.26
  -3  -4 -11  166.31    9.56
   3   4  11  178.67   11.95
   3   4  11  163.21   10.41
   3   4  11  172.15    9.49
  -4  -4 -11   32.65    6.81
  -4  -4 -11   34.32    4.61
  -4  -4 -11   39.59    4.75
   4   4  11   47.98    5.42
   4   4  11   49.69    7.11
  -5  -4 -11   24.49    3.59
  -5  -4 -11   30.41    6.42
  -5  -4 -11   25.92    3.56
   5   4  11   25.73    4.26
  -6  -4 -11   24.99    6.42
   6   4  11   26.90    4.31
  -7  -4 -11  135.35   11.84
  -8  -4 -11  818.64   35.18
  -9  -4 -11   34.78    7.43
 -10  -4 -11   35.17    7.75
   6  -5 -11   25.66    6.55
  -6   5  11   23.99    8.77
  -6   5  11   28.32    5.75
   5  -5 -11   41.26    6.91
  -5   5  11   44.19    6.83
  -5   5  11   27.87    8.73
   4  -5 -11    1.94    3.70
  -4   5  11   -4.84    2.57
  -4   5  11    3.33    5.62
  -4   5  11   -1.14    1.74
   3  -5 -11   14.19    4.40
   3  -5 -11   13.79    6.11
  -3   5  11   13.86    4.62
  -3   5  11    2.79    2.56
  -3   5  11   19.22    6.87
   2  -5 -11  387.85   22.04
   2  -5 -11  367.95   19.17
   2  -5 -11  376.15   17.52
  -2   5  11  351.10   21.56
  -2   5  11  372.37   16.44
  -2   5  11  388.94   18.74
   1  -5 -11   20.03    5.14
   1  -5 -11   15.41    3.85
   1  -5 -11   26.29    7.07
  -1   5  11    9.69    3.37
  -1   5  11   21.84    6.61
  -1   5  11   10.84    4.16
   0  -5 -11  145.93    8.88
   0  -5 -11  138.60   10.38
   0  -5 -11  122.41   13.36
   0   5  11  131.26   10.12
   0   5  11  136.37   12.00
   0   5  11  147.80    9.19
  -1  -5 -11   89.08    8.71
  -1  -5 -11   90.22    6.60
  -1  -5 -11  103.81   12.24
   1   5  11   88.02   10.42
   1   5  11   87.47    7.73
  -2  -5 -11  380.67   17.33
  -2  -5 -11  382.00   21.15
  -2  -5 -11  403.90   17.80
  -2  -5 -11  377.30   15.16
   2   5  11  399.93   17.18
   2   5  11  425.14   20.76
   2   5  11  402.92   18.47
  -3  -5 -11  532.34   21.23
  -3  -5 -11  519.11   17.01
  -3  -5 -11  511.82   16.98
  -3  -5 -11  518.01   25.26
  -3  -5 -11  517.83   20.89
   3   5  11  535.28   20.94
   3   5  11  515.42   23.58
  -4  -5 -11    5.91    4.14
  -4  -5 -11    1.96    2.11
  -4  -5 -11    3.70    2.50
   4   5  11    1.01    2.38
  -5  -5 -11  143.42    7.45
  -5  -5 -11  143.92   11.87
  -5  -5 -11  154.81    7.50
   5   5  11  138.79    8.64
  -6  -5 -11  127.09   11.54
   6   5  11  124.71    7.96
  -7  -5 -11    4.13    4.24
  -8  -5 -11   65.68    9.32
  -9  -5 -11  114.86   12.67
 -10  -5 -11   67.39   10.10
   5  -6 -11  110.56   11.56
  -5   6  11  106.10   11.10
  -5   6  11  117.60   16.16
   4  -6 -11  262.10   15.32
  -4   6  11  243.92   19.86
  -4   6  11  261.43   11.79
  -4   6  11  230.72   15.26
   3  -6 -11  160.46   17.09
   3  -6 -11  172.93   11.81
  -3   6  11  183.44   16.60
  -3   6  11  174.04   12.66
  -3   6  11  165.78    9.96
   2  -6 -11  201.69   12.44
   2  -6 -11  198.42   14.13
   2  -6 -11  242.10   17.48
  -2   6  11  212.54   11.79
  -2   6  11  201.37   16.65
  -2   6  11  223.82   14.20
   1  -6 -11  282.02   14.37
   1  -6 -11  293.43   19.38
   1  -6 -11  319.61   16.85
  -1   6  11  304.84   14.57
  -1   6  11  265.91   18.51
  -1   6  11  268.97   15.81
   0  -6 -11   10.99    3.78
   0  -6 -11   10.06    3.22
   0  -6 -11    7.96    4.07
   0  -6 -11    3.99    4.84
   0   6  11   10.38    5.27
   0   6  11    2.62    3.49
   0   6  11    8.24    3.45
  -1  -6 -11  392.65   18.63
  -1  -6 -11  389.94   16.05
  -1  -6 -11  370.78   21.86
  -1  -6 -11  398.75   19.14
   1   6  11  399.48   18.97
   1   6  11  373.48   20.82
   1   6  11  389.53   17.48
  -2  -6 -11  664.26   26.64
  -2  -6 -11  675.02   28.73
  -2  -6 -11  674.70   23.38
  -2  -6 -11  677.24   31.28
   2   6  11  677.03   26.15
   2   6  11  641.17   29.23
  -3  -6 -11   67.60    6.74
  -3  -6 -11   52.58    8.75
  -3  -6 -11   45.75    5.79
  -3  -6 -11   52.89    8.23
   3   6  11   65.02    6.68
  -4  -6 -11  186.81    9.77
  -4  -6 -11  179.29   13.59
  -4  -6 -11  184.49   13.95
  -4  -6 -11  172.16    9.35
   4   6  11  180.48   10.16
  -5  -6 -11  348.87   13.12
  -5  -6 -11  326.22   19.15
  -5  -6 -11  341.76   13.15
   5   6  11  332.73   15.06
  -6  -6 -11    1.15    3.95
   6   6  11    6.43    4.14
  -7  -6 -11   85.33   10.62
  -8  -6 -11  469.73   23.98
  -9  -6 -11  172.57   13.75
 -10  -6 -11  177.48   14.02
   4  -7 -11   35.71    6.66
  -4   7  11   26.97    9.24
  -4   7  11   26.24    4.43
  -4   7  11   29.10    6.87
   3  -7 -11    4.22    3.84
  -3   7  11    1.79    2.72
  -3   7  11   -1.18    5.17
  -3   7  11   -3.92    3.40
   2  -7 -11    1.00    4.80
   2  -7 -11   -1.55    4.07
   2  -7 -11    0.35    3.12
  -2   7  11    3.74    5.70
  -2   7  11    3.23    4.29
  -2   7  11    4.35    3.18
   1  -7 -11   -0.98    3.38
   1  -7 -11   -0.52    2.85
   1  -7 -11    0.12    4.77
  -1   7  11    5.29    4.99
  -1   7  11   -1.36    3.17
  -1   7  11   -0.15    2.63
   0  -7 -11  214.47   13.15
   0  -7 -11  225.63   13.98
   0  -7 -11  212.96   16.99
   0  -7 -11  219.02   11.53
   0   7  11  211.36   12.47
   0   7  11  204.13   16.07
  -1  -7 -11    3.14    3.40
  -1  -7 -11    2.87    2.18
  -1  -7 -11    0.78    4.60
  -1  -7 -11   -2.86    3.04
   1   7  11    0.41    2.83
   1   7  11    3.60    4.32
  -2  -7 -11   57.76    9.84
  -2  -7 -11   46.19    4.07
  -2  -7 -11   49.46    6.74
  -2  -7 -11   32.94    6.72
   2   7  11   38.70    5.61
  -3  -7 -11   11.65    5.83
  -3  -7 -11    6.41    3.03
  -3  -7 -11    2.67    4.02
  -3  -7 -11    5.37    3.08
   3   7  11   -1.26    2.36
  -4  -7 -11   93.40   11.30
  -4  -7 -11   92.38    6.87
  -4  -7 -11   91.03    6.55
  -4  -7 -11   86.99   11.26
   4   7  11   95.27    8.29
  -5  -7 -11  120.90    5.97
  -5  -7 -11  109.32   12.41
  -5  -7 -11  102.18   12.56
  -5  -7 -11  113.10    5.80
   5   7  11  121.60    8.39
  -6  -7 -11  186.44   15.89
  -6  -7 -11  219.14   15.33
  -7  -7 -11  242.83   16.28
  -8  -7 -11   32.69    7.39
  -9  -7 -11    8.69    5.07
 -10  -7 -11   11.10    5.38
   3  -8 -11    6.23    4.04
  -3   8  11   -4.31    5.33
  -3   8  11   -4.79    2.48
  -3   8  11   -2.94    4.70
   2  -8 -11    1.07    2.98
   2  -8 -11    8.41    6.63
   2  -8 -11    8.83    5.15
  -2   8  11    0.25    3.08
  -2   8  11    2.99    4.15
  -2   8  11    2.08    5.85
   1  -8 -11   14.03    5.38
   1  -8 -11   11.04    4.13
   1  -8 -11   15.28    7.45
  -1   8  11   16.53    4.81
  -1   8  11    7.35    5.91
   0  -8 -11    2.52    3.79
   0  -8 -11    0.16    3.48
   0  -8 -11    2.40    2.66
   0  -8 -11   -4.78    4.38
   0   8  11   -1.13    2.91
   0   8  11   -0.27    4.63
  -1  -8 -11   27.47    6.33
  -1  -8 -11   17.75    3.38
  -1  -8 -11   34.88    8.90
  -1  -8 -11   26.97    5.97
   1   8  11   34.84    5.97
  -2  -8 -11  435.40   20.09
  -2  -8 -11  432.10   24.92
  -2  -8 -11  432.09   22.25
   2   8  11  431.54   19.79
  -3  -8 -11  138.71   11.96
  -3  -8 -11  104.53    8.45
  -3  -8 -11  109.07   13.61
   3   8  11  100.88    9.15
  -4  -8 -11   18.98    3.65
  -4  -8 -11   16.93    6.42
  -4  -8 -11   21.25    3.89
  -4  -8 -11   25.71    7.00
   4   8  11   19.61    4.51
  -5  -8 -11   78.75    4.17
  -5  -8 -11   74.41   10.98
  -5  -8 -11   80.30   11.14
   5   8  11   81.56    7.91
  -6  -8 -11   -2.21    4.62
  -6  -8 -11    3.24    4.38
  -7  -8 -11    3.81    5.68
  -7  -8 -11    3.49    4.54
  -8  -8 -11   42.44    8.15
  -8  -8 -11   35.29    9.78
  -9  -8 -11  144.50   12.96
   2  -9 -11   48.54    9.57
   2  -9 -11   69.06    8.26
   2  -9 -11   75.94   13.70
  -2   9  11   66.41    8.24
   1  -9 -11   14.98    4.36
   1  -9 -11   24.04    8.75
   1  -9 -11    9.69    5.43
  -1   9  11    8.95    4.42
   0  -9 -11    4.57    4.30
   0  -9 -11    2.63    5.74
   0  -9 -11    6.58    3.05
   0   9  11    9.20    4.26
  -1  -9 -11    4.91    4.11
  -1  -9 -11   16.07    7.30
  -1  -9 -11    0.73    2.15
  -1  -9 -11    3.17    4.49
   1   9  11    2.58    3.62
  -2  -9 -11    1.41    3.33
  -2  -9 -11    2.45    4.55
  -2  -9 -11    3.87    5.25
   2   9  11   -1.06    3.46
  -3  -9 -11   63.24    7.08
  -3  -9 -11   42.38    9.13
  -3  -9 -11   50.17    9.18
   3   9  11   53.41    7.29
  -4  -9 -11   85.69    6.79
  -4  -9 -11   95.10   12.51
  -4  -9 -11   84.89   11.89
  -4  -9 -11   98.49    6.85
   4   9  11   83.32    8.62
  -5  -9 -11    9.00    6.31
  -5  -9 -11   21.71    7.09
   5   9  11   11.34    4.18
  -6  -9 -11   24.11    8.06
  -6  -9 -11   37.39    8.27
  -7  -9 -11   -2.02    3.78
  -7  -9 -11   -5.37    4.65
  -8  -9 -11   -0.42    5.59
  -8  -9 -11    2.54    4.79
  -9  -9 -11   18.08    7.95
  -9  -9 -11   26.49    7.08
   0 -10 -11   18.32    3.80
   0 -10 -11    3.20    4.61
   0 -10 -11    3.90    7.02
   0  10  11   11.43    4.87
  -1 -10 -11   24.77    8.54
  -1 -10 -11   13.21    5.23
  -1 -10 -11   18.96    6.53
   1  10  11   18.73    5.55
  -2 -10 -11   12.82    4.64
  -2 -10 -11   24.25    8.35
  -2 -10 -11    6.38    5.30
   2  10  11    8.05    4.49
  -3 -10 -11  377.18   24.29
  -3 -10 -11  376.29   22.84
  -3 -10 -11  380.47   17.66
   3  10  11  365.21   18.98
  -4 -10 -11   -0.97    4.77
  -4 -10 -11   -1.00    1.95
  -4 -10 -11   -0.11    2.12
  -4 -10 -11   -4.72    4.11
   4  10  11   11.63    4.42
  -5 -10 -11    3.61    5.81
  -5 -10 -11    5.12    5.81
   5  10  11   12.02    4.39
  -6 -10 -11   18.02    7.79
  -6 -10 -11   15.42    6.50
  -7 -10 -11   35.31    9.63
  -7 -10 -11   35.61    8.25
  -3 -11 -11  196.14   20.69
  -3 -11 -11  182.96   11.62
  -4 -11 -11  427.93   26.87
  -4 -11 -11  440.12   26.44
  -4 -11 -11  437.52   17.00
  -4 -11 -11  410.72   16.85
   4  11  11  427.03   21.39
  -5 -11 -11  129.58   16.20
  -4  -8  12   -4.33    4.58
  -4  -8  12   -0.79    4.78
  -4  -8  12   -1.19    3.92
   3   8 -12   -2.22    3.71
  -3  -8  12   -3.24    4.59
  -3  -8  12   -2.34    4.09
  -3  -8  12   -0.33    4.81
   2   8 -12  276.61   16.10
  -2  -8  12  268.87   20.39
  -2  -8  12  274.98   13.32
  -2  -8  12  267.92   20.90
  -2  -8  12  290.36   18.87
   1   8 -12   33.72    6.73
  -1  -8  12   20.21    8.32
  -1  -8  12   35.80    9.34
   0   8 -12   64.17    8.46
   0  -8  12   45.17   10.17
   0  -8  12   50.85   11.36
  -1   8 -12   41.12    7.18
   1  -8  12   34.32    9.67
   1  -8  12   34.79    9.89
   1  -8  12   43.04    5.29
  -2   8 -12   14.50    5.35
   2  -8  12    2.82    5.68
   2  -8  12    5.87    6.56
   2  -8  12   15.93    3.86
  -6  -7  12  518.72   26.01
  -6  -7  12  352.49   21.02
  -6  -7  12  379.35   22.89
  -5  -7  12    1.91    4.14
  -5  -7  12   10.75    5.77
  -5  -7  12    9.87    6.35
  -4  -7  12    8.82    5.86
  -4  -7  12   12.91    5.28
  -4  -7  12   18.74    7.26
   3   7 -12   15.98    4.95
  -3  -7  12   10.29    5.26
  -3  -7  12   11.61    2.32
  -3  -7  12   13.87    6.67
  -3  -7  12    7.20    5.22
   2   7 -12  491.65   22.44
  -2  -7  12  491.70   27.45
  -2  -7  12  489.21   25.01
  -2  -7  12  485.08   20.19
  -2  -7  12  534.97   28.30
   1   7 -12  180.54   12.14
   1   7 -12  169.83   12.03
  -1  -7  12  186.73   17.02
  -1  -7  12  173.49   14.17
  -1  -7  12  181.16   16.06
   0   7 -12   -0.82    3.30
   0  -7  12   -0.15    5.25
   0  -7  12   -1.31    4.80
  -1   7 -12   19.54    5.07
   1  -7  12   13.78    6.55
   1  -7  12   -1.49    5.41
   1  -7  12   16.72    3.33
  -2   7 -12   34.37    6.40
   2  -7  12   50.69   11.36
   2  -7  12   26.38    8.31
   2  -7  12   44.89    5.78
  -3   7 -12   93.39    9.91
   3  -7  12  101.11    9.43
   3  -7  12   91.42   14.41
   3  -7  12   93.80   14.18
  -4   7 -12  151.54   19.24
  -4   7 -12  157.02   11.33
   4  -7  12  176.15   11.80
   4  -7  12  149.01   18.74
   4  -7  12  147.09   18.51
  -6  -6  12    5.19    4.39
  -6  -6  12    2.92    4.83
  -6  -6  12    4.72    4.05
  -5  -6  12   75.28   10.33
  -5  -6  12   73.44   10.88
  -5  -6  12   65.24    8.92
  -4  -6  12  212.79   15.55
  -4  -6  12  200.67   16.09
  -4  -6  12  201.96   14.39
   3   6 -12   14.30    4.23
  -3  -6  12   14.09    6.44
  -3  -6  12   16.35    5.38
  -3  -6  12   15.62    5.87
  -3  -6  12   19.27    3.06
   2   6 -12  559.05   24.05
  -2  -6  12  564.68   28.59
  -2  -6  12  543.27   22.50
  -2  -6  12  572.19   26.68
  -2  -6  12  620.07   29.80
   1   6 -12  251.86   14.13
  -1  -6  12  259.04   18.55
  -1  -6  12  219.04   17.38
  -1  -6  12  250.04   15.93
   0   6 -12   25.47    5.33
   0   6 -12   22.47    5.08
   0  -6  12   30.86    8.06
   0  -6  12   35.05    8.89
   0  -6  12   31.96    3.20
   0  -6  12   31.40    7.12
  -1   6 -12    3.55    3.41
   1  -6  12   -0.65    4.75
   1  -6  12    2.30    2.35
   1  -6  12    5.94    5.65
  -2   6 -12   18.45    7.58
  -2   6 -12   36.13    6.14
   2  -6  12   28.08    8.54
   2  -6  12   40.54    8.86
   2  -6  12   34.70    5.32
  -3   6 -12    5.93    3.71
  -3   6 -12   14.00    7.28
   3  -6  12    6.13    6.33
   3  -6  12    6.34    3.57
   3  -6  12    4.94    5.80
  -4   6 -12    4.60    4.54
  -4   6 -12    1.35    6.10
  -4   6 -12    7.30    3.79
   4  -6  12    5.19    3.75
   4  -6  12   -1.29    5.03
   4  -6  12    0.14    6.02
  -5   6 -12    1.25    4.84
  -5   6 -12   -3.85    2.65
  -5   6 -12    0.53    6.49
   5  -6  12    2.51    3.82
  -7  -5  12    8.49    4.84
  -7  -5  12   12.05    5.93
  -6  -5  12  138.20   14.59
  -6  -5  12  146.24   11.90
  -5  -5  12    7.21    4.62
  -5  -5  12    1.88    4.34
  -5  -5  12   -0.28    3.21
   4   5 -12   23.97    4.93
  -4  -5  12   24.44    7.17
  -4  -5  12   24.61    6.42
  -4  -5  12   26.73    5.82
   3   5 -12    2.60    3.09
  -3  -5  12   -2.56    1.80
  -3  -5  12   -1.25    3.35
  -3  -5  12   -0.84    4.34
  -3  -5  12   -4.30    2.68
   2   5 -12   24.20    4.85
  -2  -5  12    8.54    5.36
  -2  -5  12   26.30    4.44
  -2  -5  12   28.29    7.49
  -2  -5  12   25.23    5.97
   1   5 -12  417.26   19.07
  -1  -5  12  422.72   23.75
  -1  -5  12  441.05   21.72
  -1  -5  12  398.88   22.63
   0   5 -12  568.55   23.36
   0  -5  12  544.53   27.42
   0  -5  12  530.32   27.85
   0  -5  12  543.79   19.69
   0  -5  12  523.42   25.06
  -1   5 -12  249.21   13.75
  -1   5 -12  247.05   17.33
  -1   5 -12  255.51   13.79
   1  -5  12  275.06   18.78
   1  -5  12  230.69   17.49
   1  -5  12  240.31   11.89
  -2   5 -12   68.33    7.66
  -2   5 -12   61.07   10.35
  -2   5 -12   82.38   11.84
   2  -5  12   63.37   10.70
   2  -5  12   65.30    6.79
  -3   5 -12   59.87   10.97
  -3   5 -12   42.77    6.16
  -3   5 -12   70.79    9.58
   3  -5  12   53.40   10.77
   3  -5  12   51.36    6.59
  -4   5 -12   20.94    7.96
  -4   5 -12   16.35    4.26
  -4   5 -12    8.01    4.54
   4  -5  12   12.48    6.37
   4  -5  12   16.42    4.77
  -5   5 -12  129.61    9.04
  -5   5 -12  113.03   12.29
  -5   5 -12  126.71   16.27
   5  -5  12  121.69   11.30
  -6   5 -12   26.21    4.23
  -6   5 -12    7.57    7.53
  -6   5 -12   13.55    5.41
   6  -5  12   27.64    6.30
  -7  -4  12  229.36   16.92
  -7  -4  12  214.39   14.54
  -6  -4  12  100.85   10.51
  -6  -4  12   87.62   11.87
  -5  -4  12   89.46   10.05
  -5  -4  12   91.42   12.07
  -5  -4  12  115.34   10.89
   4   4 -12  270.65   13.96
  -4  -4  12  279.38   16.13
  -4  -4  12  262.60   15.92
  -4  -4  12  364.81   20.14
   3   4 -12    8.40    3.41
  -3  -4  12   17.05    5.04
  -3  -4  12   24.24    5.57
  -3  -4  12   20.20    3.53
  -3  -4  12   21.12    6.74
   2   4 -12   35.21    5.41
  -2  -4  12   32.10    6.65
  -2  -4  12   29.29    6.83
  -2  -4  12   33.30    4.96
  -2  -4  12   26.03    5.68
   1   4 -12    1.88    2.65
  -1  -4  12    5.67    3.97
  -1  -4  12   -0.83    3.82
  -1  -4  12    4.11    4.24
  -1  -4  12    5.12    3.39
   0   4 -12  140.33   12.23
   0   4 -12  136.41    9.54
   0  -4  12  161.52   11.91
   0  -4  12  134.75   12.72
   0  -4  12  126.88    7.31
   0  -4  12  114.58   12.51
  -1   4 -12   89.67    9.55
  -1   4 -12   85.51    8.13
  -1   4 -12   76.39    7.65
  -1   4 -12  100.48   12.22
   1  -4  12   75.57   10.69
   1  -4  12   67.98    8.75
   1  -4  12  104.23    7.13
  -2   4 -12   32.53    6.28
  -2   4 -12   46.72    8.96
  -2   4 -12   28.88    5.01
   2  -4  12   30.42    7.72
   2  -4  12   46.53    5.70
  -3   4 -12   -3.41    4.12
  -3   4 -12    4.49    3.57
  -3   4 -12    0.31    2.56
   3  -4  12    1.35    4.49
   3  -4  12   -0.78    2.40
  -4   4 -12  221.03   13.89
  -4   4 -12  188.30   11.26
  -4   4 -12  226.97   17.91
   4  -4  12  201.10   12.34
   4  -4  12  197.08   16.39
  -5   4 -12  129.95   15.49
  -5   4 -12  112.33    8.09
  -5   4 -12  118.73   11.34
   5  -4  12  108.97   10.13
  -6   4 -12   17.60    3.40
  -6   4 -12   20.12    8.20
  -6   4 -12   26.37    6.23
   6  -4  12   24.99    5.61
  -7   4 -12    3.28    6.52
  -7   4 -12    0.70    3.76
   7  -4  12    5.34    4.40
  -7  -3  12    0.66    4.44
  -7  -3  12    2.72    3.84
  -6  -3  12   75.69    9.32
  -6  -3  12   49.71    9.25
  -5  -3  12    4.17    3.67
  -5  -3  12    4.55    4.30
   4   3 -12  272.57   13.65
  -4  -3  12  283.43   17.95
  -4  -3  12  272.21   15.77
  -4  -3  12  272.62   14.92
   3   3 -12   -0.15    2.46
  -3  -3  12    2.23    2.42
  -3  -3  12   -2.05    3.83
  -3  -3  12   -0.75    2.99
  -3  -3  12   -2.02    2.67
   2   3 -12   30.84    4.88
  -2  -3  12   41.71    5.29
  -2  -3  12   37.46    6.65
  -2  -3  12   41.40    7.97
  -2  -3  12   41.62    6.33
   1   3 -12  201.18   11.37
   1   3 -12  201.05   13.90
  -1  -3  12  210.02   15.33
  -1  -3  12  204.01   13.14
  -1  -3  12  222.36    8.71
  -1  -3  12  207.06   13.93
  -1  -3  12  217.13   11.82
   0   3 -12 3634.37  114.44
   0   3 -12 3496.03  119.00
   0   3 -12 3369.86  116.10
   0  -3  12 3760.18  120.66
   0  -3  12 3576.88  112.16
   0  -3  12 3609.45  116.99
  -1   3 -12  460.05   21.52
  -1   3 -12  473.26   24.44
  -1   3 -12  472.71   20.28
   1  -3  12  492.50   19.27
   1  -3  12  491.54   22.41
   1  -3  12  482.88   24.76
  -2   3 -12  635.09   24.60
  -2   3 -12  609.34   29.44
  -2   3 -12  580.92   25.76
   2  -3  12  615.68   24.09
   2  -3  12  648.35   29.78
  -3   3 -12  549.21   25.19
  -3   3 -12  600.52   29.43
  -3   3 -12  594.94   23.45
   3  -3  12  613.48   24.09
   3  -3  12  591.32   29.03
  -4   3 -12   16.88    6.76
  -4   3 -12   14.38    3.63
  -4   3 -12   10.12    4.04
   4  -3  12   15.57    4.20
   4  -3  12   16.85    6.19
  -5   3 -12  148.49   16.32
  -5   3 -12  140.59    8.48
  -5   3 -12  141.08   11.03
   5  -3  12  148.03   10.55
   5  -3  12  167.06   18.03
  -6   3 -12    4.34    2.15
  -6   3 -12   -1.25    5.45
  -6   3 -12    0.45    3.55
   6  -3  12   -0.78    3.41
  -7   3 -12  137.73   10.81
  -7   3 -12  146.21   17.30
   7  -3  12  127.03   11.70
  -8   3 -12   47.93   11.34
  -8   3 -12   24.12    5.56
   8  -3  12   38.05    7.05
  -8  -2  12    4.07    4.78
  -7  -2  12  415.29   22.28
  -7  -2  12  500.48   25.70
  -6  -2  12    7.03    4.08
  -6  -2  12   13.47    5.77
   5   2 -12    3.70    2.94
  -5  -2  12   -0.77    2.91
  -5  -2  12    7.04    4.78
   4   2 -12   62.09    6.66
  -4  -2  12   54.15    7.47
  -4  -2  12   47.70    8.63
  -4  -2  12   52.56    6.38
   3   2 -12  260.23   12.77
  -3  -2  12  256.46   14.63
  -3  -2  12  243.41   11.84
  -3  -2  12  232.51   13.14
  -3  -2  12  262.69   16.80
   2   2 -12  536.02   21.11
  -2  -2  12  524.29   22.69
  -2  -2  12  508.02   20.87
  -2  -2  12  511.55   25.62
  -2  -2  12  496.08   22.87
   1   2 -12   74.54    7.14
   1   2 -12   84.85    9.99
  -1  -2  12   67.42    9.52
  -1  -2  12   88.67    9.25
  -1  -2  12   74.71    4.93
  -1  -2  12   66.88    7.11
   0   2 -12    6.40    2.93
   0   2 -12    0.17    3.94
   0   2 -12    9.60    3.78
   0  -2  12    5.71    4.24
   0  -2  12    5.63    2.42
   0  -2  12    3.48    3.15
  -1   2 -12    8.99    3.57
  -1   2 -12   11.33    5.10
  -1   2 -12   11.40    3.41
   1  -2  12   11.83    3.08
   1  -2  12   17.98    4.50
   1  -2  12    5.24    4.33
  -2   2 -12   84.41    7.56
  -2   2 -12   83.02   10.62
  -2   2 -12   70.97    7.07
  -2   2 -12   83.56    8.32
   2  -2  12   84.49   10.54
   2  -2  12  107.68   15.40
   2  -2  12   69.87    6.78
  -3   2 -12  247.14   17.16
  -3   2 -12  258.81   12.44
  -3   2 -12  267.59   14.62
   3  -2  12  247.63   16.55
  -4   2 -12  433.70   23.66
  -4   2 -12  391.25   16.82
  -4   2 -12  408.63   19.41
   4  -2  12  438.10   23.03
   4  -2  12  398.35   18.38
  -5   2 -12  518.50   22.48
  -5   2 -12  484.23   26.89
  -5   2 -12  500.92   18.91
   5  -2  12  499.62   25.85
   5  -2  12  502.01   21.85
  -6   2 -12    2.57    3.19
  -6   2 -12   -1.03    4.72
   6  -2  12   -0.83    2.94
  -7   2 -12    9.60    6.30
  -7   2 -12   18.15    4.71
   7  -2  12   26.09    5.53
  -8   2 -12  168.30   18.87
  -8   2 -12  147.95   10.02
   8  -2  12  143.75   12.98
  -7  -1  12   88.85   10.43
  -7  -1  12  119.70   14.21
  -6  -1  12  165.82   12.39
  -6  -1  12  157.14   13.81
   5   1 -12   64.00    7.21
  -5  -1  12   65.29    9.73
  -5  -1  12   59.87    8.27
   4   1 -12  212.26   11.59
  -4  -1  12  193.79   14.93
  -4  -1  12  198.37   13.05
   3   1 -12    0.07    2.47
  -3  -1  12   -0.07    3.76
  -3  -1  12    1.39    2.40
  -3  -1  12   -0.72    2.02
  -3  -1  12    2.42    3.11
   2   1 -12  357.81   18.93
   2   1 -12  374.54   16.41
  -2  -1  12  385.58   17.29
  -2  -1  12  341.86   17.85
  -2  -1  12  371.38   16.52
  -2  -1  12  361.05   20.28
  -2  -1  12  374.61   12.53
   1   1 -12  653.05   25.07
   1   1 -12  632.25   26.51
   1   1 -12  676.19   28.87
  -1  -1  12  660.12   23.11
  -1  -1  12  600.53   25.43
  -1  -1  12  701.12   30.40
  -1  -1  12  667.78   27.30
   0   1 -12  698.29   29.93
   0   1 -12  642.41   25.57
   0   1 -12  678.30   27.21
   0  -1  12  692.97   28.56
   0  -1  12  697.81   24.90
   0  -1  12  650.16   30.00
   0  -1  12  686.98   27.92
  -1   1 -12   79.55    8.33
  -1   1 -12   93.25    7.98
  -1   1 -12   89.73   10.57
   1  -1  12   86.28   10.52
   1  -1  12   78.74    6.94
   1  -1  12   74.85    8.20
  -2   1 -12  370.58   20.01
  -2   1 -12  325.12   15.18
  -2   1 -12  348.65   16.82
   2  -1  12  349.10   19.47
   2  -1  12  354.11   17.39
   2  -1  12  342.66   15.30
  -3   1 -12  761.33   29.97
  -3   1 -12  826.18   28.27
  -3   1 -12  755.65   33.72
   3  -1  12  744.72   32.53
   3  -1  12  750.77   28.67
  -4   1 -12   92.89    6.54
  -4   1 -12   91.51    8.95
  -4   1 -12  102.84   12.39
   4  -1  12  107.57    8.95
   4  -1  12  102.91   11.79
  -5   1 -12  624.30   21.71
  -5   1 -12  618.47   30.35
  -5   1 -12  617.19   25.28
   5  -1  12  614.35   24.86
   5  -1  12  614.68   28.64
  -6   1 -12  121.54   14.48
  -6   1 -12  152.70   10.03
   6  -1  12  133.54    9.64
  -7   1 -12  154.59    9.90
  -7   1 -12  148.96   16.55
   7  -1  12  164.54   11.08
  -8   1 -12   72.09    6.65
  -8   1 -12   55.62    5.84
  -8   1 -12   47.26   10.22
   8  -1  12   51.68    7.45
  -9   1 -12   -0.09    1.63
  -9   1 -12    5.04    6.35
  -9   1 -12    3.28    1.80
   9  -1  12    3.13    3.95
  -7   0  12    8.56    5.83
  -7   0  12    2.96    4.38
   6   0 -12   29.74    5.34
  -6   0  12   28.72    7.63
  -6   0  12   24.65    6.17
   5   0 -12   95.82    8.69
  -5   0  12   60.73    9.79
  -5   0  12   72.55    9.06
   4   0 -12  160.67   10.10
  -4   0  12  148.15   11.54
  -4   0  12  164.60   13.55
   3   0 -12   31.71    5.07
  -3   0  12   36.97    4.53
  -3   0  12   34.70    6.23
  -3   0  12   43.91    5.36
  -3   0  12   43.93    8.27
   2   0 -12   -2.87    2.28
   2   0 -12    0.84    3.24
  -2   0  12    0.41    2.30
  -2   0  12   -2.32    3.18
  -2   0  12    0.57    3.07
  -2   0  12    1.34    1.42
   1   0 -12  132.59   10.99
   1   0 -12  143.32    8.80
   1   0 -12  135.09    9.72
  -1   0  12  136.99    7.42
  -1   0  12  128.40    8.96
  -1   0  12  120.63    9.74
  -1   0  12  116.40   11.04
   0   0 -12  112.23    7.91
   0   0 -12  127.50   10.85
   0   0 -12  128.08    9.28
   0   0  12  111.08    7.22
   0   0  12  122.60   10.94
   0   0  12  108.87    8.96
  -1   0 -12    6.32    4.02
  -1   0 -12   12.24    3.26
  -1   0 -12    6.73    3.19
   1   0  12    9.40    3.60
   1   0  12   13.18    3.21
   1   0  12    8.72    4.39
  -2   0 -12  126.49    8.01
  -2   0 -12  125.97   11.27
  -2   0 -12  113.05    9.00
   2   0  12  124.91    9.37
   2   0  12  128.74   10.98
   2   0  12  137.77    8.35
  -3   0 -12  475.18   18.32
  -3   0 -12  431.72   19.86
  -3   0 -12  457.24   23.61
   3   0  12  457.36   22.63
   3   0  12  480.85   19.25
  -4   0 -12   64.29    5.37
  -4   0 -12   62.82    7.04
  -4   0 -12   54.66    8.99
   4   0  12   51.40    5.97
   4   0  12   68.27    8.90
  -5   0 -12    2.35    2.75
  -5   0 -12    4.08    2.95
  -5   0 -12    1.47    1.39
  -5   0 -12    1.76    4.44
   5   0  12    1.78    3.62
   5   0  12    2.47    2.92
  -6   0 -12   -2.38    2.20
  -6   0 -12    4.28    2.76
  -6   0 -12    1.88    4.57
   6   0  12   -1.75    2.39
  -7   0 -12    5.92    2.74
  -7   0 -12    6.11    5.28
  -7   0 -12    7.55    2.90
   7   0  12    9.14    3.49
  -8   0 -12   86.58   12.84
  -8   0 -12   93.92    6.14
  -8   0 -12   87.65    6.08
   8   0  12  105.29    9.57
  -9   0 -12   -5.74    4.68
   9   0  12    0.95    3.54
  -7   1  12   -4.13    4.43
  -7   1  12   -1.18    3.84
   6  -1 -12  352.38   17.49
  -6   1  12  342.94   22.19
  -6   1  12  374.50   20.02
   5  -1 -12   91.06    8.75
  -5   1  12   78.67   11.41
  -5   1  12   81.65    9.54
   4  -1 -12  182.20   11.08
  -4   1  12  171.55   14.37
  -4   1  12  178.29   12.69
   3  -1 -12   28.51    4.98
  -3   1  12   32.10    7.45
  -3   1  12   30.60    5.98
   2  -1 -12   50.81    8.05
   2  -1 -12   38.32    5.46
  -2   1  12   50.95    4.55
  -2   1  12   55.35    8.61
  -2   1  12   51.21    7.12
  -2   1  12   48.29    6.11
   1  -1 -12  119.44   10.43
   1  -1 -12  101.41    7.58
   1  -1 -12   93.20   10.55
  -1   1  12   87.48    6.28
  -1   1  12  104.83    9.75
  -1   1  12  103.08   11.44
  -1   1  12  124.01   12.10
   0  -1 -12  513.98   24.82
   0  -1 -12  533.63   21.00
   0  -1 -12  527.50   22.49
   0   1  12  557.78   20.64
   0   1  12  528.85   25.16
   0   1  12  505.45   22.74
  -1  -1 -12   40.78    7.34
  -1  -1 -12   60.37    5.77
  -1  -1 -12   55.57    6.89
   1   1  12   64.92    6.28
   1   1  12   84.78   10.11
   1   1  12   57.81    7.10
  -2  -1 -12    1.39    3.40
  -2  -1 -12   -2.85    1.70
  -2  -1 -12    1.21    2.42
   2   1  12    1.16    2.43
   2   1  12    0.01    2.08
   2   1  12    0.78    3.24
  -3  -1 -12  240.67   12.67
  -3  -1 -12  223.77   12.02
  -3  -1 -12  224.74   10.53
  -3  -1 -12  219.04   15.08
  -3  -1 -12  225.53   10.59
   3   1  12  216.85   11.50
   3   1  12  227.01   14.29
  -4  -1 -12  199.32   14.28
  -4  -1 -12  172.73   10.23
  -4  -1 -12  163.27   10.34
  -4  -1 -12  180.26    8.11
   4   1  12  175.55   10.09
   4   1  12  148.51   11.55
  -5  -1 -12   42.13    5.41
  -5  -1 -12   45.64    8.51
  -5  -1 -12   37.98    5.35
   5   1  12   51.29   11.35
   5   1  12   30.73    4.87
  -6  -1 -12  328.62   19.95
  -6  -1 -12  346.39   14.95
  -6  -1 -12  342.71   14.85
   6   1  12  297.05   15.07
  -7  -1 -12    9.98    5.52
  -7  -1 -12    8.66    2.70
  -7  -1 -12   10.00    2.71
   7   1  12   11.32    3.68
  -8  -1 -12  220.27   17.45
   8   1  12  245.08   13.19
  -9  -1 -12  110.58   13.73
 -10  -1 -12    0.24    5.17
   7  -2 -12  158.05   13.08
  -7   2  12  138.60   16.42
  -7   2  12  149.61   14.79
   6  -2 -12   74.06    8.52
  -6   2  12   65.34    9.64
  -6   2  12   59.43   10.98
   5  -2 -12   40.09    6.18
  -5   2  12   50.88    8.00
  -5   2  12   32.90    8.18
   4  -2 -12   14.97    4.35
  -4   2  12   13.01    5.02
  -4   2  12    3.99    4.91
   3  -2 -12  567.88   22.81
  -3   2  12  540.08   27.28
  -3   2  12  557.19   23.07
  -3   2  12  539.40   24.60
  -3   2  12  525.60   18.70
   2  -2 -12   19.80    4.39
   2  -2 -12   13.23    5.30
   2  -2 -12   25.16    6.62
  -2   2  12   16.24    4.22
  -2   2  12   19.25    6.04
  -2   2  12   17.01    3.18
  -2   2  12   17.66    5.05
   1  -2 -12   18.64    3.77
   1  -2 -12   15.14    5.29
   1  -2 -12   28.23    5.60
  -1   2  12   22.82    3.77
  -1   2  12   18.69    4.58
  -1   2  12   17.87    5.70
  -1   2  12   15.54    4.09
   0  -2 -12  178.25   10.23
   0  -2 -12  193.07   11.79
   0  -2 -12  207.45   14.20
   0   2  12  192.44   13.85
   0   2  12  191.87   12.04
   0   2  12  182.95    9.98
   0   2  12  217.36   12.08
  -1  -2 -12   30.08    6.73
  -1  -2 -12   36.60    5.57
  -1  -2 -12   18.84    3.78
   1   2  12   30.68    4.83
   1   2  12   25.89    4.98
   1   2  12   23.96    4.00
   1   2  12   33.84    6.69
  -2  -2 -12  421.40   16.96
  -2  -2 -12  425.86   18.70
  -2  -2 -12  409.11   21.73
   2   2  12  427.15   17.69
   2   2  12  448.58   19.29
   2   2  12  376.94   20.32
  -3  -2 -12 1454.30   49.36
  -3  -2 -12 1398.42   49.47
  -3  -2 -12 1462.55   47.07
  -3  -2 -12 1408.79   46.91
  -3  -2 -12 1446.25   54.06
   3   2  12 1358.39   48.49
   3   2  12 1500.16   53.08
   3   2  12 1441.71   50.37
  -4  -2 -12  275.97   13.77
  -4  -2 -12  289.08   10.75
  -4  -2 -12  287.34   13.65
  -4  -2 -12  324.45   18.29
   4   2  12  281.60   16.12
   4   2  12  262.30   13.35
  -5  -2 -12 1081.12   37.21
  -5  -2 -12 1008.27   36.73
  -5  -2 -12 1081.57   43.00
   5   2  12 1041.19   37.32
  -6  -2 -12  381.63   15.56
  -6  -2 -12  383.87   15.63
  -6  -2 -12  373.59   21.28
   6   2  12  357.03   16.47
  -7  -2 -12  403.27   22.72
  -7  -2 -12  391.94   14.73
  -7  -2 -12  382.93   14.69
   7   2  12  413.56   17.72
  -8  -2 -12   25.62    7.22
  -9  -2 -12    9.43    5.90
 -10  -2 -12   34.85    8.80
   6  -3 -12   80.86    9.14
  -6   3  12   83.84   11.11
  -6   3  12   84.20   13.12
   5  -3 -12  779.96   32.20
  -5   3  12  796.87   38.32
  -5   3  12  832.46   35.39
  -5   3  12  841.16   31.58
   4  -3 -12  577.43   24.62
  -4   3  12  568.50   29.73
  -4   3  12  609.94   24.76
  -4   3  12  565.68   26.66
   3  -3 -12   46.01   11.55
   3  -3 -12   58.09    6.83
  -3   3  12   56.20    7.84
  -3   3  12   45.26    4.44
  -3   3  12   41.93    8.68
  -3   3  12   61.44    7.54
   2  -3 -12   86.74   11.11
   2  -3 -12   88.77    8.27
   2  -3 -12   73.94   10.44
  -2   3  12   65.63    6.02
  -2   3  12   63.88    8.06
  -2   3  12   79.28    8.51
  -2   3  12   65.21   10.25
   1  -3 -12  413.68   22.36
   1  -3 -12  418.82   19.89
   1  -3 -12  421.37   18.17
  -1   3  12  417.32   22.45
  -1   3  12  458.13   19.77
  -1   3  12  406.71   17.36
  -1   3  12  424.49   20.34
   0  -3 -12   98.01   11.26
   0  -3 -12  133.13    9.73
   0  -3 -12  106.55    7.77
   0   3  12  102.35   11.33
   0   3  12  117.75    9.09
   0   3  12  101.61    7.56
   0   3  12  115.57    9.21
  -1  -3 -12  291.82   15.13
  -1  -3 -12  311.10   18.31
  -1  -3 -12  294.50   13.61
   1   3  12  330.65   18.29
   1   3  12  286.54   15.14
   1   3  12  316.45   14.28
  -2  -3 -12  350.88   20.20
  -2  -3 -12  369.57   17.27
  -2  -3 -12  365.01   15.24
  -2  -3 -12  406.62   17.95
   2   3  12  365.60   17.41
   2   3  12  386.44   16.42
   2   3  12  367.53   19.64
  -3  -3 -12  112.62    8.15
  -3  -3 -12  122.90    6.58
  -3  -3 -12  120.51   12.60
  -3  -3 -12  113.80    8.44
   3   3  12  116.14    7.93
   3   3  12  111.75    9.95
   3   3  12  106.75    9.59
  -4  -3 -12  456.46   23.12
  -4  -3 -12  432.28   18.29
  -4  -3 -12  444.42   18.57
   4   3  12  434.08   18.31
   4   3  12  430.34   20.83
  -5  -3 -12    2.55    2.52
  -5  -3 -12   -0.29    3.90
  -5  -3 -12    3.88    2.40
   5   3  12    5.12    2.83
  -6  -3 -12  105.04    6.43
  -6  -3 -12  107.91    6.42
  -6  -3 -12   76.72   10.50
   6   3  12  103.92    7.62
  -7  -3 -12   18.42    6.27
   7   3  12   16.67    3.97
  -8  -3 -12  200.11   15.39
  -9  -3 -12   27.06    7.17
 -10  -3 -12    2.85    4.84
   6  -4 -12  253.80   15.53
  -6   4  12  239.41   13.64
  -6   4  12  225.59   19.73
   5  -4 -12  105.00   10.42
  -5   4  12   95.45    9.69
  -5   4  12   80.04   12.70
   4  -4 -12    5.58    3.71
  -4   4  12    1.66    5.17
  -4   4  12   -1.95    2.80
   3  -4 -12   -0.67    2.70
  -3   4  12    1.37    2.01
  -3   4  12    0.80    2.89
  -3   4  12   -1.14    4.31
   2  -4 -12   63.15    9.77
   2  -4 -12   61.70    7.17
   2  -4 -12   54.11    8.81
  -2   4  12   60.58    7.61
  -2   4  12   55.47    5.91
  -2   4  12   46.95    8.94
   1  -4 -12   51.06    7.30
   1  -4 -12   34.63    7.47
   1  -4 -12   46.76    5.97
  -1   4  12   43.92    6.68
  -1   4  12   45.49    8.63
  -1   4  12   44.25    5.39
   0  -4 -12  272.19   17.48
   0  -4 -12  253.54   14.74
   0  -4 -12  284.87   13.41
   0   4  12  279.32   13.48
   0   4  12  254.39   16.80
   0   4  12  296.34   15.19
  -1  -4 -12    3.66    2.46
  -1  -4 -12   -0.11    3.72
  -1  -4 -12    2.50    3.08
   1   4  12    2.30    3.70
   1   4  12   -1.32    2.23
   1   4  12   -0.14    2.95
  -2  -4 -12   39.85    5.71
  -2  -4 -12   31.34    6.70
  -2  -4 -12   30.01    4.01
   2   4  12   32.58    4.84
   2   4  12   28.89    6.22
   2   4  12   20.35    4.85
  -3  -4 -12  454.16   23.57
  -3  -4 -12  435.51   19.42
  -3  -4 -12  458.63   19.30
  -3  -4 -12  458.21   16.56
   3   4  12  474.96   19.15
   3   4  12  459.22   22.21
  -4  -4 -12    3.20    4.39
  -4  -4 -12    3.02    2.76
  -4  -4 -12    8.81    2.93
   4   4  12    6.99    2.83
   4   4  12    4.83    5.75
  -5  -4 -12   22.11    3.70
  -5  -4 -12   18.86    3.58
  -5  -4 -12   21.34    6.12
   5   4  12   19.32    3.84
  -6  -4 -12  363.19   20.63
  -6  -4 -12  372.73   13.84
  -6  -4 -12  354.76   13.70
   6   4  12  367.57   16.02
  -7  -4 -12   97.42   11.30
  -8  -4 -12   -6.89    3.20
  -9  -4 -12  169.81   14.54
 -10  -4 -12  245.39   17.79
   5  -5 -12   37.29    6.94
  -5   5  12   26.69    9.25
  -5   5  12   42.28    7.05
   4  -5 -12   34.83    6.38
  -4   5  12   22.21    8.28
  -4   5  12   43.72    4.19
  -4   5  12   32.44    6.42
   3  -5 -12   15.02    4.90
  -3   5  12   24.35    7.59
  -3   5  12   22.94    5.45
  -3   5  12   14.61    3.35
   2  -5 -12  130.82   14.61
   2  -5 -12  109.70    9.85
  -2   5  12  104.35   10.13
  -2   5  12  117.20    8.13
  -2   5  12   90.79   12.36
   1  -5 -12  210.13   13.34
   1  -5 -12  187.72   11.25
   1  -5 -12  183.22   14.99
  -1   5  12  181.85   14.86
  -1   5  12  183.96   12.56
  -1   5  12  181.80   10.76
   0  -5 -12  184.10   14.48
   0  -5 -12  155.96   11.44
   0  -5 -12  160.88    9.82
   0   5  12  163.94   11.66
   0   5  12  187.61   10.74
   0   5  12  166.15   13.63
  -1  -5 -12  390.46   18.52
  -1  -5 -12  373.74   21.63
  -1  -5 -12  383.38   16.04
   1   5  12  394.21   21.26
   1   5  12  391.73   18.63
   1   5  12  354.73   16.78
  -2  -5 -12   16.04    4.31
  -2  -5 -12   19.92    3.33
  -2  -5 -12   15.24    6.07
   2   5  12   13.77    5.37
   2   5  12   16.52    3.97
   2   5  12   22.86    7.83
  -3  -5 -12  275.04   13.60
  -3  -5 -12  254.18   17.23
  -3  -5 -12  272.18   10.32
  -3  -5 -12  282.43   13.98
   3   5  12  279.81   16.27
   3   5  12  278.61   13.63
  -4  -5 -12   27.65    4.42
  -4  -5 -12   30.47    7.20
  -4  -5 -12   20.28    4.02
   4   5  12   40.42    5.38
  -5  -5 -12   16.02    3.18
  -5  -5 -12   16.54    5.81
  -5  -5 -12   19.08    3.38
   5   5  12   24.09    4.28
  -6  -5 -12   14.90    5.55
  -6  -5 -12   18.14    2.10
   6   5  12   13.72    3.62
  -7  -5 -12   12.24    5.04
  -8  -5 -12    9.28    5.03
  -9  -5 -12   -2.01    3.57
 -10  -5 -12   44.00    8.78
   4  -6 -12   25.32    5.95
  -4   6  12   20.78    6.03
  -4   6  12   19.73    3.48
  -4   6  12   15.59    7.91
   3  -6 -12  149.04   11.14
  -3   6  12  138.01   12.58
  -3   6  12  119.05   15.06
  -3   6  12  148.04    9.25
   2  -6 -12   52.60    7.15
   2  -6 -12   88.26   12.92
  -2   6  12   54.97   10.48
  -2   6  12   48.56    7.91
  -2   6  12   49.00    6.36
   1  -6 -12  325.07   15.97
   1  -6 -12  343.01   18.38
   1  -6 -12  350.17   21.93
  -1   6  12  322.32   21.00
  -1   6  12  327.18   16.01
  -1   6  12  308.79   17.63
   0  -6 -12  165.79    9.77
   0  -6 -12  157.90   14.33
   0  -6 -12  150.10   11.57
   0   6  12  173.54   14.25
   0   6  12  122.79    9.54
   0   6  12  161.20   11.91
  -1  -6 -12  369.73   22.09
  -1  -6 -12  363.33   18.33
  -1  -6 -12  380.85   15.79
   1   6  12  374.94   17.30
   1   6  12  348.30   20.43
  -2  -6 -12   90.68    8.86
  -2  -6 -12   93.04   11.87
  -2  -6 -12   96.50    6.16
   2   6  12  112.15   12.26
   2   6  12   93.58    8.70
  -3  -6 -12    1.46    4.08
  -3  -6 -12    1.63    2.77
  -3  -6 -12    0.28    2.88
   3   6  12    5.30    3.04
  -4  -6 -12   60.08    6.34
  -4  -6 -12   59.83    9.54
  -4  -6 -12   71.96    6.61
   4   6  12   59.98    6.80
  -5  -6 -12  385.16   21.26
  -5  -6 -12  340.47   14.15
  -5  -6 -12  350.18   14.37
   5   6  12  354.36   16.20
  -6  -6 -12  132.90   12.36
   6   6  12  121.07    8.52
  -7  -6 -12   46.60    8.43
  -8  -6 -12  256.00   17.36
  -9  -6 -12    4.73    4.58
 -10  -6 -12   39.65    8.12
   3  -7 -12   68.86    8.83
  -3   7  12   56.28   11.96
  -3   7  12   56.99    6.86
  -3   7  12   62.14    9.18
   2  -7 -12    3.49    3.51
   2  -7 -12    1.28    5.26
  -2   7  12    8.67    6.30
  -2   7  12   -4.20    2.45
  -2   7  12    0.99    3.67
   1  -7 -12   -1.00    4.82
   1  -7 -12   -2.28    3.60
   1  -7 -12   -0.21    2.77
  -1   7  12   -1.73    2.50
  -1   7  12   -0.58    4.58
  -1   7  12    7.66    4.49
   0  -7 -12   50.66    6.13
   0  -7 -12   50.54    7.72
   0  -7 -12   59.15   10.73
   0  -7 -12   66.81    8.27
   0   7  12   42.29    9.03
   0   7  12   46.56    6.72
  -1  -7 -12   74.48    9.06
  -1  -7 -12   76.00   11.55
  -1  -7 -12   86.84   10.02
  -1  -7 -12   68.73    6.46
   1   7  12   75.90   11.10
   1   7  12   84.12    8.72
  -2  -7 -12    2.60    3.87
  -2  -7 -12    1.61    1.76
  -2  -7 -12   -0.85    4.23
  -2  -7 -12   -4.16    2.75
   2   7  12   -0.88    2.88
  -3  -7 -12   34.68    5.51
  -3  -7 -12   35.78    8.08
  -3  -7 -12   30.79    6.96
   3   7  12   23.89    5.12
  -4  -7 -12  193.46   15.79
  -4  -7 -12  217.13   15.75
  -4  -7 -12  230.43   11.68
  -4  -7 -12  215.92   11.10
   4   7  12  222.70   12.26
  -5  -7 -12  169.48   14.57
  -5  -7 -12  201.93   15.35
  -5  -7 -12  180.81    8.77
  -5  -7 -12  173.43    8.54
   5   7  12  184.35   10.85
  -6  -7 -12    1.29    4.01
  -7  -7 -12  111.13   12.89
  -8  -7 -12   28.00    7.43
  -9  -7 -12    8.17    5.20
   2  -8 -12   12.22    7.54
   2  -8 -12   15.93    4.95
  -2   8  12   12.83    5.75
  -2   8  12   11.36    7.35
  -2   8  12   11.07    4.27
   1  -8 -12   39.73    6.03
   1  -8 -12   48.28   10.89
   1  -8 -12   35.06    7.36
  -1   8  12   30.73    5.82
  -1   8  12   46.80   10.12
   0  -8 -12    9.12    5.02
   0  -8 -12    7.28    6.20
   0  -8 -12    8.45    3.54
   0   8  12    8.68    4.32
  -1  -8 -12 1013.51   39.50
  -1  -8 -12 1022.81   40.49
  -1  -8 -12 1024.25   45.34
  -1  -8 -12 1018.63   35.27
   1   8  12  988.48   38.27
  -2  -8 -12    7.72    5.02
  -2  -8 -12    8.86    1.95
  -2  -8 -12    4.37    3.77
  -2  -8 -12   19.26    7.36
   2   8  12   11.22    4.23
  -3  -8 -12  120.19    9.15
  -3  -8 -12   90.22   12.61
  -3  -8 -12  116.81   12.92
   3   8  12   93.70    9.47
  -4  -8 -12   15.76    6.57
  -4  -8 -12    9.11    3.00
  -4  -8 -12    8.32    5.60
  -4  -8 -12   13.11    3.57
   4   8  12    6.80    3.58
  -5  -8 -12  343.46   13.35
  -5  -8 -12  358.13   21.97
  -5  -8 -12  346.69   13.45
  -5  -8 -12  321.02   21.02
   5   8  12  361.85   16.84
  -6  -8 -12    9.39    6.19
  -6  -8 -12   16.01    6.35
  -7  -8 -12    6.54    5.14
  -8  -8 -12   36.00    7.83
  -9  -8 -12   -0.20    4.14
   1  -9 -12  150.13   10.37
   1  -9 -12  132.48   17.29
   1  -9 -12  131.49   13.58
  -1   9  12  121.71   11.43
   0  -9 -12    3.66    2.97
   0  -9 -12   -4.63    5.77
   0  -9 -12    2.67    4.48
   0   9  12    0.46    3.53
  -1  -9 -12   15.76    7.67
  -1  -9 -12   15.02    5.61
  -1  -9 -12   18.99    3.52
  -1  -9 -12   18.48    5.53
   1   9  12   13.70    4.93
  -2  -9 -12   15.23    6.06
  -2  -9 -12   21.44    5.42
  -2  -9 -12   15.80    7.62
   2   9  12   24.18    5.51
  -3  -9 -12   67.73   11.95
  -3  -9 -12   54.08    7.04
  -3  -9 -12   60.88   10.18
   3   9  12   48.54    7.01
  -4  -9 -12  138.77   16.10
  -4  -9 -12  118.39    8.27
  -4  -9 -12  117.15    8.01
  -4  -9 -12  121.92   14.67
   4   9  12  133.10   11.46
  -5  -9 -12  257.70    9.87
  -5  -9 -12  261.36   19.16
  -5  -9 -12  250.38   18.81
   5   9  12  245.08   14.20
  -6  -9 -12   27.64    7.81
  -6  -9 -12   11.64    6.29
  -7  -9 -12   15.03    7.58
  -7  -9 -12   19.14    6.83
  -8  -9 -12   14.02    6.46
  -8  -9 -12   13.55    7.61
  -1 -10 -12   -3.95    4.03
  -1 -10 -12    5.93    6.52
   1  10  12   -1.10    3.55
  -2 -10 -12    4.75    5.79
  -2 -10 -12    5.76    6.21
  -2 -10 -12    3.81    4.00
   2  10  12    8.31    4.48
  -3 -10 -12   23.45    8.25
  -3 -10 -12   19.71    4.93
  -3 -10 -12   27.06    7.75
   3  10  12   19.19    5.55
  -4 -10 -12   66.55   11.87
  -4 -10 -12   59.86   10.71
  -4 -10 -12   54.34    6.03
  -4 -10 -12   64.80    6.32
   4  10  12   79.38    9.04
  -5 -10 -12   70.64   12.04
  -5 -10 -12   82.99   12.93
   5  10  12   89.29    9.57
  -6 -10 -12   21.80    8.66
  -6 -10 -12   25.78    8.24
  -7 -10 -12   75.92   13.39
  -7 -10 -12   81.57   12.47
  -3  -8  13  153.90   17.14
   2   8 -13    8.66    4.70
  -2  -8  13   11.56    3.67
  -2  -8  13    4.34    5.54
  -2  -8  13    8.39    6.40
  -2  -8  13    3.22    6.69
   1   8 -13    3.97    4.22
   1   8 -13    4.93    4.39
  -1  -8  13    6.31    6.05
  -1  -8  13    3.29    6.35
   0   8 -13   31.87    6.73
   0  -8  13   30.08    9.41
   0  -8  13   42.23   11.34
  -5  -7  13    4.84    5.41
  -5  -7  13    0.42    4.32
  -5  -7  13   -3.22    4.20
  -4  -7  13   64.67   10.86
  -4  -7  13   68.15   11.65
  -4  -7  13   63.06    9.65
   3   7 -13   77.19    9.14
  -3  -7  13   74.48    4.92
  -3  -7  13   99.57   13.21
  -3  -7  13   70.34   11.71
  -3  -7  13   67.64    9.92
   2   7 -13   35.55    6.60
  -2  -7  13   33.34    5.30
  -2  -7  13   50.37   10.22
  -2  -7  13   36.68    9.15
  -2  -7  13   29.49    7.19
   1   7 -13  270.24   16.17
   1   7 -13  297.66   16.49
  -1  -7  13  334.32   22.68
  -1  -7  13  275.17   20.52
   0   7 -13   87.02    9.83
   0  -7  13   86.72   13.30
   0  -7  13   93.04   13.93
  -1   7 -13   17.87    5.41
   1  -7  13   15.13    3.15
   1  -7  13    9.23    6.20
   1  -7  13   14.02    7.49
  -2   7 -13   41.76    7.02
   2  -7  13   44.04    5.82
   2  -7  13   34.51   10.16
   2  -7  13   30.24    8.77
  -3   7 -13    6.95    4.35
   3  -7  13    0.99    3.26
   3  -7  13   -2.52    4.91
   3  -7  13   -0.95    5.98
  -6  -6  13  135.85   13.39
  -6  -6  13  159.84   16.81
  -5  -6  13   23.08    6.26
  -5  -6  13   27.19    7.96
  -5  -6  13   33.11    7.61
  -4  -6  13   84.83   11.61
  -4  -6  13   86.99   12.43
  -4  -6  13   70.21    9.84
   3   6 -13    1.53    3.02
  -3  -6  13    1.17    2.04
  -3  -6  13   -1.33    4.39
  -3  -6  13   -3.93    3.62
  -3  -6  13    0.96    4.36
   2   6 -13    6.67    4.22
  -2  -6  13   10.84    6.38
  -2  -6  13    8.83    3.22
  -2  -6  13    6.84    4.78
  -2  -6  13    7.89    5.29
   1   6 -13   35.24    6.33
  -1  -6  13   19.95    6.41
  -1  -6  13   24.44    8.12
  -1  -6  13   23.96    7.68
   0   6 -13  269.18   15.04
   0   6 -13  246.23   14.72
   0  -6  13  258.92    9.88
   0  -6  13  265.41   19.28
   0  -6  13  268.88   20.14
  -1   6 -13   23.96    5.46
   1  -6  13   19.89    7.74
   1  -6  13   16.61    7.36
   1  -6  13   16.69    3.59
  -2   6 -13   83.25    9.08
   2  -6  13  102.47   14.85
   2  -6  13   82.38   13.05
   2  -6  13   83.17    7.96
  -3   6 -13  155.85   11.16
  -3   6 -13  176.32   19.15
   3  -6  13  123.64   15.48
   3  -6  13  170.59   18.78
   3  -6  13  150.20   10.55
  -4   6 -13   17.93    8.28
  -4   6 -13   13.56    4.54
  -4   6 -13   24.67    6.66
   4  -6  13   14.02    7.31
   4  -6  13   16.35    4.78
   4  -6  13   24.89    8.72
  -6  -5  13   75.68   11.52
  -6  -5  13   70.38    9.50
  -5  -5  13   19.84    5.87
  -5  -5  13   26.58    7.59
  -5  -5  13   18.80    5.70
   4   5 -13   85.71    8.65
  -4  -5  13   96.36   10.65
  -4  -5  13  109.04   13.30
  -4  -5  13   88.25   11.02
   3   5 -13   70.95    7.82
  -3  -5  13   48.90    7.92
  -3  -5  13   69.70    5.89
  -3  -5  13   49.37    8.46
  -3  -5  13   52.70    9.34
   2   5 -13   -1.96    3.04
  -2  -5  13    3.39    5.05
  -2  -5  13    2.92    2.88
  -2  -5  13    1.08    4.01
  -2  -5  13    2.90    3.96
   1   5 -13  600.92   24.91
  -1  -5  13  597.60   29.21
  -1  -5  13  559.72   27.08
  -1  -5  13  577.89   29.97
   0   5 -13  619.33   26.11
   0  -5  13  625.90   22.17
   0  -5  13  641.27   31.82
   0  -5  13  651.74   30.85
   0  -5  13  605.65   30.56
  -1   5 -13   65.37    7.61
  -1   5 -13   55.15    7.10
   1  -5  13   73.30   11.77
   1  -5  13   52.94   10.02
   1  -5  13   74.06    6.72
  -2   5 -13   22.83    7.47
  -2   5 -13    9.72    3.90
   2  -5  13   11.11    6.31
   2  -5  13   11.64    3.67
  -3   5 -13   -0.30    3.69
  -3   5 -13   -1.49    2.73
  -3   5 -13   13.16    6.64
   3  -5  13    4.96    3.08
   3  -5  13    2.18    5.46
  -4   5 -13    2.93    5.70
  -4   5 -13   -2.02    3.35
  -4   5 -13   -0.06    2.93
   4  -5  13    2.77    3.43
   4  -5  13   -1.03    5.10
  -5   5 -13   -1.13    2.77
  -5   5 -13   12.24    7.53
  -5   5 -13   -1.75    3.85
   5  -5  13    3.47    3.73
  -6   5 -13   59.16   12.89
  -6   5 -13   57.20    8.91
   6  -5  13   40.04    7.36
  -7  -4  13   19.98    5.88
  -7  -4  13   14.65    6.23
  -6  -4  13    3.77    4.92
  -6  -4  13   -1.22    3.78
  -5  -4  13   30.05    7.86
  -5  -4  13   26.51    6.27
   4   4 -13   39.94    6.12
  -4  -4  13   50.61    7.74
  -4  -4  13   33.45    6.81
  -4  -4  13   51.57    9.24
   3   4 -13   72.60    7.92
  -3  -4  13   85.36   10.23
  -3  -4  13   77.05   11.65
  -3  -4  13   80.30    9.60
  -3  -4  13   78.31    6.67
   2   4 -13   -1.25    2.63
  -2  -4  13   -1.72    4.11
  -2  -4  13   -1.13    3.56
  -2  -4  13   -3.27    3.13
  -2  -4  13    3.58    2.69
   1   4 -13   74.96    8.08
  -1  -4  13   88.43   12.28
  -1  -4  13   71.94   10.12
  -1  -4  13   95.92   10.52
   0   4 -13  163.19   18.01
   0   4 -13  165.70   10.70
   0  -4  13  147.09   13.11
   0  -4  13  141.23    7.85
   0  -4  13  141.77   15.14
   0  -4  13  149.91   12.09
  -1   4 -13  118.37    9.20
  -1   4 -13   99.16    9.26
  -1   4 -13  132.82   14.46
   1  -4  13  124.54    8.10
   1  -4  13  154.57   16.05
  -2   4 -13  207.54   12.52
  -2   4 -13  220.69   14.48
  -2   4 -13  237.49   17.65
   2  -4  13  216.57   12.05
   2  -4  13  273.40   18.58
  -3   4 -13  252.25   15.62
  -3   4 -13  263.45   13.68
  -3   4 -13  269.90   19.38
   3  -4  13  247.97   13.57
   3  -4  13  243.27   18.23
  -4   4 -13   -1.32    3.19
  -4   4 -13   -2.30    2.42
  -4   4 -13    4.13    6.10
   4  -4  13    1.93    3.17
   4  -4  13   -0.22    4.47
  -5   4 -13   18.11    7.90
  -5   4 -13   18.76    4.07
  -5   4 -13   22.72    6.06
   5  -4  13   12.42    4.58
  -6   4 -13   25.14    8.78
  -6   4 -13   17.31    5.41
  -6   4 -13   23.43    3.81
   6  -4  13   18.92    5.35
  -7  -3  13   80.09   12.09
  -7  -3  13   81.21    9.99
  -6  -3  13   37.61    8.34
  -6  -3  13   44.30    7.62
  -5  -3  13   11.22    4.50
  -5  -3  13    6.74    5.32
   4   3 -13    1.78    3.04
  -4  -3  13   -1.58    4.29
  -4  -3  13    4.55    3.84
  -4  -3  13    0.50    3.23
   3   3 -13    0.10    2.67
  -3  -3  13    5.78    3.72
  -3  -3  13   -1.19    3.84
  -3  -3  13    0.35    2.37
  -3  -3  13    3.00    3.41
   2   3 -13   80.54    8.02
  -2  -3  13   96.82   10.38
  -2  -3  13   96.25    7.59
  -2  -3  13   72.38   10.59
  -2  -3  13   83.21    9.65
   1   3 -13  255.25   13.17
  -1  -3  13  267.90   17.64
  -1  -3  13  233.40   14.65
  -1  -3  13  228.94    9.45
  -1  -3  13  246.06   15.45
   0   3 -13 1181.48   46.76
   0   3 -13 1143.69   41.95
   0  -3  13 1174.31   47.62
   0  -3  13 1181.84   39.70
   0  -3  13 1187.55   44.70
  -1   3 -13  287.09   18.35
  -1   3 -13  270.11   14.26
  -1   3 -13  272.21   15.65
   1  -3  13  338.39   24.55
   1  -3  13  265.01   18.18
   1  -3  13  273.59   13.10
  -2   3 -13    6.81    3.35
  -2   3 -13    1.71    2.67
  -2   3 -13    3.69    3.64
  -2   3 -13   -0.85    4.44
   2  -3  13    8.17    4.98
   2  -3  13    8.09    3.16
  -3   3 -13   68.74    8.63
  -3   3 -13   43.32    5.76
  -3   3 -13   56.74   10.45
   3  -3  13   45.14    8.99
   3  -3  13   51.08    6.44
  -4   3 -13   -3.11    2.19
  -4   3 -13   -0.43    3.08
  -4   3 -13    4.42    5.53
   4  -3  13    0.93    4.44
   4  -3  13   -0.33    3.07
  -5   3 -13    2.28    5.69
  -5   3 -13    5.75    4.21
  -5   3 -13   15.24    3.41
   5  -3  13    4.38    3.55
  -6   3 -13    0.35    1.92
  -6   3 -13    0.90    3.99
  -6   3 -13    3.06    5.63
   6  -3  13    3.33    3.75
  -7   3 -13    4.72    3.92
  -7   3 -13    3.79    6.49
   7  -3  13    6.03    4.30
  -7  -2  13   -7.31    2.93
  -7  -2  13    0.63    4.55
  -6  -2  13   50.38    8.03
  -6  -2  13   49.41    9.28
   5   2 -13   48.15    6.53
  -5  -2  13   65.53    8.73
  -5  -2  13   35.30    8.38
   4   2 -13   15.30    4.02
  -4  -2  13    3.94    4.73
  -4  -2  13    5.02    3.94
   3   2 -13  501.83   21.02
  -3  -2  13  517.29   23.68
  -3  -2  13  507.10   26.04
  -3  -2  13  465.08   21.35
  -3  -2  13  490.32   19.95
   2   2 -13   48.61    6.11
  -2  -2  13   46.92    5.98
  -2  -2  13   34.17    7.71
  -2  -2  13   53.16    7.47
  -2  -2  13   54.97    7.32
   1   2 -13   37.11    5.46
   1   2 -13   44.76    8.01
  -1  -2  13   45.09    4.14
  -1  -2  13   40.06    8.09
  -1  -2  13   30.34    5.99
   0   2 -13  616.51   24.50
   0   2 -13  566.09   25.69
   0   2 -13  627.35   29.07
   0  -2  13  601.78   29.27
   0  -2  13  631.85   22.88
   0  -2  13  619.12   26.67
  -1   2 -13  312.56   18.96
  -1   2 -13  316.69   16.49
  -1   2 -13  303.43   14.86
   1  -2  13  291.26   16.50
   1  -2  13  308.73   13.99
   1  -2  13  299.14   18.86
  -2   2 -13   13.98    4.49
  -2   2 -13    7.30    3.30
  -2   2 -13   14.35    5.93
  -2   2 -13   16.04    4.16
   2  -2  13    9.10    3.23
   2  -2  13   14.87    6.11
  -3   2 -13  341.96   15.58
  -3   2 -13  328.25   20.91
  -3   2 -13  353.83   17.86
   3  -2  13  345.24   16.28
   3  -2  13  353.83   20.61
  -4   2 -13  282.24   13.10
  -4   2 -13  281.77   19.03
  -4   2 -13  253.66   15.10
   4  -2  13  264.00   18.04
   4  -2  13  275.79   14.35
  -5   2 -13   33.43    8.83
  -5   2 -13   27.22    5.59
  -5   2 -13   27.58    4.07
   5  -2  13   27.83    5.51
  -6   2 -13    7.65    6.42
  -6   2 -13   16.69    2.32
  -6   2 -13   14.83    4.51
   6  -2  13   18.23    5.02
  -7   2 -13   20.81    7.85
  -7   2 -13   10.70    3.99
   7  -2  13   15.55    5.02
  -8   2 -13   37.50   10.34
  -8   2 -13   22.52    4.98
   8  -2  13   41.47    7.39
  -7  -1  13   -4.34    4.16
  -7  -1  13    0.09    3.98
  -6  -1  13   81.48   10.05
  -6  -1  13   93.86   12.41
   5   1 -13  133.86    9.82
  -5  -1  13  132.44   14.99
  -5  -1  13  120.22   11.59
   4   1 -13  106.04    9.30
  -4  -1  13   91.35   10.23
  -4  -1  13  101.10   12.41
   3   1 -13  191.25   10.96
  -3  -1  13  171.60   14.34
  -3  -1  13  165.36   10.01
  -3  -1  13  173.82   10.38
  -3  -1  13  177.37   12.50
   2   1 -13   47.66    6.34
  -2  -1  13   60.77    7.92
  -2  -1  13   52.67    8.80
  -2  -1  13   60.09    7.38
  -2  -1  13   64.05    6.94
   1   1 -13  168.27   13.09
   1   1 -13  160.74   10.09
  -1  -1  13  165.57   13.71
  -1  -1  13  177.33    8.51
  -1  -1  13  169.05   11.96
   0   1 -13  405.48   21.49
   0   1 -13  391.79   19.03
   0   1 -13  389.53   17.37
   0  -1  13  421.06   22.36
   0  -1  13  388.30   16.29
   0  -1  13  383.32   19.32
  -1   1 -13    3.93    3.41
  -1   1 -13    3.99    2.73
  -1   1 -13    3.53    4.37
   1  -1  13    8.33    2.96
   1  -1  13    6.49    4.95
   1  -1  13   -2.16    2.53
  -2   1 -13  136.54   12.75
  -2   1 -13  135.42    8.96
  -2   1 -13  137.80   10.26
   2  -1  13  137.55    8.90
   2  -1  13  135.17   12.28
  -3   1 -13   64.49    6.40
  -3   1 -13   60.17    7.50
  -3   1 -13   59.93    9.92
   3  -1  13   57.37    6.33
   3  -1  13   60.04    9.30
  -4   1 -13   29.95    5.69
  -4   1 -13   29.40    7.63
  -4   1 -13   24.16    3.99
   4  -1  13   34.04    7.47
   4  -1  13   36.46    5.53
  -5   1 -13    2.99    5.11
  -5   1 -13    4.41    3.52
  -5   1 -13    4.38    2.28
   5  -1  13    3.19    2.96
  -6   1 -13  230.80   13.35
  -6   1 -13  270.17   18.88
   6  -1  13  210.69   12.94
  -7   1 -13   30.60    5.25
  -7   1 -13   37.94    9.38
   7  -1  13   36.42    6.10
  -8   1 -13    2.47    2.74
  -8   1 -13   -2.42    5.39
   8  -1  13   -3.06    3.10
  -7   0  13   30.12    7.11
  -7   0  13   25.79    8.04
   6   0 -13  102.85   10.07
  -6   0  13  116.08   14.30
  -6   0  13  107.05   11.42
   5   0 -13    2.82    3.35
  -5   0  13    4.69    4.27
  -5   0  13    0.74    4.54
   4   0 -13  254.36   13.50
  -4   0  13  236.31   17.25
  -4   0  13  215.35   14.59
   3   0 -13  278.83   14.29
  -3   0  13  286.67   18.55
  -3   0  13  259.79   15.82
  -3   0  13  279.86   13.83
   2   0 -13   13.59    5.13
   2   0 -13    7.23    3.53
  -2   0  13   13.79    2.40
  -2   0  13   10.66    5.43
  -2   0  13   12.46    4.37
   1   0 -13  886.93   31.85
   1   0 -13  791.59   33.11
   1   0 -13  819.48   35.56
  -1   0  13  863.13   29.88
  -1   0  13  888.87   34.34
  -1   0  13  869.34   36.91
   0   0 -13  103.89    8.69
   0   0 -13   98.71    9.92
   0   0 -13  118.81   12.43
   0   0  13   87.82    9.01
   0   0  13   95.80   11.85
   0   0  13  102.08    7.00
  -1   0 -13  165.51    9.96
  -1   0 -13  183.42   11.65
  -1   0 -13  186.95   13.88
   1   0  13  168.55   13.38
   1   0  13  171.06   11.62
  -2   0 -13   -3.26    3.42
  -2   0 -13    2.48    2.53
  -2   0 -13   -3.64    2.51
   2   0  13   -2.10    3.30
   2   0  13    3.39    2.63
  -3   0 -13   -0.54    2.03
  -3   0 -13   -2.29    3.72
  -3   0 -13   -0.17    2.83
   3   0  13   -0.03    2.44
   3   0  13   -2.85    3.60
  -4   0 -13 2532.56   88.96
  -4   0 -13 2529.53   83.39
  -4   0 -13 2544.58   80.16
   4   0  13 2483.67   86.97
   4   0  13 2479.92   82.31
  -5   0 -13  105.03    5.66
  -5   0 -13  121.52    9.26
  -5   0 -13  115.09   13.50
   5   0  13  105.18    9.14
  -6   0 -13  101.19    9.06
  -6   0 -13   98.22   13.16
   6   0  13  117.38    8.94
  -7   0 -13  115.66   14.62
  -7   0 -13  116.00    8.06
  -7   0 -13   88.51    8.07
   7   0  13  107.24    9.90
  -8   0 -13    8.02    2.80
  -8   0 -13    6.27    2.70
  -8   0 -13    7.86    5.93
   8   0  13    0.58    3.19
  -9   0 -13   27.52    8.80
   9   0  13   28.70    6.21
  -7   1  13   -4.00    4.87
   6  -1 -13   83.77    9.26
  -6   1  13   56.04   10.74
  -6   1  13   78.26   10.64
   5  -1 -13    4.52    3.47
  -5   1  13    3.91    3.72
  -5   1  13    0.35    4.81
   4  -1 -13  281.39   14.81
  -4   1  13  282.64   16.87
  -4   1  13  278.20   19.16
   3  -1 -13  138.19    9.79
  -3   1  13  157.38   13.65
  -3   1  13  147.60   11.74
   2  -1 -13    1.63    2.65
   2  -1 -13   -2.43    3.36
  -2   1  13   -1.63    1.57
  -2   1  13   -1.47    2.80
  -2   1  13   -1.91    3.47
   1  -1 -13    1.50    2.68
   1  -1 -13    6.90    4.54
   1  -1 -13    4.70    3.47
  -1   1  13    4.77    4.12
  -1   1  13    4.50    2.40
  -1   1  13    9.71    5.19
   0  -1 -13   26.53    6.65
   0  -1 -13   17.66    3.79
   0  -1 -13   18.50    4.65
   0   1  13   21.13    5.19
   0   1  13   23.38    3.87
   0   1  13   20.50    5.91
  -1  -1 -13    1.51    2.89
  -1  -1 -13   -1.06    3.26
  -1  -1 -13   -0.14    2.19
   1   1  13    1.60    2.38
   1   1  13   -2.64    3.00
   1   1  13    4.47    3.05
  -2  -1 -13  396.14   18.57
  -2  -1 -13  383.29   16.67
  -2  -1 -13  378.52   21.51
   2   1  13  415.14   17.42
   2   1  13  415.22   21.70
  -3  -1 -13  200.77   12.37
  -3  -1 -13  210.39   10.43
  -3  -1 -13  201.68   15.16
  -3  -1 -13  218.44   10.54
   3   1  13  230.39   14.81
   3   1  13  208.57   11.50
  -4  -1 -13   40.92    5.87
  -4  -1 -13   35.35    8.06
  -4  -1 -13   47.36    4.54
   4   1  13   40.84    5.79
   4   1  13   42.85    7.66
  -5  -1 -13  597.08   24.83
  -5  -1 -13  606.78   30.03
  -5  -1 -13  706.74   32.14
   5   1  13  602.57   24.59
  -6  -1 -13    5.64    2.89
  -6  -1 -13    9.05    3.37
  -6  -1 -13    9.58    5.35
   6   1  13    8.60    3.38
  -7  -1 -13   18.48    3.71
  -7  -1 -13   21.43    7.15
  -7  -1 -13   20.75    3.78
   7   1  13   14.86    4.20
  -8  -1 -13   27.04    7.92
  -8  -1 -13   32.26    3.54
  -8  -1 -13   29.85    3.38
   8   1  13   32.11    5.90
  -9  -1 -13   57.39   10.79
   6  -2 -13   95.98   10.06
  -6   2  13   97.49   11.97
  -6   2  13   93.60   13.44
   5  -2 -13   10.46    4.30
  -5   2  13   -0.32    4.32
  -5   2  13    9.00    6.16
   4  -2 -13  145.98   10.80
  -4   2  13  152.17   12.56
  -4   2  13  166.19   14.88
   3  -2 -13   80.20    8.38
  -3   2  13  116.61   13.94
  -3   2  13   84.72    4.85
  -3   2  13   95.71   10.54
   2  -2 -13    3.30    3.15
   2  -2 -13    3.11    4.09
  -2   2  13   -2.85    3.52
  -2   2  13    4.57    3.27
  -2   2  13    1.24    3.37
  -2   2  13    7.22    2.44
   1  -2 -13  495.04   20.80
   1  -2 -13  491.79   22.51
   1  -2 -13  495.31   25.31
  -1   2  13  527.14   26.05
  -1   2  13  490.67   22.12
  -1   2  13  492.44   22.94
  -1   2  13  488.80   19.54
   0  -2 -13   33.91    5.84
   0  -2 -13   46.45    5.81
   0  -2 -13   50.02    8.59
   0   2  13   43.63    6.58
   0   2  13   46.41    5.51
   0   2  13   54.82    8.83
   0   2  13   58.28    7.53
  -1  -2 -13    0.86    2.87
  -1  -2 -13   -1.14    2.08
  -1  -2 -13    1.36    3.72
   1   2  13   -2.47    2.67
   1   2  13   -2.29    2.09
   1   2  13    0.91    3.19
  -2  -2 -13  211.62   10.71
  -2  -2 -13  226.90   15.61
  -2  -2 -13  197.07   12.12
   2   2  13  200.86   14.28
   2   2  13  210.39   12.76
   2   2  13  194.85   11.06
  -3  -2 -13   11.26    2.84
  -3  -2 -13    7.31    2.63
  -3  -2 -13    6.49    3.41
  -3  -2 -13    6.67    5.09
   3   2  13   11.67    3.52
   3   2  13   12.68    4.90
   3   2  13    6.54    3.71
  -4  -2 -13 1524.00   58.10
  -4  -2 -13 1519.08   48.80
  -4  -2 -13 1605.92   54.47
  -4  -2 -13 1474.34   52.43
   4   2  13 1503.98   56.06
   4   2  13 1531.34   52.17
  -5  -2 -13   46.44    5.73
  -5  -2 -13   43.91    5.68
  -5  -2 -13   47.74    8.77
   5   2  13   41.29    5.86
  -6  -2 -13  452.88   24.65
  -6  -2 -13  441.18   18.40
  -6  -2 -13  449.64   18.40
   6   2  13  452.76   19.47
  -7  -2 -13   44.92    4.66
  -7  -2 -13   46.59    4.65
  -7  -2 -13   54.23    9.50
   7   2  13   40.17    5.82
  -8  -2 -13    8.18    5.94
   8   2  13    8.39    3.78
  -9  -2 -13   87.35   12.27
   6  -3 -13    1.14    3.84
  -6   3  13   -6.24    4.43
   5  -3 -13   44.46    7.41
  -5   3  13   49.97    8.90
  -5   3  13   36.88    9.80
   4  -3 -13   23.53    5.19
  -4   3  13   13.73    4.19
  -4   3  13   19.03    6.14
  -4   3  13   11.39    6.21
   3  -3 -13  125.04   10.92
  -3   3  13  131.52   10.43
  -3   3  13  134.30   15.25
  -3   3  13  133.45    7.11
  -3   3  13  145.92   11.89
   2  -3 -13    2.57    3.14
   2  -3 -13   12.48    5.48
  -2   3  13    3.13    2.38
  -2   3  13    8.59    4.90
  -2   3  13    5.50    4.12
  -2   3  13    1.38    2.96
   1  -3 -13   45.26    6.11
   1  -3 -13   42.39    8.23
   1  -3 -13   64.82    8.21
  -1   3  13   50.99    5.74
  -1   3  13   36.26    7.77
  -1   3  13   47.53    7.11
   0  -3 -13  164.91   11.59
   0  -3 -13  174.29   14.07
   0  -3 -13  178.36   10.23
   0   3  13  158.90    9.73
   0   3  13  166.69   11.37
   0   3  13  163.68   13.50
  -1  -3 -13  482.76   19.55
  -1  -3 -13  492.11   21.60
  -1  -3 -13  515.55   25.52
   1   3  13  443.31   23.78
   1   3  13  469.75   21.49
   1   3  13  470.75   19.98
  -2  -3 -13   23.00    6.50
  -2  -3 -13   18.01    3.48
  -2  -3 -13   27.75    5.14
   2   3  13   14.85    3.80
   2   3  13   15.96    4.71
   2   3  13   20.36    5.68
  -3  -3 -13   -0.33    3.71
  -3  -3 -13    3.33    2.08
  -3  -3 -13   -1.71    2.72
   3   3  13    0.47    3.15
   3   3  13   -1.96    2.22
   3   3  13   -5.41    4.04
  -4  -3 -13  145.92   13.01
  -4  -3 -13  143.76    9.24
  -4  -3 -13  134.11    5.83
  -4  -3 -13  140.16    9.57
   4   3  13  121.86   10.86
   4   3  13  137.05    9.16
  -5  -3 -13  871.75   37.51
  -5  -3 -13  850.67   31.24
  -5  -3 -13  867.21   31.44
   5   3  13  845.39   31.79
  -6  -3 -13  432.42   24.10
  -6  -3 -13  437.19   17.41
  -6  -3 -13  453.99   17.66
   6   3  13  415.97   18.74
  -7  -3 -13   31.33    3.15
  -7  -3 -13   31.83    3.22
  -7  -3 -13   26.24    7.10
   7   3  13   30.57    5.09
  -8  -3 -13   -3.32    4.23
  -9  -3 -13   51.66    9.65
 -10  -3 -13  100.54   13.60
   5  -4 -13  146.81   12.79
  -5   4  13  152.85   11.34
  -5   4  13  132.46   16.53
   4  -4 -13  336.08   17.70
  -4   4  13  339.74   17.84
  -4   4  13  324.85   22.40
   3  -4 -13   54.06    7.23
  -3   4  13   53.80    5.32
  -3   4  13   55.07    7.42
  -3   4  13   55.28   10.56
   2  -4 -13   76.27   11.41
   2  -4 -13   71.71    7.74
  -2   4  13   58.40   10.38
  -2   4  13   65.43    6.43
  -2   4  13   60.88    7.86
   1  -4 -13  225.14   13.90
   1  -4 -13  190.46   11.56
   1  -4 -13  218.21   16.04
  -1   4  13  204.29   13.05
  -1   4  13  219.74   11.52
  -1   4  13  188.66   15.35
   0  -4 -13   44.12    6.81
   0  -4 -13   39.06    8.01
   0  -4 -13   62.14    6.67
   0   4  13   50.27    7.12
   0   4  13   61.47    6.62
   0   4  13   60.34    9.79
  -1  -4 -13   37.76    6.43
  -1  -4 -13   46.36    8.56
  -1  -4 -13   41.82    5.36
   1   4  13   33.43    7.34
   1   4  13   38.10    6.19
   1   4  13   38.31    5.68
  -2  -4 -13  212.94   12.91
  -2  -4 -13  233.63   16.54
  -2  -4 -13  240.60   11.12
   2   4  13  199.93   13.09
   2   4  13  225.84   12.21
   2   4  13  245.72   15.85
  -3  -4 -13   13.96    5.70
  -3  -4 -13   14.34    2.76
  -3  -4 -13   12.56    3.96
   3   4  13   19.86    4.16
   3   4  13   23.07    5.75
  -4  -4 -13    1.33    2.69
  -4  -4 -13   -3.07    2.05
  -4  -4 -13    3.13    4.44
   4   4  13   -2.14    2.27
  -5  -4 -13  253.60   12.13
  -5  -4 -13  240.48   16.82
  -5  -4 -13  232.89   11.71
   5   4  13  216.28   12.19
  -6  -4 -13   61.41    9.73
  -6  -4 -13   63.56    5.48
  -6  -4 -13   58.16    5.28
   6   4  13   72.82    7.34
  -7  -4 -13  107.32   12.83
   7   4  13  100.20    8.86
  -8  -4 -13   -1.80    4.02
  -9  -4 -13   -0.52    4.65
 -10  -4 -13   13.60    6.37
   5  -5 -13   78.89    9.74
  -5   5  13  110.03   10.83
  -5   5  13   77.22   13.36
   4  -5 -13    1.63    3.78
  -4   5  13   -2.81    1.54
  -4   5  13   -2.47    4.93
  -4   5  13   -2.16    3.29
   3  -5 -13   75.74    9.01
  -3   5  13  117.67   11.47
  -3   5  13  113.03    7.54
  -3   5  13  119.18   15.52
   2  -5 -13    4.63    3.43
   2  -5 -13   17.77    6.76
  -2   5  13    5.29    5.38
  -2   5  13    0.79    3.73
  -2   5  13    6.63    3.03
   1  -5 -13  314.72   20.86
   1  -5 -13  333.66   16.09
   1  -5 -13  328.26   18.14
  -1   5  13  331.23   21.40
  -1   5  13  317.60   15.54
  -1   5  13  341.49   17.86
   0  -5 -13  153.95    9.76
   0  -5 -13  183.49   12.42
   0  -5 -13  158.73   14.17
   0   5  13  134.17   12.82
   0   5  13  142.71   11.32
   0   5  13  154.15   10.14
  -1  -5 -13  501.59   22.81
  -1  -5 -13  505.88   26.77
  -1  -5 -13  488.00   20.28
   1   5  13  502.04   25.80
   1   5  13  543.41   23.57
   1   5  13  488.25   21.28
  -2  -5 -13   60.30    7.31
  -2  -5 -13   52.35    9.35
  -2  -5 -13   71.26    6.22
   2   5  13   75.52   10.19
   2   5  13   52.56    6.49
  -3  -5 -13  379.49   22.04
  -3  -5 -13  370.20   17.71
  -3  -5 -13  386.15   14.18
   3   5  13  399.84   25.14
   3   5  13  382.81   17.35
  -4  -5 -13 1024.02   37.57
  -4  -5 -13 1101.89   38.19
  -4  -5 -13 1077.70   44.30
   4   5  13 1032.81   38.06
  -5  -5 -13   79.13    6.29
  -5  -5 -13   60.29   10.00
  -5  -5 -13   84.70    6.59
   5   5  13   77.65    7.81
  -6  -5 -13  135.41    6.90
  -6  -5 -13  137.98   14.51
  -6  -5 -13  137.10    6.89
   6   5  13  127.63    9.02
  -7  -5 -13   26.87    7.42
  -8  -5 -13   84.50   11.30
  -9  -5 -13  150.77   14.10
 -10  -5 -13   25.20    7.39
   4  -6 -13  146.02   13.02
  -4   6  13  156.36   18.66
  -4   6  13  159.09    8.27
  -4   6  13  132.16   12.71
   3  -6 -13   83.39    9.34
  -3   6  13  101.05   14.75
  -3   6  13   97.77    8.23
  -3   6  13   78.67   10.00
   2  -6 -13   20.73    5.21
   2  -6 -13   11.29    6.87
  -2   6  13   16.40    3.98
  -2   6  13   19.73    7.93
  -2   6  13    9.32    4.59
   1  -6 -13  342.45   16.71
   1  -6 -13  346.36   19.22
   1  -6 -13  321.82   21.82
  -1   6  13  351.56   16.81
  -1   6  13  337.75   18.80
  -1   6  13  375.81   22.74
   0  -6 -13   29.42    8.19
   0  -6 -13   33.06    6.68
   0  -6 -13   31.56    5.00
   0   6  13   25.98    7.33
   0   6  13   30.46    5.46
   0   6  13   26.91    6.45
  -1  -6 -13  554.38   24.31
  -1  -6 -13  517.90   21.05
  -1  -6 -13  524.20   28.07
   1   6  13  526.45   27.07
   1   6  13  526.41   22.51
  -2  -6 -13  146.39    8.14
  -2  -6 -13  145.22   10.72
  -2  -6 -13  165.09   14.49
   2   6  13  161.81   13.89
   2   6  13  137.30    9.98
  -3  -6 -13  378.54   22.12
  -3  -6 -13  350.30   17.11
   3   6  13  334.45   16.63
  -4  -6 -13   27.08    4.69
  -4  -6 -13   27.37    7.26
  -4  -6 -13   22.76    4.24
   4   6  13   23.42    4.95
  -5  -6 -13   27.37    7.57
  -5  -6 -13   20.15    3.73
  -5  -6 -13   16.20    3.44
   5   6  13   21.95    4.40
  -6  -6 -13    0.18    4.40
   6   6  13    8.90    3.43
  -7  -6 -13   -0.50    4.05
  -8  -6 -13   10.73    5.79
  -9  -6 -13   53.61    9.90
   3  -7 -13   64.19    8.66
  -3   7  13   81.40   13.60
  -3   7  13   72.55    7.55
  -3   7  13   86.60   10.94
   2  -7 -13   58.97   11.72
   2  -7 -13   60.32    7.98
  -2   7  13   64.88    9.54
  -2   7  13   42.88    6.40
  -2   7  13   64.26   12.12
   1  -7 -13  218.28   12.40
   1  -7 -13  197.69   14.48
   1  -7 -13  181.33   16.93
  -1   7  13  195.61   14.23
  -1   7  13  181.54   16.66
  -1   7  13  183.11   12.05
   0  -7 -13  136.73   16.14
   0  -7 -13  115.82    8.66
   0  -7 -13  125.60   11.94
   0   7  13  106.74    9.86
   0   7  13  101.11   13.26
  -1  -7 -13    3.43    5.31
  -1  -7 -13   -4.34    3.15
  -1  -7 -13    0.46    2.32
   1   7  13   -0.34    2.81
  -2  -7 -13  137.11   10.71
  -2  -7 -13  161.62   14.96
  -2  -7 -13  132.86    7.36
   2   7  13  136.66   10.31
  -3  -7 -13    2.47    3.21
  -3  -7 -13   -0.24    4.36
   3   7  13   -2.57    2.76
  -4  -7 -13  417.80   18.43
  -4  -7 -13  420.89   24.50
  -4  -7 -13  418.36   18.13
   4   7  13  423.61   19.27
  -5  -7 -13   -0.93    2.20
  -5  -7 -13    5.09    2.38
  -5  -7 -13   14.22    6.25
   5   7  13   -0.69    2.97
  -6  -7 -13   72.89   11.20
   6   7  13   65.94    7.51
  -7  -7 -13   -1.16    4.01
  -8  -7 -13    2.98    4.70
  -9  -7 -13   40.56    8.80
   2  -8 -13   75.50    8.92
  -2   8  13   85.62    8.92
  -2   8  13   89.09   11.29
  -2   8  13   87.87   14.37
   1  -8 -13    3.95    3.36
   1  -8 -13    1.80    5.89
   1  -8 -13   -4.04    4.05
  -1   8  13   -3.81    2.60
  -1   8  13   -2.25    5.67
   0  -8 -13    0.62    3.97
   0  -8 -13    3.48    3.11
   0  -8 -13    6.61    6.00
   0   8  13    5.75    3.62
  -1  -8 -13   13.67    5.28
  -1  -8 -13   15.64    7.33
  -1  -8 -13   12.98    3.33
  -1  -8 -13   11.20    5.36
   1   8  13   15.45    5.03
  -2  -8 -13   11.03    6.35
  -2  -8 -13    8.65    5.24
  -2  -8 -13    7.77    2.13
  -2  -8 -13   12.67    4.92
   2   8  13   14.11    4.62
  -3  -8 -13   16.80    4.54
  -3  -8 -13   10.06    6.35
  -3  -8 -13   19.70    6.59
   3   8  13   13.01    4.60
  -4  -8 -13   74.30    7.46
  -4  -8 -13  101.13   13.48
  -4  -8 -13   72.78    7.56
  -4  -8 -13   65.70   10.64
   4   8  13   75.55    8.52
  -5  -8 -13   -1.35    4.34
  -5  -8 -13    0.76    5.09
  -5  -8 -13   -0.26    1.94
  -5  -8 -13    1.06    2.03
   5   8  13   -0.96    2.69
  -6  -8 -13  111.86   13.70
  -7  -8 -13   47.58    9.68
  -8  -8 -13  233.30   17.69
   0  -9 -13   11.23    3.79
   0  -9 -13    8.50    5.21
   0  -9 -13    8.07    7.16
   0   9  13    8.71    4.25
  -1  -9 -13   16.30    5.81
  -1  -9 -13    7.68    2.83
  -1  -9 -13   16.09    7.80
   1   9  13   14.66    4.87
  -2  -9 -13  189.43   14.91
  -2  -9 -13  183.03   13.10
  -2  -9 -13  178.59   19.29
   2   9  13  185.74   13.10
  -3  -9 -13  266.24   15.10
  -3  -9 -13  284.72   19.02
  -3  -9 -13  285.41   21.43
   3   9  13  266.46   15.71
  -4  -9 -13   14.68    6.40
  -4  -9 -13    8.74    6.35
  -4  -9 -13    9.20    3.54
   4   9  13   23.04    5.47
  -5  -9 -13  123.14    6.79
  -5  -9 -13  132.63   15.90
  -5  -9 -13  114.66    6.56
  -5  -9 -13  118.73   15.27
   5   9  13  130.17   11.30
  -6  -9 -13   44.15   10.27
  -6  -9 -13   25.05    8.14
  -7  -9 -13  164.14   15.55
  -2 -10 -13    0.59    5.04
  -2 -10 -13   -0.43    6.46
  -2 -10 -13    3.43    4.30
   2  10  13   -0.83    3.89
  -3 -10 -13    6.58    6.67
  -3 -10 -13   -1.61    4.97
  -3 -10 -13    4.37    3.84
   3  10  13    4.86    4.28
  -4 -10 -13   29.28    4.71
  -4 -10 -13   30.47    9.56
  -4 -10 -13   29.94    8.86
   4  10  13   26.20    5.99
  -5 -10 -13   90.87   13.56
  -5 -10 -13  106.52   15.13
   5  10  13   82.17    9.77
  -6 -10 -13   -1.47    4.99
   3   7 -14    1.32    3.77
  -3  -7  14    7.37    5.26
  -3  -7  14    5.28    5.93
  -3  -7  14    4.80    5.73
  -3  -7  14    6.12    2.14
   2   7 -14   -0.95    3.68
  -2  -7  14   -1.58    4.62
  -2  -7  14    7.35    6.63
  -2  -7  14   -3.59    4.30
   1   7 -14   14.58    5.24
   1   7 -14   23.23    5.87
  -1  -7  14   15.93    7.76
  -1  -7  14   31.62    8.60
   0   7 -14   -0.73    4.14
   0  -7  14    1.76    5.39
   0  -7  14    3.91    6.49
  -1   7 -14    5.98    4.27
   1  -7  14    5.04    2.41
   1  -7  14    8.85    7.65
   1  -7  14   -3.28    5.31
  -5  -6  14   -3.08    3.95
  -5  -6  14    5.26    5.70
  -5  -6  14   -1.60    4.04
  -4  -6  14  147.13   15.23
  -4  -6  14  105.77   12.12
  -4  -6  14  128.94   15.52
   3   6 -14    0.79    3.55
  -3  -6  14   -1.64    4.37
  -3  -6  14   -6.35    3.77
  -3  -6  14   -0.72    5.25
  -3  -6  14   -0.65    1.87
   2   6 -14    7.92    4.52
  -2  -6  14    3.01    5.36
  -2  -6  14    4.80    4.72
  -2  -6  14   -2.67    4.20
   1   6 -14    6.68    4.22
  -1  -6  14    6.03    4.96
  -1  -6  14   -3.35    5.07
   0   6 -14   58.97    8.11
   0   6 -14   39.80    6.75
   0  -6  14   49.43    9.81
   0  -6  14   54.67   10.89
  -1   6 -14    4.12    3.66
   1  -6  14    1.87    5.55
   1  -6  14    4.35    2.57
   1  -6  14   -1.55    4.45
  -2   6 -14    1.85    3.51
   2  -6  14   -2.16    2.38
   2  -6  14    1.71    5.51
   2  -6  14   -2.96    5.91
  -3   6 -14  164.33   11.74
   3  -6  14  142.16   17.86
   3  -6  14  156.88   10.94
   3  -6  14  179.56   20.05
  -4   6 -14   48.59   12.16
  -5  -5  14   -1.82    4.68
  -5  -5  14    2.67    4.14
   4   5 -14   51.77    7.29
  -4  -5  14   38.68    7.68
  -4  -5  14   63.65    9.58
  -4  -5  14   49.18    9.97
   3   5 -14  117.88   10.29
  -3  -5  14  107.96   13.96
  -3  -5  14   96.62   11.27
  -3  -5  14   96.33   12.11
  -3  -5  14  114.41    7.35
   2   5 -14   19.08    5.10
  -2  -5  14   29.72    8.51
  -2  -5  14   12.97    6.17
  -2  -5  14   16.64    5.66
   1   5 -14   -2.48    3.44
  -1  -5  14    6.92    5.85
  -1  -5  14    4.96    5.11
  -1  -5  14    8.46    4.94
   0   5 -14  189.49   12.61
   0  -5  14  195.19    8.79
   0  -5  14  188.33   16.01
   0  -5  14  194.05   16.84
  -1   5 -14   24.20    5.60
  -1   5 -14   14.53    4.75
   1  -5  14   26.40    4.21
   1  -5  14   23.85    8.00
   1  -5  14   31.25    8.47
  -2   5 -14   61.62    7.70
  -2   5 -14   60.74   11.03
   2  -5  14   63.47    6.94
   2  -5  14   75.46   12.69
  -3   5 -14   91.88    9.26
  -3   5 -14   96.81   14.11
   3  -5  14  114.99   15.15
   3  -5  14  100.43    9.35
  -4   5 -14   76.56   13.59
  -4   5 -14  114.96   12.32
  -4   5 -14   85.13    8.97
   4  -5  14   81.17    9.09
   4  -5  14  101.10   14.44
  -5   5 -14   14.06    4.06
  -5   5 -14   13.71    8.29
  -5   5 -14   21.11    6.31
   5  -5  14   25.30    5.89
  -6  -4  14   83.07   12.53
  -6  -4  14   99.78   11.56
  -5  -4  14   58.97   10.47
  -5  -4  14   70.56    9.46
   4   4 -14  116.91   10.23
  -4  -4  14  119.53   14.32
  -4  -4  14  117.38   12.04
  -4  -4  14  110.74   12.14
   3   4 -14  241.47   14.16
  -3  -4  14  244.12   12.26
  -3  -4  14  274.53   19.36
  -3  -4  14  279.87   16.80
  -3  -4  14  269.32   16.59
   2   4 -14   -0.33    2.96
  -2  -4  14    0.02    4.56
  -2  -4  14   -1.72    3.59
  -2  -4  14    0.19    3.87
   1   4 -14    7.15    3.75
  -1  -4  14   17.32    5.79
  -1  -4  14    9.89    5.23
  -1  -4  14    8.32    5.98
   0   4 -14    2.63    3.24
   0  -4  14    3.82    2.34
   0  -4  14   -0.49    4.23
   0  -4  14   -4.36    4.49
  -1   4 -14   73.68    7.88
  -1   4 -14   60.19    7.21
  -1   4 -14   57.09   10.01
   1  -4  14   57.83   10.35
   1  -4  14   65.29    6.51
  -2   4 -14   62.88    7.46
  -2   4 -14   74.40   11.67
   2  -4  14   75.29   11.77
   2  -4  14   73.66    7.64
  -3   4 -14    2.76    3.02
  -3   4 -14   24.22    7.78
  -3   4 -14   17.69    5.96
   3  -4  14   18.80    7.53
   3  -4  14   13.21    3.85
  -4   4 -14   46.16   10.59
  -4   4 -14   47.40    6.32
  -4   4 -14   42.72    7.59
   4  -4  14   49.68   10.31
   4  -4  14   39.35    6.30
  -5   4 -14   20.98    8.35
  -5   4 -14   21.54    4.47
  -5   4 -14   14.64    5.50
   5  -4  14   13.24    4.70
  -6   4 -14   13.21    3.32
  -6   4 -14   21.21    6.10
  -6   4 -14   16.98    7.98
   6  -4  14    9.41    4.64
  -6  -3  14    4.09    5.34
  -6  -3  14    6.94    4.75
  -5  -3  14   18.30    5.76
  -5  -3  14    3.54    5.13
   4   3 -14    3.59    3.19
  -4  -3  14   -4.24    4.24
  -4  -3  14    1.28    3.60
   3   3 -14  481.32   20.81
  -3  -3  14  455.74   22.06
  -3  -3  14  460.15   19.00
  -3  -3  14  445.46   25.42
  -3  -3  14  455.23   22.93
   2   3 -14   86.90    8.70
  -2  -3  14   75.22    9.27
  -2  -3  14   72.36   11.32
  -2  -3  14   65.93    9.11
   1   3 -14  319.23   15.70
  -1  -3  14  331.45   20.60
  -1  -3  14  316.67   17.87
  -1  -3  14  299.18   11.39
  -1  -3  14  292.78   18.03
   0   3 -14  103.50    9.41
   0   3 -14  125.11   13.41
   0  -3  14  106.18    7.04
   0  -3  14  135.63   13.27
   0  -3  14  110.47   13.10
  -1   3 -14   63.31   10.46
  -1   3 -14   51.16    6.79
   1  -3  14   65.60   10.45
   1  -3  14   61.95    6.31
  -2   3 -14  820.00   33.91
  -2   3 -14  829.97   31.97
  -2   3 -14  796.93   31.74
  -2   3 -14  855.80   38.32
   2  -3  14  847.00   31.40
   2  -3  14  868.87   38.48
  -3   3 -14    9.75    3.55
  -3   3 -14    5.99    4.39
  -3   3 -14    9.63    5.79
   3  -3  14    6.43    3.55
   3  -3  14    8.46    5.57
  -4   3 -14  180.00   16.49
  -4   3 -14  172.33   12.97
  -4   3 -14  176.70   10.66
   4  -3  14  198.14   12.20
   4  -3  14  175.35   15.78
  -5   3 -14   15.67    5.37
  -5   3 -14   12.56    7.69
  -5   3 -14   24.95    4.49
   5  -3  14   29.60    6.11
  -6   3 -14   24.99    3.64
  -6   3 -14   36.44   10.49
  -6   3 -14   30.05    6.52
   6  -3  14   21.58    5.57
  -7   3 -14   24.70    9.61
  -7   3 -14    6.46    4.62
   7  -3  14    9.90    5.05
  -6  -2  14   30.66    7.08
  -6  -2  14   40.85    9.30
   5   2 -14    9.83    4.21
  -5  -2  14    7.94    5.74
  -5  -2  14   -1.37    3.31
   4   2 -14   33.01    5.50
  -4  -2  14   28.95    7.63
  -4  -2  14   28.44    6.43
   3   2 -14  288.50   15.57
  -3  -2  14  320.86   16.54
  -3  -2  14  325.92   18.29
  -3  -2  14  318.56   14.92
  -3  -2  14  339.76   21.27
   2   2 -14   -0.47    2.71
  -2  -2  14   -3.89    4.10
  -2  -2  14    1.78    3.37
  -2  -2  14    0.99    3.45
   1   2 -14   57.30    6.79
  -1  -2  14   55.25    4.60
  -1  -2  14   55.56   10.00
  -1  -2  14   59.51    8.58
   0   2 -14  527.36   26.21
   0   2 -14  488.01   21.29
   0  -2  14  483.63   19.37
   0  -2  14  508.52   26.45
   0  -2  14  489.09   23.40
  -1   2 -14   62.80    7.21
  -1   2 -14   62.14    7.92
  -1   2 -14   55.59    9.79
   1  -2  14   45.82    5.58
   1  -2  14   56.31    9.94
  -2   2 -14  144.17   12.48
  -2   2 -14  142.67    9.76
  -2   2 -14  145.29    9.69
  -2   2 -14  155.88   13.96
   2  -2  14  130.57    9.19
   2  -2  14  152.63   14.00
  -3   2 -14  178.04   15.45
  -3   2 -14  182.68   12.63
  -3   2 -14  177.69   10.61
   3  -2  14  180.54   11.09
   3  -2  14  172.34   14.95
  -4   2 -14    6.37    5.28
  -4   2 -14    3.78    2.85
  -4   2 -14   15.59    5.19
   4  -2  14   17.73    6.56
   4  -2  14    9.36    3.76
  -5   2 -14    9.10    4.35
  -5   2 -14   -6.74    4.32
  -5   2 -14    0.99    2.33
   5  -2  14   -1.97    2.93
  -6   2 -14   44.49    9.95
  -6   2 -14   56.28    4.07
  -6   2 -14   62.04    8.34
   6  -2  14   43.93    6.98
  -7   2 -14   24.89    9.02
  -7   2 -14   20.56    5.30
   7  -2  14   22.45    5.78
  -6  -1  14  131.81   13.13
  -6  -1  14  111.84   14.46
   5   1 -14   25.41    5.38
  -5  -1  14   32.73    7.36
  -5  -1  14   28.15    8.15
   4   1 -14    2.82    3.43
  -4  -1  14    8.26    5.91
  -4  -1  14    9.23    4.74
   3   1 -14  140.76   10.32
  -3  -1  14  192.95   15.55
  -3  -1  14  151.42   12.05
  -3  -1  14  165.04   10.78
   2   1 -14   75.25    7.88
  -2  -1  14   83.50    9.65
  -2  -1  14   69.33   10.65
  -2  -1  14   70.48    8.24
   1   1 -14   53.48    8.81
   1   1 -14   39.37    5.76
  -1  -1  14   41.68    4.45
  -1  -1  14   51.82    7.60
  -1  -1  14   41.91    8.40
   0   1 -14   -2.75    2.39
   0   1 -14    1.40    3.20
   0   1 -14    1.83    4.26
   0  -1  14    1.65    3.37
   0  -1  14    0.07    2.14
   0  -1  14   -1.28    3.96
  -1   1 -14  214.83   12.43
  -1   1 -14  249.28   17.00
  -1   1 -14  252.33   14.55
   1  -1  14  227.88   16.48
   1  -1  14  250.30   12.46
  -2   1 -14  226.53   12.35
  -2   1 -14  216.70   16.55
  -2   1 -14  253.80   14.39
   2  -1  14  241.33   16.89
   2  -1  14  215.05   12.08
  -3   1 -14   91.92   12.38
  -3   1 -14   69.95    7.11
  -3   1 -14   82.96    9.13
   3  -1  14  112.69    9.42
   3  -1  14   98.52   12.18
  -4   1 -14  110.26   13.92
  -4   1 -14  137.90   10.71
  -4   1 -14  129.20    8.18
   4  -1  14  135.47    9.68
   4  -1  14  110.41   13.09
  -5   1 -14   49.88    4.81
  -5   1 -14   38.12    8.90
  -5   1 -14   31.38    5.96
   5  -1  14   27.45    5.42
  -6   1 -14    0.27    2.93
  -6   1 -14    0.52    4.98
   6  -1  14   -0.71    3.09
  -7   1 -14   10.45    4.25
  -7   1 -14   11.57    7.00
   7  -1  14   12.20    4.60
  -8   1 -14   27.20    8.62
  -8   1 -14   28.48    5.04
   8  -1  14   35.99    6.99
   6   0 -14   -1.84    3.20
  -6   0  14   -0.94    4.79
  -6   0  14    0.52    4.13
   5   0 -14    6.84    4.18
  -5   0  14    5.93    5.25
  -5   0  14    5.60    4.39
   4   0 -14  150.46   10.95
  -4   0  14  187.19   13.59
  -4   0  14  153.23   16.45
   3   0 -14   48.30    6.54
  -3   0  14   43.30    8.96
  -3   0  14   47.82    7.51
   2   0 -14   64.57    7.38
  -2   0  14   74.95    8.86
  -2   0  14   79.77   11.70
  -2   0  14   77.31    4.69
   1   0 -14   18.98    5.74
   1   0 -14   10.51    3.77
  -1   0  14   18.07    6.27
  -1   0  14    9.01    4.39
  -1   0  14   12.35    3.05
   0   0 -14  101.90   10.20
   0   0 -14  110.22   12.64
   0   0 -14   91.27    8.49
   0   0  14   90.62    9.46
   0   0  14   89.32   12.08
   0   0  14   91.68    6.96
  -1   0 -14   33.45    6.15
  -1   0 -14   25.75    4.46
  -1   0 -14   25.73    6.75
   1   0  14    4.74    4.71
   1   0  14   22.11    4.29
  -2   0 -14   97.17   12.24
  -2   0 -14   75.10    8.41
  -2   0 -14   89.27    8.02
   2   0  14   98.36   12.20
   2   0  14   73.66    7.27
  -3   0 -14    0.69    2.40
  -3   0 -14    5.09    4.81
  -3   0 -14   -0.01    2.94
  -3   0 -14    0.83    2.36
   3   0  14    0.24    2.50
   3   0  14   -0.19    3.79
  -4   0 -14   26.83    4.14
  -4   0 -14   34.97    8.71
  -4   0 -14   34.01    6.09
   4   0  14   27.28    4.97
   4   0  14   32.82    7.29
  -5   0 -14   -4.90    4.26
  -5   0 -14    2.92    3.22
  -5   0 -14    0.12    1.65
   5   0  14   -0.65    2.70
  -6   0 -14    5.13    3.26
  -6   0 -14   -0.35    4.83
   6   0  14    2.52    3.25
  -7   0 -14   79.06    8.00
  -7   0 -14   91.07   13.66
   7   0  14   87.40    9.32
  -8   0 -14   21.06    3.92
  -8   0 -14   21.13    4.12
  -8   0 -14   19.30    7.57
   8   0  14   14.02    5.08
   6  -1 -14   85.29    9.64
  -6   1  14   83.82   13.22
  -6   1  14   71.17   10.12
   5  -1 -14   43.82    6.91
  -5   1  14   73.08    9.70
  -5   1  14   44.05    9.81
   4  -1 -14   15.81    4.57
  -4   1  14   24.54    7.38
  -4   1  14   18.56    6.01
   3  -1 -14  491.75   21.99
  -3   1  14  508.53   24.56
  -3   1  14  518.84   27.64
   2  -1 -14  134.46    9.80
  -2   1  14  140.86   11.65
  -2   1  14  144.36    7.54
  -2   1  14  146.27   13.58
   1  -1 -14   15.82    4.27
   1  -1 -14   17.34    6.09
  -1   1  14   23.62    3.90
  -1   1  14   23.08    6.99
  -1   1  14   18.42    5.25
   0  -1 -14  252.88   14.94
   0  -1 -14  256.90   17.31
   0  -1 -14  283.76   13.90
   0   1  14  272.33   12.79
   0   1  14  248.02   17.35
  -1  -1 -14   92.07   11.45
  -1  -1 -14   87.94    8.83
  -1  -1 -14   75.66    7.27
   1   1  14   91.82    7.80
   1   1  14   78.73   10.68
  -2  -1 -14 1406.86   50.31
  -2  -1 -14 1407.10   48.07
  -2  -1 -14 1390.55   54.53
   2   1  14 1404.31   54.30
   2   1  14 1411.77   48.53
  -3  -1 -14   99.44    7.05
  -3  -1 -14   83.06    7.27
  -3  -1 -14   93.34   12.22
  -3  -1 -14  107.17   10.27
   3   1  14   92.58    8.45
   3   1  14   91.00   11.55
  -4  -1 -14  253.24   18.00
  -4  -1 -14  251.90   11.29
  -4  -1 -14  254.23   14.19
   4   1  14  254.87   13.50
   4   1  14  261.64   16.72
  -5  -1 -14   68.54    7.52
  -5  -1 -14   48.70    3.19
  -5  -1 -14   45.73    9.13
   5   1  14   49.53    6.59
  -6  -1 -14  199.81   16.55
  -6  -1 -14  210.15   11.82
   6   1  14  187.39   11.87
  -7  -1 -14   43.39    5.47
  -7  -1 -14   35.19    8.98
  -7  -1 -14   40.33    5.33
   7   1  14   53.11    7.22
  -8  -1 -14   65.35    5.25
  -8  -1 -14   62.02    5.49
  -8  -1 -14   78.79   12.81
   8   1  14   75.64    8.65
  -9  -1 -14    6.51    6.16
   9   1  14   17.86    5.12
   6  -2 -14    8.51    4.77
  -6   2  14    0.81    5.37
  -6   2  14    4.32    5.22
   5  -2 -14   33.48    6.41
  -5   2  14   49.56    8.68
  -5   2  14   22.37    7.68
   4  -2 -14  280.58   15.25
  -4   2  14  232.45   18.53
  -4   2  14  240.05   16.53
   3  -2 -14   54.88    7.54
  -3   2  14   46.63    3.37
  -3   2  14   61.94    9.03
  -3   2  14   41.75    8.86
   2  -2 -14    9.93    5.39
   2  -2 -14    2.99    3.26
  -2   2  14   -0.46    3.37
  -2   2  14    7.24    2.65
  -2   2  14    3.37    4.53
   1  -2 -14   23.60    5.00
   1  -2 -14   14.13    6.23
   1  -2 -14   16.07    5.79
  -1   2  14   18.70    6.27
  -1   2  14   25.37    4.06
   0  -2 -14   -1.97    3.28
   0  -2 -14   -0.52    2.47
   0  -2 -14    4.54    4.65
   0   2  14    2.23    2.62
   0   2  14    2.31    3.92
   0   2  14    5.31    3.78
  -1  -2 -14  366.59   21.88
  -1  -2 -14  403.01   19.31
  -1  -2 -14  379.79   16.89
   1   2  14  383.89   18.99
   1   2  14  376.04   21.72
   1   2  14  390.26   17.21
  -2  -2 -14  360.88   21.22
  -2  -2 -14  353.09   15.77
  -2  -2 -14  346.19   17.63
   2   2  14  337.29   16.23
   2   2  14  379.68   21.05
  -3  -2 -14    2.24    2.23
  -3  -2 -14   -1.80    2.89
  -3  -2 -14   -1.20    3.89
   3   2  14   -0.81    2.24
   3   2  14    2.77    3.76
  -4  -2 -14  267.80   18.28
  -4  -2 -14  262.07   14.30
  -4  -2 -14  258.96   11.01
   4   2  14  270.62   17.20
   4   2  14  271.90   13.75
  -5  -2 -14  287.33   19.16
  -5  -2 -14  259.58   13.98
   5   2  14  261.78   13.74
  -6  -2 -14    7.13    5.74
  -6  -2 -14    4.12    2.82
  -6  -2 -14    3.71    2.76
   6   2  14    8.73    3.87
  -7  -2 -14   13.28    3.16
  -7  -2 -14   11.75    6.22
  -7  -2 -14    8.19    2.92
   7   2  14    8.02    3.66
  -8  -2 -14   38.23    9.00
   8   2  14   42.77    6.47
  -9  -2 -14   40.46    9.22
   5  -3 -14   39.29    7.06
  -5   3  14   47.49   10.85
   4  -3 -14   -0.06    3.61
  -4   3  14    0.29    5.05
   3  -3 -14  189.02   12.54
  -3   3  14  195.41   16.90
  -3   3  14  198.85    8.99
  -3   3  14  198.91   13.18
   2  -3 -14   13.13    4.27
   2  -3 -14   15.75    6.18
  -2   3  14    2.52    4.99
  -2   3  14    2.56    3.27
  -2   3  14    6.89    2.71
   1  -3 -14   46.23    6.23
   1  -3 -14   65.12   10.39
   1  -3 -14   58.73    7.99
  -1   3  14   67.44   10.94
  -1   3  14   63.02    6.56
  -1   3  14   55.28    7.45
   0  -3 -14   75.21    7.80
   0  -3 -14   99.59   10.40
   0  -3 -14  100.63   12.65
   0   3  14  113.42   13.42
   0   3  14   84.00    9.13
   0   3  14   87.03    7.84
  -1  -3 -14  219.50   13.50
  -1  -3 -14  226.22   16.53
  -1  -3 -14  209.81   11.53
   1   3  14  200.04   11.73
   1   3  14  214.93   15.77
   1   3  14  220.91   13.65
  -2  -3 -14  600.66   25.38
  -2  -3 -14  614.74   29.77
  -2  -3 -14  601.30   23.08
   2   3  14  567.65   25.61
   2   3  14  633.10   29.08
   2   3  14  569.93   23.93
  -3  -3 -14  123.26    9.62
  -3  -3 -14  126.38   13.93
  -3  -3 -14  122.05    7.39
   3   3  14  119.21   13.04
   3   3  14  120.88    8.98
  -4  -3 -14  273.67   18.58
  -4  -3 -14  290.81   14.77
  -4  -3 -14  266.87   10.54
   4   3  14  285.15   14.24
  -5  -3 -14  178.65   10.81
  -5  -3 -14  166.84   14.81
  -5  -3 -14  189.08   10.93
   5   3  14  197.77   11.42
  -6  -3 -14    2.36    2.50
  -6  -3 -14    1.32    2.30
  -6  -3 -14   -0.01    4.65
   6   3  14   -0.57    2.61
  -7  -3 -14  116.62    6.85
  -7  -3 -14  108.95   13.78
  -7  -3 -14  114.46    6.72
   7   3  14  135.27    9.63
  -8  -3 -14   28.61    8.25
   8   3  14   30.26    8.00
  -9  -3 -14   95.44   13.43
   5  -4 -14   17.60    5.75
  -5   4  14   18.82    8.30
   4  -4 -14   -3.72    3.40
  -4   4  14    3.53    3.73
  -4   4  14   -0.67    4.85
   3  -4 -14   22.75    5.34
  -3   4  14   16.01    4.91
  -3   4  14   12.24    2.98
  -3   4  14   19.46    7.70
   2  -4 -14   43.17    9.15
   2  -4 -14   36.10    6.17
  -2   4  14   37.66    5.21
  -2   4  14   28.27    8.04
  -2   4  14   47.92    7.40
   1  -4 -14  417.82   23.87
   1  -4 -14  362.53   17.98
   1  -4 -14  384.70   20.39
  -1   4  14  414.98   17.80
  -1   4  14  415.52   20.24
  -1   4  14  399.37   23.54
   0  -4 -14   15.49    6.49
   0  -4 -14    9.70    3.70
   0  -4 -14   16.64    5.37
   0   4  14   24.51    4.87
   0   4  14   20.84    5.33
   0   4  14   10.32    5.63
  -1  -4 -14   41.88    5.51
  -1  -4 -14   38.97    6.39
  -1  -4 -14   47.30    9.18
   1   4  14   43.46    6.08
   1   4  14   42.14    6.63
   1   4  14   53.53    9.37
  -2  -4 -14  121.92   11.06
  -2  -4 -14  138.13    8.32
  -2  -4 -14  150.32   13.73
   2   4  14  119.59    9.10
   2   4  14  127.55   11.94
  -3  -4 -14   73.87    8.15
  -3  -4 -14   89.11    5.88
  -3  -4 -14   73.28   10.69
   3   4  14   77.28    7.73
   3   4  14   96.67   11.57
  -4  -4 -14   -0.14    2.88
  -4  -4 -14   -1.40    3.86
   4   4  14    2.93    2.82
  -5  -4 -14    2.31    2.50
  -5  -4 -14    3.53    2.88
  -5  -4 -14    6.71    5.10
   5   4  14    5.25    3.12
  -6  -4 -14  124.01    7.90
  -6  -4 -14  128.97   14.66
  -6  -4 -14  133.43    7.88
   6   4  14  124.00    9.17
  -7  -4 -14    6.23    1.64
  -7  -4 -14    5.94    1.67
  -7  -4 -14   10.59    5.63
   7   4  14    2.89    3.24
  -8  -4 -14  132.62   15.20
  -9  -4 -14   -5.93    4.10
   4  -5 -14  318.11   18.16
  -4   5  14  329.26   18.63
  -4   5  14  333.75   24.03
   3  -5 -14   19.32    5.30
  -3   5  14   16.72    5.27
  -3   5  14   19.09    7.69
  -3   5  14   20.20    3.83
   2  -5 -14   -7.47    2.71
   2  -5 -14    0.09    4.74
  -2   5  14   -0.37    3.54
  -2   5  14    3.12    5.62
  -2   5  14    1.82    2.76
   1  -5 -14  213.51   14.73
   1  -5 -14  194.55   16.88
   1  -5 -14  225.50   12.77
  -1   5  14  216.42   14.35
  -1   5  14  216.68   17.16
  -1   5  14  195.41   11.87
   0  -5 -14   23.82    6.11
   0  -5 -14   28.99    8.03
   0  -5 -14   22.26    4.63
   0   5  14   26.51    4.92
   0   5  14   25.01    5.82
   0   5  14   27.82    7.90
  -1  -5 -14   54.04    6.24
  -1  -5 -14   68.44    8.63
  -1  -5 -14   55.49    9.85
   1   5  14   84.39    8.08
   1   5  14   77.11   11.24
   1   5  14   65.56    8.54
  -2  -5 -14    7.05    3.80
  -2  -5 -14    8.12    2.84
  -2  -5 -14    8.87    5.31
   2   5  14    9.92    3.82
   2   5  14    4.15    4.37
  -3  -5 -14   62.89   10.23
  -3  -5 -14   74.36    5.02
  -3  -5 -14   78.89    8.50
   3   5  14   60.55    7.11
  -4  -5 -14    2.87    3.03
  -4  -5 -14    2.54    4.91
   4   5  14   -2.04    2.48
  -5  -5 -14    8.11    3.19
  -5  -5 -14    6.71    2.95
  -5  -5 -14    3.13    5.00
   5   5  14    1.49    3.02
  -6  -5 -14   24.03    3.60
  -6  -5 -14   26.84    3.65
  -6  -5 -14   23.23    6.99
   6   5  14   26.14    5.00
  -7  -5 -14  307.77   20.32
   7   5  14  278.98   14.76
  -8  -5 -14   49.40    9.33
  -9  -5 -14   47.29    9.37
   3  -6 -14    5.77    4.32
  -3   6  14   12.52    5.26
  -3   6  14   11.08    7.48
  -3   6  14    7.19    3.06
   2  -6 -14   11.27    4.78
   2  -6 -14   10.74    9.39
  -2   6  14   14.00    5.78
  -2   6  14    3.56    3.11
  -2   6  14   13.49    7.19
   1  -6 -14  494.42   22.65
   1  -6 -14  574.91   26.22
   1  -6 -14  556.78   29.93
  -1   6  14  510.59   22.63
  -1   6  14  520.87   25.26
  -1   6  14  564.58   30.01
   0  -6 -14  267.45   19.63
   0  -6 -14  256.27   13.65
   0  -6 -14  271.40   16.46
   0   6  14  221.69   17.81
   0   6  14  271.67   14.54
   0   6  14  276.57   16.73
  -1  -6 -14  461.25   19.10
  -1  -6 -14  441.31   26.03
  -1  -6 -14  476.09   22.34
   1   6  14  461.38   20.76
   1   6  14  420.28   24.86
  -2  -6 -14  365.77   18.59
  -2  -6 -14  394.14   15.48
  -2  -6 -14  353.73   22.69
   2   6  14  342.69   17.37
  -3  -6 -14    0.13    1.27
  -3  -6 -14   -0.44    4.45
  -3  -6 -14    0.69    3.05
   3   6  14    5.03    3.34
  -4  -6 -14   71.81   11.19
  -4  -6 -14   57.58    7.04
   4   6  14   47.72    6.59
  -5  -6 -14  193.92   10.74
  -5  -6 -14  218.76   11.40
  -5  -6 -14  237.42   17.77
   5   6  14  214.99   12.39
  -6  -6 -14  361.72   22.84
  -6  -6 -14  375.84   14.38
  -6  -6 -14  366.40   14.14
   6   6  14  372.41   17.59
  -7  -6 -14    8.81    5.72
  -8  -6 -14    8.24    5.61
  -9  -6 -14   10.15    5.91
   2  -7 -14   58.52    7.76
  -2   7  14   53.58    8.99
  -2   7  14   40.10    6.11
  -2   7  14   30.70    9.37
   1  -7 -14  100.00   14.22
   1  -7 -14  101.06   11.46
   1  -7 -14   77.01    8.56
  -1   7  14   88.80   13.64
  -1   7  14   95.20   11.35
  -1   7  14  106.12    9.81
   0  -7 -14   55.41   11.20
   0  -7 -14   54.80    8.52
   0  -7 -14   43.24    6.14
   0   7  14   39.53    6.59
   0   7  14   60.69   11.35
  -1  -7 -14    7.34    4.44
  -1  -7 -14    5.84    5.78
  -1  -7 -14    7.12    3.09
   1   7  14    5.10    3.79
  -2  -7 -14   33.30    6.27
  -2  -7 -14   24.44    7.92
  -2  -7 -14   30.42    4.04
   2   7  14   19.02    4.94
  -3  -7 -14   33.38    5.83
  -3  -7 -14   35.34    8.64
   3   7  14   36.54    6.05
  -4  -7 -14   42.68    9.73
  -4  -7 -14   55.98    6.66
   4   7  14   69.13    8.15
  -5  -7 -14   52.02   10.31
  -5  -7 -14   46.57    5.39
  -5  -7 -14   61.57    5.99
   5   7  14   44.70    6.43
  -6  -7 -14   17.12    6.83
   6   7  14   26.41    5.39
  -7  -7 -14   78.05   12.14
  -8  -7 -14  253.07   19.01
   1  -8 -14  166.15   19.35
   1  -8 -14  170.11   15.49
   1  -8 -14  159.15   11.06
  -1   8  14  134.15   11.84
   0  -8 -14   48.88    8.69
   0  -8 -14   49.96   10.99
   0  -8 -14   53.02    6.72
   0   8  14   69.90    8.52
  -1  -8 -14   -2.72    5.05
  -1  -8 -14    4.59    2.92
  -1  -8 -14    7.36    4.13
   1   8  14    2.74    3.65
  -2  -8 -14   19.40    2.95
  -2  -8 -14   11.63    4.72
  -2  -8 -14   17.16    7.68
   2   8  14    8.85    4.33
  -3  -8 -14    6.87    3.75
  -3  -8 -14   -0.13    5.18
   3   8  14    3.97    3.80
  -4  -8 -14   72.72    7.68
  -4  -8 -14   94.58   13.45
   4   8  14   73.86    8.62
  -5  -8 -14    9.98    6.78
  -5  -8 -14   11.27    3.09
  -5  -8 -14    6.64    2.94
   5   8  14   15.69    4.83
  -6  -8 -14  556.50   29.99
   6   8  14  519.87   23.45
  -7  -8 -14   -0.21    4.67
  -8  -8 -14    2.80    5.12
  -1  -9 -14    7.99    2.95
  -1  -9 -14    4.43    7.06
  -1  -9 -14   11.44    5.30
   1   9  14   16.82    5.36
  -2  -9 -14    3.53    6.11
  -2  -9 -14    0.61    4.63
  -2  -9 -14   -4.29    3.46
   2   9  14    2.77    4.08
  -3  -9 -14   92.71   12.53
  -3  -9 -14   74.21   13.11
  -3  -9 -14   70.02    8.46
   3   9  14   63.52    8.42
  -4  -9 -14   45.57    6.22
  -4  -9 -14   34.68    8.90
  -4  -9 -14   35.69   10.03
   4   9  14   45.62    7.64
  -5  -9 -14   -1.44    2.07
  -5  -9 -14    2.68    2.17
  -5  -9 -14   -5.08    4.52
   5   9  14    2.65    3.81
  -6  -9 -14    5.68    6.30
   6   9  14   10.70    7.48
  -7  -9 -14   37.26    9.07
   3   6 -15  148.04   12.91
  -3  -6  15  167.17    8.65
  -3  -6  15  151.90   16.22
  -3  -6  15  151.25   15.41
  -3  -6  15  191.37   17.68
   2   6 -15    0.14    3.50
  -2  -6  15    7.26    5.33
  -2  -6  15   -1.24    5.24
   1   6 -15    2.33    3.83
  -1  -6  15    9.42    5.82
  -1  -6  15    1.45    6.07
   0   6 -15   22.20    5.71
   0   6 -15   17.84    5.42
   0  -6  15    4.36    5.62
   0  -6  15   16.43    7.72
  -1   6 -15   -2.85    3.26
   1  -6  15    0.40    4.76
   1  -6  15    2.98    6.40
   1  -6  15   -0.64    2.13
  -2   6 -15   31.40    6.35
   2  -6  15   33.67    9.95
   2  -6  15   22.44    4.52
   2  -6  15   29.67    9.30
   4   5 -15   36.23    6.69
  -4  -5  15   25.12    6.83
  -4  -5  15   37.68    7.62
  -4  -5  15   26.05    8.28
   3   5 -15    7.49    4.23
  -3  -5  15   -0.74    5.32
  -3  -5  15   10.89    3.14
  -3  -5  15   17.03    6.20
  -3  -5  15   18.89    6.28
   2   5 -15   31.57    6.35
  -2  -5  15   32.83    9.16
  -2  -5  15   34.53    8.04
  -2  -5  15   32.55    7.54
   1   5 -15   -1.46    3.60
  -1  -5  15    5.35    5.00
  -1  -5  15    5.79    5.64
   0   5 -15  113.77   10.74
   0  -5  15  115.82    6.01
   0  -5  15  114.47   15.04
   0  -5  15   97.64   12.86
  -1   5 -15   20.81    5.24
  -1   5 -15   36.88    6.43
   1  -5  15   22.77    8.19
   1  -5  15   12.03    3.36
   1  -5  15   31.33    8.50
  -2   5 -15   54.18    7.33
   2  -5  15   38.99    9.68
   2  -5  15   52.10    6.40
   2  -5  15   50.39   10.67
  -3   5 -15   60.38   12.12
  -3   5 -15   58.14    7.61
   3  -5  15   64.22    7.57
   3  -5  15   78.92   13.75
  -4   5 -15   41.62    6.77
  -4   5 -15   26.00    7.13
  -4   5 -15   58.82   12.30
   4  -5  15   49.06    7.21
   4  -5  15   66.63   16.74
  -5  -4  15    1.14    5.43
  -5  -4  15    7.18    5.17
   4   4 -15   18.24    5.29
  -4  -4  15   10.92    5.54
  -4  -4  15   11.63    6.89
   3   4 -15  277.00   15.81
  -3  -4  15  270.32   17.79
  -3  -4  15  276.86   17.58
  -3  -4  15  296.67   13.63
  -3  -4  15  302.91   21.43
   2   4 -15   46.30    6.88
  -2  -4  15   79.69   12.24
  -2  -4  15   64.63   10.00
  -2  -4  15   84.32   10.40
   1   4 -15    7.78    3.94
  -1  -4  15    3.83    5.82
  -1  -4  15    6.56    5.30
   0   4 -15  217.68   13.54
   0  -4  15  233.70   17.15
   0  -4  15  218.98   17.94
   0  -4  15  225.57   10.28
  -1   4 -15   12.55    4.34
  -1   4 -15    9.81    4.00
   1  -4  15    6.12    2.81
   1  -4  15    5.29    5.95
  -2   4 -15   -0.70    2.83
  -2   4 -15   -6.84    4.47
   2  -4  15    0.12    2.74
   2  -4  15   -1.32    4.89
  -3   4 -15   42.33    6.31
  -3   4 -15   43.31   10.54
  -3   4 -15   44.87    7.86
   3  -4  15   42.80    9.71
   3  -4  15   32.37    5.83
  -4   4 -15   63.44    7.36
  -4   4 -15   65.66   12.50
  -4   4 -15   68.41    9.37
   4  -4  15   51.60   10.99
   4  -4  15   48.26    6.95
  -5   4 -15    3.19    6.43
  -5   4 -15    1.74    4.27
  -5   4 -15   11.32    3.74
   5  -4  15    7.79    4.36
  -5  -3  15   34.48    7.58
  -5  -3  15   38.85    9.33
   4   3 -15    6.29    4.10
  -4  -3  15   16.54    6.09
  -4  -3  15    2.49    5.49
   3   3 -15   20.08    5.10
  -3  -3  15   28.43    6.81
  -3  -3  15   34.17    6.71
  -3  -3  15   20.81    4.23
  -3  -3  15   32.91    8.89
   2   3 -15    5.18    3.72
  -2  -3  15    3.48    4.31
  -2  -3  15    2.13    4.87
  -2  -3  15    3.17    4.04
   1   3 -15   28.96    5.87
  -1  -3  15   39.30    7.90
  -1  -3  15   42.94    8.93
  -1  -3  15   35.03    7.24
   0   3 -15    4.59    3.53
   0  -3  15    7.87    6.12
   0  -3  15    8.15    2.78
  -1   3 -15   10.47    5.80
  -1   3 -15    3.36    3.44
   1  -3  15    5.68    5.28
   1  -3  15    6.49    3.08
  -2   3 -15    7.43    4.49
  -2   3 -15    9.29    3.91
  -2   3 -15   10.89    6.24
  -2   3 -15    1.59    3.12
   2  -3  15    3.22    5.57
   2  -3  15    0.61    2.74
  -3   3 -15    0.46    5.00
  -3   3 -15    6.36    4.53
  -3   3 -15   -0.54    2.34
   3  -3  15    4.00    2.97
   3  -3  15   -4.28    4.24
  -4   3 -15    7.01    4.94
  -4   3 -15   -4.81    5.25
  -4   3 -15    2.35    2.92
   4  -3  15   -1.40    4.54
   4  -3  15    1.10    3.09
  -5   3 -15  327.56   23.64
  -5   3 -15  314.10   18.75
  -5   3 -15  344.56   15.62
   5  -3  15  386.23   18.78
  -6   3 -15   13.68    5.51
  -6   3 -15   19.95    3.31
  -6   3 -15   13.39    7.70
   6  -3  15   13.99    5.23
  -6  -2  15   36.71    9.57
   5   2 -15    0.54    3.77
  -5  -2  15    4.50    5.54
  -5  -2  15    7.55    4.93
   4   2 -15   55.04    7.54
  -4  -2  15   54.26   10.44
  -4  -2  15   53.25    8.84
   3   2 -15   10.52    4.22
  -3  -2  15   15.37    5.67
  -3  -2  15   10.20    6.34
  -3  -2  15    3.53    4.45
   2   2 -15  356.77   17.13
  -2  -2  15  298.13   20.92
  -2  -2  15  298.12   17.39
  -2  -2  15  400.77   20.31
   1   2 -15    3.05    3.02
  -1  -2  15    0.62    1.70
  -1  -2  15   -4.07    3.10
  -1  -2  15    0.15    4.38
   0   2 -15  490.36   25.87
   0   2 -15  466.74   21.17
   0  -2  15  472.37   18.94
   0  -2  15  499.32   26.71
  -1   2 -15    2.38    3.07
  -1   2 -15   -2.98    3.97
   1  -2  15   -1.94    4.28
   1  -2  15   -2.31    2.01
  -2   2 -15    2.44    3.80
  -2   2 -15    2.50    3.03
  -2   2 -15   -2.83    2.63
  -2   2 -15    2.76    5.23
   2  -2  15   -0.24    2.56
   2  -2  15   -2.34    4.35
  -3   2 -15    6.32    3.32
  -3   2 -15    5.05    4.00
  -3   2 -15    6.41    5.75
   3  -2  15    8.12    5.43
   3  -2  15    6.44    3.54
  -4   2 -15   -0.43    4.93
  -4   2 -15   -0.75    2.49
  -4   2 -15    1.49    3.71
   4  -2  15   -3.34    2.62
   4  -2  15   -0.60    4.81
  -5   2 -15  223.40   14.50
  -5   2 -15  213.68   18.62
  -5   2 -15  213.25   10.99
   5  -2  15  213.95   13.47
  -6   2 -15    8.93    4.84
  -6   2 -15    9.89    2.36
  -6   2 -15   11.64    7.30
   6  -2  15   17.18    5.15
  -7   2 -15   43.05    6.96
  -7   2 -15   40.62   10.65
   7  -2  15   38.32    7.21
  -6  -1  15   20.97    7.59
   5   1 -15    3.54    4.12
  -5  -1  15    4.75    4.73
  -5  -1  15    3.60    5.83
   4   1 -15   78.39    8.63
  -4  -1  15   75.61   12.05
  -4  -1  15   68.94    9.54
   3   1 -15    4.07    3.23
  -3  -1  15   -1.98    4.18
  -3  -1  15    2.90    4.02
   2   1 -15   99.31    9.55
  -2  -1  15  104.85    9.30
  -2  -1  15  120.78   12.56
  -2  -1  15   76.30   11.95
   1   1 -15  124.77    9.57
  -1  -1  15  135.98   14.92
  -1  -1  15  142.88   13.13
  -1  -1  15  128.27    7.37
   0   1 -15   86.01    8.76
   0   1 -15   81.44   11.43
   0  -1  15   92.61   12.53
   0  -1  15   62.28    6.39
  -1   1 -15  598.91   25.85
  -1   1 -15  676.34   28.53
  -1   1 -15  658.98   31.71
   1  -1  15  633.51   25.23
   1  -1  15  694.44   32.41
  -2   1 -15  419.13   19.29
  -2   1 -15  439.16   21.40
  -2   1 -15  468.87   25.54
   2  -1  15  462.14   25.23
   2  -1  15  424.49   19.25
  -3   1 -15   30.10    4.90
  -3   1 -15   42.20    9.45
  -3   1 -15   30.43    6.32
   3  -1  15   32.50    5.53
   3  -1  15   32.91    7.58
  -4   1 -15    5.80    4.17
  -4   1 -15    5.73    5.72
  -4   1 -15    8.51    3.15
   4  -1  15   14.61    4.33
   4  -1  15    6.18    5.12
  -5   1 -15    7.48    5.76
  -5   1 -15    1.23    2.21
  -5   1 -15    4.27    4.22
   5  -1  15    2.32    3.25
  -6   1 -15   97.27   14.53
  -6   1 -15   95.86    9.68
   6  -1  15  100.04   10.32
  -7   1 -15   27.40    5.79
  -7   1 -15   24.77    9.00
   7  -1  15   16.60    5.34
   5   0 -15   28.21    6.15
  -5   0  15   37.27    8.09
  -5   0  15   35.98    9.02
   4   0 -15  102.21   10.09
  -4   0  15  111.53   14.13
  -4   0  15  103.59   11.93
   3   0 -15    1.27    3.34
  -3   0  15    0.41    4.03
  -3   0  15    2.23    5.31
   2   0 -15   13.99    4.29
  -2   0  15   13.59    6.32
  -2   0  15    9.33    3.85
  -2   0  15   14.48    5.00
  -2   0  15   10.16    2.04
   1   0 -15   -0.46    2.57
   1   0 -15    1.76    4.22
  -1   0  15   -3.15    4.03
  -1   0  15   -0.05    2.04
  -1   0  15   -5.06    4.41
   0   0 -15  477.06   20.72
   0   0 -15  467.97   25.31
   0   0  15  476.27   25.87
   0   0  15  474.86   19.44
  -1   0 -15  117.35    8.69
  -1   0 -15  103.33   10.23
  -1   0 -15  110.27   13.51
   1   0  15  107.44    8.00
   1   0  15   88.66   11.97
  -2   0 -15  190.70   11.32
  -2   0 -15  189.10   15.69
   2   0  15  209.31   15.97
   2   0  15  205.43   11.71
  -3   0 -15   45.62    5.71
  -3   0 -15   43.90    6.83
  -3   0 -15   46.65    9.27
  -3   0 -15   42.95    5.49
   3   0  15   50.05    6.38
   3   0  15   43.56    8.51
  -4   0 -15   21.85    5.58
  -4   0 -15   15.88    6.96
  -4   0 -15   29.00    4.29
   4   0  15   21.20    4.91
   4   0  15   21.43    6.77
  -5   0 -15  337.80   21.82
  -5   0 -15  314.14   16.68
  -5   0 -15  289.00   12.31
   5   0  15  301.88   15.98
  -6   0 -15   94.38   13.72
  -6   0 -15   71.03    8.20
   6   0  15   72.27    8.43
  -7   0 -15   29.24    9.05
  -7   0 -15   32.28    5.78
   7   0  15   32.37    6.25
  -8   0 -15    2.43    2.85
  -8   0 -15   -1.97    5.49
   8   0  15   -1.22    3.35
   5  -1 -15    6.02    3.97
  -5   1  15   12.20    6.37
  -5   1  15    1.13    4.72
   4  -1 -15    4.24    3.98
  -4   1  15    6.01    4.50
  -4   1  15   13.59    6.71
   3  -1 -15  400.02   19.07
  -3   1  15  407.14   21.63
  -3   1  15  366.80   23.75
   2  -1 -15   21.74    4.68
  -2   1  15   15.69    2.89
  -2   1  15   19.54    7.09
   1  -1 -15  292.11   14.96
   1  -1 -15  267.66   18.23
  -1   1  15  286.61   19.43
  -1   1  15  283.72   12.97
   0  -1 -15   64.05    8.40
   0  -1 -15   67.81   10.39
   0  -1 -15   68.63    7.57
   0   1  15   75.05    7.02
   0   1  15   68.27   10.83
  -1  -1 -15  485.25   20.34
  -1  -1 -15  499.50   22.52
  -1  -1 -15  459.82   25.31
   1   1  15  450.67   19.70
   1   1  15  456.42   25.22
  -2  -1 -15  709.44   33.86
  -2  -1 -15  706.19   29.66
  -2  -1 -15  725.77   27.56
   2   1  15  735.91   33.71
   2   1  15  696.13   27.70
  -3  -1 -15  124.41    8.19
  -3  -1 -15  119.88   14.27
  -3  -1 -15  115.83    8.00
  -3  -1 -15  116.89   10.91
   3   1  15  125.34   13.36
   3   1  15  110.80    9.67
  -4  -1 -15   24.85    3.86
  -4  -1 -15   18.19    6.61
  -4  -1 -15   20.52    4.85
   4   1  15   28.88    7.00
   4   1  15   23.45    4.89
  -5  -1 -15   19.38    5.07
  -5  -1 -15   17.95    6.87
  -5  -1 -15   24.15    2.73
   5   1  15    6.85    3.74
  -6  -1 -15   18.82    4.58
  -6  -1 -15   23.56    7.87
   6   1  15   27.69    5.66
  -7  -1 -15    9.06    6.31
  -7  -1 -15    9.27    3.49
   7   1  15   13.86    4.71
  -8  -1 -15   -2.23    2.06
  -8  -1 -15    2.54    2.27
  -8  -1 -15   -0.10    5.51
   8   1  15    5.03    4.10
   5  -2 -15   25.14    6.02
  -5   2  15   11.62    6.94
   4  -2 -15    1.29    3.97
  -4   2  15   -1.26    4.75
   3  -2 -15   92.01    9.42
  -3   2  15  106.88   13.91
   2  -2 -15   45.24    6.60
  -2   2  15   54.01    5.25
  -2   2  15   54.36   10.15
   1  -2 -15  314.42   16.44
   1  -2 -15  333.44   21.04
  -1   2  15  346.61   15.20
  -1   2  15  377.19   22.77
   0  -2 -15  707.53   32.77
   0  -2 -15  669.16   28.99
   0  -2 -15  671.62   26.92
   0   2  15  668.22   26.00
   0   2  15  648.66   32.19
  -1  -2 -15    3.12    3.34
  -1  -2 -15   -2.14    2.33
  -1  -2 -15    1.34    4.39
   1   2  15    3.74    3.00
   1   2  15   -0.83    3.86
  -2  -2 -15  447.35   25.07
  -2  -2 -15  449.77   18.95
  -2  -2 -15  447.74   21.22
   2   2  15  425.26   19.47
   2   2  15  455.89   24.51
  -3  -2 -15   -0.51    3.39
  -3  -2 -15   -0.35    2.12
  -3  -2 -15   -4.30    4.05
  -3  -2 -15   -0.55    2.05
   3   2  15   -2.03    2.45
   3   2  15    5.48    4.63
  -4  -2 -15   -1.81    2.70
  -4  -2 -15   -0.32    1.82
  -4  -2 -15   -3.91    3.67
   4   2  15    0.76    2.98
  -5  -2 -15   97.36    9.22
  -5  -2 -15   84.59   12.10
   5   2  15  103.01    9.46
  -6  -2 -15    4.85    3.14
  -6  -2 -15   -1.19    5.07
   6   2  15   -2.87    2.60
  -7  -2 -15    9.36    3.19
  -7  -2 -15    9.65    3.31
  -7  -2 -15   17.11    7.05
   7   2  15   17.89    4.86
  -8  -2 -15   20.11    2.93
  -8  -2 -15   12.63    2.59
  -8  -2 -15   14.58    7.54
   8   2  15   17.09    5.03
  -9  -2 -15    6.07    6.43
   4  -3 -15    1.57    3.49
  -4   3  15    0.16    5.33
   3  -3 -15  201.51   13.22
  -3   3  15  202.91    8.84
  -3   3  15  179.03   16.81
   2  -3 -15   45.01    6.82
  -2   3  15   43.41    7.46
  -2   3  15   48.70   10.41
  -2   3  15   47.99    5.29
   1  -3 -15   11.07    5.89
   1  -3 -15    4.63    3.52
  -1   3  15    6.21    3.05
  -1   3  15    1.39    4.73
  -1   3  15    2.87    3.52
   0  -3 -15   13.98    6.17
   0  -3 -15    9.03    3.54
   0  -3 -15   12.03    4.85
   0   3  15    9.24    5.69
   0   3  15   11.65    4.65
   0   3  15    9.69    3.48
  -1  -3 -15  160.72   14.38
  -1  -3 -15  133.57    9.12
  -1  -3 -15  147.27   11.32
   1   3  15  111.57   13.27
   1   3  15  114.13    9.00
   1   3  15  155.20   11.75
  -2  -3 -15  203.16   13.04
  -2  -3 -15  199.64   16.27
  -2  -3 -15  186.28   10.74
   2   3  15  183.82   13.22
   2   3  15  205.31   11.93
   2   3  15  209.38   15.61
  -3  -3 -15   -2.14    1.94
  -3  -3 -15    1.80    4.62
  -3  -3 -15    5.11    3.51
   3   3  15   -0.18    2.46
   3   3  15    3.21    4.44
  -4  -3 -15   14.42    6.36
  -4  -3 -15   12.30    4.25
  -4  -3 -15   13.76    2.40
   4   3  15   12.20    3.97
  -5  -3 -15  232.61   12.80
  -5  -3 -15  210.10   17.05
   5   3  15  210.28   12.66
  -6  -3 -15    1.77    5.06
  -6  -3 -15    5.24    2.81
  -6  -3 -15    1.86    2.77
   6   3  15    1.10    3.00
  -7  -3 -15   85.80    6.33
  -7  -3 -15   83.44   12.37
  -7  -3 -15   80.52    6.27
   7   3  15   83.90    8.78
  -8  -3 -15   62.33   11.39
   8   3  15   90.03    9.12
  -9  -3 -15    1.71    5.59
   4  -4 -15    8.32    4.87
  -4   4  15    8.72    7.17
  -4   4  15   15.30    5.27
   3  -4 -15   54.45    7.94
  -3   4  15   44.15    7.65
  -3   4  15   39.72    4.54
  -3   4  15   45.78   10.38
   2  -4 -15  584.92   25.72
  -2   4  15  609.10   27.43
  -2   4  15  599.41   31.90
  -2   4  15  634.01   23.90
   1  -4 -15   60.20   10.62
   1  -4 -15   48.45    7.12
  -1   4  15   70.83    9.33
  -1   4  15   55.38    6.57
  -1   4  15   69.00   11.78
   0  -4 -15  241.38   18.35
   0  -4 -15  238.64   13.33
   0  -4 -15  261.15   15.88
   0   4  15  250.27   18.64
   0   4  15  264.02   13.66
   0   4  15  241.31   15.42
  -1  -4 -15   41.63    7.14
  -1  -4 -15   37.74    8.73
  -1  -4 -15   45.73    5.88
   1   4  15   46.98    7.74
   1   4  15   40.65    6.22
   1   4  15   44.98    9.11
  -2  -4 -15  140.98   10.98
  -2  -4 -15  139.16    8.88
  -2  -4 -15  153.77   16.14
   2   4  15  149.66   10.32
   2   4  15  143.69   13.35
  -3  -4 -15  169.73   11.72
  -3  -4 -15  171.42    9.03
  -3  -4 -15  199.54   16.13
   3   4  15  168.24   11.18
  -4  -4 -15   51.31    9.85
  -4  -4 -15   33.82    5.88
   4   4  15   56.53    7.04
  -5  -4 -15    2.44    2.72
  -5  -4 -15   -0.74    4.48
   5   4  15    2.54    3.13
  -6  -4 -15  187.69   10.42
  -6  -4 -15  179.78   10.40
  -6  -4 -15  186.96   16.17
   6   4  15  181.00   11.66
  -7  -4 -15    1.02    5.22
  -7  -4 -15    3.06    1.96
  -7  -4 -15    0.82    1.78
   7   4  15    1.39    3.19
  -8  -4 -15   57.59   10.63
  -9  -4 -15   83.35   12.83
   3  -5 -15  105.51   10.57
  -3   5  15   86.18   14.32
  -3   5  15  103.50    7.09
  -3   5  15   76.67    9.93
   2  -5 -15   98.16    9.84
  -2   5  15   73.03   12.83
  -2   5  15  105.08    8.80
  -2   5  15   72.89    9.51
   1  -5 -15  120.34   15.16
   1  -5 -15   80.42    8.60
  -1   5  15   85.83    8.30
  -1   5  15   89.30   12.81
  -1   5  15   88.32   10.49
   0  -5 -15   68.85    9.19
   0  -5 -15   45.99    6.23
   0  -5 -15   54.71   10.29
   0   5  15   42.27    7.14
   0   5  15   58.24    6.96
   0   5  15   44.32    9.41
  -1  -5 -15  118.06   11.77
  -1  -5 -15  105.77    8.37
  -1  -5 -15  127.14   15.23
   1   5  15  119.52   10.41
   1   5  15  139.37   15.97
  -2  -5 -15   15.61    6.98
  -2  -5 -15   16.37    5.06
  -2  -5 -15   14.12    3.51
   2   5  15   16.50    4.60
   2   5  15   10.32    5.53
  -3  -5 -15    7.10    5.79
  -3  -5 -15    3.46    3.47
  -3  -5 -15    2.65    2.08
   3   5  15   -0.20    2.84
  -4  -5 -15   16.68    7.04
  -4  -5 -15   18.66    4.70
   4   5  15   13.63    4.53
  -5  -5 -15   50.27    6.13
  -5  -5 -15   43.83    9.39
   5   5  15   39.09    6.25
  -6  -5 -15   44.77    5.17
  -6  -5 -15   61.12   10.67
  -6  -5 -15   44.35    5.18
   6   5  15   51.46    6.84
  -7  -5 -15   37.05    8.66
   7   5  15   35.13    5.99
  -8  -5 -15  177.13   16.25
  -9  -5 -15    0.30    5.49
   2  -6 -15   79.77    8.89
  -2   6  15   58.73    9.16
  -2   6  15   50.62   11.12
  -2   6  15   60.72    7.07
   1  -6 -15   70.63    8.03
   1  -6 -15   81.40   13.18
  -1   6  15   73.88   10.06
  -1   6  15   62.04    7.43
  -1   6  15   78.26   12.80
   0  -6 -15   22.03    6.15
   0  -6 -15   33.66    5.47
   0  -6 -15   39.23    9.95
   0   6  15   34.88    8.61
   0   6  15   20.88    4.98
  -1  -6 -15   15.84    7.15
  -1  -6 -15   16.60    3.91
  -1  -6 -15   19.98    5.70
   1   6  15   23.94    5.23
   1   6  15   20.19    6.97
  -2  -6 -15   61.16    5.93
  -2  -6 -15   59.37    8.46
  -2  -6 -15   57.40   10.50
   2   6  15   55.99    7.35
  -3  -6 -15   17.81    4.89
  -3  -6 -15   21.38    2.77
  -3  -6 -15    5.24    6.06
   3   6  15   23.75    5.36
  -4  -6 -15   24.86    5.25
  -4  -6 -15   26.56    8.24
   4   6  15   26.04    5.21
  -5  -6 -15    3.98    3.01
  -5  -6 -15    3.74    5.56
  -5  -6 -15    4.26    3.10
   5   6  15    5.05    3.45
  -6  -6 -15    5.10    2.31
  -6  -6 -15   -1.02    5.13
  -6  -6 -15    6.79    2.52
   6   6  15   -1.86    2.52
  -7  -6 -15   20.64    7.40
   7   6  15   23.98    5.36
  -8  -6 -15  306.64   21.23
   1  -7 -15   37.22    9.67
   1  -7 -15   67.49    8.18
   1  -7 -15   74.24   13.15
  -1   7  15   60.87   11.98
  -1   7  15   66.90   14.73
  -1   7  15   62.97    7.89
   0  -7 -15  102.33   14.87
   0  -7 -15   60.79    9.21
   0  -7 -15   74.60    7.97
   0   7  15   61.54    7.99
  -1  -7 -15    2.51    5.63
  -1  -7 -15    0.66    2.72
  -1  -7 -15    0.31    3.79
   1   7  15   -3.44    2.82
  -2  -7 -15   25.72    3.90
  -2  -7 -15   30.19    6.40
  -2  -7 -15   27.49    8.80
   2   7  15   31.08    5.94
  -3  -7 -15  180.49   17.02
  -3  -7 -15  204.18   13.28
   3   7  15  203.20   12.78
  -4  -7 -15  227.92   13.59
  -4  -7 -15  238.57   19.00
   4   7  15  244.91   14.31
  -5  -7 -15   43.65    5.50
  -5  -7 -15   48.53   10.08
  -5  -7 -15   38.77    5.47
   5   7  15   45.59    7.00
  -6  -7 -15   13.81    2.67
  -6  -7 -15   11.16    6.72
  -6  -7 -15    8.25    2.31
   6   7  15   12.56    4.48
  -7  -7 -15   79.65   12.80
  -8  -7 -15    6.88    5.95
   0  -8 -15  280.73   18.11
   0  -8 -15  258.90   14.03
   0  -8 -15  266.07   21.81
   0   8  15  259.97   15.57
  -1  -8 -15   37.40    7.60
  -1  -8 -15   36.09    5.14
  -1  -8 -15   30.82    9.43
   1   8  15   23.14    5.78
  -2  -8 -15   82.41   13.73
  -2  -8 -15   93.70   10.57
  -2  -8 -15   83.96    5.51
   2   8  15   89.65   10.00
  -3  -8 -15   14.84    7.30
  -3  -8 -15    9.49    4.51
   3   8  15   11.61    4.55
  -4  -8 -15   82.15   13.33
  -4  -8 -15   87.28    8.86
   4   8  15   89.23    9.55
  -5  -8 -15  158.67    9.77
  -5  -8 -15  170.10   18.80
  -5  -8 -15  161.88    9.49
   5   8  15  175.41   12.39
  -6  -8 -15  214.90   18.58
   6   8  15  198.28   13.34
  -7  -8 -15    8.45    6.38
  -3  -9 -15   66.08    8.81
  -3  -9 -15  101.12   15.55
   3   9  15   77.00    9.70
  -4  -9 -15  215.07   21.99
  -4  -9 -15  168.05   11.31
   4   9  15  146.91   13.04
  -5  -9 -15   13.71    3.42
  -5  -9 -15   22.50    4.01
  -5  -9 -15    8.30    6.88
   5   9  15    7.98    4.81
   3   5 -16  168.33   12.51
  -3  -5  16  170.68   18.39
  -3  -5  16  176.37   16.28
  -3  -5  16  157.67    9.31
  -3  -5  16  161.68   14.43
   2   5 -16    3.30    3.93
  -2  -5  16   -2.54    5.43
  -2  -5  16    4.21    4.90
   1   5 -16   35.57    6.87
  -1  -5  16   38.92    8.81
  -1  -5  16   38.57    9.85
   0   5 -16   -0.14    3.45
   0  -5  16    1.92    4.94
   0  -5  16   12.69    7.48
  -1   5 -16    3.64    3.84
  -1   5 -16   11.30    4.55
   1  -5  16    4.69    2.85
   1  -5  16    8.42    6.91
   1  -5  16    2.40    5.21
  -2   5 -16    5.03    3.83
   2  -5  16   -1.75    2.58
   2  -5  16   -2.70    6.02
   2  -5  16   -0.27    5.50
  -3   5 -16   94.61    9.87
   3  -5  16   99.15    9.44
   3  -5  16   90.75   14.57
   4   4 -16   28.97    6.22
  -4  -4  16   49.78    9.32
  -4  -4  16   27.83    9.13
   3   4 -16   28.90    6.18
  -3  -4  16   29.17    7.28
  -3  -4  16   34.54    7.60
  -3  -4  16   34.87    5.41
  -3  -4  16   14.88    7.16
   2   4 -16   38.26    6.54
  -2  -4  16   47.67    9.93
  -2  -4  16   37.21    8.32
   1   4 -16   50.31    7.37
  -1  -4  16   45.24   10.35
  -1  -4  16   42.18    8.81
   0   4 -16   26.13    5.85
   0  -4  16   32.42    4.00
   0  -4  16   37.77    8.65
   0  -4  16   30.13    8.70
  -1   4 -16  120.87   11.08
  -1   4 -16  116.55   10.88
   1  -4  16  134.89   16.67
   1  -4  16  137.60    8.60
  -2   4 -16    3.44    3.53
   2  -4  16   10.34    7.02
   2  -4  16    1.53    2.84
  -3   4 -16   58.48    7.66
  -3   4 -16   52.64   11.42
   3  -4  16   46.17   10.60
   3  -4  16   36.94    6.06
  -4   4 -16    0.89    6.59
  -4   4 -16    0.72    4.81
  -4   4 -16   10.89    4.12
   4  -4  16    2.63    3.37
   4   3 -16    1.01    3.53
  -4  -3  16   -2.26    5.01
  -4  -3  16   -0.07    4.41
   3   3 -16  355.93   18.77
  -3  -3  16  368.19   24.37
  -3  -3  16  372.66   21.52
  -3  -3  16  367.81   26.75
   2   3 -16  306.70   17.10
  -2  -3  16  393.10   26.31
  -2  -3  16  320.62   22.56
  -2  -3  16  328.48   19.38
   1   3 -16  259.06   14.90
  -1  -3  16  246.50   19.51
  -1  -3  16  243.84   17.00
   0   3 -16    1.54    3.54
   0  -3  16    0.72    2.18
   0  -3  16    1.97    5.22
  -1   3 -16   36.55    6.22
   1  -3  16   36.94    8.99
   1  -3  16   28.96    4.74
  -2   3 -16   -1.95    2.96
  -2   3 -16    8.47    4.01
  -2   3 -16   -6.05    4.79
   2  -3  16    1.98    2.80
   2  -3  16   -1.30    5.10
  -3   3 -16    1.23    2.82
  -3   3 -16    2.65    4.49
  -3   3 -16   -2.23    4.59
   3  -3  16   -4.90    2.36
   3  -3  16    1.92    5.63
  -4   3 -16   -1.24    3.98
  -4   3 -16    2.02    5.76
  -4   3 -16   -0.54    2.75
   4  -3  16    2.58    3.66
   4  -3  16    2.54    8.55
  -5   3 -16    9.94    3.54
  -5   3 -16    5.99    6.98
  -5   3 -16    9.63    5.26
   5  -3  16    2.99    3.88
   5   2 -16    7.84    4.55
  -5  -2  16   12.68    7.21
  -5  -2  16   14.30    6.61
   4   2 -16    5.17    4.22
  -4  -2  16    4.22    5.02
  -4  -2  16   -0.92    5.56
   3   2 -16   33.03    6.30
  -3  -2  16   24.62    6.83
  -3  -2  16   20.33    7.84
   2   2 -16    7.30    3.99
  -2  -2  16    5.57    5.79
  -2  -2  16    5.38    4.31
  -2  -2  16    2.45    5.27
   1   2 -16   -0.79    3.08
  -1  -2  16    4.15    5.44
  -1  -2  16   -0.10    1.67
  -1  -2  16   -1.44    3.58
   0   2 -16   88.63    9.29
   0  -2  16  103.56   13.64
   0  -2  16   93.99    6.94
  -1   2 -16    5.33    3.44
  -1   2 -16    1.03    4.97
   1  -2  16   -2.63    4.62
   1  -2  16   -2.07    2.41
  -2   2 -16    0.00    4.46
  -2   2 -16   -4.71    2.35
  -2   2 -16    4.54    4.48
  -2   2 -16   -0.51    2.58
   2  -2  16    0.99    2.70
   2  -2  16   -6.05    3.89
  -3   2 -16   62.89   11.63
  -3   2 -16   57.36    8.54
  -3   2 -16   60.04    7.16
   3  -2  16   75.29   11.94
   3  -2  16   55.27    7.17
  -4   2 -16   33.44    9.67
  -4   2 -16   32.23    6.95
  -4   2 -16   32.94    5.36
   4  -2  16   25.03    5.42
   4  -2  16   20.96    8.44
  -5   2 -16   -2.25    3.72
  -5   2 -16   -3.46    5.42
  -5   2 -16    3.21    2.67
   5  -2  16   -0.92    3.43
  -6   2 -16  171.84    9.60
  -6   2 -16  145.64   18.93
  -6   2 -16  165.32   13.02
   6  -2  16  182.44   13.14
   5   1 -16   45.75    7.49
  -5  -1  16   51.63    9.44
  -5  -1  16   31.65    9.33
   4   1 -16   13.76    4.97
  -4  -1  16   18.44    6.29
  -4  -1  16    9.98    6.95
   3   1 -16   -0.54    3.63
  -3  -1  16   -1.92    3.81
  -3  -1  16    1.55    5.04
   2   1 -16  364.15   17.84
  -2  -1  16  376.31   18.94
  -2  -1  16  296.19   22.14
   1   1 -16    2.96    3.41
  -1  -1  16   -0.79    1.84
  -1  -1  16    1.91    5.15
   0   1 -16    0.35    5.03
   0   1 -16    2.77    3.09
   0  -1  16    7.70    5.63
   0  -1  16    8.47    2.96
  -1   1 -16   16.21    7.02
  -1   1 -16   22.07    4.87
   1  -1  16   36.71    8.50
   1  -1  16   20.58    4.30
  -2   1 -16  290.23   16.90
  -2   1 -16  281.99   14.85
  -2   1 -16  266.06   19.44
   2  -1  16  280.86   14.69
   2  -1  16  300.36   20.59
  -3   1 -16   -0.88    2.45
  -3   1 -16   -0.58    3.42
  -3   1 -16    0.76    5.02
   3  -1  16   -2.40    2.52
   3  -1  16    2.17    4.97
  -4   1 -16    7.05    4.54
  -4   1 -16   -1.76    5.18
  -4   1 -16    4.60    2.86
   4  -1  16    3.41    3.41
   4  -1  16    3.05    5.37
  -5   1 -16    7.53    6.86
  -5   1 -16    3.23    3.90
  -5   1 -16    8.36    2.98
   5  -1  16    4.56    3.78
  -6   1 -16    8.24    6.68
  -6   1 -16   10.08    4.43
   6  -1  16    8.58    4.46
  -7   1 -16   -2.61    7.07
  -7   1 -16    8.07    4.29
   7  -1  16    6.40    4.75
   5   0 -16   54.35    8.09
  -5   0  16   37.06    8.50
  -5   0  16   50.75   10.94
   4   0 -16    3.94    4.15
  -4   0  16    0.66    4.12
  -4   0  16    0.79    5.72
   3   0 -16  191.93   12.64
  -3   0  16  178.93   16.76
   2   0 -16  145.79   11.14
  -2   0  16  176.92   16.25
  -2   0  16  168.64    6.94
   1   0 -16   66.82    8.04
  -1   0  16   72.17    6.14
  -1   0  16   59.58   11.06
   0   0 -16    2.80    4.84
   0   0 -16    2.87    3.29
   0   0  16   13.36    6.42
   0   0  16    6.28    2.91
  -1   0 -16   14.96    4.26
  -1   0 -16   35.53    8.56
  -1   0 -16   19.69    5.44
   1   0  16   16.27    6.98
   1   0  16   16.44    4.11
  -2   0 -16  223.29   17.66
  -2   0 -16  182.69   11.67
  -2   0 -16  207.94   14.06
   2   0  16  209.55   12.11
   2   0  16  209.91   16.67
  -3   0 -16  147.15   12.94
  -3   0 -16  128.24    8.95
  -3   0 -16  133.99    9.11
  -3   0 -16  139.97   16.22
   3   0  16  104.77    9.77
   3   0  16  151.47   14.02
  -4   0 -16   -1.31    2.07
  -4   0 -16    3.30    5.23
  -4   0 -16   -2.28    3.06
   4   0  16   -4.02    2.71
  -5   0 -16   14.68    4.84
  -5   0 -16   16.96    3.14
  -5   0 -16    9.25    6.63
   5   0  16   17.62    4.83
  -6   0 -16    9.85    6.91
  -6   0 -16    1.26    3.27
   6   0  16    7.46    4.07
  -7   0 -16  176.29   19.38
  -7   0 -16  171.16   11.60
   7   0  16  170.33   12.66
   4  -1 -16    8.14    4.61
  -4   1  16   12.62    7.17
   3  -1 -16  138.07   11.71
  -3   1  16  115.60   15.43
   2  -1 -16   86.08    8.92
  -2   1  16  115.60   15.13
  -2   1  16   91.69    5.75
   1  -1 -16  277.98   15.18
  -1   1  16  285.88   20.39
  -1   1  16  296.73   13.39
   0  -1 -16    6.74    3.59
   0  -1 -16    3.41    4.89
   0   1  16    2.58    2.79
   0   1  16    0.90    4.67
  -1  -1 -16   20.34    5.36
  -1  -1 -16   16.38    4.25
  -1  -1 -16   17.80    6.65
   1   1  16   20.28    4.44
   1   1  16   20.39    6.87
  -2  -1 -16    8.27    4.35
  -2  -1 -16   15.56    6.55
  -2  -1 -16   13.32    3.90
   2   1  16    6.57    5.41
   2   1  16   10.36    3.66
  -3  -1 -16  232.36   14.60
  -3  -1 -16  223.59   17.70
  -3  -1 -16  238.98   12.17
  -3  -1 -16  223.29   11.90
   3   1  16  234.54   13.21
   3   1  16  211.78   16.38
  -4  -1 -16    8.32    4.30
  -4  -1 -16    4.63    5.94
  -4  -1 -16   11.71    3.12
   4   1  16    4.70    3.45
  -5  -1 -16   68.24    8.52
  -5  -1 -16   94.83    5.36
  -5  -1 -16  100.90   13.63
   5   1  16  105.88   10.02
  -6  -1 -16    5.29    3.62
  -6  -1 -16    0.74    5.34
   6   1  16    1.73    3.32
  -7  -1 -16   -2.51    4.95
  -7  -1 -16   -0.69    2.87
   7   1  16   -2.46    3.32
  -8  -1 -16  148.22   18.22
  -8  -1 -16  153.36    9.37
  -8  -1 -16  157.71    9.85
   8   1  16  191.99   13.10
   4  -2 -16    8.33    4.77
  -4   2  16   -3.84    5.41
   3  -2 -16   23.51    5.57
  -3   2  16   29.91    8.89
   2  -2 -16   64.18    7.86
  -2   2  16   76.23    5.86
  -2   2  16   68.56   12.18
   1  -2 -16   16.76    4.57
   1  -2 -16   17.78    6.84
  -1   2  16   28.49    8.13
  -1   2  16   14.54    3.63
   0  -2 -16  265.50   19.15
   0  -2 -16  228.05   13.52
   0  -2 -16  269.83   16.57
   0   2  16  276.88   19.43
   0   2  16  235.42   12.83
  -1  -2 -16  219.84   12.80
  -1  -2 -16  241.11   15.11
  -1  -2 -16  281.75   19.24
   1   2  16  229.30   12.87
   1   2  16  236.40   17.79
  -2  -2 -16  107.28   10.94
  -2  -2 -16  102.82    8.88
  -2  -2 -16   80.02   11.93
   2   2  16   92.09   12.27
   2   2  16   83.38    8.57
  -3  -2 -16    9.57    3.10
  -3  -2 -16   12.33    6.52
  -3  -2 -16   18.38    3.86
  -3  -2 -16   21.66    5.59
   3   2  16   12.91    6.00
   3   2  16   15.93    4.41
  -4  -2 -16   67.98   11.24
  -4  -2 -16   64.60    5.74
  -4  -2 -16   56.13    7.82
   4   2  16   83.30    8.64
  -5  -2 -16   22.69    5.35
  -5  -2 -16   25.96    8.18
   5   2  16   26.61    5.33
  -6  -2 -16   17.49    4.52
  -6  -2 -16   29.05    8.82
   6   2  16   19.32    5.15
  -7  -2 -16   -2.75    5.04
  -7  -2 -16   -1.54    2.42
   7   2  16   -0.28    3.35
  -8  -2 -16    4.04    6.32
  -8  -2 -16   -1.58    1.90
  -8  -2 -16   -0.52    1.92
   8   2  16   -2.44    3.01
   4  -3 -16  276.62   16.95
  -4   3  16  274.86   22.01
   3  -3 -16    6.58    4.26
  -3   3  16    3.19    6.10
   2  -3 -16   11.81    4.50
  -2   3  16   11.92    6.83
  -2   3  16    8.93    3.08
   1  -3 -16  147.97   10.84
   1  -3 -16  164.88   16.96
  -1   3  16  160.03   17.49
  -1   3  16  148.65    9.54
  -1   3  16  136.66   12.72
   0  -3 -16   61.09   10.69
   0  -3 -16   68.30    7.95
   0  -3 -16   80.74    9.76
   0   3  16   58.93   10.48
   0   3  16   63.73    7.07
   0   3  16   67.24    8.94
  -1  -3 -16   62.39    8.96
  -1  -3 -16   55.82   10.26
  -1  -3 -16   73.28    7.33
   1   3  16   53.56    9.56
   1   3  16   74.55    9.40
   1   3  16   54.79    7.01
  -2  -3 -16  198.40   11.08
  -2  -3 -16  170.04   15.69
  -2  -3 -16  195.25   13.26
   2   3  16  173.01   14.97
   2   3  16  187.25   11.74
  -3  -3 -16    1.73    2.28
  -3  -3 -16    2.11    3.55
  -3  -3 -16    0.02    4.54
   3   3  16    2.05    5.04
   3   3  16   -1.14    2.82
  -4  -3 -16   46.03   10.32
  -4  -3 -16   50.93    7.19
  -4  -3 -16   31.42    3.68
   4   3  16   44.85    6.52
  -5  -3 -16   13.17    4.29
  -5  -3 -16    8.38    5.91
   5   3  16    8.70    4.07
  -6  -3 -16   22.17    4.64
  -6  -3 -16   20.40    7.74
   6   3  16   12.55    4.27
  -7  -3 -16    2.66    2.51
  -7  -3 -16    6.74    2.98
  -7  -3 -16   -0.36    5.32
   7   3  16    4.87    3.53
  -8  -3 -16   41.05   10.07
   8   3  16   48.95    7.38
   3  -4 -16   19.45    5.61
  -3   4  16   20.07    3.28
  -3   4  16   16.37    5.96
  -3   4  16    5.21    6.69
   2  -4 -16   15.75    4.87
  -2   4  16   12.47    7.50
  -2   4  16   16.55    5.62
  -2   4  16   15.73    3.75
   1  -4 -16  246.85   14.51
   1  -4 -16  274.12   20.00
  -1   4  16  241.50   16.13
  -1   4  16  273.28   20.64
  -1   4  16  271.20   13.83
   0  -4 -16   20.25    7.19
   0  -4 -16   25.91    5.24
   0  -4 -16   32.53    6.98
   0   4  16   19.85    5.83
   0   4  16   32.99    5.42
   0   4  16   29.62    8.32
  -1  -4 -16  225.83   12.40
  -1  -4 -16  214.67   18.19
  -1  -4 -16  234.89   15.03
   1   4  16  213.54   12.78
   1   4  16  232.27   15.31
   1   4  16  205.64   16.95
  -2  -4 -16   44.57    5.75
  -2  -4 -16   51.59   10.00
  -2  -4 -16   47.18    7.63
   2   4  16   68.48   11.07
   2   4  16   47.69    6.70
  -3  -4 -16   49.51    7.52
  -3  -4 -16   50.08    5.40
  -3  -4 -16   38.11    9.25
   3   4  16   53.64    7.07
  -4  -4 -16   29.76    8.34
  -4  -4 -16   15.25    4.78
  -4  -4 -16   15.11    2.25
   4   4  16    7.66    4.00
  -5  -4 -16   23.47    7.61
  -5  -4 -16   30.70    5.49
   5   4  16   30.13    5.79
  -6  -4 -16   60.71   11.48
  -6  -4 -16   54.21    6.50
   6   4  16   48.26    7.03
  -7  -4 -16  103.41   14.31
  -7  -4 -16  140.36    7.98
  -7  -4 -16  137.03    7.86
   7   4  16  159.13   11.32
  -8  -4 -16  118.38   15.36
   8   4  16  111.61   10.64
   2  -5 -16  327.00   18.26
  -2   5  16  398.25   25.56
  -2   5  16  382.18   20.91
  -2   5  16  351.24   16.51
   1  -5 -16   -0.99    2.97
   1  -5 -16    3.06    5.51
  -1   5  16    2.75    5.99
  -1   5  16    4.42    3.02
  -1   5  16   -6.86    3.71
   0  -5 -16   16.36    5.92
   0  -5 -16   19.56    8.03
   0  -5 -16   26.36    5.14
   0   5  16   18.17    4.55
   0   5  16   12.56    5.51
   0   5  16   24.45    8.08
  -1  -5 -16  386.37   24.86
  -1  -5 -16  352.76   17.06
  -1  -5 -16  384.88   20.26
   1   5  16  387.24   23.81
   1   5  16  380.29   18.51
  -2  -5 -16   11.43    3.39
  -2  -5 -16    6.84    6.12
  -2  -5 -16    3.59    3.95
   2   5  16    9.98    4.21
  -3  -5 -16    8.90    4.45
  -3  -5 -16   16.86    3.24
  -3  -5 -16   15.02    7.13
   3   5  16    5.72    3.99
  -4  -5 -16   43.57    9.99
  -4  -5 -16   31.86    5.88
   4   5  16   28.94    5.88
  -5  -5 -16  161.81   17.60
  -5  -5 -16  147.79   10.41
   5   5  16  145.78   10.83
  -6  -5 -16   -2.37    2.33
  -6  -5 -16    9.67    3.25
  -6  -5 -16    7.38    5.74
   6   5  16    8.49    4.00
  -7  -5 -16   16.88    2.85
  -7  -5 -16   23.65    2.92
  -7  -5 -16   21.40    7.72
   7   5  16   25.32    5.73
  -8  -5 -16  234.71   19.59
   1  -6 -16  180.18   12.08
   1  -6 -16  196.47   18.29
  -1   6  16  159.25   11.38
  -1   6  16  170.97   15.63
  -1   6  16  176.59   19.49
   0  -6 -16    7.46    5.15
   0  -6 -16   15.59    7.55
   0  -6 -16    5.21    3.39
   0   6  16    7.78    3.57
   0   6  16    2.58    5.81
  -1  -6 -16   23.64    4.57
  -1  -6 -16   17.45    5.56
  -1  -6 -16   21.28    8.24
   1   6  16   22.25    5.41
  -2  -6 -16  145.54   17.44
  -2  -6 -16  130.98    8.37
  -2  -6 -16  123.46   12.50
   2   6  16  109.78   10.59
  -3  -6 -16   57.44    4.43
  -3  -6 -16   44.69   10.00
  -3  -6 -16   57.43    8.03
  -3  -6 -16   56.92    4.65
   3   6  16   68.18    8.59
  -4  -6 -16   31.70    5.87
  -4  -6 -16   42.70   10.01
   4   6  16   36.18    6.45
  -5  -6 -16   76.14   12.52
  -5  -6 -16   92.54    8.54
   5   6  16   87.77    9.27
  -6  -6 -16    9.38    3.20
  -6  -6 -16    2.11    5.72
  -6  -6 -16    4.29    2.61
   6   6  16    7.17    3.99
  -7  -6 -16    3.02    5.41
   7   6  16    2.31    3.63
  -8  -6 -16    0.85    5.56
   0  -7 -16   55.28    7.00
   0  -7 -16   50.19    9.08
   0  -7 -16   57.86   12.07
   0   7  16   33.82    6.41
  -1  -7 -16   62.81    9.05
  -1  -7 -16   51.26    6.36
  -1  -7 -16   60.92   12.38
   1   7  16   69.72    8.61
  -2  -7 -16   35.35    7.22
  -2  -7 -16   35.14    9.69
  -2  -7 -16   36.06    4.73
   2   7  16   39.59    7.04
  -3  -7 -16    5.53    6.20
  -3  -7 -16    2.27    3.67
   3   7  16   -3.05    3.26
  -4  -7 -16   10.09    4.23
  -4  -7 -16    8.68    6.74
   4   7  16   18.21    5.23
  -5  -7 -16   50.71   11.00
  -5  -7 -16   73.74    7.56
   5   7  16   66.08    8.47
  -6  -7 -16   51.51   10.85
  -6  -7 -16   48.76    4.91
  -6  -7 -16   32.88    4.33
   6   7  16   54.68    7.53
  -7  -7 -16    8.92    7.15
   7   7  16    9.46    4.57
  -2  -8 -16    0.07    2.07
  -2  -8 -16    4.98    4.27
  -2  -8 -16   13.59    7.66
   2   8  16   -2.58    3.31
  -3  -8 -16   53.94    8.13
  -3  -8 -16   52.44   11.30
   3   8  16   42.81    7.46
  -4  -8 -16   55.00    7.50
  -4  -8 -16   55.29   12.20
   4   8  16   52.12    8.02
  -5  -8 -16   18.81    8.13
  -5  -8 -16   10.84    3.77
   5   8  16   10.56    4.84
  -6  -8 -16    4.51    6.46
  -6  -8 -16    4.07    1.93
  -6  -8 -16    7.17    2.32
   2   4 -17    9.03    4.88
  -2  -4  17   12.37    6.01
  -2  -4  17   13.92    7.29
   1   4 -17   62.22    8.83
  -1  -4  17   68.19   11.05
  -1  -4  17   99.35   15.17
   0   4 -17   -2.51    3.13
   0  -4  17    5.55    5.63
   0  -4  17   -0.89    1.78
   0  -4  17    4.42    6.57
  -1   4 -17   25.67    6.03
  -1   4 -17   25.13    5.85
   1  -4  17   30.80    4.82
   1  -4  17   23.41    8.36
   1  -4  17   20.15    7.58
  -2   4 -17    4.78    3.83
   2  -4  17    4.01    3.41
   2  -4  17   14.29    7.67
  -3   4 -17   36.35    6.70
   3  -4  17   23.64    9.10
   3  -4  17   34.29    6.16
   3   3 -17    5.46    4.13
  -3  -3  17   10.84    7.08
   2   3 -17  163.02   12.24
  -2  -3  17  159.83   13.56
  -2  -3  17  156.76   17.75
   1   3 -17   35.86    6.42
  -1  -3  17   27.33    8.68
  -1  -3  17   20.64    6.79
   0   3 -17   73.37    8.98
   0  -3  17   72.35   12.91
   0  -3  17   66.87    5.92
   0  -3  17   69.92   11.02
  -1   3 -17   14.73    4.96
   1  -3  17    7.85    3.32
   1  -3  17   10.14    7.25
  -2   3 -17    7.27    3.75
   2  -3  17    4.95    3.23
   2  -3  17    7.10    6.64
  -3   3 -17   15.61    8.00
  -3   3 -17   13.56    4.51
  -3   3 -17    6.71    5.43
   3  -3  17    5.82    6.70
   3  -3  17    5.24    3.62
  -4   3 -17   -1.58    4.15
  -4   3 -17    4.97    3.40
  -4   3 -17    2.95    6.66
   4  -3  17    4.29    3.82
  -4  -2  17    6.54    7.18
   3   2 -17    8.73    4.32
  -3  -2  17    0.27    6.14
   2   2 -17    5.43    3.91
  -2  -2  17   -3.14    5.47
  -2  -2  17    7.46    5.11
   1   2 -17   14.46    4.71
  -1  -2  17   16.33    2.84
  -1  -2  17   10.11    7.17
  -1  -2  17   14.26    5.62
   0   2 -17   27.11    5.89
   0  -2  17   21.62    3.92
   0  -2  17   20.49    7.73
  -1   2 -17   63.41    8.18
   1  -2  17   71.15    7.11
   1  -2  17   50.41   10.90
  -2   2 -17   37.42    6.16
  -2   2 -17   45.46    6.90
  -2   2 -17   40.54    9.43
   2  -2  17   30.64    5.63
   2  -2  17   38.95    9.45
  -3   2 -17   15.92    5.60
  -3   2 -17   17.03    4.52
  -3   2 -17   18.01    7.97
   3  -2  17   12.12    6.71
   3  -2  17   16.21    4.64
  -4   2 -17   14.93    4.23
  -4   2 -17   14.22    5.71
  -4   2 -17   25.60    9.24
   4  -2  17   15.67    4.72
  -5   2 -17   33.80    4.92
  -5   2 -17   30.94    7.05
  -5   2 -17   29.55   10.03
   5  -2  17   27.22    6.10
   4   1 -17  113.73   11.16
  -4  -1  17   99.49   14.69
   3   1 -17   48.71    7.61
  -3  -1  17   52.66   11.11
   2   1 -17    6.42    3.92
  -2  -1  17    1.46    5.67
   1   1 -17    1.33    3.23
  -1  -1  17   -1.90    1.88
  -1  -1  17   -3.83    4.63
   0   1 -17    8.36    3.95
   0  -1  17    8.53    6.83
   0  -1  17    8.06    3.28
  -1   1 -17  121.42   11.02
  -1   1 -17  151.90   16.59
   1  -1  17  130.70    9.21
   1  -1  17  148.06   17.06
  -2   1 -17   41.83    6.36
  -2   1 -17   44.13    7.61
  -2   1 -17   44.48    9.71
   2  -1  17   75.41   11.89
   2  -1  17   39.86    5.94
  -3   1 -17   46.75   10.48
  -3   1 -17   52.10    6.53
  -3   1 -17   62.58    8.86
   3  -1  17   59.79    7.78
   3  -1  17   52.59   10.17
  -4   1 -17  358.07   24.51
  -4   1 -17  364.30   16.63
  -4   1 -17  364.68   20.10
   4  -1  17  354.71   18.38
  -5   1 -17   -0.91    2.36
  -5   1 -17    2.04    4.17
  -5   1 -17    0.87    6.06
   5  -1  17   -3.00    3.30
  -6   1 -17   15.87    8.03
  -6   1 -17    8.92    4.50
   6  -1  17   12.31    4.93
   4   0 -17   90.74   10.29
  -4   0  17  105.70   15.00
   3   0 -17  143.32   12.28
  -3   0  17  145.79   17.80
   2   0 -17    4.25    4.04
  -2   0  17    9.08    6.61
   1   0 -17  556.09   24.82
  -1   0  17  556.34   31.32
  -1   0  17  583.07   21.49
   0   0 -17   24.29    5.03
   0   0  17   17.19    7.23
   0   0  17   27.58    4.84
  -1   0 -17  192.32   12.30
  -1   0 -17  194.83   16.76
   1   0  17  203.76   17.39
   1   0  17  197.74   11.65
  -2   0 -17   95.47    9.32
  -2   0 -17  123.70   15.15
  -2   0 -17  106.93   11.27
   2   0  17   95.53    9.04
   2   0  17  134.80   15.55
  -3   0 -17   26.12    6.18
  -3   0 -17   29.17    8.67
  -3   0 -17   38.01    5.77
   3   0  17   37.70    5.93
   3   0  17   47.72    9.67
  -4   0 -17   -1.20    2.55
  -4   0 -17    0.68    5.82
  -4   0 -17   -0.60    3.43
   4   0  17   -1.15    3.22
  -5   0 -17   11.08    4.71
  -5   0 -17    3.10    6.01
  -5   0 -17    3.64    2.42
   5   0  17    2.77    3.71
  -6   0 -17   50.54   11.50
  -6   0 -17   53.40    8.04
   6   0  17   48.59    7.54
  -7   0 -17   11.93    7.94
  -4   1  17   95.32   14.61
   3  -1 -17   42.37    7.15
  -3   1  17   40.35   10.20
   2  -1 -17  118.45   11.15
  -2   1  17   99.23    5.84
  -2   1  17  116.30   15.54
   1  -1 -17  195.67   12.82
  -1   1  17  188.51   17.37
  -1   1  17  184.22   10.29
   0  -1 -17   33.01    8.56
   0  -1 -17   22.07    5.14
   0   1  17   27.24    4.69
   0   1  17   21.49    7.51
  -1  -1 -17  209.59   17.23
  -1  -1 -17  196.98   14.35
  -1  -1 -17  203.33   12.34
   1   1  17  195.72   11.85
   1   1  17  207.09   17.47
  -2  -1 -17   79.33   12.72
  -2  -1 -17  106.17   10.88
  -2  -1 -17   66.58    7.75
   2   1  17  106.73   13.90
   2   1  17  110.75    9.61
  -3  -1 -17  165.11   10.19
  -3  -1 -17  126.72   15.59
  -3  -1 -17  179.44   13.04
  -3  -1 -17  169.96   10.23
   3   1  17  170.28   17.52
   3   1  17  145.80   10.89
  -4  -1 -17  126.32    7.99
  -4  -1 -17  126.34   15.97
  -4  -1 -17  106.59   11.00
   4   1  17  105.88   10.09
  -5  -1 -17    3.32    2.09
  -5  -1 -17    3.75    6.09
  -5  -1 -17    7.13    4.36
   5   1  17    2.84    3.48
  -6  -1 -17   -6.03    2.87
  -6  -1 -17   -2.47    5.36
   6   1  17   -0.15    3.40
  -7  -1 -17    6.61    6.88
  -7  -1 -17    9.98    4.24
   7   1  17   14.66    5.09
   3  -2 -17  389.29   19.99
  -3   2  17  376.95   25.73
   2  -2 -17   -3.43    3.06
  -2   2  17    4.20    6.27
  -2   2  17    3.28    2.41
   1  -2 -17  487.36   22.17
  -1   2  17  535.80   29.26
  -1   2  17  452.80   19.60
   0  -2 -17    9.78    3.79
   0  -2 -17   10.42    6.28
   0   2  17   12.56    3.91
   0   2  17    5.20    5.26
  -1  -2 -17   78.30   10.01
  -1  -2 -17   70.41    7.69
  -1  -2 -17   71.16   11.70
   1   2  17   89.53    8.56
   1   2  17   76.92   11.71
  -2  -2 -17   75.89   12.02
  -2  -2 -17   84.16    8.34
  -2  -2 -17   81.54    9.60
   2   2  17   86.00   12.49
   2   2  17   82.00    8.71
  -3  -2 -17   31.30    8.87
  -3  -2 -17   28.10    6.34
  -3  -2 -17   22.00    4.47
  -3  -2 -17   31.52    4.79
   3   2  17   15.85    7.47
   3   2  17   26.25    5.50
  -4  -2 -17   22.57    8.41
  -4  -2 -17   29.89    6.44
  -4  -2 -17   37.38    4.51
   4   2  17   47.09    7.03
  -5  -2 -17   32.94    6.23
  -5  -2 -17   51.94   10.94
   5   2  17   28.54    5.92
  -6  -2 -17   47.19    7.09
  -6  -2 -17   43.94   10.40
   6   2  17   51.77    7.78
  -7  -2 -17    9.06    7.11
  -7  -2 -17    1.57    3.19
   7   2  17    8.23    4.38
   3  -3 -17    9.66    4.98
  -3   3  17   10.99    7.43
   2  -3 -17   -1.95    3.55
  -2   3  17   -6.22    5.14
  -2   3  17    1.31    2.29
   1  -3 -17   -1.08    3.24
  -1   3  17   -4.02    2.23
  -1   3  17    1.03    5.76
   0  -3 -17    7.06    3.64
   0  -3 -17    3.76    5.45
   0   3  17    1.11    4.84
   0   3  17    3.21    3.08
  -1  -3 -17   59.20    7.25
  -1  -3 -17   59.59    9.18
  -1  -3 -17   62.19   11.39
   1   3  17   55.77    7.13
   1   3  17   52.84   10.19
  -2  -3 -17   35.88    5.69
  -2  -3 -17   53.49   11.00
  -2  -3 -17   53.14    8.12
   2   3  17   33.64    5.94
   2   3  17   47.60    9.69
  -3  -3 -17   44.03   10.28
  -3  -3 -17   43.78    5.63
  -3  -3 -17   59.83    8.60
   3   3  17   50.81    7.43
  -4  -3 -17   -0.15    1.84
  -4  -3 -17    0.26    5.47
  -4  -3 -17    0.73    3.44
   4   3  17    7.93    3.88
  -5  -3 -17   -2.25    4.80
  -5  -3 -17   -0.99    3.02
   5   3  17    2.04    3.17
  -6  -3 -17  159.98   11.24
  -6  -3 -17  161.12   18.00
   6   3  17  190.34   12.65
  -7  -3 -17    4.97    2.96
  -7  -3 -17    2.93    5.94
   7   3  17    8.92    4.64
   2  -4 -17   69.03    9.02
  -2   4  17   60.49    9.15
  -2   4  17   75.63   13.06
  -2   4  17   86.77    7.48
   1  -4 -17   17.80    5.01
  -1   4  17   15.80    5.63
  -1   4  17   14.97    4.06
  -1   4  17   16.90    8.04
   0  -4 -17   51.14    9.92
   0  -4 -17   40.35    9.56
   0  -4 -17   47.70    6.61
   0   4  17   56.58    8.84
   0   4  17   49.56   10.03
   0   4  17   52.36    6.75
  -1  -4 -17   65.77    7.53
  -1  -4 -17   59.73    8.69
  -1  -4 -17   58.17   11.72
   1   4  17   52.81   10.43
   1   4  17   60.52    7.44
  -2  -4 -17   10.29    4.80
  -2  -4 -17   21.18    4.49
  -2  -4 -17   19.33    7.92
   2   4  17   23.86   11.64
   2   4  17   20.47    4.82
  -3  -4 -17  226.72   11.06
  -3  -4 -17  236.06   19.21
  -3  -4 -17  212.57   14.18
   3   4  17  178.79   12.70
  -4  -4 -17   21.83    5.63
  -4  -4 -17   31.51    8.91
  -4  -4 -17   27.28    3.04
   4   4  17   26.24    5.70
  -5  -4 -17   25.56    5.65
  -5  -4 -17   27.96    8.25
   5   4  17   22.63    5.60
  -6  -4 -17   45.25    6.31
  -6  -4 -17   32.11    9.60
   6   4  17   50.64    7.59
  -7  -4 -17   21.17    3.93
  -7  -4 -17   13.57    7.72
  -7  -4 -17   22.22    3.93
   7   4  17   23.94    5.71
   1  -5 -17   48.36    7.30
  -1   5  17   42.60    8.19
  -1   5  17   56.86   11.46
  -1   5  17   51.74    6.80
   0  -5 -17   -1.81    3.85
   0  -5 -17    3.34    3.28
   0  -5 -17    1.26    6.11
   0   5  17    5.71    4.60
   0   5  17    2.85    3.02
   0   5  17   -0.15    5.63
  -1  -5 -17   34.53    7.47
  -1  -5 -17   35.19    5.64
  -1  -5 -17   26.00    8.86
   1   5  17   38.83    9.48
   1   5  17   37.74    6.28
  -2  -5 -17    5.08    6.17
  -2  -5 -17    0.52    2.73
  -2  -5 -17    0.35    3.68
   2   5  17   -4.75    2.82
  -3  -5 -17  138.20   16.64
  -3  -5 -17  170.16   12.58
  -3  -5 -17  145.61    8.41
   3   5  17  171.87   11.94
  -4  -5 -17    3.99    4.08
  -4  -5 -17    3.08    5.62
   4   5  17    4.34    3.81
  -5  -5 -17   10.49    4.09
  -5  -5 -17    7.07    7.07
   5   5  17    7.39    4.28
  -6  -5 -17   12.70    6.90
  -6  -5 -17    8.20    3.44
   6   5  17   14.95    5.15
  -7  -5 -17   22.74    3.59
  -7  -5 -17   10.57    6.77
  -7  -5 -17   23.02    3.51
   7   5  17   20.87    5.46
   0  -6 -17   72.78   10.27
   0  -6 -17   51.77    7.24
   0  -6 -17   56.31   11.99
   0   6  17   61.90    7.95
   0   6  17   69.51   18.29
  -1  -6 -17   60.70    6.93
  -1  -6 -17   62.21    9.58
  -1  -6 -17   77.34   13.84
   1   6  17   47.32    7.28
  -2  -6 -17   37.70    5.15
  -2  -6 -17   33.98    9.63
  -2  -6 -17   28.51    6.78
   2   6  17   30.39    6.24
  -3  -6 -17    9.63    2.49
  -3  -6 -17   10.49    2.44
  -3  -6 -17   15.80    5.25
  -3  -6 -17   10.98    6.92
   3   6  17   17.52    4.97
  -4  -6 -17  120.04   11.12
  -4  -6 -17  112.35   15.72
   4   6  17  139.42   11.98
  -5  -6 -17  211.40   12.94
  -5  -6 -17  216.01   19.09
   5   6  17  209.11   13.77
  -6  -6 -17   93.42    8.07
  -6  -6 -17   80.74    9.90
  -6  -6 -17   92.07   14.20
   6   6  17  102.63   10.50
  -1  -7 -17    0.26    4.41
  -1  -7 -17   10.15    7.33
   1   7  17    0.51    3.67
  -2  -7 -17   -4.96    2.02
  -2  -7 -17    0.60    6.20
  -2  -7 -17    0.65    4.23
   2   7  17    0.72    3.84
  -3  -7 -17   43.05    7.78
  -3  -7 -17   39.19   10.54
   3   7  17   45.09    7.40
  -4  -7 -17   78.33   13.52
  -4  -7 -17   96.61    9.84
   4   7  17   96.29   10.44
  -5  -7 -17    5.57    3.65
  -5  -7 -17    2.83    6.23
   5   7  17    7.35    4.45
   1   3 -18   11.76    4.85
  -1  -3  18   11.48    7.26
  -1  -3  18    9.59    5.64
   0   3 -18  174.98   12.74
   0  -3  18  161.12    8.31
   0  -3  18  142.89   15.71
   0  -3  18  138.33   17.51
  -1   3 -18   10.15    4.72
   1  -3  18   16.58    7.77
   1  -3  18   20.30    4.21
  -2   3 -18   -2.43    3.34
   2  -3  18   -0.50    2.92
   2  -3  18    2.30    6.60
  -3   3 -18    6.16   11.10
   2   2 -18    1.50    3.65
  -2  -2  18    8.32    7.45
   1   2 -18   70.04    8.73
  -1  -2  18   73.97   10.74
  -1  -2  18   71.68   12.85
   0   2 -18   56.23    7.95
   0  -2  18   59.51   11.73
   0  -2  18   49.23    5.48
  -1   2 -18   48.43    7.50
   1  -2  18   31.60    5.14
   1  -2  18   28.58    9.30
  -2   2 -18  122.70   11.20
  -2   2 -18  154.05   11.15
   2  -2  18  133.47   10.09
   2  -2  18  162.35   18.38
  -3   2 -18  121.76   16.63
  -3   2 -18   92.99   11.15
  -3   2 -18  136.85   10.07
   3  -2  18  106.95   10.35
   3  -2  18  110.97   15.20
  -4   2 -18   83.36    8.70
  -4   2 -18  109.95   16.36
  -4   2 -18   96.49   12.01
   4  -2  18   88.72    9.54
   2   1 -18   53.81    7.88
  -2  -1  18   58.72   12.06
   1   1 -18   90.80    9.71
  -1  -1  18  109.86   15.13
  -1  -1  18   86.69    5.71
  -1  -1  18   89.03   11.15
   0   1 -18   39.54    6.69
   0  -1  18   33.21    9.23
   0  -1  18   37.68    5.10
  -1   1 -18    0.37    3.50
   1  -1  18   -0.43    5.32
   1  -1  18    6.94    3.22
  -2   1 -18   45.44    6.55
  -2   1 -18   70.24   12.42
   2  -1  18   45.41   10.82
   2  -1  18   54.30    6.82
  -3   1 -18    3.91    6.45
  -3   1 -18    6.29    3.55
  -3   1 -18    6.21    4.98
   3  -1  18    0.99    5.24
   3  -1  18    6.79    3.77
  -4   1 -18   76.84   10.36
  -4   1 -18   98.06   15.18
  -4   1 -18   79.28    7.84
   4  -1  18   62.66    8.38
  -5   1 -18   17.34    3.83
  -5   1 -18    9.32    5.85
  -5   1 -18    9.10    7.45
   5  -1  18    8.57    4.88
   2   0 -18  166.75   12.75
  -2   0  18  188.16   20.58
   1   0 -18  101.41   10.40
  -1   0  18   91.08   14.27
  -1   0  18  115.29    7.13
   0   0 -18   71.86    8.41
   0   0  18   74.00   12.62
   0   0  18   71.28    7.29
  -1   0 -18   -2.75    4.45
  -1   0 -18    0.32    2.98
   1   0  18   -6.10    4.47
   1   0  18    0.36    2.86
  -2   0 -18  194.67   14.72
  -2   0 -18  194.41   17.57
  -2   0 -18  192.37   12.22
   2   0  18  174.28   18.65
   2   0  18  184.33   11.86
  -3   0 -18    1.89    4.53
  -3   0 -18    5.23    6.88
  -3   0 -18    2.81    3.17
   3   0  18   -3.87    2.68
   3   0  18    3.05    5.75
  -4   0 -18  271.09   16.34
  -4   0 -18  216.43   12.01
  -4   0 -18  244.18   20.23
   4   0  18  206.22   13.82
  -5   0 -18   21.02    3.74
  -5   0 -18   12.25    7.80
  -5   0 -18   40.64    7.63
   5   0  18   27.03    5.97
   2  -1 -18   75.90    9.09
  -2   1  18   62.23   12.38
   1  -1 -18   84.92    9.50
  -1   1  18  119.81   15.67
  -1   1  18  105.56    7.44
   0  -1 -18   10.20    4.22
   0   1  18   11.90    3.79
   0   1  18    4.95    5.99
  -1  -1 -18    0.99    3.00
  -1  -1 -18    1.03    5.23
   1   1  18    7.57    3.35
   1   1  18    2.68    5.86
  -2  -1 -18  108.51   15.12
  -2  -1 -18  104.70   12.10
  -2  -1 -18  101.81    9.66
   2   1  18  130.96   15.91
   2   1  18  117.43   10.05
  -3  -1 -18  118.20    9.91
  -3  -1 -18  119.92    8.98
  -3  -1 -18  133.19   13.38
  -3  -1 -18   99.38   14.65
   3   1  18  129.03   11.06
  -4  -1 -18    6.42    4.81
  -4  -1 -18    2.98    5.99
  -4  -1 -18    6.53    3.08
   4   1  18    9.33    4.30
  -5  -1 -18   71.88   12.93
  -5  -1 -18   78.14    9.78
  -5  -1 -18   77.26    5.41
   5   1  18   91.55    9.90
  -6  -1 -18  122.63   17.16
  -6  -1 -18   97.98   10.49
   6   1  18   97.81   10.60
   2  -2 -18  109.17   10.83
  -2   2  18  146.37   18.33
  -2   2  18  125.30    7.08
   1  -2 -18   95.59    9.98
  -1   2  18   93.79   14.49
  -1   2  18   90.37    7.83
   0  -2 -18   45.65    6.82
   0   2  18   50.90    6.54
   0   2  18   41.51   10.12
  -1  -2 -18  130.93   16.47
  -1  -2 -18   99.29    9.62
  -1  -2 -18  117.41   12.55
   1   2  18  135.37   16.24
   1   2  18  105.76    9.71
  -2  -2 -18   48.67    6.70
  -2  -2 -18   58.37   11.41
  -2  -2 -18   50.58    8.28
   2   2  18   51.53    7.18
   2   2  18   81.60   13.27
  -3  -2 -18   16.35    4.00
  -3  -2 -18   22.05    8.14
  -3  -2 -18   12.56    3.83
  -3  -2 -18   -0.86    4.10
   3   2  18    5.58    3.94
  -4  -2 -18   91.25   10.65
  -4  -2 -18   70.74   12.72
  -4  -2 -18   89.12    6.65
   4   2  18   76.14    8.86
  -5  -2 -18   20.87    8.43
  -5  -2 -18   38.94    7.05
   5   2  18   39.31    6.70
  -6  -2 -18    4.60    6.58
  -6  -2 -18   -2.13    3.35
   6   2  18   -4.00    3.38
  -2   3  18   13.33    3.34
  -2   3  18   12.69    7.96
   1  -3 -18   23.17    5.62
  -1   3  18   29.59    5.12
  -1   3  18   46.36   10.92
   0  -3 -18   16.88    7.78
   0  -3 -18   26.92    5.70
   0   3  18   32.43    9.32
   0   3  18   25.23    5.05
  -1  -3 -18   22.30    5.02
  -1  -3 -18   28.56    7.06
  -1  -3 -18   30.55    8.85
   1   3  18   30.18    5.56
   1   3  18   25.19    8.68
  -2  -3 -18   73.93    9.79
  -2  -3 -18   80.16   13.17
  -2  -3 -18   73.58    7.89
   2   3  18   95.17    9.56
   2   3  18   96.08   14.44
  -3  -3 -18   54.08    8.45
  -3  -3 -18   54.16    6.09
  -3  -3 -18   52.49    6.09
  -3  -3 -18   48.02   10.79
   3   3  18   45.74    7.15
  -4  -3 -18    1.54    2.07
  -4  -3 -18    1.89    4.00
  -4  -3 -18    0.74    5.61
   4   3  18   -0.99    3.47
  -5  -3 -18   51.98   11.55
  -5  -3 -18   50.62    7.61
   5   3  18   61.24    8.28
  -6  -3 -18    6.49    6.94
  -6  -3 -18    7.24    4.06
   6   3  18    9.61    4.53
   1  -4 -18    8.54    4.20
  -1   4  18    3.65    3.08
  -1   4  18   13.61    7.89
   0  -4 -18   32.88    5.94
   0  -4 -18   10.77    7.44
   0   4  18   13.76    4.43
   0   4  18   18.79    8.26
   0   4  18   29.29    7.26
  -1  -4 -18   10.01    4.14
  -1  -4 -18    3.72    6.38
  -1  -4 -18   11.34    5.48
   1   4  18    2.55    3.53
   1   4  18    1.39    5.30
  -2  -4 -18  144.57   17.75
  -2  -4 -18  155.49   14.10
  -2  -4 -18  142.65    9.84
   2   4  18  147.64   11.36
  -3  -4 -18    9.43    3.15
  -3  -4 -18   18.24    8.12
  -3  -4 -18   22.82    4.04
  -3  -4 -18   29.06    6.84
   3   4  18   17.30    5.21
  -4  -4 -18    9.10    4.99
  -4  -4 -18    7.20    6.81
  -4  -4 -18    7.34    2.22
   4   4  18    3.19    3.83
  -5  -4 -18   86.52    9.53
  -5  -4 -18   69.24   13.11
   5   4  18   81.47    9.54
  -6  -4 -18    9.17    4.09
  -6  -4 -18    6.25    7.12
   6   4  18    5.91    4.30
   0  -5 -18    2.48    3.56
   0  -5 -18    3.25    6.82
   0   5  18    5.48    6.59
   0   5  18    7.52    3.78
  -1  -5 -18   -1.08    5.65
  -1  -5 -18   -0.32    3.04
  -1  -5 -18   -4.32    3.85
   1   5  18   -1.07    3.20
  -2  -5 -18  307.42   18.79
  -2  -5 -18  316.04   23.55
  -2  -5 -18  304.91   15.01
   2   5  18  324.04   17.36
  -3  -5 -18   12.64    7.91
  -3  -5 -18    9.60    5.08
  -3  -5 -18   16.35    3.45
  -3  -5 -18   11.89    3.15
   3   5  18   11.41    4.99
  -4  -5 -18   18.68    5.59
  -4  -5 -18   22.04    8.29
   4   5  18   18.19    5.68
  -5  -5 -18  395.97   20.16
  -5  -5 -18  421.09   27.51
   5   5  18  451.65   21.71
  -6  -5 -18    8.94    3.87
  -6  -5 -18   -1.46    6.23
   6   5  18    3.40    4.14
  -2  -6 -18  144.38   18.32
  -2  -6 -18  155.38   14.26
  -2  -6 -18  155.60    9.65
   2   6  18  131.76   12.33
  -3  -6 -18   19.93    5.74
  -3  -6 -18    8.24    2.63
  -3  -6 -18   10.79    2.59
  -3  -6 -18    6.15    6.42
   3   6  18   12.25    4.80
  -4  -6 -18   -0.42    6.13
  -4  -6 -18    4.09    4.29
   4   6  18    6.94    4.41
  -5  -6 -18   22.56    5.32
  -5  -6 -18    7.78    7.07
   5   6  18   18.86    5.75
   0   1 -19    1.33    3.60
   0  -1  19    3.47    6.51
   0  -1  19   -1.03    2.42
  -1   1 -19   76.17    9.01
   1  -1  19   57.36    7.05
   1  -1  19   73.79   13.32
  -2   1 -19  124.73   11.14
  -2   1 -19  106.23   10.50
   2  -1  19  124.89   16.18
   2  -1  19  138.83   10.15
  -3   1 -19    1.61    3.08
  -3   1 -19   -4.32    5.62
  -3   1 -19   -4.59    3.97
   3  -1  19    3.73    3.63
   1   0 -19   16.24    5.15
  -1   0  19   23.75    9.42
  -1   0  19   21.64    3.44
   0   0 -19  123.22   11.60
   0   0  19  120.75   16.45
   0   0  19  181.18   10.16
  -1   0 -19    5.37    4.18
   1   0  19    1.87    5.97
  -2   0 -19   36.91    9.94
  -2   0 -19   37.53    6.35
   2   0  19   35.35    9.97
   2   0  19   31.97    6.01
  -3   0 -19   -2.62    2.87
  -3   0 -19    0.81    6.07
  -3   0 -19    4.21    5.00
   3   0  19   12.70    4.19
  -4   0 -19   29.82    7.20
  -4   0 -19   22.11    4.65
  -4   0 -19   26.21    9.67
   4   0  19   33.87    6.60
   1  -1 -19    4.32    4.41
  -1   1  19    3.45    6.62
  -1   1  19    9.18    3.04
   0  -1 -19   64.28    8.49
   0   1  19   47.10    6.40
   0   1  19   66.03   12.53
  -1  -1 -19   34.15    6.16
   1   1  19   26.15    5.33
   1   1  19   29.61    9.26
  -2  -1 -19  298.70   19.17
  -2  -1 -19  316.92   16.42
  -2  -1 -19  326.19   23.46
   2   1  19  314.82   22.81
   2   1  19  297.08   16.14
  -3  -1 -19    2.70    3.00
  -3  -1 -19    1.45    2.96
  -3  -1 -19   -0.56    4.30
  -3  -1 -19    3.61    6.84
   3   1  19   -2.46    3.24
  -4  -1 -19  124.03   16.55
  -4  -1 -19  133.97    8.97
  -4  -1 -19  152.82   14.20
   4   1  19  136.53   12.10
  -5  -1 -19   -1.70    6.06
  -5  -1 -19    2.98    4.59
   0  -2 -19   76.99    9.05
   0   2  19   75.51   13.17
   0   2  19   75.22    7.89
  -1  -2 -19    5.25    3.83
  -1  -2 -19    8.77    7.27
   1   2  19   15.28    8.27
   1   2  19   14.25    4.63
  -2  -2 -19   15.35    6.31
  -2  -2 -19   18.87    8.51
  -2  -2 -19   25.65    5.31
   2   2  19   19.51    9.28
   2   2  19   15.79    4.69
  -3  -2 -19   91.37   10.94
  -3  -2 -19  119.16   15.77
  -3  -2 -19  102.81    9.03
  -3  -2 -19  114.30    8.72
   3   2  19  111.99   10.68
  -4  -2 -19   15.61    8.01
  -4  -2 -19   13.35    3.60
  -4  -2 -19    9.82    5.02
   4   2  19   11.84    4.87
  -5  -2 -19   17.37    5.73
  -5  -2 -19   39.78   10.59
   5   2  19   35.87    6.64
   0  -3 -19   79.64    9.06
   0   3  19   85.56    8.77
   0   3  19   76.62   14.07
  -1  -3 -19    1.47    6.14
  -1  -3 -19   -0.45    5.52
  -1  -3 -19   -0.34    3.24
   1   3  19   -3.74    5.28
   1   3  19    8.77    3.86
  -2  -3 -19  121.00   12.33
  -2  -3 -19  102.88   15.47
  -2  -3 -19  133.90    9.82
   2   3  19   97.11    9.93
  -3  -3 -19   98.22   14.87
  -3  -3 -19  107.90   12.55
  -3  -3 -19  104.35    8.81
  -3  -3 -19  110.58    8.35
   3   3  19  103.12   10.68
  -4  -3 -19   38.59    9.95
  -4  -3 -19   33.50    4.39
  -4  -3 -19   40.47    7.50
   4   3  19   32.69    6.51
  -5  -3 -19  132.37   12.33
  -5  -3 -19  163.83   19.59
   5   3  19  144.97   12.85
  -1  -4 -19   23.11    8.98
  -1  -4 -19   12.38    4.32
  -1  -4 -19   18.43    6.72
   1   4  19   15.90    4.79
  -2  -4 -19   25.94    6.69
  -2  -4 -19   32.72    5.68
  -2  -4 -19   32.44    9.99
   2   4  19   32.23    6.19
  -3  -4 -19   20.85    4.00
  -3  -4 -19   23.52    8.86
  -3  -4 -19   26.45    6.78
  -3  -4 -19   15.87    3.76
   3   4  19   20.59    5.68
  -4  -4 -19   24.70    6.49
  -4  -4 -19   29.49    9.94
   4   4  19   19.62    5.52
  -3  -5 -19   27.44    9.47
  -3  -5 -19   22.30    6.32


 _exptl_absorpt_process_details 'SADABS 2014/4'
 _exptl_absorpt_correction_type   multiscan
 _exptl_absorpt_correction_T_max  0.9485
 _exptl_absorpt_correction_T_min  0.9078
 _exptl_special_details
)
 The following wavelength and cell were deduced by SADABS from the
 direction cosines etc. They are given here for emergency use only:
 CELL 0.71021    9.473    9.887   15.845   82.709   79.799   71.531
)

_computing_structure_solution     'SHELXT 2014/4 (Sheldrick, 2014)'
;
_shelx_hkl_checksum              70496
loop_
_space_group_symop_operation_xyz
'x, y, z'
'-x, -y, -z'
loop_
_atom_site_label
_atom_site_type_symbol
_atom_site_fract_x
_atom_site_fract_y
_atom_site_fract_z
_atom_site_U_iso_or_equiv
_atom_site_adp_type
_atom_site_occupancy
_atom_site_site_symmetry_order
_atom_site_calc_flag
_atom_site_refinement_flags_posn
_atom_site_refinement_flags_adp
C1 C 0.2106(2) 0.74517(19) 0.85263(12) 0.0249(4) Uani 1 1 d . .
H1 H 0.1616 0.7537 0.9102 0.030 Uiso 1 1 calc R U
C2 C 0.1660(2) 0.68798(19) 0.79289(12) 0.0265(4) Uani 1 1 d . .
H2 H 0.0811 0.6539 0.8041 0.032 Uiso 1 1 calc R U
C3 C 0.25969(19) 0.68355(19) 0.71015(12) 0.0232(4) Uani 1 1 d . .
H3 H 0.2455 0.6464 0.6610 0.028 Uiso 1 1 calc R U
C4 C 0.37464(19) 0.74253(17) 0.71367(10) 0.0181(3) Uani 1 1 d . .
C5 C 0.48981(18) 0.75282(17) 0.64157(10) 0.0181(3) Uani 1 1 d . .
C6 C 0.48058(19) 0.76712(17) 0.55527(10) 0.0191(3) Uani 1 1 d . .
H6 H 0.3928 0.7780 0.5308 0.023 Uiso 1 1 calc R U
C7 C 0.62320(19) 0.76304(17) 0.50898(10) 0.0177(3) Uani 1 1 d . .
C8 C 0.71994(18) 0.74778(17) 0.56843(10) 0.0171(3) Uani 1 1 d . .
C9 C 0.88137(19) 0.72499(17) 0.56291(10) 0.0182(3) Uani 1 1 d . .
C10 C 0.96480(19) 0.78650(17) 0.48760(10) 0.0168(3) Uani 1 1 d . .
C11 C 0.8971(2) 0.91239(18) 0.44096(11) 0.0211(4) Uani 1 1 d . .
H11 H 0.7923 0.9585 0.4541 0.025 Uiso 1 1 calc R U
C12 C 0.9826(2) 0.97027(19) 0.37553(11) 0.0263(4) Uani 1 1 d . .
H12 H 0.9363 1.0563 0.3440 0.032 Uiso 1 1 calc R U
C13 C 1.1352(2) 0.9033(2) 0.35594(11) 0.0267(4) Uani 1 1 d . .
H13 H 1.1934 0.9437 0.3112 0.032 Uiso 1 1 calc R U
C14 C 1.2033(2) 0.77731(19) 0.40156(11) 0.0230(4) Uani 1 1 d . .
H14 H 1.3078 0.7308 0.3876 0.028 Uiso 1 1 calc R U
C15 C 1.11857(19) 0.71956(18) 0.46747(10) 0.0197(3) Uani 1 1 d . .
H15 H 1.1654 0.6339 0.4991 0.024 Uiso 1 1 calc R U
C16 C 0.65775(19) 0.75811(17) 0.41472(10) 0.0175(3) Uani 1 1 d . .
C17 C 0.55904(19) 0.85266(18) 0.36200(11) 0.0198(3) Uani 1 1 d . .
H17 H 0.4758 0.9263 0.3863 0.024 Uiso 1 1 calc R U
C18 C 0.5838(2) 0.83796(19) 0.27432(11) 0.0240(4) Uani 1 1 d . .
H18 H 0.5168 0.9017 0.2388 0.029 Uiso 1 1 calc R U
C19 C 0.7047(2) 0.7315(2) 0.23826(11) 0.0256(4) Uani 1 1 d . .
H19 H 0.7193 0.7207 0.1784 0.031 Uiso 1 1 calc R U
C20 C 0.8048(2) 0.64073(19) 0.28964(11) 0.0238(4) Uani 1 1 d . .
H20 H 0.8898 0.5694 0.2647 0.029 Uiso 1 1 calc R U
C21 C 0.78129(19) 0.65369(17) 0.37711(11) 0.0198(3) Uani 1 1 d . .
H21 H 0.8502 0.5907 0.4119 0.024 Uiso 1 1 calc R U
C22 C 0.68622(18) 0.73992(17) 0.72811(10) 0.0161(3) Uani 1 1 d . .
C23 C 0.76918(18) 0.65705(17) 0.85001(10) 0.0158(3) Uani 1 1 d . .
C24 C 0.82660(18) 0.57990(17) 0.92260(10) 0.0177(3) Uani 1 1 d . .
H24 H 0.8445 0.4797 0.9318 0.021 Uiso 1 1 calc R U
C25 C 0.85606(19) 0.65694(17) 0.98047(10) 0.0184(3) Uani 1 1 d . .
H25 H 0.8976 0.6079 1.0301 0.022 Uiso 1 1 calc R U
C26 C 0.82642(18) 0.80615(17) 0.96818(10) 0.0181(3) Uani 1 1 d . .
C27 C 0.76624(18) 0.88210(17) 0.89670(10) 0.0181(3) Uani 1 1 d . .
H27 H 0.7434 0.9830 0.8892 0.022 Uiso 1 1 calc R U
C28 C 0.74041(18) 0.80588(17) 0.83645(10) 0.0164(3) Uani 1 1 d . .
C29 C 0.86046(19) 0.88907(18) 1.02978(10) 0.0197(3) Uani 1 1 d . .
C30 C 0.9926(2) 0.8762(2) 1.14528(12) 0.0284(4) Uani 1 1 d . .
H30A H 0.9939 0.9718 1.1210 0.043 Uiso 1 1 calc R U
H30B H 1.0924 0.8211 1.1595 0.043 Uiso 1 1 calc R U
H30C H 0.9187 0.8842 1.1974 0.043 Uiso 1 1 calc R U
C31 C 0.7524(2) 0.47224(17) 0.75670(11) 0.0204(4) Uani 1 1 d . .
H31A H 0.8501 0.4091 0.7717 0.024 Uiso 1 1 calc R U
H31B H 0.7560 0.4734 0.6939 0.024 Uiso 1 1 calc R U
C32 C 0.6294(2) 0.41093(18) 0.80164(10) 0.0208(4) Uani 1 1 d . .
H32A H 0.5297 0.4782 0.7929 0.025 Uiso 1 1 calc R U
H32B H 0.6403 0.3198 0.7780 0.025 Uiso 1 1 calc R U
C33 C 0.5220(3) 0.3430(3) 0.93812(13) 0.0390(5) Uani 1 1 d . .
H33A H 0.4264 0.4168 0.9314 0.058 Uiso 1 1 calc R U
H33B H 0.5351 0.3274 0.9988 0.058 Uiso 1 1 calc R U
H33C H 0.5217 0.2540 0.9176 0.058 Uiso 1 1 calc R U
N1 N 0.63598(15) 0.73878(15) 0.64981(8) 0.0172(3) Uani 1 1 d . .
N2 N 0.73175(15) 0.61647(14) 0.77892(8) 0.0162(3) Uani 1 1 d . .
N3 N 0.68771(15) 0.85510(14) 0.75862(9) 0.0174(3) Uani 1 1 d . .
O1 O 0.94826(14) 0.65584(14) 0.62159(7) 0.0251(3) Uani 1 1 d . .
O2 O 0.81352(15) 1.01712(13) 1.03017(8) 0.0275(3) Uani 1 1 d . .
O3 O 0.95255(14) 0.80488(12) 1.08319(8) 0.0230(3) Uani 1 1 d . .
O4 O 0.64180(15) 0.38787(14) 0.88975(8) 0.0263(3) Uani 1 1 d . .
S1 S 0.36374(5) 0.80010(5) 0.81388(3) 0.02747(13) Uani 1 1 d . .
loop_
_atom_site_aniso_label
_atom_site_aniso_U_11
_atom_site_aniso_U_22
_atom_site_aniso_U_33
_atom_site_aniso_U_23
_atom_site_aniso_U_13
_atom_site_aniso_U_12
C1 0.0230(9) 0.0246(9) 0.0256(9) -0.0055(7) 0.0053(7) -0.0081(7)
C2 0.0192(9) 0.0282(9) 0.0332(10) -0.0063(7) 0.0057(7) -0.0123(7)
C3 0.0110(8) 0.0280(9) 0.0278(9) 0.0048(7) 0.0021(7) -0.0072(7)
C4 0.0151(8) 0.0204(8) 0.0188(8) -0.0031(6) -0.0011(6) -0.0054(6)
C5 0.0137(8) 0.0207(8) 0.0210(8) -0.0034(6) -0.0022(6) -0.0062(6)
C6 0.0148(8) 0.0238(8) 0.0197(8) -0.0028(6) -0.0037(6) -0.0061(6)
C7 0.0173(8) 0.0169(7) 0.0185(8) -0.0008(6) -0.0026(6) -0.0047(6)
C8 0.0157(8) 0.0183(8) 0.0164(8) -0.0003(6) 0.0000(6) -0.0056(6)
C9 0.0163(8) 0.0195(8) 0.0184(8) -0.0028(6) -0.0014(6) -0.0047(6)
C10 0.0171(8) 0.0211(8) 0.0148(7) -0.0032(6) -0.0014(6) -0.0094(6)
C11 0.0212(9) 0.0213(8) 0.0227(8) -0.0028(6) -0.0046(7) -0.0079(7)
C12 0.0362(11) 0.0232(9) 0.0233(9) 0.0034(7) -0.0065(8) -0.0150(8)
C13 0.0348(11) 0.0341(10) 0.0182(8) -0.0024(7) 0.0018(7) -0.0230(8)
C14 0.0206(9) 0.0316(9) 0.0204(8) -0.0080(7) 0.0023(7) -0.0132(7)
C15 0.0186(9) 0.0235(8) 0.0184(8) -0.0033(6) -0.0012(7) -0.0084(7)
C16 0.0176(8) 0.0197(8) 0.0174(8) -0.0008(6) -0.0020(6) -0.0092(6)
C17 0.0166(8) 0.0232(8) 0.0209(8) -0.0018(6) -0.0021(7) -0.0082(7)
C18 0.0254(10) 0.0286(9) 0.0214(8) 0.0050(7) -0.0082(7) -0.0128(7)
C19 0.0293(10) 0.0347(10) 0.0174(8) -0.0025(7) -0.0004(7) -0.0176(8)
C20 0.0230(9) 0.0260(9) 0.0233(9) -0.0068(7) 0.0035(7) -0.0103(7)
C21 0.0184(9) 0.0192(8) 0.0227(8) -0.0005(6) -0.0037(7) -0.0070(7)
C22 0.0112(8) 0.0232(8) 0.0142(7) 0.0000(6) -0.0002(6) -0.0068(6)
C23 0.0115(8) 0.0216(8) 0.0157(7) -0.0032(6) 0.0008(6) -0.0076(6)
C24 0.0162(8) 0.0184(8) 0.0186(8) 0.0002(6) -0.0009(6) -0.0066(6)
C25 0.0157(8) 0.0225(8) 0.0165(8) 0.0012(6) -0.0017(6) -0.0063(6)
C26 0.0142(8) 0.0222(8) 0.0186(8) -0.0032(6) -0.0003(6) -0.0068(6)
C27 0.0154(8) 0.0185(8) 0.0207(8) -0.0019(6) -0.0013(6) -0.0063(6)
C28 0.0117(8) 0.0204(8) 0.0172(8) 0.0001(6) -0.0002(6) -0.0064(6)
C29 0.0177(9) 0.0236(8) 0.0181(8) -0.0006(6) -0.0007(6) -0.0082(7)
C30 0.0393(11) 0.0282(9) 0.0254(9) -0.0001(7) -0.0148(8) -0.0163(8)
C31 0.0242(9) 0.0191(8) 0.0186(8) -0.0043(6) 0.0002(7) -0.0083(7)
C32 0.0248(9) 0.0219(8) 0.0194(8) -0.0014(6) -0.0043(7) -0.0115(7)
C33 0.0410(13) 0.0563(13) 0.0281(10) -0.0002(9) 0.0058(9) -0.0334(11)
N1 0.0141(7) 0.0231(7) 0.0151(7) -0.0013(5) -0.0010(5) -0.0074(5)
N2 0.0153(7) 0.0186(7) 0.0150(6) -0.0013(5) 0.0000(5) -0.0068(5)
N3 0.0142(7) 0.0212(7) 0.0173(7) -0.0002(5) -0.0018(5) -0.0068(5)
O1 0.0166(6) 0.0348(7) 0.0196(6) 0.0060(5) -0.0027(5) -0.0048(5)
O2 0.0335(8) 0.0224(6) 0.0276(7) -0.0058(5) -0.0108(6) -0.0049(5)
O3 0.0280(7) 0.0223(6) 0.0230(6) -0.0012(5) -0.0109(5) -0.0100(5)
O4 0.0272(7) 0.0374(7) 0.0193(6) 0.0018(5) -0.0015(5) -0.0193(6)
S1 0.0232(3) 0.0369(3) 0.0253(2) -0.00932(18) 0.00450(18) -0.0149(2)
loop_
_atom_type_symbol
_atom_type_description
_atom_type_scat_dispersion_real
_atom_type_scat_dispersion_imag
_atom_type_scat_source
C C 0.0033 0.0016 'International Tables Vol C Tables 4.2.6.8 and 6.1.1.4'
H H 0.0000 0.0000 'International Tables Vol C Tables 4.2.6.8 and 6.1.1.4'
N N 0.0061 0.0033 'International Tables Vol C Tables 4.2.6.8 and 6.1.1.4'
O O 0.0106 0.0060 'International Tables Vol C Tables 4.2.6.8 and 6.1.1.4'
S S 0.1246 0.1234 'International Tables Vol C Tables 4.2.6.8 and 6.1.1.4'
loop_
_geom_angle_atom_site_label_1
_geom_angle_atom_site_label_2
_geom_angle_atom_site_label_3
_geom_angle
C2 C1 S1 112.86(14)
C2 C1 H1 123.6
S1 C1 H1 123.6
C1 C2 C3 113.70(17)
C1 C2 H2 123.2
C3 C2 H2 123.2
C4 C3 C2 109.61(16)
C4 C3 H3 125.2
C2 C3 H3 125.2
C3 C4 C5 123.76(15)
C3 C4 S1 112.04(13)
C5 C4 S1 124.20(13)
C6 C5 N1 107.29(14)
C6 C5 C4 128.69(15)
N1 C5 C4 123.86(15)
C5 C6 C7 108.77(15)
C5 C6 H6 125.6
C7 C6 H6 125.6
C8 C7 C6 107.53(14)
C8 C7 C16 129.13(15)
C6 C7 C16 122.91(15)
C7 C8 N1 106.53(14)
C7 C8 C9 134.67(15)
N1 C8 C9 118.39(14)
O1 C9 C8 119.53(15)
O1 C9 C10 119.76(15)
C8 C9 C10 120.71(14)
C15 C10 C11 119.44(15)
C15 C10 C9 117.91(15)
C11 C10 C9 122.50(15)
C12 C11 C10 119.99(17)
C12 C11 H11 120.0
C10 C11 H11 120.0
C13 C12 C11 120.26(17)
C13 C12 H12 119.9
C11 C12 H12 119.9
C12 C13 C14 120.13(16)
C12 C13 H13 119.9
C14 C13 H13 119.9
C15 C14 C13 119.86(17)
C15 C14 H14 120.1
C13 C14 H14 120.1
C14 C15 C10 120.31(16)
C14 C15 H15 119.8
C10 C15 H15 119.8
C21 C16 C17 118.89(15)
C21 C16 C7 120.93(15)
C17 C16 C7 120.00(15)
C18 C17 C16 119.73(16)
C18 C17 H17 120.1
C16 C17 H17 120.1
C19 C18 C17 120.67(16)
C19 C18 H18 119.7
C17 C18 H18 119.7
C18 C19 C20 119.77(16)
C18 C19 H19 120.1
C20 C19 H19 120.1
C21 C20 C19 120.18(16)
C21 C20 H20 119.9
C19 C20 H20 119.9
C20 C21 C16 120.70(16)
C20 C21 H21 119.6
C16 C21 H21 119.6
N3 C22 N2 115.64(14)
N3 C22 N1 123.70(14)
N2 C22 N1 120.61(14)
N2 C23 C24 132.42(15)
N2 C23 C28 105.38(14)
C24 C23 C28 122.19(15)
C25 C24 C23 116.43(15)
C25 C24 H24 121.8
C23 C24 H24 121.8
C24 C25 C26 122.01(15)
C24 C25 H25 119.0
C26 C25 H25 119.0
C27 C26 C25 121.03(15)
C27 C26 C29 116.89(15)
C25 C26 C29 122.07(15)
C26 C27 C28 117.76(15)
C26 C27 H27 121.1
C28 C27 H27 121.1
N3 C28 C27 129.02(15)
N3 C28 C23 110.44(14)
C27 C28 C23 120.53(15)
O2 C29 O3 124.02(16)
O2 C29 C26 123.88(15)
O3 C29 C26 112.08(14)
O3 C30 H30A 109.5
O3 C30 H30B 109.5
H30A C30 H30B 109.5
O3 C30 H30C 109.5
H30A C30 H30C 109.5
H30B C30 H30C 109.5
N2 C31 C32 113.43(13)
N2 C31 H31A 108.9
C32 C31 H31A 108.9
N2 C31 H31B 108.9
C32 C31 H31B 108.9
H31A C31 H31B 107.7
O4 C32 C31 108.16(14)
O4 C32 H32A 110.1
C31 C32 H32A 110.1
O4 C32 H32B 110.1
C31 C32 H32B 110.1
H32A C32 H32B 108.4
O4 C33 H33A 109.5
O4 C33 H33B 109.5
H33A C33 H33B 109.5
O4 C33 H33C 109.5
H33A C33 H33C 109.5
H33B C33 H33C 109.5
C5 N1 C8 109.84(13)
C5 N1 C22 124.43(13)
C8 N1 C22 124.90(14)
C22 N2 C23 105.07(13)
C22 N2 C31 126.49(14)
C23 N2 C31 128.08(14)
C22 N3 C28 103.46(13)
C29 O3 C30 116.06(13)
C32 O4 C33 111.95(14)
C1 S1 C4 91.78(9)
loop_
_geom_bond_atom_site_label_1
_geom_bond_atom_site_label_2
_geom_bond_distance
C1 C2 1.352(3)
C1 S1 1.7005(19)
C1 H1 0.9500
C2 C3 1.449(2)
C2 H2 0.9500
C3 C4 1.403(2)
C3 H3 0.9500
C4 C5 1.455(2)
C4 S1 1.7318(17)
C5 C6 1.375(2)
C5 N1 1.377(2)
C6 C7 1.413(2)
C6 H6 0.9500
C7 C8 1.391(2)
C7 C16 1.478(2)
C8 N1 1.403(2)
C8 C9 1.463(2)
C9 O1 1.229(2)
C9 C10 1.490(2)
C10 C15 1.394(2)
C10 C11 1.394(2)
C11 C12 1.385(3)
C11 H11 0.9500
C12 C13 1.383(3)
C12 H12 0.9500
C13 C14 1.388(3)
C13 H13 0.9500
C14 C15 1.384(2)
C14 H14 0.9500
C15 H15 0.9500
C16 C21 1.393(2)
C16 C17 1.406(2)
C17 C18 1.389(2)
C17 H17 0.9500
C18 C19 1.381(3)
C18 H18 0.9500
C19 C20 1.386(3)
C19 H19 0.9500
C20 C21 1.383(2)
C20 H20 0.9500
C21 H21 0.9500
C22 N3 1.300(2)
C22 N2 1.369(2)
C22 N1 1.409(2)
C23 N2 1.381(2)
C23 C24 1.394(2)
C23 C28 1.408(2)
C24 C25 1.381(2)
C24 H24 0.9500
C25 C26 1.410(2)
C25 H25 0.9500
C26 C27 1.386(2)
C26 C29 1.489(2)
C27 C28 1.388(2)
C27 H27 0.9500
C28 N3 1.387(2)
C29 O2 1.205(2)
C29 O3 1.341(2)
C30 O3 1.447(2)
C30 H30A 0.9800
C30 H30B 0.9800
C30 H30C 0.9800
C31 N2 1.460(2)
C31 C32 1.513(2)
C31 H31A 0.9900
C31 H31B 0.9900
C32 O4 1.408(2)
C32 H32A 0.9900
C32 H32B 0.9900
C33 O4 1.417(2)
C33 H33A 0.9800
C33 H33B 0.9800
C33 H33C 0.9800
