#------------------------------------------------------------------------------
#$Date: 2017-09-12 07:05:10 +0300 (Tue, 12 Sep 2017) $
#$Revision: 200743 $
#$URL: file:///home/coder/svn-repositories/cod/cif/1/54/64/1546421.cif $
#------------------------------------------------------------------------------
#
# This file is available in the Crystallography Open Database (COD),
# http://www.crystallography.net/
#
# All data on this site have been placed in the public domain by the
# contributors.
#
data_1546421
loop_
_publ_author_name
'Qui\~nones, Ryan E'
'Glinkerman, Christopher M.'
'Zhu, Kaicheng'
'Boger, Dale L.'
_publ_section_title
;
 Direct Synthesis of \b-Aminoenals through Reaction of 1,2,3-Triazine with
 Secondary Amines.
;
_journal_issue                   13
_journal_name_full               'Organic letters'
_journal_page_first              3568
_journal_page_last               3571
_journal_paper_doi               10.1021/acs.orglett.7b01543
_journal_volume                  19
_journal_year                    2017
_chemical_absolute_configuration ad
_chemical_formula_moiety         'H O4 S, C23 H22 N5 O4'
_chemical_formula_sum            'C23 H23 N5 O8 S'
_chemical_formula_weight         529.52
_space_group_crystal_system      orthorhombic
_space_group_IT_number           29
_space_group_name_Hall           'P 2c -2ac'
_space_group_name_H-M_alt        'P c a 21'
_symmetry_space_group_name_Hall  'P 2c -2ac'
_symmetry_space_group_name_H-M   'P c a 21'
_atom_sites_solution_hydrogens   geom
_atom_sites_solution_primary     dual
_audit_creation_date             2016-12-01
_audit_creation_method
;
Olex2 1.2-beta
(compiled 2016.11.24 svn.r3356 for OlexSys, GUI svn.r5267)
;
_cell_angle_alpha                90
_cell_angle_beta                 90
_cell_angle_gamma                90
_cell_formula_units_Z            4
_cell_length_a                   31.325(3)
_cell_length_b                   4.7080(4)
_cell_length_c                   15.8478(11)
_cell_measurement_reflns_used    5257
_cell_measurement_temperature    100
_cell_measurement_theta_max      68.260
_cell_measurement_theta_min      2.824
_cell_volume                     2337.2(3)
_computing_cell_refinement       'SAINT v8.37A (Bruker, 2015)'
_computing_data_reduction        'SAINT v8.37A (Bruker, 2015)'
_computing_molecular_graphics    'Olex2 (Dolomanov et al., 2009)'
_computing_publication_material  'Olex2 (Dolomanov et al., 2009)'
_computing_structure_refinement  'XL (Sheldrick, 2008)'
_computing_structure_solution    'ShelXT (Sheldrick, 2015)'
_diffrn_ambient_temperature      100.0
_diffrn_measured_fraction_theta_full 0.963
_diffrn_measured_fraction_theta_max 0.962
_diffrn_measurement_device_type  'Bruker APEX-II CCD'
_diffrn_measurement_method       '\f and \w scans'
_diffrn_radiation_type           CuK\a
_diffrn_radiation_wavelength     1.54178
_diffrn_reflns_av_R_equivalents  0.0554
_diffrn_reflns_av_unetI/netI     0.0590
_diffrn_reflns_Laue_measured_fraction_full 0.963
_diffrn_reflns_Laue_measured_fraction_max 0.962
_diffrn_reflns_limit_h_max       37
_diffrn_reflns_limit_h_min       -36
_diffrn_reflns_limit_k_max       3
_diffrn_reflns_limit_k_min       -5
_diffrn_reflns_limit_l_max       19
_diffrn_reflns_limit_l_min       -18
_diffrn_reflns_number            11831
_diffrn_reflns_point_group_measured_fraction_full 0.802
_diffrn_reflns_point_group_measured_fraction_max 0.801
_diffrn_reflns_theta_full        67.679
_diffrn_reflns_theta_max         68.370
_diffrn_reflns_theta_min         2.821
_diffrn_standards_number         0
_exptl_absorpt_coefficient_mu    1.771
_exptl_absorpt_correction_T_max  0.5210
_exptl_absorpt_correction_T_min  0.3779
_exptl_absorpt_correction_type   multi-scan
_exptl_absorpt_process_details
;
SADABS-2016/2 (Bruker,2016/2) was used for absorption correction.
wR2(int) was 0.0994 before and 0.0779 after correction.
The Ratio of minimum to maximum transmission is 0.7253.
The \l/2 correction factor is Not present.
;
_exptl_crystal_colour            yellow
_exptl_crystal_colour_primary    yellow
_exptl_crystal_density_diffrn    1.505
_exptl_crystal_description       plate
_exptl_crystal_F_000             1104
_exptl_crystal_size_max          0.3
_exptl_crystal_size_mid          0.1
_exptl_crystal_size_min          0.03
_refine_diff_density_max         0.738
_refine_diff_density_min         -0.513
_refine_diff_density_rms         0.064
_refine_ls_abs_structure_details
;
 Flack x determined using 906 quotients [(I+)-(I-)]/[(I+)+(I-)]
 (Parsons, Flack and Wagner, Acta Cryst. B69 (2013) 249-259).
;
_refine_ls_abs_structure_Flack   0.06(2)
_refine_ls_extinction_method     none
_refine_ls_goodness_of_fit_ref   1.024
_refine_ls_hydrogen_treatment    constr
_refine_ls_matrix_type           full
_refine_ls_number_parameters     364
_refine_ls_number_reflns         3440
_refine_ls_number_restraints     1
_refine_ls_restrained_S_all      1.023
_refine_ls_R_factor_all          0.0614
_refine_ls_R_factor_gt           0.0524
_refine_ls_shift/su_max          0.003
_refine_ls_shift/su_mean         0.000
_refine_ls_structure_factor_coef Fsqd
_refine_ls_weighting_details
'w=1/[\s^2^(Fo^2^)+(0.0766P)^2^+1.8797P] where P=(Fo^2^+2Fc^2^)/3'
_refine_ls_weighting_scheme      calc
_refine_ls_wR_factor_gt          0.1341
_refine_ls_wR_factor_ref         0.1393
_reflns_Friedel_coverage         0.603
_reflns_Friedel_fraction_full    0.627
_reflns_Friedel_fraction_max     0.628
_reflns_number_gt                3029
_reflns_number_total             3440
_reflns_threshold_expression     'I > 2\s(I)'
_iucr_refine_instructions_details
;

    boger55_a.res created by SHELXL-2014/7

TITL boger55_a.res in Pca2(1)
REM Old TITL boger55 in Pca2(1)
REM SHELXT solution in Pca2(1)
REM R1 0.122, Rweak 0.012, Alpha 0.003, Orientation as input
REM Flack x = 0.241 ( 0.021 ) from Parsons' quotients
REM Formula found by SHELXT: C30 N7 Cl
CELL 1.54178 31.3254 4.708 15.8478 90 90 90
ZERR 4 0.0026 0.0004 0.0011 0 0 0
LATT -1
SYMM -X,-Y,0.5+Z
SYMM 0.5+X,-Y,+Z
SYMM 0.5-X,+Y,0.5+Z
SFAC C H N O S
UNIT 92 92 20 32 4
RIGU 0.002 0.002 O8 O6' O7 O8' O5 O5' O6
 
L.S. 10
PLAN  20
SIZE 0.03 0.1 0.3
TEMP -173.15
BOND $H
LIST 6
fmap 2
ACTA
OMIT 30 1 1
OMIT 30 1 -1
REM <olex2.extras>
REM <HklSrc "%.\\boger55.hkl">
REM </olex2.extras>
 
WGHT    0.076600    1.879700
FVAR       0.14607   0.56354
S1    5    0.233014   -0.141803    0.301570    11.00000    0.02602    0.02705 =
         0.01886   -0.00210   -0.00267   -0.00307
O1    4    0.148086   -0.221656    0.665410    11.00000    0.02632    0.03135 =
         0.02133    0.00425    0.00013    0.00089
O2    4    0.079403   -0.164950    0.663572    11.00000    0.02438    0.03572 =
         0.02571    0.00241    0.00456   -0.01298
O3    4    0.046637    0.824467    0.425100    11.00000    0.03418    0.02931 =
         0.03191    0.00761   -0.00441   -0.00097
N2    3    0.235293    0.172478    0.531781    11.00000    0.01822    0.03695 =
         0.02422   -0.00956    0.00231   -0.00557
AFIX  43
H2    2    0.242060    0.107934    0.481414    11.00000   -1.20000
AFIX   0
O4    4    0.010531    0.510516    0.495381    11.00000    0.02155    0.04797 =
         0.03675    0.01069    0.00369   -0.00265
N4    3    0.115718   -0.099236    0.639927    11.00000    0.02417    0.02651 =
         0.01379   -0.00332    0.00220   -0.00501
N1    3    0.364034    0.701468    0.573803    11.00000    0.01460    0.02578 =
         0.01302   -0.00192   -0.00010   -0.00029
N5    3    0.044256    0.609893    0.469900    11.00000    0.02815    0.02644 =
         0.01880   -0.00179    0.00153   -0.00264
N3    3    0.197229    0.089292    0.569097    11.00000    0.01634    0.03707 =
         0.02630    0.00406    0.00184   -0.00621
AFIX  43
H3    2    0.197244   -0.041080    0.608888    11.00000   -1.20000
AFIX   0
C11   1    0.392786    0.850486    0.435245    11.00000    0.01900    0.02252 =
         0.01291   -0.00492    0.00286    0.00156
C3    1    0.084059    0.469753    0.493134    11.00000    0.02302    0.02312 =
         0.01491   -0.00327   -0.00152   -0.00319
C18   1    0.418813    0.686359    0.684093    11.00000    0.02288    0.02119 =
         0.01353   -0.00707   -0.00264   -0.00107
C19   1    0.404045    0.493089    0.743459    11.00000    0.02329    0.02860 =
         0.01554   -0.00478   -0.00343   -0.00045
AFIX  43
H19   2    0.374478    0.486178    0.756636    11.00000   -1.20000
AFIX   0
 
O8    4    0.188639   -0.188224    0.296960    11.00000    0.04821    0.07476 =
         0.04589   -0.00185   -0.00553   -0.01399
C6    1    0.160109    0.209295    0.544095    11.00000    0.02013    0.02147 =
         0.01776   -0.00526   -0.00052   -0.00422
C2    1    0.082477    0.257584    0.552584    11.00000    0.01936    0.02556 =
         0.01782   -0.00671    0.00601   -0.00821
AFIX  43
H2A   2    0.055890    0.200676    0.575949    11.00000   -1.20000
AFIX   0
C9    1    0.325084    0.608275    0.589777    11.00000    0.01395    0.02861 =
         0.01504    0.00194   -0.00105    0.00178
AFIX  43
H9    2    0.312489    0.669943    0.641138    11.00000   -1.20000
AFIX   0
C14   1    0.399542    1.277608    0.313522    11.00000    0.03830    0.02313 =
         0.01694   -0.00075    0.00570    0.00397
AFIX  43
H14   2    0.401934    1.421442    0.271745    11.00000   -1.20000
AFIX   0
C15   1    0.435494    1.190488    0.358144    11.00000    0.02383    0.02851 =
         0.01585   -0.00002    0.00682   -0.00451
AFIX  43
H15   2    0.462436    1.275798    0.347421    11.00000   -1.20000
AFIX   0
C4    1    0.122584    0.551521    0.456917    11.00000    0.03151    0.02345 =
         0.01458   -0.00092   -0.00084   -0.00526
AFIX  43
H4    2    0.123149    0.696058    0.415103    11.00000   -1.20000
AFIX   0
C16   1    0.431700    0.977184    0.418684    11.00000    0.01843    0.02365 =
         0.01726   -0.00375   -0.00134    0.00357
AFIX  43
H16   2    0.456274    0.917889    0.449075    11.00000   -1.20000
AFIX   0
C13   1    0.360320    1.154604    0.330045    11.00000    0.03496    0.02758 =
         0.01345   -0.00195   -0.00455    0.00964
AFIX  43
H13   2    0.335710    1.217795    0.300469    11.00000   -1.20000
AFIX   0
C10   1    0.389088    0.614620    0.499224    11.00000    0.01787    0.01990 =
         0.01674   -0.00387    0.00492    0.00130
AFIX  23
H10A  2    0.375275    0.448204    0.472526    11.00000   -1.20000
H10B  2    0.418031    0.556731    0.517493    11.00000   -1.20000
AFIX   0
C12   1    0.356637    0.938669    0.389757    11.00000    0.01680    0.02458 =
         0.01638   -0.00580   -0.00163   -0.00091
AFIX  43
H12   2    0.329762    0.851342    0.399677    11.00000   -1.20000
AFIX   0
C8    1    0.300662    0.430496    0.539739    11.00000    0.01741    0.03049 =
         0.01391   -0.00022    0.00238    0.00067
AFIX  43
H8    2    0.310458    0.368264    0.486104    11.00000   -1.20000
AFIX   0
C7    1    0.261332    0.347014    0.571097    11.00000    0.01705    0.02682 =
         0.01795   -0.00110   -0.00409    0.00246
AFIX  43
H7    2    0.252648    0.420338    0.624241    11.00000   -1.20000
AFIX   0
C5    1    0.159630    0.422957    0.481765    11.00000    0.01804    0.02765 =
         0.01807   -0.00513    0.00254   -0.00871
AFIX  43
H5    2    0.185768    0.479093    0.456346    11.00000   -1.20000
AFIX   0
C1    1    0.119748    0.128024    0.578043    11.00000    0.02406    0.02575 =
         0.01454   -0.00334    0.00125   -0.00411
C17   1    0.387638    0.872770    0.637394    11.00000    0.01905    0.02468 =
         0.01835   -0.00545    0.00202   -0.00246
AFIX  23
H17A  2    0.367228    0.958092    0.677796    11.00000   -1.20000
H17B  2    0.403184    1.028658    0.608873    11.00000   -1.20000
AFIX   0
C20   1    0.432219    0.309484    0.783792    11.00000    0.04151    0.02834 =
         0.01348   -0.00382   -0.00726    0.00171
AFIX  43
H20   2    0.421830    0.175798    0.823722    11.00000   -1.20000
AFIX   0
C23   1    0.462036    0.699823    0.666291    11.00000    0.02039    0.02601 =
         0.02012   -0.00604   -0.00076   -0.00127
AFIX  43
H23   2    0.472411    0.833571    0.626365    11.00000   -1.20000
AFIX   0
 
PART 1
O5'   4    0.247452    0.098706    0.350550    21.00000    0.04783    0.03120 =
         0.02770   -0.01876    0.00521   -0.01248
 
PART 0
C22   1    0.490429    0.516103    0.707199    11.00000    0.02317    0.03959 =
         0.03158   -0.01231   -0.00525    0.01209
AFIX  43
H22   2    0.520071    0.524785    0.694803    11.00000   -1.20000
AFIX   0
C21   1    0.475422    0.321748    0.765686    11.00000    0.04031    0.03004 =
         0.02575   -0.01032   -0.01526    0.01915
AFIX  43
H21   2    0.494730    0.197058    0.793337    11.00000   -1.20000
AFIX   0
 
PART 1
O6'   4    0.253361   -0.131563    0.216762    21.00000    0.03051    0.03814 =
         0.01544    0.00215    0.01580   -0.00572
O8'   4    0.256125   -0.392235    0.346704    21.00000    0.07115    0.06553 =
         0.03505    0.01182   -0.01586    0.00254
AFIX 147
H8'   2    0.250688   -0.387069    0.398584    21.00000   -1.50000
AFIX   0
PART 0
PART 2
O5    4    0.246431   -0.147658    0.392281   -21.00000    0.02853    0.03627 =
         0.01542   -0.00499   -0.01576    0.00613
O6    4    0.249401    0.103743    0.262825   -21.00000    0.07207    0.02787 =
         0.03501    0.01584   -0.00294   -0.01529
O7    4    0.256562   -0.398274    0.263692   -21.00000    0.09193    0.03011 =
         0.02210   -0.00902    0.00245    0.00989
AFIX 147
H7A   2    0.248559   -0.547390    0.288122   -21.00000   -1.50000
AFIX   0
HKLF 4
 
REM  boger55_a.res in Pca2(1)
REM R1 =  0.0524 for    3029 Fo > 4sig(Fo)  and  0.0614 for all    3440 data
REM    364 parameters refined using      1 restraints
 
END  
     
WGHT      0.0788      1.5360 

REM Highest difference peak  0.738,  deepest hole -0.513,  1-sigma level  0.064
Q1    1   0.1909  0.0936  0.2948  11.00000  0.05    0.74
Q2    1   0.2078 -0.4095  0.3010  11.00000  0.05    0.69
Q3    1   0.2367 -0.6374  0.3435  11.00000  0.05    0.27
Q4    1   0.2697 -0.1209  0.1812  11.00000  0.05    0.24
Q5    1   0.2581 -0.0760  0.3581  11.00000  0.05    0.24
Q6    1   0.2251  0.2130  0.3038  11.00000  0.05    0.23
Q7    1   0.2335 -0.6458  0.2612  11.00000  0.05    0.22
Q8    1   0.5499  0.2871  0.7760  11.00000  0.05    0.22
Q9    1   0.3600  0.1680  0.8268  11.00000  0.05    0.22
Q10   1   0.2600 -0.2866  0.3006  11.00000  0.05    0.21
Q11   1   0.1782 -0.5869  0.6898  11.00000  0.05    0.21
Q12   1   0.1693 -0.3601  0.3286  11.00000  0.05    0.21
Q13   1   0.3892  0.3229  0.4934  11.00000  0.05    0.21
Q14   1   0.3977  1.6420  0.3284  11.00000  0.05    0.20
Q15   1   0.2974  0.1621  0.2212  11.00000  0.05    0.20
Q16   1   0.4807  0.9233  0.5567  11.00000  0.05    0.20
Q17   1   0.0324  1.1140  0.4123  11.00000  0.05    0.19
Q18   1   0.2411 -0.1609  0.1559  11.00000  0.05    0.19
Q19   1   0.1780 -0.3636  0.2395  11.00000  0.05    0.19
Q20   1   0.3286  1.2185  0.2597  11.00000  0.05    0.19

  REM The information below was added by Olex2.
  REM
  REM R1 = 0.0524 for 3029 Fo > 4sig(Fo) and 0.0614 for all 13010 data
  REM n/a parameters refined using n/a restraints
  REM Highest difference peak 0.74, deepest hole -0.51
  REM Mean Shift 0, Max Shift -0.003.
  
  REM +++ Tabular Listing of Refinement Information +++
  REM R1_all = 0.0614
  REM R1_gt = 0.0524
  REM wR_ref = 0.1393
  REM GOOF = 1.024
  REM Shift_max = -0.003
  REM Shift_mean = 0
  REM Reflections_all = 13010
  REM Reflections_gt = 3029
  REM Parameters = n/a
  REM Hole = -0.51
  REM Peak = 0.74
  REM Flack = 0.06(2)
  
  
;
_cod_data_source_file            ol7b01543_si_002.cif
_cod_data_source_block           boger55_a
_cod_depositor_comments          'Adding full bibliography for 1546421.cif.'
_cod_database_code               1546421
_shelx_space_group_comment
;
The symmetry employed for this shelxl refinement is uniquely defined
by the following loop, which should always be used as a source of
symmetry information in preference to the above space-group names.
They are only intended as comments.
;
_shelx_estimated_absorpt_t_max   0.949
_shelx_estimated_absorpt_t_min   0.619
_olex2_refinement_description
;
1. Fixed Uiso
 At 1.2 times of:
  All C(H) groups, All C(H,H) groups, All N(H) groups
 At 1.5 times of:
  All O(H) groups
2. Rigid body (RIGU) restrains
 O8, O6', O7, O8', O5, O5', O6
 with sigma for 1-2 distances of 0.002 and sigma for 1-3 distances of 0.002
3. Others
 Sof(O5)=Sof(O6)=Sof(O7)=Sof(H7A)=1-FVAR(1)
 Sof(O5')=Sof(O6')=Sof(O8')=Sof(H8')=FVAR(1)
4.a Secondary CH2 refined with riding coordinates:
 C10(H10A,H10B), C17(H17A,H17B)
4.b Aromatic/amide H refined with riding coordinates:
 N2(H2), N3(H3), C19(H19), C2(H2A), C9(H9), C14(H14), C15(H15), C4(H4),
 C16(H16), C13(H13), C12(H12), C8(H8), C7(H7), C5(H5), C20(H20), C23(H23),
 C22(H22), C21(H21)
4.c Idealised tetrahedral OH refined as rotating group:
 O8'(H8'), O7(H7A)
;
_shelx_shelxl_version_number     2014/7
_olex2_submission_special_instructions 'No special instructions were received'
loop_
_space_group_symop_operation_xyz
'x, y, z'
'-x, -y, z+1/2'
'x+1/2, -y, z'
'-x+1/2, y, z+1/2'
loop_
_atom_site_label
_atom_site_type_symbol
_atom_site_fract_x
_atom_site_fract_y
_atom_site_fract_z
_atom_site_U_iso_or_equiv
_atom_site_adp_type
_atom_site_occupancy
_atom_site_site_symmetry_order
_atom_site_calc_flag
_atom_site_refinement_flags_posn
_atom_site_refinement_flags_adp
_atom_site_refinement_flags_occupancy
_atom_site_disorder_assembly
_atom_site_disorder_group
S1 S 0.23301(4) -0.1418(3) 0.30157(9) 0.0240(3) Uani 1 1 d . . . . .
O1 O 0.14809(12) -0.2217(9) 0.6654(2) 0.0263(9) Uani 1 1 d . . . . .
O2 O 0.07940(13) -0.1650(9) 0.6636(3) 0.0286(10) Uani 1 1 d . . . . .
O3 O 0.04664(13) 0.8245(9) 0.4251(3) 0.0318(10) Uani 1 1 d . . . . .
N2 N 0.23529(14) 0.1725(11) 0.5318(3) 0.0265(11) Uani 1 1 d . . . . .
H2 H 0.2421 0.1079 0.4814 0.032 Uiso 1 1 calc R . . . .
O4 O 0.01053(13) 0.5105(10) 0.4954(3) 0.0354(10) Uani 1 1 d . . . . .
N4 N 0.11572(15) -0.0992(10) 0.6399(3) 0.0215(10) Uani 1 1 d . . . . .
N1 N 0.36403(13) 0.7015(9) 0.5738(3) 0.0178(9) Uani 1 1 d . . . . .
N5 N 0.04426(16) 0.6099(10) 0.4699(3) 0.0245(10) Uani 1 1 d . . . . .
N3 N 0.19723(14) 0.0893(11) 0.5691(3) 0.0266(11) Uani 1 1 d . . . . .
H3 H 0.1972 -0.0411 0.6089 0.032 Uiso 1 1 calc R . . . .
C11 C 0.39279(17) 0.8505(12) 0.4352(3) 0.0181(11) Uani 1 1 d . . . . .
C3 C 0.08406(18) 0.4698(12) 0.4931(3) 0.0203(11) Uani 1 1 d . . . . .
C18 C 0.41881(17) 0.6864(12) 0.6841(3) 0.0192(11) Uani 1 1 d . . . . .
C19 C 0.40404(18) 0.4931(13) 0.7435(3) 0.0225(11) Uani 1 1 d . . . . .
H19 H 0.3745 0.4862 0.7566 0.027 Uiso 1 1 calc R . . . .
O8 O 0.18864(17) -0.1882(13) 0.2970(4) 0.0563(15) Uani 1 1 d . U . . .
C6 C 0.16011(17) 0.2093(12) 0.5441(3) 0.0198(11) Uani 1 1 d . . . . .
C2 C 0.08248(17) 0.2576(12) 0.5526(3) 0.0209(11) Uani 1 1 d . . . . .
H2A H 0.0559 0.2007 0.5759 0.025 Uiso 1 1 calc R . . . .
C9 C 0.32508(16) 0.6083(12) 0.5898(3) 0.0192(11) Uani 1 1 d . . . . .
H9 H 0.3125 0.6699 0.6411 0.023 Uiso 1 1 calc R . . . .
C14 C 0.39954(19) 1.2776(12) 0.3135(3) 0.0261(12) Uani 1 1 d . . . . .
H14 H 0.4019 1.4214 0.2717 0.031 Uiso 1 1 calc R . . . .
C15 C 0.43549(18) 1.1905(12) 0.3581(3) 0.0227(12) Uani 1 1 d . . . . .
H15 H 0.4624 1.2758 0.3474 0.027 Uiso 1 1 calc R . . . .
C4 C 0.12258(18) 0.5515(12) 0.4569(3) 0.0232(12) Uani 1 1 d . . . . .
H4 H 0.1231 0.6961 0.4151 0.028 Uiso 1 1 calc R . . . .
C16 C 0.43170(16) 0.9772(12) 0.4187(3) 0.0198(10) Uani 1 1 d . . . . .
H16 H 0.4563 0.9179 0.4491 0.024 Uiso 1 1 calc R . . . .
C13 C 0.3603(2) 1.1546(12) 0.3300(3) 0.0253(13) Uani 1 1 d . . . . .
H13 H 0.3357 1.2178 0.3005 0.030 Uiso 1 1 calc R . . . .
C10 C 0.38909(17) 0.6146(11) 0.4992(3) 0.0182(11) Uani 1 1 d . . . . .
H10A H 0.3753 0.4482 0.4725 0.022 Uiso 1 1 calc R . . . .
H10B H 0.4180 0.5567 0.5175 0.022 Uiso 1 1 calc R . . . .
C12 C 0.35664(16) 0.9387(12) 0.3898(3) 0.0193(11) Uani 1 1 d . . . . .
H12 H 0.3298 0.8513 0.3997 0.023 Uiso 1 1 calc R . . . .
C8 C 0.30066(16) 0.4305(12) 0.5397(3) 0.0206(11) Uani 1 1 d . . . . .
H8 H 0.3105 0.3683 0.4861 0.025 Uiso 1 1 calc R . . . .
C7 C 0.26133(16) 0.3470(12) 0.5711(4) 0.0206(11) Uani 1 1 d . . . . .
H7 H 0.2526 0.4203 0.6242 0.025 Uiso 1 1 calc R . . . .
C5 C 0.15963(17) 0.4230(12) 0.4818(3) 0.0213(11) Uani 1 1 d . . . . .
H5 H 0.1858 0.4791 0.4563 0.026 Uiso 1 1 calc R . . . .
C1 C 0.11975(17) 0.1280(12) 0.5780(3) 0.0215(11) Uani 1 1 d . . . . .
C17 C 0.38764(17) 0.8728(12) 0.6374(3) 0.0207(11) Uani 1 1 d . . . . .
H17A H 0.3672 0.9581 0.6778 0.025 Uiso 1 1 calc R . . . .
H17B H 0.4032 1.0287 0.6089 0.025 Uiso 1 1 calc R . . . .
C20 C 0.4322(2) 0.3095(13) 0.7838(3) 0.0278(13) Uani 1 1 d . . . . .
H20 H 0.4218 0.1758 0.8237 0.033 Uiso 1 1 calc R . . . .
C23 C 0.46204(17) 0.6998(13) 0.6663(3) 0.0222(11) Uani 1 1 d . . . . .
H23 H 0.4724 0.8336 0.6264 0.027 Uiso 1 1 calc R . . . .
O5' O 0.2475(3) 0.0987(17) 0.3506(5) 0.036(2) Uani 0.564(9) 1 d . U P A 1
C22 C 0.49043(19) 0.5161(15) 0.7072(4) 0.0314(14) Uani 1 1 d . . . . .
H22 H 0.5201 0.5248 0.6948 0.038 Uiso 1 1 calc R . . . .
C21 C 0.4754(2) 0.3217(14) 0.7657(4) 0.0320(15) Uani 1 1 d . . . . .
H21 H 0.4947 0.1971 0.7933 0.038 Uiso 1 1 calc R . . . .
O6' O 0.2534(2) -0.1316(17) 0.2168(4) 0.028(2) Uani 0.564(9) 1 d . U P A 1
O8' O 0.2561(4) -0.392(2) 0.3467(6) 0.057(3) Uani 0.564(9) 1 d . U P A 1
H8' H 0.2507 -0.3871 0.3986 0.086 Uiso 0.564(9) 1 calc GR . P A 1
O5 O 0.2464(3) -0.148(2) 0.3923(6) 0.027(3) Uani 0.436(9) 1 d . U P A 2
O6 O 0.2494(4) 0.104(2) 0.2628(7) 0.045(4) Uani 0.436(9) 1 d . U P A 2
O7 O 0.2566(5) -0.398(2) 0.2637(7) 0.048(4) Uani 0.436(9) 1 d . U P A 2
H7A H 0.2486 -0.5474 0.2881 0.072 Uiso 0.436(9) 1 calc GR . P A 2
loop_
_atom_site_aniso_label
_atom_site_aniso_U_11
_atom_site_aniso_U_22
_atom_site_aniso_U_33
_atom_site_aniso_U_23
_atom_site_aniso_U_13
_atom_site_aniso_U_12
S1 0.0260(6) 0.0270(7) 0.0189(6) -0.0021(6) -0.0027(6) -0.0031(6)
O1 0.026(2) 0.031(2) 0.0213(19) 0.0043(17) 0.0001(16) 0.0009(18)
O2 0.024(2) 0.036(2) 0.026(2) 0.0024(18) 0.0046(17) -0.0130(17)
O3 0.034(2) 0.029(2) 0.032(2) 0.0076(19) -0.0044(19) -0.0010(18)
N2 0.018(2) 0.037(3) 0.024(2) -0.010(2) 0.002(2) -0.006(2)
O4 0.022(2) 0.048(3) 0.037(2) 0.011(2) 0.0037(19) -0.003(2)
N4 0.024(2) 0.027(3) 0.014(2) -0.0033(18) 0.0022(19) -0.0050(19)
N1 0.015(2) 0.026(2) 0.0130(19) -0.0019(19) -0.0001(18) -0.0003(17)
N5 0.028(3) 0.026(3) 0.019(2) -0.0018(19) 0.0015(19) -0.003(2)
N3 0.016(2) 0.037(3) 0.026(2) 0.004(2) 0.002(2) -0.0062(19)
C11 0.019(3) 0.023(3) 0.013(2) -0.0049(19) 0.003(2) 0.002(2)
C3 0.023(3) 0.023(3) 0.015(2) -0.003(2) -0.002(2) -0.003(2)
C18 0.023(3) 0.021(3) 0.014(2) -0.007(2) -0.003(2) -0.001(2)
C19 0.023(3) 0.029(3) 0.016(2) -0.005(2) -0.003(2) 0.000(2)
O8 0.048(3) 0.075(4) 0.046(3) -0.002(3) -0.006(3) -0.014(3)
C6 0.020(3) 0.021(3) 0.018(2) -0.005(2) -0.001(2) -0.004(2)
C2 0.019(2) 0.026(3) 0.018(2) -0.007(2) 0.006(2) -0.008(2)
C9 0.014(2) 0.029(3) 0.015(2) 0.002(2) -0.0010(19) 0.002(2)
C14 0.038(3) 0.023(3) 0.017(3) -0.001(2) 0.006(2) 0.004(2)
C15 0.024(3) 0.029(3) 0.016(2) 0.000(2) 0.007(2) -0.005(2)
C4 0.032(3) 0.023(3) 0.015(2) -0.001(2) -0.001(2) -0.005(2)
C16 0.018(2) 0.024(3) 0.017(2) -0.004(2) -0.001(2) 0.004(2)
C13 0.035(3) 0.028(3) 0.013(2) -0.002(2) -0.005(2) 0.010(2)
C10 0.018(3) 0.020(3) 0.017(2) -0.004(2) 0.005(2) 0.001(2)
C12 0.017(2) 0.025(3) 0.016(2) -0.006(2) -0.002(2) -0.001(2)
C8 0.017(2) 0.030(3) 0.014(2) 0.000(2) 0.002(2) 0.001(2)
C7 0.017(3) 0.027(3) 0.018(2) -0.001(2) -0.004(2) 0.002(2)
C5 0.018(2) 0.028(3) 0.018(2) -0.005(2) 0.003(2) -0.009(2)
C1 0.024(3) 0.026(3) 0.015(2) -0.003(2) 0.001(2) -0.004(2)
C17 0.019(3) 0.025(3) 0.018(3) -0.005(2) 0.002(2) -0.002(2)
C20 0.042(3) 0.028(3) 0.013(3) -0.004(2) -0.007(2) 0.002(3)
C23 0.020(3) 0.026(3) 0.020(3) -0.006(2) -0.001(2) -0.001(2)
O5' 0.048(5) 0.031(5) 0.028(4) -0.019(3) 0.005(4) -0.012(4)
C22 0.023(3) 0.040(4) 0.032(3) -0.012(3) -0.005(2) 0.012(3)
C21 0.040(4) 0.030(3) 0.026(3) -0.010(3) -0.015(3) 0.019(3)
O6' 0.031(4) 0.038(5) 0.015(3) 0.002(3) 0.016(3) -0.006(3)
O8' 0.071(8) 0.066(7) 0.035(5) 0.012(5) -0.016(5) 0.003(5)
O5 0.029(5) 0.036(6) 0.015(4) -0.005(4) -0.016(4) 0.006(4)
O6 0.072(9) 0.028(6) 0.035(6) 0.016(5) -0.003(6) -0.015(5)
O7 0.092(10) 0.030(6) 0.022(5) -0.009(4) 0.002(6) 0.010(6)
loop_
_atom_type_symbol
_atom_type_description
_atom_type_scat_dispersion_real
_atom_type_scat_dispersion_imag
_atom_type_scat_source
C C 0.0181 0.0091 'International Tables Vol C Tables 4.2.6.8 and 6.1.1.4'
H H 0.0000 0.0000 'International Tables Vol C Tables 4.2.6.8 and 6.1.1.4'
N N 0.0311 0.0180 'International Tables Vol C Tables 4.2.6.8 and 6.1.1.4'
O O 0.0492 0.0322 'International Tables Vol C Tables 4.2.6.8 and 6.1.1.4'
S S 0.3331 0.5567 'International Tables Vol C Tables 4.2.6.8 and 6.1.1.4'
loop_
_geom_angle_atom_site_label_1
_geom_angle_atom_site_label_2
_geom_angle_atom_site_label_3
_geom_angle
O8 S1 O5' 117.3(4)
O8 S1 O6' 112.4(4)
O8 S1 O8' 111.4(5)
O8 S1 O5 108.9(5)
O8 S1 O7 109.4(6)
O5' S1 O6' 109.0(4)
O5' S1 O8' 101.6(6)
O6' S1 O8' 103.9(5)
O5 S1 O7 103.0(6)
O6 S1 O8 117.7(6)
O6 S1 O5 109.4(6)
O6 S1 O7 107.5(8)
N3 N2 H2 119.7
C7 N2 H2 119.7
C7 N2 N3 120.5(5)
O1 N4 O2 122.7(5)
O1 N4 C1 119.5(4)
O2 N4 C1 117.9(5)
C9 N1 C10 123.5(4)
C9 N1 C17 120.6(4)
C10 N1 C17 115.4(4)
O3 N5 C3 117.6(5)
O4 N5 O3 123.6(5)
O4 N5 C3 118.8(5)
N2 N3 H3 120.1
C6 N3 N2 119.8(5)
C6 N3 H3 120.1
C16 C11 C10 120.9(5)
C16 C11 C12 119.1(5)
C12 C11 C10 120.0(5)
C2 C3 N5 118.1(5)
C2 C3 C4 121.0(5)
C4 C3 N5 120.8(5)
C19 C18 C17 119.9(5)
C23 C18 C19 119.6(5)
C23 C18 C17 120.5(5)
C18 C19 H19 119.8
C18 C19 C20 120.5(6)
C20 C19 H19 119.8
N3 C6 C5 120.8(5)
N3 C6 C1 122.7(5)
C5 C6 C1 116.5(5)
C3 C2 H2A 120.3
C3 C2 C1 119.5(5)
C1 C2 H2A 120.3
N1 C9 H9 116.5
N1 C9 C8 127.0(5)
C8 C9 H9 116.5
C15 C14 H14 120.0
C13 C14 H14 120.0
C13 C14 C15 119.9(5)
C14 C15 H15 120.2
C14 C15 C16 119.5(5)
C16 C15 H15 120.2
C3 C4 H4 120.2
C5 C4 C3 119.7(5)
C5 C4 H4 120.2
C11 C16 C15 121.1(5)
C11 C16 H16 119.4
C15 C16 H16 119.4
C14 C13 H13 119.8
C14 C13 C12 120.5(5)
C12 C13 H13 119.8
N1 C10 C11 112.0(4)
N1 C10 H10A 109.2
N1 C10 H10B 109.2
C11 C10 H10A 109.2
C11 C10 H10B 109.2
H10A C10 H10B 107.9
C11 C12 H12 120.1
C13 C12 C11 119.8(5)
C13 C12 H12 120.1
C9 C8 H8 121.4
C9 C8 C7 117.2(5)
C7 C8 H8 121.4
N2 C7 C8 124.0(5)
N2 C7 H7 118.0
C8 C7 H7 118.0
C6 C5 H5 119.1
C4 C5 C6 121.8(5)
C4 C5 H5 119.1
C6 C1 N4 121.9(5)
C2 C1 N4 116.7(5)
C2 C1 C6 121.5(5)
N1 C17 C18 109.8(4)
N1 C17 H17A 109.7
N1 C17 H17B 109.7
C18 C17 H17A 109.7
C18 C17 H17B 109.7
H17A C17 H17B 108.2
C19 C20 H20 120.0
C21 C20 C19 119.9(6)
C21 C20 H20 120.0
C18 C23 H23 120.0
C18 C23 C22 119.9(6)
C22 C23 H23 120.0
C23 C22 H22 119.9
C21 C22 C23 120.2(6)
C21 C22 H22 119.9
C20 C21 C22 119.9(5)
C20 C21 H21 120.1
C22 C21 H21 120.1
S1 O8' H8' 109.5
S1 O7 H7A 109.5
loop_
_geom_bond_atom_site_label_1
_geom_bond_atom_site_label_2
_geom_bond_distance
S1 O8 1.409(5)
S1 O5' 1.445(7)
S1 O6' 1.488(7)
S1 O8' 1.558(10)
S1 O5 1.498(8)
S1 O6 1.406(10)
S1 O7 1.537(11)
O1 N4 1.234(6)
O2 N4 1.237(6)
O3 N5 1.237(7)
N2 H2 0.8800
N2 N3 1.387(6)
N2 C7 1.315(7)
O4 N5 1.224(6)
N4 C1 1.457(7)
N1 C9 1.321(7)
N1 C10 1.476(6)
N1 C17 1.488(7)
N5 C3 1.458(7)
N3 H3 0.8800
N3 C6 1.352(7)
C11 C16 1.382(8)
C11 C10 1.508(7)
C11 C12 1.405(7)
C3 C2 1.374(8)
C3 C4 1.391(8)
C18 C19 1.388(8)
C18 C17 1.507(7)
C18 C23 1.385(7)
C19 H19 0.9500
C19 C20 1.391(8)
C6 C5 1.410(8)
C6 C1 1.426(7)
C2 H2A 0.9500
C2 C1 1.378(8)
C9 H9 0.9500
C9 C8 1.384(7)
C14 H14 0.9500
C14 C15 1.392(8)
C14 C13 1.383(9)
C15 H15 0.9500
C15 C16 1.394(8)
C4 H4 0.9500
C4 C5 1.367(8)
C16 H16 0.9500
C13 H13 0.9500
C13 C12 1.394(8)
C10 H10A 0.9900
C10 H10B 0.9900
C12 H12 0.9500
C8 H8 0.9500
C8 C7 1.385(7)
C7 H7 0.9500
C5 H5 0.9500
C17 H17A 0.9900
C17 H17B 0.9900
C20 H20 0.9500
C20 C21 1.385(9)
C23 H23 0.9500
C23 C22 1.400(8)
C22 H22 0.9500
C22 C21 1.385(10)
C21 H21 0.9500
O8' H8' 0.8400
O7 H7A 0.8400
loop_
_refln_index_h
_refln_index_k
_refln_index_l
_refln_F_squared_meas
_refln_F_squared_sigma
0 1 0 0.66 0.55
0 -1 0 0.1 0.61
0 -2 0 41.16 3.27
0 -4 0 46.68 3.14
0 -4 0 51.63 3.54
0 -5 0 3.24 1.1
0 0 1 0.07 0.2
0 0 -1 0.06 0.04
0 0 1 0.11 0.04
0 0 -1 0.04 0.2
0 -1 -1 -0.07 0.64
0 1 1 0.03 0.11
0 -1 -1 0.08 0.1
0 1 1 0.37 0.56
0 1 -1 0.17 0.54
0 -1 1 -0.03 0.62
0 -2 -1 0.15 1.03
0 -2 1 0.18 1.02
0 -4 -1 0.57 0.67
0 -4 1 1.34 1.1
0 -4 1 0.62 0.65
0 -4 -1 0.51 1.21
0 -5 1 -0.53 1
0 -5 -1 0.43 1
0 0 -2 28.97 1.59
0 0 2 28.87 1.59
0 0 2 25.27 1.79
0 0 -2 25.03 1.78
0 -1 2 170.78 9.52
0 1 -2 156.32 9.78
0 -1 2 166.58 9.77
0 -1 -2 162.82 9.76
0 1 2 178.24 9.54
0 1 2 157.07 9.77
0 1 -2 169.58 9.52
0 -2 -2 75.56 4.84
0 -2 2 84.88 5.39
0 -2 -2 86.84 5.44
0 -2 -2 88.32 4.84
0 -4 -2 1.07 0.76
0 -4 -2 3.15 1.22
0 -4 2 2.59 0.67
0 -4 2 3.96 1.19
0 -5 -2 13.82 1.6
0 -5 2 12.17 1.49
0 0 -3 -0.04 0.12
0 0 3 0.05 0.12
0 0 -3 0.3 0.52
0 -1 -3 -0.09 0.74
0 1 3 0.34 0.69
0 -1 3 0.94 0.74
0 1 3 -0.1 0.16
0 1 -3 0.02 0.52
0 -1 -3 -0.19 0.14
0 -2 -3 1.22 1.08
0 -2 3 0.25 0.97
0 -4 -3 0.51 0.7
0 -4 3 -0.12 1.11
0 -4 -3 2.4 1.29
0 -4 3 1.17 0.58
0 -5 -3 0.43 0.97
0 -5 3 -0.63 0.86
0 0 4 194.68 10.71
0 0 -4 174.02 10.93
0 0 -4 186.92 10.92
0 0 -4 188.54 10.71
0 -1 -4 680.73 41.3
0 -1 4 717.02 41.33
0 1 -4 629.74 41.06
0 -1 4 765.08 41.07
0 1 4 792.68 41.1
0 -2 -4 133.65 8.42
0 -2 4 139.29 8.43
0 -3 4 4.21 1.09
0 -3 -4 5.04 1.3
0 -4 4 14.64 1.27
0 -4 -4 14.52 1.42
0 -4 -4 14.22 1.82
0 -4 4 14.75 1.87
0 -5 4 0.09 0.86
0 -5 -4 1.58 1.02
0 0 -5 -0.47 0.74
0 0 5 -0.15 0.17
0 1 -5 0.11 0.11
0 -1 -5 -0.26 0.86
0 1 5 -0.07 0.2
0 -1 5 0.29 0.91
0 -1 5 0.07 0.14
0 2 5 0.74 0.24
0 -2 -5 1.11 1.09
0 -2 5 0.01 1
0 -3 -5 -0.97 0.72
0 -3 -5 0.59 1.15
0 -3 5 -0.08 0.43
0 -3 5 -0.48 0.9
0 -4 5 0.18 0.51
0 -4 -5 0.04 0.72
0 -4 5 -0.36 1
0 -4 -5 -0.48 1.34
0 -5 5 0.03 0.84
0 -5 -5 0.56 1.02
0 0 6 120.02 6.74
0 0 -6 111.66 7.1
0 -1 6 37.46 2.22
0 -1 -6 36.79 2.99
0 1 6 36.47 2.25
0 -2 6 6.75 1.32
0 2 6 7.93 0.65
0 -2 -6 5.96 1.39
0 -3 6 30.59 2
0 -3 6 34.68 2.35
0 -3 -6 26.44 2.62
0 -4 6 18.34 1.45
0 -4 6 18.08 1.91
0 -4 -6 19.98 1.69
0 -4 -6 18.26 2.44
0 -5 -6 3.22 1.04
0 -5 6 1.42 0.9
0 0 7 -0.16 0.2
0 0 -7 -0.4 0.93
0 -1 -7 0.27 1.11
0 -1 7 0.36 0.21
0 1 -7 0.39 0.88
0 1 7 0.03 0.23
0 2 7 0.36 0.27
0 -3 7 -0.05 0.47
0 -3 -7 -0.62 1.16
0 3 7 1.21 0.57
0 -3 7 -0.88 0.96
0 -4 -7 1.18 1.39
0 -4 7 -0.07 0.98
0 -4 7 1.06 0.51
0 -4 -7 -0.09 0.8
0 -5 7 0.23 0.76
0 -5 -7 0.2 0.93
0 0 8 235.03 13.77
0 0 -8 241.33 14.24
0 1 -8 202.44 12.09
0 -1 -8 207.73 12.12
0 -1 8 191.07 11.48
0 1 8 193.06 11.51
0 -3 8 8.4 0.89
0 -3 -8 9.06 1.52
0 3 8 8.62 1.14
0 3 8 7.96 0.75
0 -3 8 9.11 1.22
0 -4 -8 1.87 0.87
0 -4 -8 2.97 1.35
0 -4 8 2.66 1.02
0 -4 8 2.45 0.54
0 -5 8 0.27 0.67
0 -5 -8 1.11 0.74
0 0 -9 0.77 1.11
0 -1 9 0.39 0.24
0 1 -9 -0.19 2.03
0 1 9 0.24 0.27
0 -1 -9 -1.93 2.01
0 2 9 -1.22 0.91
0 2 9 0.08 0.36
0 2 9 0.11 0.55
0 -2 9 -0.27 0.72
0 -2 9 0.69 0.44
0 -3 -9 -0.37 1.39
0 -3 9 -0.27 0.46
0 3 9 0.62 0.36
0 3 9 -0.25 0.7
0 -3 9 -0.1 1
0 -4 9 -0.31 0.47
0 -4 -9 -1.81 0.79
0 -4 9 0.69 0.85
0 -4 -9 -0.74 1.27
0 -5 -9 0.11 0.74
0 -5 9 0.81 0.59
0 2 10 11.76 1.23
0 2 10 15.86 1.08
0 -2 10 13.1 1.4
0 2 10 14.08 1.11
0 2 10 13.51 1.47
0 -2 10 13.02 1.13
0 -2 10 12.95 1.05
0 -3 10 31.08 2.45
0 -3 -10 24.68 2.95
0 3 10 29.91 2.26
0 -3 10 33.58 2.12
0 3 10 34.51 2.07
0 -4 -10 1.02 1.28
0 -4 -10 0.94 0.8
0 -4 10 1.84 0.5
0 -4 10 0.76 0.8
0 0 11 0.11 0.34
0 0 11 0.88 0.64
0 0 11 0.36 0.44
0 -1 11 0.21 0.33
0 1 11 0.08 0.5
0 -1 11 0.3 0.47
0 1 11 0.35 0.35
0 1 11 0.17 0.39
0 1 11 0.54 0.72
0 -1 11 0.2 0.65
0 2 11 0.79 0.42
0 -2 11 0.05 0.83
0 -2 11 -0.13 0.51
0 -2 11 0.47 0.37
0 2 11 1.13 0.43
0 2 11 -1.54 1.03
0 2 11 0 0.59
0 -3 11 0.8 0.83
0 3 11 0.09 0.7
0 -3 -11 0.73 1.46
0 -3 11 1.09 0.52
0 3 11 1.02 0.44
0 -4 11 0.06 0.42
0 -4 -11 -1.02 0.68
0 -4 -11 0.54 1.22
0 -4 11 -0.75 0.71
0 0 12 62.23 3.84
0 0 12 64.74 3.82
0 0 12 65.87 3.94
0 0 12 62.3 3.85
0 -1 12 11.59 1.32
0 1 12 12.58 1.13
0 1 12 13.08 1.45
0 1 12 12.06 1
0 -1 12 11.89 1
0 1 12 12.86 1
0 -1 12 11.6 1.1
0 2 12 2.16 1.11
0 -2 12 2.49 0.88
0 -2 12 3.45 0.61
0 2 12 2.58 0.69
0 3 12 13.24 1.43
0 -3 12 14.79 1.2
0 3 12 15.42 1.22
0 -3 -12 14.53 1.83
0 -3 12 13.59 1.5
0 -4 12 0.68 0.41
0 -4 12 0.06 0.66
0 -4 -12 0.99 1.17
0 0 13 0.61 0.55
0 0 13 -0.17 0.77
0 0 13 0.02 0.42
0 0 13 0.01 0.32
0 1 13 -0.16 0.77
0 -1 13 0.24 0.74
0 1 13 0.09 0.37
0 1 13 0.26 0.42
0 -1 13 0.05 0.5
0 1 13 0.22 0.56
0 -1 13 0.08 0.45
0 2 13 0.11 0.62
0 -2 13 0.12 0.57
0 -2 13 1.11 0.44
0 2 13 0.78 0.45
0 2 13 0.49 1.07
0 2 13 0.72 0.45
0 -2 13 0.16 0.73
0 3 13 0.57 0.6
0 -3 -13 0 1.25
0 3 13 0.34 0.39
0 -3 13 0.71 0.67
0 -3 13 -0.09 0.52
0 -4 13 0.65 0.63
0 -4 13 0.13 0.29
0 -4 -13 0.72 0.94
0 0 14 20.51 1.6
0 0 14 23.38 1.55
0 0 14 24.44 1.66
0 0 14 22.98 1.9
0 1 14 21.3 1.52
0 -1 14 20.08 1.66
0 -1 14 21.33 1.51
0 1 14 20.74 1.49
0 -1 14 21.27 1.55
0 1 14 20.32 1.79
0 1 14 17.21 1.49
0 -2 14 8.98 1.27
0 2 14 11.62 1.02
0 2 14 11.25 1.15
0 2 14 10.2 1.33
0 -2 14 11.83 1.04
0 -2 14 9.74 1.05
0 -3 -14 10.42 1.46
0 3 14 12.64 0.98
0 -3 14 11.7 1
0 3 14 9.54 1.12
0 -3 14 9.53 1.21
0 0 15 -0.09 0.74
0 0 15 0.01 0.32
0 0 15 -0.08 0.55
0 0 15 -0.45 0.41
0 -1 15 0.3 0.47
0 1 15 0.17 0.4
0 1 15 0.19 0.91
0 1 15 -0.19 0.42
0 -1 15 -0.15 0.52
0 -1 15 -0.11 0.68
0 1 15 0.27 0.53
0 -2 15 0.02 0.6
0 -2 15 0.07 0.48
0 2 15 0.2 0.42
0 -2 15 -0.15 0.39
0 2 15 -0.16 0.51
0 2 15 -0.01 0.36
0 -3 15 -0.02 0.62
0 -3 -15 -1.36 1.01
0 3 15 0.11 0.31
0 -3 15 0.16 0.4
0 0 16 7.51 0.84
0 0 16 9.11 0.96
0 0 16 9.75 1.19
0 -1 16 -0.42 0.65
0 1 16 -0.09 0.35
0 1 16 1.17 0.97
0 1 16 0.38 0.41
0 -1 16 0.14 0.42
0 1 16 0.48 0.55
0 -1 16 -0.28 0.49
0 -2 16 4.9 0.68
0 2 16 4.41 0.63
0 -2 16 3.8 0.59
0 -2 16 3.85 0.72
0 2 16 3.34 0.63
0 2 16 5.47 0.65
0 -2 -16 6.96 1.1
0 -3 -16 4.82 0.96
0 -3 16 7.55 0.69
0 3 16 7.59 0.59
0 -3 -16 7.61 0.87
0 -3 16 7.79 0.84
0 0 17 0.79 0.67
0 0 17 -0.34 0.47
0 0 17 -0.23 0.34
0 -1 17 0.37 0.36
0 -1 17 0.46 0.45
0 1 17 2.04 0.94
0 1 17 0.34 0.53
0 1 17 0.17 0.37
0 1 17 0.39 0.38
0 -1 17 -0.45 0.63
0 2 17 -0.54 0.42
0 -2 -17 0.96 0.88
0 2 17 -0.01 0.31
0 -2 17 -0.11 0.41
0 2 17 0.06 0.28
0 -2 17 -0.12 0.28
0 -2 17 -0.88 0.6
0 0 18 6.91 0.71
0 0 18 10.36 1.17
0 0 18 8.65 0.88
0 -1 18 3.94 0.69
0 -1 18 2.08 0.49
0 1 18 3.47 0.49
0 1 18 3.93 0.54
0 1 18 4.98 0.89
0 1 18 2.36 0.41
0 -1 18 3.2 0.5
0 0 19 -0.3 0.39
0 0 19 -0.06 0.25
0 0 19 1.46 0.68
1 0 0 0.01 0.02
1 -1 0 110.26 5.91
1 -1 0 100.97 6.16
1 1 0 95.25 6.12
-1 -1 0 100.23 6.16
1 -1 0 109.72 5.92
-1 1 0 101.16 6.14
-1 -2 0 25.85 2.54
1 -2 0 25.67 2.52
-1 -4 0 2.45 0.77
-1 -4 0 5.02 1.34
1 -4 0 4.89 0.79
1 -5 0 6.37 1.2
-1 -5 0 7.79 1.25
-1 0 1 0 0.05
-1 0 -1 -0.11 0.21
1 0 -1 0.16 0.05
1 0 1 0 0.22
1 0 1 -0.01 0.05
1 0 -1 0.01 0.19
-1 0 -1 0 0.05
1 1 -1 57.21 3.78
-1 -1 -1 63.24 3.5
1 -1 1 59.78 3.81
-1 -1 -1 57.91 3.8
-1 1 1 58.93 3.78
-1 1 -1 61.44 3.49
1 -1 -1 66.48 3.51
1 -1 -1 63.87 3.51
1 -1 -1 56.8 3.79
1 1 1 65.84 3.51
1 1 1 57.15 3.78
-1 1 -1 60.27 3.79
-1 -1 1 58.6 3.8
-1 -2 -1 2.55 1.09
1 -2 1 3.13 1.12
-1 -2 1 2.43 1.09
1 -2 -1 2.76 0.22
1 -2 -1 2.91 1.11
-1 -4 -1 11.92 1.61
1 -4 1 12.36 1.78
1 -4 1 12.34 1.29
-1 -4 -1 11.29 1.18
-1 -4 1 14.62 1.8
1 -4 -1 12.7 1.59
1 -4 -1 12.55 1.36
-1 -4 1 10.64 1.26
1 -5 1 0.92 0.98
-1 -5 -1 0.54 0.98
1 -5 -1 0.88 1.03
-1 -5 1 0.14 1
-1 0 2 -0.03 0.43
-1 0 -2 0.04 0.08
1 0 -2 0.05 0.09
1 0 -2 0.1 0.37
-1 0 2 0.11 0.09
1 0 2 0.03 0.08
-1 0 -2 -0.13 0.37
1 0 2 -0.29 0.43
-1 -1 -2 166.07 9.89
1 -1 2 169.42 9.65
-1 1 2 184.23 9.68
-1 1 2 165.16 9.9
1 1 -2 166.68 9.92
1 -1 2 167.43 9.89
-1 1 -2 163.29 9.91
1 1 2 174.52 9.67
1 -1 -2 165 9.88
1 1 2 161.72 9.9
-1 1 -2 173.53 9.65
-1 -1 2 160.85 9.88
-1 -2 -2 51.55 2.95
1 -2 2 53.76 3.61
-1 -2 -2 56.84 3.71
-1 -2 -2 44.19 2.95
1 -2 -2 44.9 2.96
-1 -2 2 54.01 3.64
1 -2 -2 50.37 2.96
1 -2 -2 56.58 3.69
-1 -4 -2 14.71 1.53
-1 -4 -2 17.08 2.07
1 -4 2 16.17 1.93
1 -4 2 16.93 1.32
-1 -4 2 15.07 1.37
1 -4 -2 15.52 1.43
-1 -4 2 15.47 1.88
1 -4 -2 17.75 2.1
1 -5 2 3.37 0.94
-1 -5 2 2.29 0.93
1 -5 -2 3.01 1.03
1 0 3 0.1 0.12
-1 0 -3 0.04 0.52
1 0 -3 -0.65 0.49
-1 0 3 0.05 0.12
-1 0 -3 0.02 0.12
1 0 -3 0.08 0.12
1 -1 3 200.28 11.27
1 -1 3 199.33 11
-1 -1 -3 181.85 11.02
1 1 -3 188.96 10.99
-1 1 3 210.16 11.03
-1 1 3 181.95 11.27
-1 -1 -3 190.94 11.26
-1 1 -3 185.08 11
1 1 3 211.6 11.03
-1 -1 3 200.4 11
1 1 3 184.74 11.32
1 -1 -3 183.76 11.02
-1 -1 3 193.72 11.27
1 -1 -3 193.3 11.26
-1 1 -3 167.35 11.29
-1 -2 -3 78.04 5.25
1 -2 3 81.3 5.22
1 -2 -3 79.48 5.24
-1 -2 3 82.15 5.24
1 -2 -3 79.97 4.66
1 -4 3 13.45 1.59
1 -4 3 12.33 1.17
-1 -4 -3 9.54 1.61
-1 -4 -3 10.11 1.39
-1 -4 3 12.88 1.13
1 -4 -3 13.05 1.69
1 -4 -3 13.81 1.39
-1 -4 3 11.45 1.52
-1 -5 -3 1.49 1.02
1 -5 3 0.6 0.88
-1 -5 3 0.96 0.89
1 -5 -3 1.53 0.99
-1 0 -4 0.19 0.64
1 0 -4 0 0.14
1 0 4 -0.14 0.15
1 0 -4 -0.23 0.67
1 0 -4 -0.29 0.51
-1 0 -4 -0.31 0.51
-1 0 -4 -0.14 0.14
-1 0 4 0.05 0.15
1 -1 4 277.65 16.04
-1 -1 -4 261.3 16.01
-1 1 4 310.61 15.78
1 1 -4 250.93 15.74
1 -1 4 279.76 15.75
-1 -1 4 275.28 16.04
1 1 4 297.33 15.77
-1 1 -4 246.67 15.74
-1 -1 4 278.64 15.74
1 -1 -4 265.24 16.01
1 -2 4 36.02 2.94
-1 -2 -4 38.13 3.02
-1 -2 4 37.36 3
1 -2 -4 37.06 2.16
1 -2 -4 36.09 2.98
1 2 4 32.93 2.17
1 -3 4 1.67 0.96
-1 -3 -4 0.41 1.17
1 -3 -4 0.39 1.15
-1 -3 4 0.24 0.98
1 -4 4 0.7 0.54
-1 -4 -4 0.59 1.38
-1 -4 -4 0.96 0.72
1 -4 4 0.64 1.09
-1 -4 4 1.39 1.13
-1 -4 4 1.51 0.57
1 -4 -4 0.64 0.74
1 -4 -4 1.68 1.38
-1 -5 -4 3.49 1.11
1 -5 4 2.08 0.93
-1 -5 4 1.81 0.92
1 -5 -4 3.97 1.05
1 0 -5 0.41 0.77
1 0 5 -0.06 0.17
-1 0 -5 -0.37 0.75
-1 0 5 0 0.18
1 -1 5 9.4 1.67
1 1 -5 7.18 0.58
-1 -1 -5 8.18 1.61
1 -1 5 9.11 0.6
-1 1 5 9.9 0.67
1 -1 -5 9.27 1.56
-1 -1 5 9.12 1.68
-1 1 -5 7.96 0.58
1 1 5 9.01 0.65
-1 -1 5 9.11 0.6
1 -2 5 39.49 3.19
-1 -2 -5 40.7 3.22
-1 -2 5 40.26 3.19
1 2 5 39.34 2.41
1 -2 -5 39.81 3.2
1 -3 5 2.91 0.95
-1 -3 -5 1.69 1.19
-1 -3 -5 -0.34 0.82
1 -3 5 2.61 0.52
1 -3 -5 2.37 1.18
-1 -3 5 1.83 0.51
-1 -3 5 1.52 0.96
1 -4 5 3.62 1.11
1 -4 5 4.45 0.69
-1 -4 -5 4.25 0.85
-1 -4 -5 3.98 1.52
1 -4 -5 4.21 0.84
-1 -4 5 3.44 1.12
-1 -4 5 5.15 0.65
1 -4 -5 3.6 1.5
1 -5 5 1.19 0.87
-1 -5 -5 -0.05 1
-1 -5 5 1.26 0.88
1 -5 -5 1.08 1.01
1 0 -6 -0.34 0.82
-1 0 6 -0.05 0.2
-1 0 -6 0.27 0.86
1 0 6 -0.08 0.18
-1 1 6 118.13 6.77
1 -1 6 116.19 6.75
-1 -1 -6 110.68 7.25
-1 -1 6 114.76 6.74
1 -1 -6 119.79 7.26
1 1 6 117.99 6.78
-1 -2 -6 54.92 4.06
1 -2 6 56.53 3.99
1 2 6 52.81 3.26
-1 -2 6 54.94 3.99
1 -2 -6 53.25 4.01
1 -3 6 7.12 1.11
-1 -3 -6 8.66 1.4
1 -3 6 6.59 0.88
-1 -3 6 6.88 1.1
-1 -3 6 8.55 0.82
1 -3 -6 8.27 1.35
-1 -4 -6 16.74 1.98
-1 -4 -6 17 1.56
1 -4 6 17.86 1.39
1 -4 6 15.58 1.83
1 -4 -6 16.58 1.98
1 -4 -6 17.3 1.64
-1 -4 6 15.78 1.85
-1 -4 6 19.73 1.38
-1 -5 -6 4.28 1.09
1 -5 6 4.86 0.93
-1 -5 6 5.01 0.96
1 -5 -6 4.66 1.11
1 0 7 -0.06 0.2
-1 0 7 -0.1 0.2
-1 0 -7 0.2 0.95
1 0 -7 -0.34 0.92
1 -1 7 73.16 4.58
-1 -1 -7 77.48 5.27
1 1 -7 76.55 5.14
-1 1 7 79.12 4.62
-1 -1 7 76.56 4.59
-1 1 -7 79.93 5.17
1 -1 -7 81.46 5.25
1 1 7 81.62 4.62
-1 2 7 18.98 1.28
1 2 7 18.45 1.27
-1 3 7 0.82 0.58
-1 -3 -7 -0.02 1.18
1 -3 7 0.34 0.97
1 -3 7 1.2 0.49
-1 -3 7 0.4 0.47
-1 -3 7 0.21 0.98
1 3 7 0.5 0.56
1 -3 -7 0.84 1.18
-1 -4 -7 7.68 1.62
1 -4 7 9.58 1.28
1 -4 7 12.34 1.03
-1 -4 -7 10.66 1.13
-1 -4 7 8.9 1.3
1 -4 -7 8.81 1.65
-1 -4 7 9.78 0.97
1 -4 -7 8.03 1.11
-1 -5 -7 0.84 0.95
1 -5 7 0.53 0.76
-1 -5 7 0.22 0.76
1 -5 -7 0.32 0.94
1 0 -8 -0.38 0.96
1 0 8 0.12 0.22
-1 0 -8 -0.42 1
-1 0 8 0.22 0.24
-1 -1 -8 29.08 2.77
-1 1 8 25.99 1.72
1 1 -8 28.92 2.63
1 -1 8 24.2 1.68
1 1 8 24.45 1.71
1 -1 -8 29.6 2.73
-1 -1 8 29.22 1.69
-1 1 -8 25.87 2.57
1 -3 8 3.1 0.53
1 -3 8 3.73 1
-1 -3 -8 1.26 1.31
-1 3 8 2.52 0.69
-1 -3 8 1.77 0.5
1 3 8 1.59 0.66
1 -3 -8 3.39 1.32
-1 -3 8 2.15 1.02
-1 -4 -8 3.58 0.9
1 -4 8 5.39 1.09
-1 -4 -8 4.2 1.47
1 -4 8 6.53 0.68
-1 -4 8 6.33 0.67
1 -4 -8 5.18 0.99
1 -4 -8 4.08 1.5
-1 -4 8 5.27 1.13
1 -5 8 2.66 0.71
-1 -5 -8 2.59 0.88
-1 -5 8 3.29 0.71
1 -5 -8 2.28 0.9
1 0 -9 -0.61 1.02
-1 0 -9 0.02 1.09
-1 0 9 0.08 0.24
1 0 9 -0.19 0.22
-1 1 9 23.34 1.6
1 1 -9 24.87 2.74
1 -1 9 23.45 1.54
1 1 9 23.05 1.57
-1 -1 9 23.3 1.53
1 -1 -9 26.7 3.44
-1 2 9 -0.4 0.94
-1 2 9 1.46 0.57
1 -2 9 1.96 0.45
1 -2 9 0.9 0.74
1 2 9 0.77 0.36
-1 -2 9 1.85 0.77
-1 -2 9 0.96 0.42
1 2 9 -1.19 0.92
1 2 9 0.44 0.55
1 -3 9 4.12 1.1
-1 -3 -9 3.98 1.52
1 -3 9 4.06 0.63
-1 3 9 4.88 0.85
-1 3 9 5.87 0.69
1 3 9 5.2 0.71
1 3 9 2.52 0.76
-1 -3 9 5.82 1.17
1 -3 -9 3.9 1.47
-1 -3 9 5.67 0.67
-1 -4 -9 2.82 1.35
-1 -4 -9 1.88 0.81
1 -4 9 3.51 0.92
1 -4 9 2.83 0.53
-1 -4 9 2.64 0.55
1 -4 -9 1.61 0.88
-1 -4 9 4.1 0.98
1 -4 -9 2.5 1.35
-1 2 10 41.5 2.53
-1 2 10 40.17 2.61
1 -2 10 42.05 2.73
1 -2 10 45.75 2.55
1 -2 10 38.5 2.53
-1 2 10 39.78 2.95
-1 2 10 38.21 2.52
1 2 10 43.92 2.55
1 2 10 38.59 2.86
1 2 10 39.91 2.53
-1 -2 10 42.83 2.77
-1 -2 10 39.06 2.54
-1 -2 10 39.33 2.48
1 2 10 36.91 2.62
-1 -3 -10 16.5 2.02
-1 3 10 14.41 1.57
1 -3 10 15.91 1.3
1 -3 10 17.26 1.81
-1 3 10 18.64 1.32
-1 -3 10 16.45 1.39
-1 -3 10 17.21 1.82
1 -3 -10 16.86 2.3
1 3 10 17.8 1.55
1 3 10 18.68 1.27
-1 -4 -10 2.35 0.86
1 -4 10 1.99 0.82
1 -4 10 2.98 0.56
-1 -4 -10 2.72 1.31
-1 -4 10 2.89 0.54
-1 -4 10 1.82 0.83
1 -4 -10 1.6 0.85
1 -4 -10 4.5 1.37
1 0 11 0.63 0.63
-1 0 11 0.96 0.63
1 0 11 0.16 0.36
-1 0 11 -0.18 0.34
-1 0 11 0.47 0.42
1 0 11 0.24 0.44
-1 1 11 1.99 0.76
-1 1 11 1.34 0.53
1 -1 11 1.1 0.46
-1 1 11 1.52 0.42
1 -1 11 1.69 0.41
1 -1 11 2.2 0.7
-1 1 11 1.41 0.37
1 1 11 1.56 0.53
-1 -1 11 1.65 0.42
1 1 11 2.44 0.75
1 1 11 1.74 0.39
-1 -1 11 1.05 0.51
-1 -1 11 2.14 0.73
1 1 11 1.43 0.43
1 -2 11 7.29 0.86
-1 2 11 7.31 0.79
-1 2 11 8.95 0.93
-1 2 11 7.92 0.88
1 -2 11 5.77 1.04
1 -2 11 7.2 0.91
-1 2 11 9.78 1.33
1 2 11 6.32 1.26
-1 -2 11 8.57 0.79
1 2 11 8.53 0.85
-1 -2 11 7.4 1.09
-1 -2 11 6.99 0.96
1 2 11 7.93 0.9
1 2 11 7.31 0.8
-1 3 11 20.79 1.33
1 -3 11 15.86 1.68
-1 -3 -11 15.51 2.03
-1 3 11 14 1.58
1 -3 11 16.96 1.4
-1 -3 11 18.21 1.37
1 3 11 17.23 1.56
-1 -3 11 16.15 1.71
1 3 11 17.38 1.36
1 -3 -11 17.66 2.44
1 -4 11 1.52 0.47
-1 -4 -11 1.43 1.24
1 -4 11 0.89 0.74
-1 -4 11 1.41 0.79
-1 -4 11 2 0.45
1 -4 -11 0.35 0.78
1 -4 -11 2.09 1.23
-1 0 12 0.47 0.32
-1 0 12 0.45 0.38
1 0 12 0.1 0.37
1 0 12 1.25 0.52
-1 0 12 -0.48 0.48
1 0 12 0.24 0.29
1 0 12 0.97 0.69
-1 0 12 0.47 0.69
-1 1 12 6.47 0.98
-1 1 12 5.45 0.81
1 -1 12 8.56 1.03
-1 1 12 6.61 0.73
1 -1 12 7.53 0.76
-1 1 12 6.82 0.91
1 -1 12 7.15 0.77
1 1 12 7.67 1
-1 -1 12 6.45 0.78
1 1 12 5.52 0.73
-1 -1 12 7.92 1.01
1 1 12 6.25 0.83
1 1 12 7 0.75
-1 -1 12 5.97 0.75
1 -2 12 76.27 4.37
-1 2 12 58.43 4.21
-1 2 12 67.92 4.27
1 -2 12 69.71 4.2
1 -2 12 75.78 4.2
-1 2 12 69.79 4.51
-1 2 12 70.17 4.21
1 2 12 69.72 4.28
1 2 12 71.39 4.22
1 2 12 62.64 4.2
-1 -2 12 71.12 4.2
-1 -2 12 69.09 4.22
1 2 12 72.68 4.55
-1 -2 12 76.46 4.38
-1 3 12 11.47 1.38
1 -3 12 10.3 1.4
-1 -3 -12 11.27 1.78
1 -3 12 12.72 1.12
-1 3 12 13.42 1.12
-1 -3 12 13.46 1.16
1 3 12 13.51 1.14
1 3 12 11.94 1.36
1 -3 -12 14.63 2.06
-1 -3 12 12.59 1.43
-1 -4 -12 1.11 1.12
1 -4 12 0.08 0.41
1 -4 12 -0.27 0.62
1 -4 -12 -0.14 0.64
-1 -4 12 -0.01 0.38
1 -4 -12 -0.15 1.06
-1 -4 12 -0.56 0.66
-1 0 13 0.4 0.36
1 0 13 -0.01 0.31
-1 0 13 -0.03 0.77
-1 0 13 0.27 0.44
1 0 13 -0.19 0.76
1 0 13 0.12 0.41
1 0 13 0.06 0.53
-1 0 13 0.14 0.53
-1 1 13 2.25 0.85
-1 1 13 2.38 0.48
-1 1 13 2.58 0.52
1 -1 13 2.37 0.58
1 -1 13 2.23 0.8
1 -1 13 2.28 0.54
-1 1 13 1.99 0.61
-1 -1 13 1.96 0.59
-1 -1 13 1.98 0.79
1 1 13 2.36 0.64
1 1 13 1.99 0.43
1 1 13 3.27 0.86
-1 -1 13 2.52 0.54
1 1 13 2.37 0.51
1 -2 13 16.68 1.21
-1 2 13 14.55 1.88
-1 2 13 14.97 1.42
-1 2 13 15.79 1.25
1 -2 13 16.54 1.52
1 -2 13 15.82 1.34
-1 2 13 12.71 1.25
-1 -2 13 16.01 1.28
1 2 13 17.27 1.22
-1 -2 13 15.93 1.35
1 2 13 13.19 1.34
1 2 13 15.04 1.86
-1 -2 13 16.96 1.55
-1 3 13 4.33 0.73
-1 -3 -13 3.69 1.28
1 -3 13 2.74 0.72
-1 3 13 4.57 0.68
1 -3 13 3.64 0.61
1 3 13 3.61 0.61
1 3 13 2.43 0.66
-1 -3 13 4.22 0.64
1 -3 -13 3.84 1.28
-1 -3 13 3.73 0.77
1 -4 13 4.75 0.72
-1 -4 -13 2.81 0.97
1 -4 13 7.31 0.6
-1 -4 13 6.6 0.82
1 -4 -13 4.82 1.04
-1 0 14 -0.32 0.55
1 0 14 -0.4 0.78
1 0 14 -0.19 0.55
-1 0 14 -0.72 0.82
-1 0 14 -0.06 0.42
1 0 14 -0.18 0.43
1 0 14 0.57 0.37
-1 0 14 0.43 0.35
-1 1 14 43.16 2.55
-1 1 14 38.43 2.53
1 -1 14 40.06 2.56
-1 1 14 39.29 2.53
-1 1 14 39.45 2.74
1 -1 14 38.33 2.63
1 1 14 37.72 2.52
1 1 14 39.11 2.52
-1 -1 14 39.11 2.64
-1 -1 14 40.1 2.52
1 1 14 40.66 2.72
-1 -1 14 38.82 2.55
1 1 14 38.14 2.54
-1 2 14 12.44 1.25
1 -2 14 12.66 1.17
1 -2 14 16.67 1.23
-1 2 14 14.49 1.16
1 -2 14 12.45 1.38
-1 2 14 14.23 1.72
1 2 14 11.24 1.16
1 2 14 14.6 1.62
-1 -2 14 13.59 1.41
-1 -2 14 12.1 1.16
1 2 14 13.13 1.24
1 2 14 14.38 1.16
-1 -2 14 14.94 1.16
1 -3 14 1.41 0.72
1 -3 14 3.08 0.53
-1 3 14 3.39 0.64
-1 -3 -14 2.75 1.19
-1 3 14 3.55 0.64
1 3 14 1.42 0.6
-1 -3 14 3.45 0.51
1 3 14 3.21 0.56
1 -3 -14 3.19 1.2
-1 -3 14 2.41 0.76
1 0 15 0.21 0.33
1 0 15 0.06 0.56
1 0 15 -0.55 0.74
-1 0 15 -0.19 0.78
-1 0 15 0.17 0.42
-1 0 15 0.2 0.54
1 0 15 0.03 0.44
-1 0 15 -0.01 0.35
-1 1 15 4.39 0.66
-1 1 15 4.27 0.68
-1 1 15 2.95 0.98
1 -1 15 3.59 0.61
-1 1 15 3.71 0.59
1 -1 15 3.14 0.64
1 -1 15 3.65 0.81
-1 -1 15 2.33 0.54
1 1 15 3.14 0.95
1 1 15 3.34 0.57
-1 -1 15 2.72 0.79
1 1 15 3.21 0.56
-1 -1 15 3.62 0.66
1 1 15 3.52 0.64
-1 2 15 1.65 0.41
-1 2 15 3.28 0.56
1 -2 15 2.09 0.66
1 -2 15 2.96 0.52
1 -2 15 2.45 0.54
-1 2 15 2.83 0.59
-1 -2 15 2.32 0.5
-1 -2 15 1.71 0.55
1 2 15 2.73 0.57
1 2 15 2.09 0.46
-1 -2 15 1.32 0.69
1 2 15 1.74 0.45
1 -3 15 3.03 0.5
1 -3 15 4.51 0.7
-1 3 15 3.65 0.56
-1 -3 -15 2.3 1.04
1 -3 -15 3.22 1.07
1 3 15 3.59 0.56
-1 -3 15 2.67 0.47
-1 -3 15 3.72 0.71
1 0 16 0.17 0.38
1 0 16 0.1 0.7
-1 0 16 -0.04 0.35
1 0 16 -0.23 0.48
-1 0 16 -0.48 0.47
-1 0 16 0.09 0.36
1 0 16 0.16 0.34
-1 0 16 -0.44 0.74
-1 1 16 2.06 0.6
-1 1 16 3.99 1.02
1 -1 16 1.85 0.73
1 -1 16 2.07 0.53
-1 1 16 2.19 0.47
-1 1 16 2.56 0.49
1 -1 16 2.5 0.51
1 1 16 2.23 0.94
-1 -1 16 2.25 0.5
1 1 16 2.48 0.48
-1 -1 16 2.76 0.59
1 1 16 1.49 0.58
-1 -1 16 1.2 0.75
1 1 16 1.73 0.49
-1 -2 -16 16.99 1.66
1 -2 16 13.84 1.19
-1 2 16 13.82 1.1
1 -2 16 15.46 1.1
1 -2 16 13.9 1.24
-1 2 16 12.71 1.21
-1 2 16 15.61 1.13
1 2 16 14.46 1.2
-1 -2 16 15.74 1.21
1 2 16 14.76 1.12
1 -2 -16 16.74 1.63
-1 -2 16 17.02 1.12
-1 -2 16 14.28 1.28
1 2 16 13.52 1.1
1 -3 16 1.38 0.54
-1 -3 -16 0.47 0.86
-1 3 16 0.78 0.26
1 -3 16 0.37 0.34
1 -3 -16 0.78 0.82
1 -3 -16 1.43 0.57
-1 -3 16 0.73 0.35
1 3 16 1.1 0.29
-1 -3 16 0.14 0.52
1 0 17 0.91 0.68
1 0 17 -0.28 0.47
1 0 17 0 0.35
-1 0 17 0.27 0.68
-1 0 17 0.08 0.36
-1 0 17 0.05 0.45
-1 1 17 10.59 0.89
-1 1 17 10.4 1.09
-1 1 17 13.61 1.46
1 -1 17 9.28 0.97
1 -1 17 8.7 1.11
1 -1 17 8.84 0.86
-1 1 17 11.04 0.88
1 1 17 12.27 1.38
-1 -1 17 7.36 0.84
1 1 17 10.25 0.87
1 1 17 10.75 1.04
-1 -1 17 8.1 1.09
1 1 17 9.02 0.86
-1 -1 17 9.26 0.96
-1 -2 -17 2.41 0.89
-1 2 17 1.55 0.34
1 -2 17 1.66 0.65
-1 2 17 1.94 0.49
-1 2 17 1.71 0.36
1 -2 17 1.94 0.35
1 -2 17 2.67 0.5
-1 -2 17 1.64 0.35
1 -2 -17 2.34 0.88
1 2 17 1.79 0.36
-1 -2 17 2.21 0.71
1 2 17 1.41 0.46
-1 -2 17 2.01 0.48
1 2 17 1.86 0.35
1 0 18 0.55 0.73
-1 0 18 -0.14 0.44
1 0 18 0.07 0.32
1 0 18 0.2 0.44
-1 0 18 0.22 0.31
-1 0 18 0.59 0.77
1 -1 18 2.48 0.39
-1 1 18 2.75 0.48
1 -1 18 2.57 0.62
1 -1 18 2.28 0.48
-1 1 18 2.68 0.49
-1 1 18 2.17 0.38
1 1 18 2.39 0.41
-1 -1 18 2.25 0.48
1 1 18 2.41 0.38
-1 -1 18 3.25 0.66
-1 -1 18 2.5 0.4
1 1 18 5.63 0.87
1 1 18 3.45 0.53
-1 0 19 -0.34 0.41
-1 0 19 0.12 0.26
1 0 19 1.82 0.69
1 0 19 -0.17 0.39
-1 0 19 0.95 0.68
-2 0 0 48.25 2.82
2 0 0 49.83 2.82
2 -1 0 253.09 14.26
2 1 0 221.2 14.21
-2 -1 0 242.91 14.25
-2 1 0 241.6 14.24
2 -1 0 266.98 14.05
-2 -2 0 1.33 1.13
2 -2 0 1.11 1.1
2 -4 0 63.75 4.02
-2 -4 0 62.63 4.35
2 -4 0 69.12 4.33
2 -5 0 2.82 0.54
2 -5 0 0.84 1.04
-2 -5 0 1.6 1.06
2 0 1 27.93 1.57
2 0 -1 26.66 1.57
-2 0 -1 28.02 1.57
2 0 -1 27.39 1.64
2 0 1 26.97 1.67
2 0 -1 27.31 1.57
-2 0 -1 25.29 1.66
-2 -1 -1 202.48 12.4
2 -1 1 232.51 12.2
-2 -1 -1 215.02 12.2
-2 1 1 209.58 12.4
2 -1 1 217.27 12.42
2 1 -1 192.17 12.38
2 -1 -1 207.65 12.4
-2 -1 1 208.61 12.41
-2 1 -1 204.59 12.41
2 -1 -1 230.26 12.21
2 1 1 231.16 12.2
2 -1 -1 216.68 12.21
-2 1 -1 216.88 12.2
2 1 1 193.37 12.39
-2 -2 -1 6.66 1.25
2 -2 1 7.8 1.29
2 -2 -1 6.5 1.28
2 -2 -1 6.07 0.41
-2 -2 1 9.21 1.8
2 -2 -1 5.86 0.41
2 -4 1 1.96 1.13
2 -4 1 2 0.68
-2 -4 -1 2.59 1.27
2 -4 -1 1.57 1.24
-2 -4 1 2.95 1.15
2 -4 -1 1.58 0.75
2 -5 1 2.21 0.54
2 -5 1 3.02 1.05
-2 -5 -1 2.09 1.05
-2 -5 1 1.33 1.04
2 -5 -1 1.91 1.04
2 -5 -1 2.34 0.58
2 0 -2 22.47 1.48
2 0 2 19.75 1.55
-2 0 -2 20.14 1.5
2 0 -2 24.22 1.29
-2 0 2 20.42 1.53
-2 0 2 20.76 1.28
2 0 2 21.03 1.28
-2 0 -2 24.14 1.28
-2 -1 -2 55.92 3.52
2 1 -2 51.04 3.46
2 -1 2 56.25 3.16
-2 -1 -2 60.73 3.2
-2 1 2 52.38 3.51
2 -1 2 51.94 3.5
2 -1 -2 55.83 3.51
-2 1 -2 52.72 3.5
2 -1 -2 53.84 3.18
2 1 2 52.08 3.52
2 1 2 55.33 3.17
-2 -1 2 53.27 3.5
-2 1 -2 56.99 3.16
2 -2 2 11.98 1.75
-2 -2 -2 13.87 1.92
2 -2 -2 9.33 0.68
2 -2 -2 12.75 1.88
-2 -2 2 13.28 1.82
2 -2 -2 10.58 0.69
2 -4 2 11.06 1.14
2 -4 2 9.21 1.39
-2 -4 -2 13.13 1.58
-2 -4 2 11.4 1.48
2 -4 -2 10.55 1.51
2 -4 -2 11.58 1.16
2 -5 2 4.02 0.62
-2 -5 -2 3.95 1.07
2 -5 2 5.88 1
-2 -5 2 3.98 1.01
2 -5 -2 5.28 0.65
-2 0 3 197.34 11.66
-2 0 -3 210.12 11.66
2 0 3 195.24 11.66
-2 0 -3 194.17 11.82
2 0 -3 216.04 11.81
2 0 -3 205.63 11.67
2 1 -3 181.64 12.53
2 -1 3 218.03 12.31
-2 -1 -3 204.14 12.32
-2 1 3 233.96 12.34
-2 -1 -3 215.4 12.57
2 -1 3 221.7 12.57
-2 1 3 201.34 12.57
2 1 -3 213.67 12.3
-2 1 -3 215.15 12.31
2 1 3 239 12.33
-2 -1 3 224.19 12.57
-2 -1 3 224.65 12.3
2 -1 -3 205.38 12.33
-2 1 -3 192.48 12.62
2 -1 -3 224.7 12.57
2 -2 3 6.47 1.19
-2 -2 -3 6.46 1.28
-2 -2 3 6.19 1.22
2 2 3 5.39 0.44
2 -2 -3 5.49 1.25
2 -2 -3 4.79 0.42
-2 -4 -3 4.05 1.38
2 -4 3 4.04 0.7
2 -4 3 3.71 1.19
2 -4 -3 4.09 0.8
-2 -4 3 4.47 1.27
2 -4 -3 4.95 1.31
2 -5 3 1.95 0.92
2 -5 3 3.13 0.53
-2 -5 -3 2.98 1.04
-2 -5 3 2.58 0.95
2 -5 -3 3.07 0.59
2 -5 -3 3.91 1.05
2 0 4 954.62 52.32
-2 0 -4 879.08 52.49
2 0 -4 904.49 52.32
-2 0 -4 841.11 52.51
-2 0 4 1000 52.32
2 0 -4 933.49 52.48
-2 0 -4 920.07 52.32
2 0 -4 875.35 52.51
2 -1 4 162.17 9.7
2 1 -4 158.61 9.37
2 -1 4 165.46 9.37
-2 -1 -4 160.49 9.68
-2 1 4 174.78 9.41
2 -1 -4 163.77 9.67
-2 -1 4 164.56 9.37
-2 -1 4 159.11 9.7
-2 1 -4 152.19 9.37
2 1 4 167.42 9.4
-2 -2 -4 33.32 2.82
2 -2 4 30.68 2.7
2 2 4 29.24 1.92
2 -2 -4 33.24 1.92
2 -2 -4 34.21 2.78
-2 -2 4 30.72 2.76
2 -3 4 35.26 2.49
-2 -3 -4 31.14 2.74
-2 -3 4 36.84 2.55
2 -3 -4 31.65 2.86
2 -4 4 25.75 2.29
-2 -4 -4 24.42 2.66
2 -4 4 27.46 1.76
2 -4 -4 24.41 2.61
-2 -4 4 24.74 1.93
-2 -4 4 24.75 2.3
2 -4 -4 25.82 1.98
-2 -5 -4 2.39 1.05
2 -5 4 3.14 0.51
2 -5 4 2.29 0.89
-2 -5 4 1.96 0.96
2 -5 -4 3.69 1.02
2 0 5 275.65 15.77
2 0 -5 275.52 16.01
-2 0 -5 263.44 16.01
-2 0 5 282.7 15.78
2 -1 5 77.7 5.05
-2 -1 -5 74.28 5.02
2 -1 5 80.21 4.58
-2 1 5 83.99 4.62
2 1 5 81.5 4.61
-2 -1 5 76.19 4.57
2 -1 -5 77.38 4.99
-2 -1 5 77.39 5.05
-2 -2 -5 5.96 1.29
2 -2 5 4.25 1.21
2 -2 -5 6.14 1.26
2 -2 -5 4.97 0.47
2 2 5 5.1 0.5
-2 -2 5 5.12 1.27
2 -3 5 7.47 1.11
-2 -3 -5 7.24 1.35
2 -3 5 7.33 0.84
-2 -3 5 5.62 0.82
-2 -3 5 6.1 1.13
2 -3 -5 8.76 1.41
2 -4 5 0.26 0.54
-2 -4 -5 -0.1 1.44
2 -4 5 1.1 0.99
-2 -4 5 0.25 1.05
2 -4 -5 1.69 1.38
-2 -4 5 1.09 0.51
2 -4 -5 1.08 0.78
2 -5 5 1.31 0.42
-2 -5 -5 -0.18 1
2 -5 5 0.95 0.84
2 -5 -5 1.85 1.02
-2 -5 5 1.27 0.9
2 0 6 36.79 2.33
-2 0 6 38.4 2.34
-2 0 -6 39.35 2.9
2 0 -6 42.08 2.9
-2 1 6 44.41 2.52
-2 -1 -6 38.64 3.21
2 -1 6 42.19 2.48
2 1 6 42.24 2.5
-2 -1 6 41.29 2.47
2 -1 -6 38.15 3.13
-2 -2 -6 3.8 1.3
2 -2 6 6.59 1.3
2 -2 -6 3.51 1.29
-2 -2 6 5.8 1.3
2 2 6 5.22 0.53
2 -3 6 12.44 1.45
2 -3 6 11.89 1.09
-2 -3 -6 13.76 1.95
2 -3 -6 13.96 1.6
-2 -3 6 12.32 1
-2 -3 6 11.71 1.52
-2 -4 -6 0.46 1.42
2 -4 6 -0.82 0.96
2 -4 6 0.63 0.53
2 -4 -6 -0.4 0.8
-2 -4 6 0.46 1.05
-2 -4 6 1.46 0.52
2 -4 -6 0.07 1.41
2 -5 6 2.06 0.38
-2 -5 -6 1.87 1.04
2 -5 6 2.32 0.86
-2 -5 6 1.59 0.89
2 -5 -6 1.74 1
2 0 -7 8.88 1.63
-2 0 -7 9.64 1.68
-2 0 7 8.6 0.68
2 0 7 8.29 0.67
2 -1 7 19.67 1.28
-2 1 7 19.69 1.32
-2 -1 -7 19.02 2.35
2 1 -7 21.44 2.13
2 1 7 20.15 1.32
2 -1 -7 20.03 2.3
-2 -1 7 20.03 1.27
-2 1 -7 19.67 2.11
2 2 7 54.49 3.31
-2 3 7 12.05 1.19
2 -3 7 12.75 1.41
2 -3 7 13 1.06
-2 -3 -7 12.38 1.62
-2 -3 7 12.14 1.63
2 3 7 11.49 1.11
2 -3 -7 12.38 1.62
-2 -3 7 11.35 1.06
2 -4 7 5.31 0.69
-2 -4 -7 4.93 1.52
2 -4 7 6.7 1.14
2 -4 -7 6.3 1.56
-2 -4 7 5.73 0.68
2 -4 -7 7.05 1.05
-2 -4 7 6 1.2
2 -5 7 0.32 0.74
-2 -5 -7 0.61 0.97
2 -5 -7 0.95 0.9
-2 -5 7 0.2 0.78
2 0 8 34.75 2.13
-2 0 8 35.27 2.14
2 0 -8 33.92 2.86
-2 0 -8 32.86 2.93
-2 -1 -8 2.47 1.29
2 1 -8 1.5 1.09
2 -1 8 2.23 0.34
-2 1 8 2.83 0.44
-2 -1 8 3.34 0.4
2 1 8 3.29 0.45
-2 1 -8 2.7 1.12
2 -1 -8 3.16 1.26
-2 -3 -8 42.01 3.3
-2 3 8 41.41 2.62
2 -3 8 41.08 2.65
-2 3 8 40.61 2.79
2 -3 8 42.22 2.97
-2 -3 8 48.35 3.02
2 -3 -8 45.02 3.28
2 3 8 44.11 2.73
-2 -3 8 40.9 2.64
2 3 8 41.32 2.62
2 -4 8 4.16 1.05
-2 -4 -8 2.97 1.47
2 -4 8 5.8 0.64
-2 -4 8 5.53 0.63
-2 -4 8 4.12 1.11
2 -4 -8 4.51 1.5
2 -4 -8 2.69 0.95
-2 -5 -8 1.44 0.86
2 -5 8 1.7 0.61
2 -5 -8 0.99 0.85
-2 -5 8 2.69 0.73
-2 0 9 7.96 0.68
2 0 9 7 0.66
2 0 -9 7.59 1.43
-2 0 -9 8.66 1.55
2 1 -9 11 2.02
2 -1 9 11.45 0.88
-2 -1 9 11.34 0.86
2 1 9 11.66 0.93
2 -1 -9 12.9 2.33
-2 2 9 35.67 2.28
-2 2 9 37.66 2.61
2 -2 9 38.56 2.52
2 -2 9 37.21 2.26
2 -2 9 36.48 2.27
-2 2 9 38.92 2.38
2 2 9 32.38 2.36
2 2 9 30 2.58
-2 -2 9 36.02 2.27
-2 -2 9 41.62 2.51
2 2 9 35.5 2.27
2 -3 9 7.07 0.9
-2 3 9 4.85 0.89
-2 -3 -9 3.38 1.55
2 -3 9 4.82 1.1
-2 3 9 6.26 0.68
2 3 9 6.32 0.86
-2 -3 9 6.38 1.21
-2 -3 9 6.75 0.82
2 -3 -9 6.97 1.45
2 3 9 6.79 0.75
2 -4 9 0.74 0.82
2 -4 9 0.25 0.47
-2 -4 -9 1.13 1.29
-2 -4 9 0.38 0.88
2 -4 -9 -0.68 0.85
-2 -4 9 1.01 0.5
2 -4 -9 0.32 1.29
2 -2 10 31.65 1.94
-2 2 10 28.22 2.37
2 -2 10 31.37 2.24
2 -2 10 31.68 2
-2 2 10 29.97 2.07
-2 2 10 29.77 1.94
-2 2 10 32.93 1.97
-2 -2 10 30.45 1.97
-2 -2 10 34.22 2.26
2 2 10 25.74 2.06
2 2 10 24.32 2.33
2 2 10 31.56 1.97
-2 -2 10 29.81 1.93
-2 3 10 9.46 0.88
2 -3 10 7.98 1.19
-2 3 10 8.04 1.04
-2 -3 -10 7.34 1.66
2 -3 10 8.55 0.91
2 -3 -10 8.32 1.64
-2 -3 10 9.27 1.27
-2 -3 10 8.42 0.99
2 3 10 9.47 0.9
2 3 10 7.68 0.97
-2 -4 -10 5.74 1.44
2 -4 10 9.05 0.91
2 -4 10 8.46 1.21
2 -4 -10 8.69 1.1
-2 -4 10 8.04 0.87
-2 -4 10 7.02 1.03
2 -4 -10 8.13 1.5
-2 0 11 78.3 4.49
2 0 11 70.84 4.57
-2 0 11 75.7 4.49
2 0 11 76.14 4.49
-2 0 11 74.67 4.58
2 0 11 77.38 4.49
-2 1 11 8.93 0.95
-2 1 11 8.48 1.19
-2 1 11 9.04 0.83
-2 1 11 9.1 0.81
2 -1 11 9 1.16
2 -1 11 8.54 0.86
2 -1 11 8.78 0.87
-2 -1 11 7.82 0.99
2 1 11 9.53 0.84
-2 -1 11 10.17 1.18
-2 -1 11 8.62 0.85
2 1 11 9.7 1.25
2 1 11 9.5 0.84
2 1 11 9.19 0.94
-2 2 11 4.43 1.18
2 -2 11 4.43 0.67
2 -2 11 4.37 0.94
-2 2 11 5.56 0.75
-2 2 11 6.48 0.7
2 -2 11 5.61 0.73
-2 2 11 4.19 0.74
-2 -2 11 5.38 0.67
-2 -2 11 4.75 0.64
2 2 11 5.48 0.72
-2 -2 11 5.62 1.05
2 2 11 2.97 1.14
2 2 11 5.09 0.78
2 2 11 5.61 0.76
-2 3 11 39.13 2.65
2 -3 11 38.54 2.5
-2 -3 -11 30.8 3.22
-2 3 11 39.83 2.43
2 -3 11 36.51 2.69
2 3 11 42.21 2.53
2 -3 -11 45.6 3.26
-2 -3 11 35.9 2.47
2 3 11 36.8 2.58
-2 -3 11 38.67 2.71
2 -4 11 2.2 0.79
-2 -4 -11 3.79 1.31
2 -4 11 4.84 0.58
2 -4 -11 3.95 1.28
-2 -4 11 3.85 0.51
-2 -4 11 3.3 0.85
2 -4 -11 4.31 0.89
-2 0 12 62.8 3.7
2 0 12 54.57 3.7
2 0 12 60.58 3.8
-2 0 12 59.37 3.7
2 0 12 59.84 3.7
2 0 12 65.2 3.68
-2 0 12 62.57 3.82
-2 0 12 65.03 3.68
-2 1 12 20.25 1.53
2 -1 12 20.49 1.69
-2 1 12 20.87 1.44
2 -1 12 20.32 1.51
-2 1 12 19.88 1.72
2 -1 12 21.81 1.45
-2 1 12 21.1 1.46
2 1 12 19.82 1.75
-2 -1 12 19.13 1.74
2 1 12 20.47 1.53
2 1 12 21.3 1.46
-2 -1 12 20.33 1.48
2 1 12 22.49 1.48
-2 -1 12 21.23 1.47
-2 2 12 7.42 1.35
-2 2 12 10.52 0.97
2 -2 12 9.47 1.13
2 -2 12 10.07 0.92
2 -2 12 8.44 0.97
2 2 12 7.62 1.34
-2 -2 12 9.68 0.99
2 2 12 10.9 0.94
-2 -2 12 10.66 0.95
2 2 12 8.69 1.13
2 2 12 10.65 0.95
-2 -2 12 8.33 1.12
2 -3 12 20.66 1.45
-2 3 12 20.84 1.44
-2 3 12 20.53 1.68
-2 -3 -12 16.13 2.27
2 -3 12 16.64 1.62
2 3 12 18.24 1.58
2 -3 -12 19.59 2.28
-2 -3 12 18.93 1.75
-2 -3 12 20.43 1.48
2 3 12 19.96 1.42
-2 -4 -12 1.17 1.05
2 -4 12 2.79 0.69
2 -4 -12 1.65 0.75
2 -4 -12 2.74 1.09
-2 -4 12 1.83 0.69
-2 0 13 1.54 0.57
2 0 13 1.3 0.77
2 0 13 1.04 0.45
2 0 13 1.02 0.37
2 0 13 0.42 0.56
-2 0 13 0.94 0.37
-2 0 13 1.23 0.46
-2 0 13 0.72 0.79
2 -1 13 12.33 1.35
2 -1 13 12.58 1.06
2 -1 13 11.39 1.07
-2 1 13 12.1 1.44
-2 1 13 10.14 1.1
-2 1 13 12.13 1.01
-2 1 13 12.05 1.1
2 1 13 11.95 1.41
-2 -1 13 10.86 1.07
2 1 13 11.97 1.18
2 1 13 13.14 1.01
-2 -1 13 11.06 1.37
-2 -1 13 11.44 1.03
2 1 13 12.25 1.04
2 -2 13 4.68 0.72
-2 2 13 3.97 0.77
2 -2 13 3.37 0.82
-2 2 13 4.42 0.68
2 -2 13 4 0.67
-2 2 13 5.65 1.21
-2 2 13 2.94 0.61
2 2 13 5.09 0.68
-2 -2 13 4.23 0.59
-2 -2 13 3.54 0.66
2 2 13 4.99 1.18
2 2 13 3.81 0.75
2 2 13 5.1 0.73
-2 -2 13 3.67 0.88
-2 3 13 0.24 0.61
2 -3 13 0.59 0.63
2 -3 13 0.24 0.48
-2 3 13 0.96 0.41
-2 -3 -13 1.06 1.2
2 3 13 0.32 0.41
2 -3 -13 1.71 1.21
-2 -3 13 1.24 0.7
-2 -3 13 -0.37 0.51
2 3 13 -0.46 0.54
2 -4 13 0.33 0.6
-2 -4 -13 1.44 0.95
2 -4 13 0.83 0.32
2 -4 -13 0.94 0.55
-2 -4 13 0.04 0.62
2 -4 -13 -0.66 0.87
-2 0 14 20.94 1.53
2 0 14 19.79 1.78
2 0 14 22.5 1.48
2 0 14 17.31 1.52
-2 0 14 24.2 1.47
-2 0 14 19.54 1.84
-2 0 14 21.29 1.61
-2 1 14 2.02 0.58
2 -1 14 1.64 0.58
2 -1 14 1.99 0.55
2 -1 14 1.41 0.7
-2 1 14 3.2 0.93
-2 1 14 2.54 0.52
-2 1 14 1.47 0.49
-2 -1 14 2.72 0.77
2 1 14 2.4 0.51
2 1 14 2.77 0.52
-2 -1 14 1.83 0.61
-2 -1 14 3.52 0.58
2 1 14 2.39 0.83
2 1 14 2.08 0.59
2 -2 14 1.04 0.73
2 -2 14 2.19 0.53
-2 2 14 1.93 1.06
-2 2 14 1.43 0.59
-2 2 14 1.14 0.42
-2 2 14 1.98 0.5
2 -2 14 0.92 0.55
2 2 14 1.17 0.44
2 2 14 1.75 0.57
-2 -2 14 1.28 0.54
-2 -2 14 1.16 0.78
2 2 14 1.13 0.43
2 2 14 1.52 1.03
-2 -2 14 1.57 0.48
-2 3 14 10.96 1.01
2 -3 14 13.63 1.23
-2 -3 -14 9.78 1.48
-2 3 14 14.29 1.2
2 -3 14 13.43 1.05
-2 -3 14 13.27 1.26
2 -3 -14 11.18 1.48
-2 -3 14 12.4 1
2 3 14 9.66 1
-2 0 15 2.3 0.52
-2 0 15 1.74 0.58
-2 0 15 2.76 0.85
2 0 15 3 0.47
2 0 15 1.99 0.51
2 0 15 3.71 0.81
2 0 15 1.92 0.6
-2 0 15 2.5 0.49
-2 1 15 1.44 0.49
-2 1 15 3.84 1
-2 1 15 1.56 0.6
2 -1 15 1.47 0.49
2 -1 15 2.41 0.74
2 -1 15 1.63 0.57
-2 1 15 2.95 0.51
-2 -1 15 1.88 0.53
-2 -1 15 2.03 0.59
2 1 15 1.88 0.5
-2 -1 15 1.73 0.78
2 1 15 2.54 0.91
2 1 15 1.41 0.49
2 1 15 1.79 0.55
-2 2 15 11.28 1.11
2 -2 15 10.4 1.11
-2 2 15 12.99 1.04
2 -2 15 10.76 0.97
-2 2 15 8.52 0.92
2 -2 15 11.23 0.93
-2 -2 15 8.81 1.14
2 2 15 8.16 0.95
-2 -2 15 11.16 0.99
2 2 15 10.54 1.04
2 2 15 12.52 0.96
-2 -2 15 11.37 1.07
2 -3 15 1.96 0.65
2 -3 15 1.02 0.44
-2 -3 -15 1.49 1.02
-2 3 15 2.14 0.42
-2 -3 15 0.88 0.64
-2 -3 15 1.79 0.43
2 -3 -15 1.92 1.03
2 3 15 2.04 0.41
2 0 16 1.15 0.53
2 0 16 0.78 0.42
-2 0 16 0.38 0.38
-2 0 16 0.46 0.38
-2 0 16 0.23 0.52
2 0 16 0.67 0.7
-2 0 16 0.88 0.76
2 0 16 0.89 0.43
-2 1 16 1.22 0.44
2 -1 16 1.82 0.71
-2 1 16 3.65 1.02
2 -1 16 1.21 0.5
2 -1 16 1.05 0.43
-2 1 16 2.18 0.62
-2 1 16 2.39 0.47
2 1 16 1.47 0.47
2 1 16 1.84 0.48
2 1 16 2.66 0.59
-2 -1 16 1.72 0.55
-2 -1 16 1.78 0.76
2 1 16 2.75 0.93
-2 -1 16 2.84 0.5
2 -2 16 0.72 0.48
2 -2 16 0.36 0.59
-2 -2 -16 2.83 1
2 -2 16 0.8 0.39
-2 2 16 1.22 0.52
-2 2 16 1.05 0.38
-2 2 16 0.76 0.39
2 2 16 0.69 0.33
2 2 16 1.4 0.4
-2 -2 16 -0.57 0.62
2 2 16 0.48 0.49
-2 -2 16 1.67 0.37
2 -2 -16 2 0.93
-2 -2 16 0.39 0.47
-2 -3 -16 2.87 0.93
-2 3 16 4.42 0.47
2 -3 16 4.4 0.57
2 -3 16 5.26 0.68
-2 -3 16 4.51 0.64
-2 -3 16 3 0.43
2 -3 -16 5.06 0.71
2 3 16 4.38 0.46
2 -3 -16 3.57 0.83
-2 0 17 11.32 1.09
-2 0 17 12.06 1.19
-2 0 17 11.26 0.95
2 0 17 11.2 0.93
2 0 17 10.98 1.17
2 0 17 10.08 1.07
2 -1 17 -0.47 0.63
-2 1 17 0.98 0.54
2 -1 17 0.48 0.38
2 -1 17 0.06 0.48
-2 1 17 2.35 1
-2 1 17 0.43 0.39
-2 1 17 0.45 0.4
-2 -1 17 0.49 0.37
-2 -1 17 0.09 0.45
2 1 17 0.33 0.33
2 1 17 1.29 0.9
2 1 17 0.7 0.36
-2 -1 17 0.66 0.69
2 1 17 0.16 0.52
-2 2 17 2.35 0.52
2 -2 17 1.41 0.47
-2 2 17 2.67 0.42
2 -2 17 2.15 0.35
-2 2 17 2.5 0.38
-2 -2 -17 2.44 0.9
2 -2 17 1.77 0.65
2 2 17 2.22 0.47
2 -2 -17 2.04 0.87
-2 -2 17 1.86 0.69
-2 -2 17 2.22 0.46
-2 -2 17 2.18 0.35
2 2 17 2.86 0.43
-2 0 18 10.04 0.82
-2 0 18 12.91 1.29
2 0 18 11.57 1.21
2 0 18 11.23 0.96
-2 0 18 8.99 0.97
2 0 18 9.94 0.84
-2 1 18 0.56 0.31
2 -1 18 1.29 0.45
2 -1 18 0.38 0.59
-2 1 18 1.44 0.46
-2 1 18 0.84 0.31
-2 1 18 2.39 0.82
2 -1 18 0.62 0.32
-2 -1 18 0.39 0.64
2 1 18 0.85 0.32
2 1 18 1.91 0.79
2 1 18 0.95 0.33
2 1 18 1.12 0.45
-2 -1 18 0.99 0.3
-2 -1 18 0.69 0.43
2 0 19 9.48 0.71
-2 0 19 8.27 0.71
2 0 19 11.27 1.02
-2 0 19 11.19 0.89
2 0 19 10.47 0.85
3 0 0 -0.01 0.07
-3 0 0 0.01 0.07
3 -1 0 19.83 1.74
3 1 0 22.3 1.62
-3 1 0 20.17 1.23
-3 -1 0 20.65 1.75
-3 1 0 19.96 1.65
3 -1 0 21.49 1.24
3 -2 0 0.5 0.1
3 -2 0 0.35 1.03
-3 -2 0 0.44 1.12
3 -4 0 7.8 1.34
3 -4 0 6.65 0.86
-3 -5 0 0.09 1.07
3 -5 0 -0.29 1
3 -5 0 0.36 0.51
-3 0 -1 0.08 0.28
3 0 -1 0 0.08
3 0 1 0.04 0.08
-3 0 -1 0.05 0.08
-3 0 1 -0.02 0.08
3 -1 1 113.48 6.17
-3 1 1 102.05 6.41
-3 -1 -1 107.93 6.17
3 1 -1 98.69 6.37
3 -1 1 109.77 6.43
-3 -1 -1 106.44 6.43
-3 -1 1 109.28 6.42
3 -1 -1 109.47 6.42
3 1 1 102.19 6.4
3 1 1 107.46 6.17
3 -1 -1 111.45 6.18
-3 1 -1 114.68 6.18
-3 1 -1 101.75 6.42
-3 -2 -1 3.35 1.16
3 -2 1 2.4 1.08
3 -2 -1 3.01 0.26
3 -2 -1 4.17 1.17
-3 -2 1 2.69 1.14
3 -2 -1 2.91 0.25
-3 -4 -1 0.23 1.23
3 -4 1 0.38 0.67
3 -4 1 1.37 1.07
-3 -4 1 1.01 1.11
3 -4 -1 0.96 1.24
3 -4 -1 -0.03 0.73
3 -5 1 4.55 0.63
-3 -5 -1 3.93 1.16
3 -5 1 5.25 1.09
3 -5 -1 3.84 1.09
3 -5 -1 4.44 0.67
-3 -5 1 3.34 1.14
-3 0 -2 0.02 0.1
-3 0 -2 0.18 0.41
3 0 2 0 0.1
3 0 -2 -0.07 0.1
-3 0 2 0.03 0.1
3 0 -2 0.1 0.37
3 1 -2 546.01 34.32
3 -1 2 632.22 34.14
3 1 -2 617.09 34.13
-3 -1 -2 592.37 34.33
3 -1 2 595.38 34.32
-3 1 2 603.88 34.35
3 1 -2 619.83 34.12
3 -1 -2 555.06 34.15
3 -1 -2 632.29 34.15
3 -1 -2 594.55 34.32
-3 1 -2 580.79 34.14
-3 1 -2 549.76 34.35
3 1 2 580.04 34.34
-3 -1 2 597.48 34.33
3 1 2 645.42 34.15
3 -2 2 3.82 1.07
-3 -2 -2 2.6 1.1
3 -2 -2 2.55 1.13
-3 -2 2 2.97 1.07
3 -2 -2 1.75 0.23
3 -2 -2 1.89 0.24
3 -4 2 6.38 0.82
-3 -4 -2 5.95 1.36
3 -4 2 4.92 1.28
3 -4 -2 6.06 0.9
3 -4 -2 8.25 1.36
-3 -4 2 6.63 1.29
3 -5 2 13.93 1.12
-3 -5 -2 13.13 1.62
3 -5 2 11.6 1.52
3 -5 -2 11.34 1.61
3 -5 -2 14.92 1.16
-3 -5 2 11.85 1.49
3 0 -3 -0.3 0.51
-3 0 -3 0.15 0.13
3 0 3 -0.02 0.13
3 0 -3 0.01 0.13
-3 0 -3 -0.12 0.53
-3 0 3 -0.02 0.13
3 1 -3 236.5 15.76
3 1 -3 267.16 15.53
-3 -1 -3 281.06 15.79
-3 1 3 290.75 15.56
3 -1 3 284.26 15.54
3 -1 3 279.53 15.78
-3 -1 -3 256.31 15.55
-3 1 3 267.07 15.79
-3 -1 3 269.48 15.77
3 -1 -3 276.32 15.78
3 -1 -3 253.6 15.56
3 1 3 291.82 15.56
-3 1 -3 266.93 15.54
3 -2 3 6.91 1.24
-3 -2 -3 9.33 1.42
3 -2 -3 8.14 0.58
3 2 3 7.78 0.59
3 -2 -3 9.09 1.42
-3 -2 3 9.07 1.73
3 -4 3 5.59 0.77
-3 -4 -3 3.72 1.41
3 -4 3 4.14 1.22
3 -4 -3 5.74 1.41
3 -4 -3 6.09 0.87
-3 -4 3 5.14 1.3
-3 -5 -3 2.67 1.04
3 -5 3 1.34 0.88
3 -5 3 1.35 0.49
3 -5 -3 2.35 1
3 -5 -3 1.06 0.57
-3 -5 3 1 0.92
-3 0 -4 -0.16 0.52
3 0 -4 -0.13 0.46
-3 0 -4 -0.06 0.14
-3 0 -4 0.18 0.67
3 0 4 0.06 0.16
3 0 -4 -0.03 0.15
-3 0 4 0.03 0.17
-3 1 4 528.59 28.14
3 -1 4 508.07 28.11
3 -1 4 511.23 28.39
-3 -1 -4 487.89 28.37
3 1 -4 451.49 28.1
3 1 4 518.67 28.13
-3 -1 4 491.35 28.1
-3 1 -4 426.25 28.1
-3 -1 4 497.63 28.37
3 -1 -4 483.24 28.34
-3 -2 -4 53.27 3.82
3 -2 4 50.88 3.69
3 -2 -4 52.97 3.77
3 -2 -4 51.31 3.05
3 2 4 46.46 3.05
-3 -2 4 56.96 3.78
3 -3 4 1.17 0.6
-3 -3 -4 0.6 1.17
3 -3 4 0.3 0.94
3 -3 -4 1.23 1.23
-3 -3 4 1.11 0.96
3 -4 4 12.02 1.69
-3 -4 -4 9.25 1.66
3 -4 4 12.43 1.09
-3 -4 4 10.7 1.44
3 -4 -4 7.84 1.03
3 -4 -4 10.36 1.66
3 -5 4 4.32 0.58
3 -5 4 3.47 0.94
-3 -5 -4 1.97 1.04
3 -5 -4 3.98 0.66
-3 -5 4 2.96 0.98
3 -5 -4 3.99 1.03
3 0 5 0.12 0.18
-3 0 5 -0.09 0.18
-3 0 -5 -0.03 0.76
3 -1 5 213.74 12.87
-3 1 5 226.24 12.55
3 -1 5 218.64 12.52
-3 -1 -5 216.14 12.87
3 1 5 226.29 12.54
3 -1 -5 219.82 12.84
-3 -1 5 210.98 12.86
-3 -1 5 208.12 12.51
-3 -2 -5 31.12 2.81
3 -2 5 31.56 2.77
3 2 5 30.23 1.92
3 -2 -5 32.3 2.73
3 -2 -5 30.69 1.91
-3 -2 5 32.55 2.83
3 -3 5 6.89 1.09
-3 -3 -5 9.2 1.42
3 -3 5 6.46 0.75
3 -3 -5 8.23 1.34
-3 -3 5 7.94 1.18
3 -4 5 5.36 0.73
-3 -4 -5 3.19 1.48
3 -4 5 4.37 1.12
-3 -4 5 4.44 1.14
3 -4 -5 5.25 0.93
3 -4 -5 5.05 1.5
3 -5 5 2.9 0.9
3 -5 5 2.82 0.49
-3 -5 -5 2.26 1.07
-3 -5 5 2.67 0.93
3 -5 -5 2.42 1.01
3 -5 -5 2.35 0.61
-3 0 6 0.11 0.21
-3 0 -6 -0.34 0.82
3 0 6 -0.01 0.18
-3 -1 -6 10.74 1.87
3 -1 6 7.12 0.58
-3 1 6 8.27 0.64
-3 -1 6 7.26 0.57
3 -1 -6 9.78 1.67
3 1 6 7.6 0.63
3 -2 6 10.59 1.77
-3 -2 -6 5.7 1.4
3 2 6 7.61 0.6
3 -2 -6 5.73 0.58
3 -2 -6 6.42 1.44
3 -3 6 0.55 0.49
3 -3 6 1.58 0.89
-3 -3 -6 1.7 1.2
3 -3 -6 0.17 1.18
-3 -3 6 0.74 0.9
-3 -3 6 1.28 0.44
3 -4 6 1.52 0.55
3 -4 6 2.14 1.06
-3 -4 -6 0.93 1.47
3 -4 -6 1.51 1.4
-3 -4 6 2.13 1.13
3 -4 -6 1.78 0.87
3 -5 6 1.37 0.81
-3 -5 -6 0.78 1.01
3 -5 6 1.89 0.43
-3 -5 6 1.98 0.89
3 -5 -6 1.34 0.53
3 -5 -6 2.22 0.95
-3 0 -7 -0.22 0.89
-3 0 7 -0.03 0.22
3 0 7 -0.19 0.18
3 0 -7 -0.72 0.83
-3 1 7 1.69 0.32
-3 -1 -7 2.29 1.23
3 -1 7 2.26 0.32
3 1 -7 2.08 0.95
3 1 7 1.78 0.32
-3 -1 7 1.92 0.3
-3 1 -7 1.86 0.93
3 -1 -7 2.83 1.12
3 2 7 66.69 4.06
3 -2 -7 69 4.05
3 -3 7 2.08 0.52
-3 -3 -7 1.39 1.24
3 -3 7 0.26 0.94
-3 3 7 1.85 0.61
3 -3 -7 2.1 1.2
-3 -3 7 0.43 1
-3 -3 7 1.77 0.48
-3 -4 -7 0.47 1.42
3 -4 7 1.62 1
3 -4 7 1.54 0.56
3 -4 -7 1.68 1.41
3 -4 -7 1.7 0.89
-3 -4 7 2.4 1.08
3 -5 7 1.04 0.74
-3 -5 -7 -0.14 0.92
-3 -5 7 0.71 0.76
3 -5 -7 0.95 0.91
-3 0 8 0.17 0.23
-3 0 -8 -0.07 1.01
3 0 -8 -0.54 0.92
3 0 8 -0.03 0.2
3 1 -8 12.05 1.97
-3 -1 -8 10.43 2.14
3 -1 8 14.39 0.95
-3 1 8 13.54 0.98
-3 -1 8 13.25 0.92
3 -1 -8 11.77 2.02
-3 1 -8 13.89 2.02
3 1 8 13.13 0.97
3 -3 8 1.07 0.51
-3 -3 -8 2.3 1.32
-3 3 8 1.36 0.68
3 -3 8 1.35 0.92
-3 3 8 1.14 0.38
-3 -3 8 2.15 1.02
-3 -3 8 1.62 0.5
3 -3 -8 1.19 1.3
3 -4 8 3.9 0.59
-3 -4 -8 3.31 1.4
3 -4 8 2.88 1
3 -4 -8 2.55 0.96
-3 -4 8 5.53 1.12
3 -4 -8 4.87 1.46
3 -5 8 1.59 0.63
-3 -5 -8 0.79 0.89
3 -5 8 1.18 0.31
-3 -5 8 1.46 0.68
3 -5 -8 -0.33 0.79
-3 0 -9 0.42 1.08
3 0 9 -0.11 0.21
-3 0 9 -0.05 0.23
3 0 -9 -0.44 0.98
3 -1 9 22.16 1.44
3 1 -9 22.23 2.58
3 -1 -9 24.4 2.81
-3 -1 9 20.63 1.43
-3 2 9 3.68 1.04
3 -2 9 6.22 0.73
-3 2 9 5.14 0.64
3 -2 9 7.09 0.94
3 -2 9 6.13 0.63
-3 2 9 5.77 0.69
-3 2 9 6 0.79
-3 -2 9 7.35 0.82
3 2 9 3.59 0.85
3 2 9 5.9 0.66
-3 -2 9 8.17 1.01
3 2 9 4.64 1.05
-3 3 9 9.02 1.06
3 -3 9 9.4 1.04
-3 -3 -9 9.52 1.69
3 -3 9 8.29 1.25
-3 3 9 12.49 0.94
3 3 9 8.26 0.98
3 -3 -9 11.08 1.65
3 3 9 11.22 0.9
-3 -3 9 9.65 1.02
-3 -3 9 7.98 1.32
-3 -4 -9 1.3 1.31
3 -4 9 0.23 0.83
3 -4 9 0.6 0.47
3 -4 -9 0.67 1.32
3 -4 -9 -0.39 0.87
-3 -4 9 1.07 0.93
-3 2 10 69.91 4.53
3 -2 10 76.31 4.53
3 -2 10 75.37 4.53
-3 2 10 82.06 4.81
-3 2 10 78.48 4.6
3 -2 10 75.34 4.69
-3 2 10 81.28 4.57
-3 -2 10 77.26 4.68
3 2 10 72.91 4.77
-3 -2 10 75.94 4.55
3 2 10 74.42 4.55
-3 3 10 15.84 1.61
3 -3 10 16.52 1.74
3 -3 10 17.35 1.29
-3 3 10 19.53 1.29
-3 -3 -10 17.5 2.46
3 -3 -10 20.39 2.28
3 3 10 15.2 1.49
3 3 10 16.71 1.33
-3 -3 10 15.95 1.79
-3 -3 10 14.5 1.28
3 -4 10 7 1
3 -4 10 7.69 0.85
-3 -4 -10 5.35 1.44
3 -4 -10 6.28 1.42
-3 -4 10 6.27 1.02
3 -4 -10 7.92 1.07
3 0 11 0.29 0.35
3 0 11 0.29 0.45
-3 0 11 0.02 0.34
-3 0 11 -0.42 0.45
3 0 11 0.29 0.6
-3 0 11 0.51 0.61
-3 1 11 3.17 0.83
3 -1 11 4.14 0.76
-3 1 11 4.55 0.56
3 -1 11 3.04 0.48
-3 1 11 3.55 0.62
-3 1 11 3.18 0.55
3 -1 11 3.29 0.55
-3 -1 11 3.77 0.82
3 1 11 4.12 0.63
3 1 11 3.64 0.82
3 1 11 3.59 0.53
3 1 11 3.67 0.55
-3 -1 11 4.64 0.56
-3 -1 11 3.12 0.6
3 -2 11 18.9 1.36
3 -2 11 16.8 1.63
-3 2 11 17.79 1.3
3 -2 11 17.94 1.31
-3 2 11 17.59 1.87
-3 2 11 17.54 1.27
-3 2 11 17.79 1.48
-3 -2 11 18.56 1.35
3 2 11 14.32 1.93
3 2 11 16.58 1.43
3 2 11 18.65 1.32
-3 -2 11 16.2 1.27
-3 -2 11 18.29 1.73
3 -3 11 22 1.92
-3 3 11 23.4 1.64
-3 3 11 24.08 1.91
-3 -3 -11 23.06 2.67
3 -3 11 22.81 1.7
3 3 11 22 1.8
-3 -3 11 25.08 1.66
3 3 11 25.54 1.66
-3 -3 11 22.63 1.99
3 -3 -11 21.2 2.54
3 -4 11 3.24 0.54
-3 -4 -11 2.91 1.24
3 -4 11 1.38 0.73
3 -4 -11 2.59 0.88
3 -4 -11 2.5 1.21
-3 -4 11 2.51 0.86
3 0 12 -0.01 0.38
3 0 12 1.42 0.7
-3 0 12 0.73 0.69
3 0 12 0.5 0.49
3 0 12 0.59 0.32
-3 0 12 -0.08 0.39
-3 0 12 0.7 0.5
3 -1 12 41.99 2.85
-3 1 12 41.76 2.86
-3 1 12 47.33 2.68
3 -1 12 43.62 2.66
-3 1 12 43.31 2.68
3 -1 12 41.86 2.7
-3 1 12 43.64 2.71
3 1 12 41.79 2.86
3 1 12 43.86 2.72
3 1 12 36.56 2.68
-3 -1 12 45.1 2.85
-3 -1 12 39.84 2.68
3 1 12 46.42 2.68
-3 -1 12 41.62 2.66
-3 2 12 39.98 2.31
-3 2 12 31.7 2.25
-3 2 12 35.01 2.4
3 -2 12 37.89 2.28
3 -2 12 34.78 2.28
-3 2 12 36.44 2.75
3 -2 12 33.14 2.46
3 2 12 32.6 2.35
3 2 12 34.67 2.28
-3 -2 12 35.65 2.49
-3 -2 12 33.24 2.33
-3 -2 12 39.87 2.32
3 2 12 33.01 2.7
-3 -3 -12 5.6 1.5
3 -3 12 7.01 0.87
-3 3 12 7.46 0.91
3 -3 12 5.18 0.92
-3 3 12 7.64 0.74
3 3 12 6.97 0.82
3 3 12 5.59 0.73
-3 -3 12 4.44 0.97
3 -3 -12 5.36 1.38
-3 -3 12 6.35 0.73
3 -4 12 3.68 0.7
3 -4 12 5.11 0.67
-3 -4 -12 3.77 1.23
3 -4 -12 4.78 1.14
-3 -4 12 4.21 0.79
3 -4 -12 3.86 0.81
-3 0 13 0.16 0.32
-3 0 13 0.24 0.77
3 0 13 0.19 0.56
3 0 13 0.23 0.31
-3 0 13 0 0.57
3 0 13 0.17 0.43
3 0 13 0.04 0.73
-3 0 13 -0.03 0.4
-3 1 13 7.74 0.8
3 -1 13 7.5 0.94
-3 1 13 7.45 0.91
-3 1 13 7.56 0.87
3 -1 13 6.93 0.82
-3 1 13 9.81 1.26
3 -1 13 7.39 0.79
3 1 13 7.49 0.97
-3 -1 13 5.77 0.78
3 1 13 6.6 0.83
3 1 13 6.1 0.86
-3 -1 13 7.45 0.85
3 1 13 7.15 0.94
-3 -1 13 4.99 0.94
-3 2 13 0.9 0.48
3 -2 13 0.37 0.52
-3 2 13 0.23 0.6
3 -2 13 0.36 0.43
3 -2 13 0.28 0.71
-3 2 13 0.98 0.42
-3 2 13 0.57 1.08
3 2 13 0.55 0.41
3 2 13 0.5 1.03
3 2 13 0.79 0.41
3 2 13 -0.6 0.59
-3 -2 13 0.2 0.78
-3 -2 13 0.67 0.43
-3 -2 13 0.63 0.56
-3 -3 -13 3.91 1.32
-3 3 13 5.45 0.77
3 -3 13 4.1 0.6
3 -3 13 5.56 0.81
-3 3 13 6.14 0.74
3 3 13 5.88 0.79
3 3 13 3.75 0.67
3 -3 -13 5.58 1.3
-3 -3 13 4.44 0.63
-3 -3 13 3.55 0.82
3 -4 13 2.19 0.39
-3 -4 -13 1.62 0.98
3 -4 13 2.25 0.63
-3 -4 13 2.8 0.66
3 -4 -13 2.67 0.6
3 -4 -13 1.13 0.89
3 0 14 0.65 0.78
-3 0 14 -0.32 0.8
-3 0 14 0.23 0.42
3 0 14 0.06 0.35
-3 0 14 0.27 0.33
-3 0 14 -0.1 0.56
3 0 14 0.21 0.43
3 0 14 0.18 0.56
-3 1 14 0.13 0.87
3 -1 14 1.19 0.55
-3 1 14 1.09 0.58
-3 1 14 1.69 0.47
3 -1 14 0.7 0.68
-3 1 14 1.31 0.5
3 -1 14 0.3 0.49
3 1 14 0.98 0.8
3 1 14 0.94 0.44
-3 -1 14 0.54 0.57
3 1 14 1.58 0.45
-3 -1 14 0.72 0.72
-3 -1 14 0.45 0.47
3 1 14 1.18 0.58
3 -2 14 12.47 1.16
-3 2 14 14.86 1.71
3 -2 14 13.87 1.33
3 -2 14 12.59 1.18
-3 2 14 15.5 1.29
-3 -2 14 15.29 1.14
3 2 14 10.69 1.11
3 2 14 13.11 1.62
3 2 14 15.94 1.12
-3 -2 14 12.78 1.23
-3 -2 14 13.97 1.42
3 2 14 13.77 1.22
-3 -3 -14 4.24 1.27
3 -3 14 6.13 0.84
-3 3 14 6.31 0.74
-3 3 14 4.86 0.74
3 -3 14 4.29 0.63
-3 -3 14 6.23 0.75
-3 -3 14 4.63 0.87
3 -3 -14 5.42 1.21
3 3 14 6.59 0.75
3 0 15 0.72 0.72
3 0 15 0.47 0.36
-3 0 15 -0.08 0.38
3 0 15 -0.24 0.55
-3 0 15 -0.66 0.53
3 0 15 -0.02 0.43
-3 0 15 -0.67 0.78
-3 0 15 0.19 0.41
-3 1 15 4 0.61
-3 1 15 4.54 0.67
3 -1 15 3.65 0.62
-3 1 15 2.33 0.65
3 -1 15 3.8 0.61
3 -1 15 3.11 0.74
-3 1 15 4.16 1.02
3 1 15 2.9 0.55
-3 -1 15 2.92 0.57
3 1 15 4.26 0.7
3 1 15 3.77 0.62
-3 -1 15 2.78 0.81
3 1 15 4.9 0.99
-3 -1 15 2.56 0.63
3 -2 15 0.15 0.45
-3 2 15 0.5 0.37
3 -2 15 0.16 0.6
-3 2 15 0.5 0.53
3 -2 15 0.43 0.44
-3 2 15 0.78 0.46
-3 -2 15 0.38 0.67
-3 -2 15 0.26 0.54
-3 -2 15 1.49 0.41
3 2 15 0.5 0.42
3 2 15 0.28 0.48
3 2 15 0.38 0.37
3 -3 15 0.85 0.59
3 -3 15 1.08 0.41
-3 -3 -15 1.35 1.07
-3 3 15 1.02 0.34
3 3 15 0.97 0.33
3 -3 -15 0.5 0.98
-3 -3 15 1.1 0.63
-3 -3 15 0.18 0.43
-3 0 16 -0.01 0.37
3 0 16 -0.03 0.41
3 0 16 0.66 0.7
3 0 16 -0.22 0.48
-3 0 16 0.09 0.36
-3 0 16 0.07 0.51
-3 0 16 -0.42 0.76
3 -1 16 3.77 0.57
3 -1 16 3.85 0.59
3 -1 16 2.27 0.72
-3 1 16 2.84 0.53
-3 1 16 2.92 0.53
-3 1 16 4.45 0.72
-3 1 16 5.11 1.08
3 1 16 4.04 0.57
-3 -1 16 3.71 0.84
-3 -1 16 4.03 0.55
3 1 16 5.26 1.02
3 1 16 4.13 0.63
3 1 16 4.28 0.64
-3 -1 16 3.22 0.62
-3 2 16 3.84 0.58
3 -2 16 3.15 0.5
-3 -2 -16 5.42 1.07
-3 2 16 4.21 0.62
-3 2 16 4.11 0.63
3 -2 16 4.06 0.57
3 -2 16 4.01 0.68
-3 -2 16 2.87 0.56
3 2 16 4.54 0.62
-3 -2 16 3.82 0.61
3 -2 -16 3.34 0.96
3 2 16 3.46 0.56
-3 -2 16 3.83 0.76
-3 3 16 1.12 0.28
-3 -3 -16 1.99 0.87
3 -3 16 0.78 0.36
3 -3 16 0.61 0.49
3 -3 -16 1.71 0.61
3 3 16 1.03 0.29
-3 -3 16 0.54 0.53
3 -3 -16 0.14 0.78
3 0 17 -0.33 0.46
3 0 17 0.16 0.63
-3 0 17 -0.33 0.44
-3 0 17 0.85 0.71
-3 0 17 -0.05 0.36
3 0 17 0.05 0.35
-3 1 17 1.83 0.45
-3 1 17 4.08 1.02
3 -1 17 1.62 0.43
-3 1 17 1.51 0.46
3 -1 17 1.91 0.65
3 -1 17 1.28 0.5
-3 1 17 3.33 0.62
-3 -1 17 2.01 0.73
3 1 17 1.88 0.4
3 1 17 2.69 0.42
3 1 17 4.26 0.96
-3 -1 17 0.75 0.49
3 1 17 1.92 0.56
-3 -1 17 2.2 0.44
3 -2 17 2.46 0.38
-3 2 17 3.23 0.43
3 -2 17 2.04 0.62
-3 2 17 3.21 0.5
-3 2 17 2.35 0.51
3 -2 17 1.98 0.46
-3 -2 -17 2.3 0.92
-3 -2 17 2.94 0.46
3 -2 -17 2.13 0.85
3 2 17 1.64 0.46
-3 -2 17 2.94 0.73
-3 -2 17 2.49 0.43
3 2 17 2.11 0.39
3 0 18 1.13 0.71
3 0 18 0.28 0.43
-3 0 18 0.02 0.47
-3 0 18 0.3 0.32
-3 0 18 -0.33 0.75
3 0 18 0.11 0.31
-3 1 18 0.56 0.32
3 -1 18 0.6 0.41
-3 1 18 0.7 0.31
-3 1 18 1.47 0.78
3 -1 18 0.38 0.3
-3 1 18 0.98 0.44
3 -1 18 -0.06 0.61
-3 -1 18 0.73 0.31
3 1 18 0.42 0.3
3 1 18 -0.04 0.42
3 1 18 0.56 0.32
3 1 18 1.61 0.8
-3 -1 18 -0.22 0.38
-3 -1 18 0.42 0.6
-3 0 19 0.14 0.22
3 0 19 1.14 0.67
-3 0 19 -0.17 0.38
3 0 19 0.14 0.24
3 0 19 0.51 0.38
-3 0 19 0.83 0.68
-4 0 0 26.53 1.51
4 0 0 24.96 1.51
-4 1 0 4.78 0.38
4 1 0 5.04 0.34
-4 -1 0 5.04 0.34
4 -1 0 5.23 0.39
-4 1 0 5.22 1.01
4 -1 0 6.65 0.9
-4 -1 0 5.4 0.87
4 -2 0 12.28 1.82
-4 -2 0 12.29 1.99
4 -2 0 9.46 0.61
4 -2 0 9.57 0.62
4 -4 0 18.95 1.55
4 -4 0 17.63 2.06
-4 -4 0 15.87 2.08
-4 -5 0 -0.1 1.05
4 -5 0 0.15 0.51
4 -5 0 1.51 1.03
-4 0 -1 3.1 0.23
-4 0 -1 3.52 0.52
4 0 -1 3.02 0.45
-4 0 -1 3.06 0.54
4 0 1 2.23 0.23
-4 0 1 2.11 0.23
4 0 -1 2.59 0.23
4 1 -1 170.18 9.82
-4 -1 -1 170.84 9.83
4 1 -1 152.79 10
-4 -1 -1 173.75 10.06
4 -1 1 173.58 10.04
-4 1 1 170.68 10.05
4 -1 1 182.4 9.84
4 1 1 182.58 9.83
4 1 1 159.95 10.02
-4 -1 1 183.79 10.06
4 -1 -1 165.5 9.85
4 -1 -1 179.37 9.85
4 -1 -1 175.43 10.05
-4 1 -1 172.12 9.84
-4 1 -1 156 10.04
4 -2 1 1.18 0.14
4 -2 1 1.48 1.01
-4 -2 -1 1.03 1.08
4 -2 -1 0.74 0.15
4 -2 -1 1.01 0.16
-4 -2 1 1.35 1.08
4 -2 -1 1.61 1.08
4 -4 1 3.58 0.75
-4 -4 -1 2.96 1.34
4 -4 1 5.08 1.16
4 -4 -1 4.43 0.83
4 -4 -1 4.41 1.32
-4 -4 1 3.93 1.2
4 -5 1 4.86 1.09
4 -5 1 4.51 0.61
-4 -5 -1 3.11 1.13
4 -5 -1 3.76 1.1
-4 -5 1 3.55 1.12
4 -5 -1 4.06 0.65
4 0 2 319.39 19.81
4 0 -2 339.35 19.82
-4 0 -2 354.8 19.82
-4 0 -2 355.57 19.91
4 0 -2 343.75 19.87
4 0 -2 361.46 19.81
-4 1 2 72.86 4.42
4 1 -2 69.96 4.07
-4 -1 -2 71.41 4.42
4 1 -2 64.06 4.32
4 -1 2 77.18 4.09
4 1 -2 68.68 4.07
4 -1 2 74.03 4.39
4 -1 -2 59.85 4.09
-4 -1 2 75.92 4.41
4 1 2 78.54 4.09
4 1 2 68.26 4.39
-4 1 -2 69.02 4.09
4 -1 -2 73.01 4.1
4 -1 -2 68.92 4.4
-4 1 -2 67.19 4.4
4 -2 2 21.52 1.36
-4 -2 -2 24.53 2.35
4 -2 2 23.97 2.25
4 2 2 23.7 1.39
-4 -2 2 24.39 2.3
4 -2 -2 22.35 1.41
4 -2 -2 25.02 2.39
4 -4 2 24.55 1.85
-4 -4 -2 24.95 2.41
4 -4 2 25.87 2.28
4 -4 -2 25.95 2.5
-4 -4 2 25.93 2.29
4 -4 -2 23.41 1.93
4 -5 2 0.49 0.87
-4 -5 -2 1.31 1.02
4 -5 2 0.97 0.53
4 -5 -2 2.42 1.02
4 -5 -2 1.33 0.58
-4 0 -3 167.84 9.79
4 0 -3 150.81 9.62
4 0 -3 175.17 9.79
-4 0 3 161.84 9.62
4 0 -3 172.8 9.75
-4 0 -3 171.74 9.81
4 0 3 176.96 9.63
-4 0 -3 161.25 9.62
4 1 -3 129.27 7.38
-4 1 3 119.82 7.67
4 1 -3 138.06 7.38
4 -1 3 127.47 7.66
4 1 -3 109.2 7.6
4 -1 3 135.61 7.39
-4 -1 -3 124.8 7.4
-4 -1 -3 132.02 7.68
-4 1 -3 124.83 7.39
4 1 3 134.83 7.4
-4 -1 3 130.33 7.67
4 -1 -3 139.04 7.41
4 -1 -3 131.91 7.67
4 -1 -3 116.95 7.4
4 -2 3 9.45 1.64
4 -2 3 8.17 0.54
-4 -2 -3 10.14 1.88
4 -2 -3 10.29 1.47
4 -2 -3 8.49 0.6
-4 -2 3 9.34 1.76
4 2 3 8.29 0.6
4 -4 3 5.25 0.79
4 -4 3 5.31 1.29
-4 -4 -3 5.49 1.41
4 -4 -3 6.35 0.87
-4 -4 3 5.76 1.35
4 -4 -3 6.76 1.38
-4 -5 -3 2.24 1.03
4 -5 3 0.5 0.88
4 -5 3 1.21 0.48
4 -5 -3 1.59 0.96
4 -5 -3 1.15 0.58
-4 -5 3 0.13 0.93
-4 0 4 259.83 14.74
-4 0 -4 266.53 14.95
4 0 -4 270.9 14.91
-4 0 -4 245.07 14.95
-4 0 -4 245.32 14.74
4 0 4 267.35 14.74
4 0 -4 244.39 14.74
4 0 -4 252.51 14.93
4 -1 4 128.64 7.14
-4 -1 -4 125.67 7.48
4 -1 4 125.09 7.48
4 1 -4 113.69 7.12
4 1 4 131.04 7.16
-4 1 -4 111.89 7.13
-4 -1 4 125.5 7.48
4 -1 -4 128.12 7.46
-4 -2 -4 8.16 1.43
4 -2 4 6.7 1.27
4 2 4 6.36 0.56
-4 -2 4 6.79 1.36
4 -2 -4 10.4 1.8
4 -2 -4 7.82 0.58
4 -3 4 18.86 1.86
-4 -3 -4 19.32 2.14
4 -3 4 17.14 1.36
-4 -3 4 19.2 1.86
4 -3 -4 19.04 1.52
4 -3 -4 17.42 2.17
-4 -4 -4 19.65 2.49
4 -4 4 21.31 2.05
4 -4 4 20.81 1.59
4 -4 -4 22.73 2.36
4 -4 -4 18.68 1.76
-4 -4 4 23.02 2.09
4 -5 4 2.25 0.91
-4 -5 -4 2.3 1.01
4 -5 4 3.71 0.55
-4 -5 4 1.64 0.97
4 -5 -4 2.74 0.98
4 -5 -4 3.02 0.65
4 0 -5 68.33 4.31
-4 0 5 67.63 4.02
-4 0 -5 68.36 4.39
4 0 5 69.91 4.01
-4 1 5 6.75 0.54
4 -1 5 7.68 1.25
-4 -1 -5 6.69 1.16
4 -1 5 5.52 0.47
4 -1 -5 5.5 1.07
4 1 5 5.8 0.51
-4 -1 5 5.57 1.16
4 -2 5 33.09 2.85
-4 -2 -5 32.89 2.93
4 2 5 35.15 2.07
-4 -2 5 33.24 2.97
4 -2 -5 33.8 2.85
4 -2 -5 33.12 2.06
4 -3 5 17.64 1.72
4 -3 5 17.74 1.32
-4 -3 -5 15.95 2.11
4 -3 -5 18.17 2.17
-4 -3 5 20.79 1.79
4 -3 -5 12.97 1.56
-4 -4 -5 3.23 1.53
4 -4 5 4.76 1.07
4 -4 5 3.87 0.67
4 -4 -5 3.74 0.9
-4 -4 5 3.46 1.14
4 -4 -5 3.58 1.48
-4 -5 -5 0.16 1
4 -5 5 0.41 0.43
4 -5 5 0.93 0.79
-4 -5 5 1.11 0.91
4 -5 -5 1.21 0.92
4 -5 -5 -0.09 0.59
-4 0 6 28.14 1.76
4 0 6 28.98 1.75
4 0 -6 26.91 2.29
-4 0 -6 30.24 2.42
-4 1 6 9.07 0.71
4 -1 6 9.09 0.65
-4 -1 -6 9.63 1.88
4 -1 -6 10.68 1.63
-4 -1 6 8.22 0.63
4 1 6 8.64 0.67
-4 -2 -6 28.96 2.78
4 -2 6 26.95 2.52
-4 -2 6 27.83 2.62
4 -2 -6 26.02 1.7
4 -2 -6 27.38 2.63
4 2 6 26.32 1.71
4 -3 6 4.99 0.62
-4 -3 -6 3.81 1.29
4 -3 6 5.48 1.01
4 -3 -6 4.51 1.3
-4 -3 6 5.3 1.07
4 -4 6 1.37 1.01
-4 -4 -6 0.09 1.42
4 -4 6 1.44 0.53
4 -4 -6 0.2 0.86
-4 -4 6 0.71 1.1
4 -4 -6 2.44 1.42
4 -5 6 3.81 0.47
4 -5 6 2.04 0.84
-4 -5 -6 1.25 1.03
4 -5 -6 2.56 0.96
-4 -5 6 3.49 0.96
4 -5 -6 3.61 0.65
4 0 7 4.42 0.45
-4 0 7 4.21 0.46
4 0 -7 2.87 0.99
-4 0 -7 5.43 1.19
4 1 -7 23.39 2.25
4 -1 7 26.21 1.59
-4 1 7 26.22 1.63
-4 -1 -7 27.25 2.63
4 -1 -7 25.82 2.38
-4 -1 7 23.22 1.57
4 1 7 24.26 1.61
-4 1 -7 27.72 2.4
4 2 7 35.28 2.25
4 -2 -7 36.68 2.24
4 -3 7 14.78 1.75
-4 3 7 16 1.37
4 -3 7 15.67 1.24
-4 -3 -7 16.67 1.82
-4 -3 7 15.45 1.2
4 -3 -7 18.3 2.06
-4 -3 7 15.52 1.79
4 3 7 15.87 1.31
4 -4 7 1.31 0.98
-4 -4 -7 1.18 1.46
4 -4 7 -0.38 0.5
4 -4 -7 -0.3 0.85
4 -4 -7 0.34 1.37
-4 -4 7 1.2 1.02
-4 -5 -7 1.48 0.96
4 -5 7 1.23 0.38
4 -5 7 3.19 0.74
-4 -5 7 1.75 0.79
4 -5 -7 2.13 0.55
4 -5 -7 4.16 0.9
4 0 8 0.54 0.23
-4 0 8 0.8 0.26
4 0 -8 0.77 0.98
-4 0 -8 1.96 1.13
4 1 -8 2.92 1.17
4 -1 8 5.37 0.5
-4 -1 -8 4.26 1.38
-4 1 8 5.58 0.57
4 -1 -8 4.14 1.23
-4 -1 8 5.16 0.49
-4 1 -8 3.46 1.21
4 1 8 5.11 0.53
4 -3 8 5 0.68
-4 3 8 5.41 0.81
-4 -3 -8 4.32 1.41
-4 3 8 4.66 0.61
4 -3 8 2.57 0.98
-4 -3 8 4.87 0.62
4 3 8 5.05 0.72
-4 -3 8 5.1 1.12
4 -3 -8 5.09 1.44
4 -4 8 10.96 0.98
4 -4 8 9.48 1.24
-4 -4 -8 9.73 1.67
-4 -4 8 8.6 1.31
4 -4 -8 6.84 1.16
4 -4 -8 10.91 1.62
4 -5 8 0.79 0.62
4 -5 8 0.73 0.34
-4 -5 -8 0.14 0.86
4 -5 -8 0.8 0.76
-4 -5 8 0.79 0.65
4 0 9 22.16 1.44
-4 0 -9 19.94 2.42
4 0 -9 20.78 2.28
-4 0 9 21.84 1.44
4 -1 9 0.45 0.26
4 1 -9 -0.31 1.16
4 -1 -9 0.96 1.38
-4 -1 9 0.51 0.24
4 -2 9 1.71 0.39
-4 2 9 2.23 0.64
4 -2 9 1.73 0.74
-4 2 9 0.1 0.93
-4 2 9 2.1 0.41
4 -2 9 2.04 0.46
-4 2 9 1.28 0.44
-4 -2 9 1.67 0.49
4 2 9 1.76 0.41
4 2 9 0.58 0.67
4 2 9 -0.34 0.93
-4 -2 9 2.09 0.82
-4 3 9 6.82 0.76
4 -3 9 7.61 1.15
-4 -3 -9 7.75 1.66
-4 3 9 7.11 0.95
4 -3 9 4.91 0.69
-4 -3 9 7.16 0.9
4 -3 -9 7.91 1.54
-4 -3 9 7.93 1.23
4 3 9 7.1 0.75
4 -4 9 2.28 0.9
4 -4 9 2 0.5
-4 -4 -9 1.14 1.32
-4 -4 9 1.57 0.93
4 -4 -9 2.82 1.37
4 -4 -9 1.77 0.94
-4 2 10 0.43 1
-4 2 10 0.84 0.62
-4 2 10 0.75 0.35
4 -2 10 0.96 0.38
4 -2 10 1.51 0.47
4 -2 10 0.83 0.73
4 2 10 -0.29 0.97
4 2 10 0.84 0.38
4 2 10 0.94 0.58
-4 -2 10 1.56 0.82
-4 -2 10 2.62 0.52
-4 3 10 80.67 4.9
-4 3 10 82.49 5.02
4 -3 10 81.39 4.87
-4 -3 -10 77.15 5.47
4 -3 10 81.13 4.87
4 -3 10 75.03 5.06
-4 -3 10 78.64 4.88
4 -3 -10 97.2 5.36
-4 -3 10 75.34 5.09
4 3 10 90.65 4.95
4 -4 10 1.3 0.51
-4 -4 -10 3.59 1.35
4 -4 10 1.77 0.8
-4 -4 10 1.85 0.88
4 -4 -10 1.35 0.9
4 -4 -10 1.95 1.28
-4 0 11 3.82 0.53
-4 0 11 5.2 0.75
4 0 11 3.62 0.58
4 0 11 5.45 0.76
4 0 11 3.73 0.59
-4 0 11 3.88 0.58
-4 0 11 3.84 0.57
-4 1 11 1.35 0.36
-4 1 11 2.17 0.77
4 -1 11 2.4 0.51
-4 1 11 1.88 0.46
4 -1 11 1.28 0.42
4 -1 11 2.12 0.7
-4 1 11 1.24 0.53
4 1 11 1.77 0.42
-4 -1 11 2.25 0.74
4 1 11 1.96 0.56
-4 -1 11 1.45 0.42
4 1 11 1.22 0.44
-4 -1 11 1.24 0.49
4 1 11 1.73 0.74
-4 2 11 0.96 1.07
4 -2 11 1.38 0.44
4 -2 11 1.38 0.83
-4 2 11 2.14 0.55
-4 2 11 1.55 0.41
4 -2 11 2.2 0.57
-4 2 11 1.74 0.71
4 2 11 1.37 1.05
4 2 11 1.57 0.44
-4 -2 11 2.3 0.55
4 2 11 1.91 0.62
-4 -2 11 1.32 0.91
4 -3 11 23.92 1.83
-4 3 11 27.69 2.12
-4 -3 -11 26.91 2.83
-4 3 11 29.36 1.88
4 -3 11 26.64 2.14
4 -3 11 27.38 1.91
-4 -3 11 29.75 1.9
4 3 11 29.56 1.89
4 -3 -11 33.33 2.61
4 -4 11 -0.5 0.68
-4 -4 -11 0.62 1.24
4 -4 11 0.47 0.45
-4 -4 11 -0.65 0.78
4 -4 -11 -0.43 0.82
4 -4 -11 1.08 1.16
4 0 12 52.04 3.1
4 0 12 47.35 3.22
-4 0 12 51.77 3.21
4 0 12 51.27 3.08
-4 0 12 48.39 3.1
-4 0 12 49.42 3.05
-4 0 12 52.24 3.13
4 -1 12 3.96 0.64
-4 1 12 3.94 0.65
-4 1 12 3.85 0.6
4 -1 12 3.92 0.85
-4 1 12 4.36 0.65
4 -1 12 3.29 0.55
-4 1 12 5.06 0.88
4 1 12 4.33 0.66
-4 -1 12 4.14 0.89
-4 -1 12 5.45 0.7
-4 -1 12 4.45 0.61
4 1 12 4.18 0.65
4 1 12 4.24 0.87
4 1 12 3.76 0.59
4 -2 12 1.92 0.57
4 -2 12 1.72 0.76
-4 2 12 2.19 0.56
-4 2 12 2.26 0.7
-4 2 12 3.38 1.13
-4 2 12 2.89 0.52
4 -2 12 1.37 0.49
-4 -2 12 3.09 0.61
-4 -2 12 2.67 0.87
4 2 12 2.15 0.49
4 2 12 1.77 1.06
4 2 12 2.44 0.64
-4 3 12 14.44 1.13
-4 -3 -12 13.88 1.81
4 -3 12 13.87 1.42
4 -3 12 14.48 1.18
-4 3 12 14.74 1.43
4 -3 12 14.03 1.06
-4 -3 12 14.55 1.51
4 3 12 12.52 1.14
4 -3 -12 16.48 2.07
-4 -3 12 11.86 1.19
-4 -4 -12 4.45 1.21
4 -4 12 5.21 0.66
4 -4 12 4.99 0.74
-4 -4 12 4.97 0.81
4 -4 -12 4.71 0.85
4 -4 -12 4.32 1.1
4 0 13 15.15 1.31
-4 0 13 17.87 1.29
-4 0 13 16.36 1.19
-4 0 13 16.94 1.34
4 0 13 15.71 1.21
-4 0 13 16.66 1.58
4 0 13 16.43 1.36
4 0 13 18.89 1.55
4 -1 13 0.03 0.53
4 -1 13 0.2 0.42
4 -1 13 -0.07 0.67
-4 1 13 0.05 0.45
-4 1 13 0.3 0.39
-4 1 13 0.71 0.54
-4 1 13 1.35 0.81
4 1 13 0.27 0.4
-4 -1 13 -0.48 0.53
-4 -1 13 -0.21 0.44
4 1 13 0.27 0.75
4 1 13 0.67 0.56
4 1 13 0.23 0.43
-4 -1 13 0.1 0.72
-4 2 13 14.75 1.73
4 -2 13 11.56 1.33
4 -2 13 12.06 1.08
4 -2 13 12.74 1.11
-4 2 13 11.99 1.03
-4 2 13 12.58 1.28
-4 2 13 13.59 1.15
-4 -2 13 13.22 1.09
-4 -2 13 13.56 1.12
-4 -2 13 12.18 1.43
4 2 13 11.41 1.41
4 2 13 10.78 1.2
4 -3 13 5.04 0.65
-4 3 13 5.85 0.8
-4 3 13 5.89 0.76
-4 -3 -13 4.63 1.3
4 -3 13 4.89 0.78
4 -3 13 6.11 0.64
4 3 13 4.09 0.71
-4 -3 13 6.3 0.78
4 -3 -13 4.67 1.31
-4 -3 13 7.25 0.93
-4 -4 -13 2.7 0.98
4 -4 13 0.55 0.56
4 -4 13 1.36 0.37
4 -4 -13 0.96 0.6
-4 -4 13 1.1 0.6
4 -4 -13 0.6 0.83
-4 0 14 2.08 0.83
4 0 14 1.44 0.58
4 0 14 2.07 0.81
4 0 14 1.92 0.43
-4 0 14 1.87 0.45
4 0 14 2.24 0.51
-4 0 14 1.89 0.5
-4 0 14 1.52 0.58
4 -1 14 13.46 1.2
-4 1 14 14.6 1.09
4 -1 14 14.34 1.34
-4 1 14 12.4 1.2
-4 1 14 13.2 1.36
4 -1 14 13.85 1.18
-4 1 14 14.88 1.61
-4 -1 14 12.07 1.19
4 1 14 14.45 1.48
4 1 14 13.63 1.24
4 1 14 13.46 1.1
-4 -1 14 14.18 1.26
4 1 14 13.58 1.1
-4 -1 14 13.62 1.41
4 -2 14 3.65 0.64
-4 2 14 5.54 0.83
4 -2 14 4.84 0.76
4 -2 14 3.28 0.79
-4 2 14 4.65 0.7
4 2 14 3.33 0.62
4 2 14 4.13 0.64
-4 -2 14 3.77 0.88
4 2 14 3.71 1.06
-4 -2 14 4.44 0.67
-4 -2 14 4.16 0.6
4 -3 14 3.17 0.78
-4 3 14 3.57 0.65
-4 3 14 2.93 0.5
-4 -3 -14 1.87 1.21
4 -3 14 2.77 0.53
4 -3 14 2.58 0.42
4 3 14 2.6 0.48
-4 -3 14 2.56 0.49
-4 -3 14 2.86 0.81
4 -3 -14 2.5 1.11
4 0 15 14.09 1.39
-4 0 15 11.76 1.05
4 0 15 13.49 1.08
-4 0 15 11.73 1.2
-4 0 15 12.16 1.44
4 0 15 15.44 1.15
-4 0 15 13.71 1.12
4 0 15 13.03 1.24
4 -1 15 2.88 0.76
4 -1 15 3.8 0.6
4 -1 15 3.51 0.61
-4 1 15 4.62 1.06
-4 1 15 2.44 0.63
-4 1 15 2.18 0.51
-4 1 15 4.01 0.65
4 1 15 3.14 0.55
4 1 15 3.71 0.93
4 1 15 3.79 0.58
-4 -1 15 2.77 0.65
4 1 15 3.22 0.6
-4 -1 15 2.96 0.55
-4 -1 15 3.82 0.86
4 -2 15 1.64 0.47
-4 2 15 1.74 0.45
4 -2 15 1.2 0.6
4 -2 15 1.28 0.49
-4 2 15 2.6 0.5
-4 2 15 1.76 0.59
-4 -2 15 1.27 0.69
4 2 15 1.47 0.5
-4 -2 15 0.95 0.53
4 2 15 1.18 0.43
-4 -2 15 1.74 0.42
4 -3 15 -0.15 0.4
4 -3 15 0.41 0.56
-4 -3 -15 -0.27 1.02
-4 3 15 0.64 0.31
-4 -3 15 0.71 0.59
-4 -3 15 0.31 0.35
4 -3 -15 0.4 0.96
4 3 15 0.52 0.29
4 0 16 13.47 1.11
-4 0 16 12.53 1.02
4 0 16 11.59 1.27
-4 0 16 11.8 1.36
-4 0 16 11.27 1.01
4 0 16 13.56 1.14
-4 0 16 11.3 1.12
4 -1 16 11.77 1.28
4 -1 16 13.83 1.12
-4 1 16 17.85 1.69
-4 1 16 14.93 1.29
-4 1 16 16.29 1.16
-4 1 16 14.24 1.16
4 -1 16 12.46 1.15
4 1 16 13.6 1.57
4 1 16 15.43 1.12
4 1 16 10.85 1.09
-4 -1 16 13.98 1.09
4 1 16 15.46 1.22
-4 -1 16 12.41 1.38
-4 -1 16 12.26 1.23
-4 2 16 0.72 0.49
4 -2 16 0.41 0.57
-4 2 16 0.13 0.38
4 -2 16 -0.07 0.36
-4 -2 -16 1.21 0.99
-4 2 16 0.65 0.38
4 -2 16 0.99 0.45
-4 -2 16 -0.16 0.47
4 -2 -16 0.58 0.87
-4 -2 16 0.78 0.33
-4 -2 16 -0.44 0.65
4 2 16 0.48 0.44
4 2 16 0.33 0.35
-4 -3 -16 2.52 0.9
4 -3 16 3.28 0.54
-4 3 16 3.98 0.44
-4 -3 16 2.85 0.57
4 -3 -16 2.19 0.8
4 -3 -16 2.85 0.63
4 3 16 3.64 0.47
-4 0 17 2.58 0.45
4 0 17 3.2 0.71
-4 0 17 4.3 0.81
4 0 17 2.79 0.55
-4 0 17 2.37 0.54
4 0 17 3.38 0.49
4 -1 17 4.86 0.72
4 -1 17 6.46 0.82
-4 1 17 5.19 0.68
-4 1 17 7.94 0.79
-4 1 17 6.44 0.73
4 -1 17 7.02 0.73
-4 1 17 9.22 1.12
-4 -1 17 6.61 0.72
4 1 17 7.18 0.69
4 1 17 6.96 0.89
-4 -1 17 6.08 0.87
-4 -1 17 5.91 0.7
4 1 17 4.55 0.64
4 1 17 8.17 1.04
-4 2 17 3.68 0.47
-4 2 17 3.42 0.56
4 -2 17 2.42 0.63
4 -2 17 2.39 0.48
-4 -2 -17 3.55 0.94
-4 2 17 3.37 0.49
4 -2 17 3.28 0.48
-4 -2 17 1.96 0.63
4 -2 -17 2.56 0.85
4 2 17 2.01 0.46
4 2 17 2.53 0.45
-4 -2 17 2.19 0.45
-4 0 18 3.12 0.47
4 0 18 3.81 0.54
4 0 18 5.13 0.78
4 0 18 4.77 0.54
-4 0 18 5.42 0.88
-4 0 18 2.91 0.56
-4 1 18 4.4 0.59
-4 1 18 4.24 0.54
-4 1 18 6.21 0.87
4 -1 18 3.92 0.52
-4 1 18 3.96 0.53
4 -1 18 4.64 0.67
4 -1 18 3.4 0.5
4 1 18 3.29 0.47
4 1 18 3.89 0.51
-4 -1 18 4.62 0.67
-4 -1 18 4.29 0.55
4 1 18 3.75 0.49
-4 -1 18 4.66 0.55
4 1 18 4.85 0.83
-5 0 0 0.02 0.11
5 0 0 0.06 0.12
5 -1 0 0.27 0.17
-5 1 0 0.26 0.57
-5 1 0 0.24 0.15
5 -1 0 0.56 0.75
-5 -1 0 0.17 0.11
-5 -1 0 0.34 0.72
5 1 0 0.27 0.12
5 -2 0 29.41 2.46
5 -2 0 24.09 1.62
-5 -2 0 33.11 2.7
5 -4 0 23.05 1.72
-5 -4 0 18.95 2.26
5 -4 0 24.26 2.23
5 -5 0 10.76 1
-5 -5 0 7.01 1.3
5 -5 0 7.37 1.24
5 0 -1 0.08 0.12
-5 0 -1 -0.01 0.11
-5 0 -1 0.05 0.35
5 0 1 0.07 0.12
5 0 -1 0.14 0.26
-5 0 1 0.09 0.13
-5 0 -1 0.11 0.29
5 -1 1 27.96 2
-5 -1 -1 24.99 1.56
5 1 -1 26.12 1.55
-5 -1 -1 26.64 2.08
-5 1 1 26.38 2
5 -1 1 28.25 1.57
5 1 -1 22.55 1.83
5 -1 -1 28.24 2.05
-5 -1 1 29.55 2.06
-5 1 -1 22.35 1.93
-5 -1 1 26.34 1.55
-5 1 -1 26.15 1.58
5 -1 -1 27.12 1.58
5 1 1 27.58 1.99
5 1 1 27.25 1.56
5 -2 1 57.85 3.76
-5 -2 -1 67.68 4.48
5 -2 1 65.88 4.35
5 -2 -1 69.53 4.41
5 -2 -1 63.67 3.79
-5 -2 1 68.3 4.47
5 -4 1 5.14 0.83
5 -4 1 7.08 1.19
-5 -4 -1 3.42 1.35
5 -4 -1 4.94 0.87
5 -4 -1 7.05 1.43
-5 -4 1 5.35 1.23
5 -5 1 1.78 0.98
5 -5 1 2.18 0.53
-5 -5 -1 0.27 1.06
-5 -5 1 1.54 1.07
5 -5 -1 1.52 0.58
5 -5 -1 0.5 1.01
-5 0 -2 0.11 0.13
5 0 -2 0.14 0.13
-5 0 -2 -0.14 0.51
5 0 2 0.16 0.14
5 0 -2 0.15 0.15
5 0 -2 0.47 0.39
5 -1 2 69.13 4.2
5 1 -2 67.76 3.88
-5 -1 -2 67.95 4.23
5 -1 2 75.54 3.91
-5 1 2 69.4 4.23
5 1 -2 63.23 3.88
5 1 -2 57.9 4.11
-5 1 -2 60.6 4.2
5 1 2 73.15 3.9
5 -1 -2 68.42 4.2
5 -1 -2 73.89 3.92
5 1 2 64.59 4.21
5 -1 -2 60.21 3.91
-5 1 -2 65.93 3.9
-5 -1 2 69.93 4.2
5 -2 2 3.16 0.28
5 -2 2 3.35 1.06
-5 -2 -2 6.06 1.24
5 -2 -2 5.76 1.24
5 2 2 3.7 0.37
-5 -2 2 3.52 1.14
5 -2 -2 4.46 0.36
5 -4 2 6.26 1.29
5 -4 2 7.26 0.86
-5 -4 -2 6.39 1.39
-5 -4 2 8.07 1.31
5 -4 -2 6.66 0.95
5 -4 -2 6.18 1.34
-5 -5 -2 5.75 1.19
5 -5 2 6.35 1.03
5 -5 2 7.39 0.74
-5 -5 2 5.52 1.1
5 -5 -2 8.02 0.96
5 -5 -2 7.2 1.18
5 0 -3 0.3 0.45
-5 0 -3 0 0.13
-5 0 -3 0.09 0.61
5 0 -3 0.01 0.15
-5 0 -3 0.01 0.48
5 0 -3 0.46 0.54
5 0 3 0.08 0.16
5 0 -3 -0.03 0.14
5 1 -3 23.67 1.27
5 1 -3 17.98 1.61
-5 1 3 18.73 1.85
5 -1 3 20.64 1.28
5 -1 3 21.39 1.84
5 1 -3 21.32 1.27
-5 -1 -3 20.58 1.3
-5 -1 -3 22.41 1.93
-5 -1 3 20.19 1.86
5 -1 -3 22.47 1.89
5 1 3 21.7 1.3
-5 1 -3 20.87 1.29
5 -1 -3 22.5 1.31
5 -2 3 23.8 2.22
-5 -2 -3 24.67 2.44
5 -2 3 22.42 1.43
5 -2 -3 23.45 1.48
5 -2 -3 25.07 2.36
5 2 3 25.52 1.47
-5 -2 3 24.58 2.28
5 -4 3 4.52 0.73
-5 -4 -3 5.44 1.43
5 -4 3 4.55 1.26
5 -4 -3 4.71 1.33
-5 -4 3 4.01 1.3
5 -4 -3 5.22 0.85
5 -5 3 1.86 0.87
-5 -5 -3 2.03 1.05
5 -5 3 2.75 0.53
5 -5 -3 2.57 0.65
5 -5 -3 2.21 0.99
-5 -5 3 1.68 0.94
-5 0 -4 -0.05 0.51
-5 0 -4 0.22 0.7
5 0 4 0.09 0.17
5 0 -4 -0.12 0.46
5 0 -4 -0.53 0.58
5 -1 4 77.15 4.86
5 1 -4 82.04 4.46
-5 -1 -4 80.3 4.88
5 1 -4 65.13 4.45
5 -1 4 76.33 4.47
5 1 4 74.79 4.48
-5 -1 4 75.2 4.86
5 -1 -4 79.32 4.86
5 -1 -4 81.43 4.49
5 -2 4 51.5 3.72
-5 -2 -4 51.27 3.8
5 -2 -4 52.36 3.78
-5 -2 4 54.4 3.82
5 -2 -4 52.22 3.11
5 2 4 52.49 3.11
5 -3 4 13.33 1.4
5 -3 4 9.87 1.04
-5 -3 -4 13.03 1.59
5 -3 -4 11.28 1.21
5 -3 -4 14.08 1.65
-5 -3 4 11.55 1.54
5 -4 4 11.2 1.07
-5 -4 -4 9.82 1.68
5 -4 4 10.65 1.34
5 -4 -4 9.98 1.56
-5 -4 4 10.25 1.42
5 -4 -4 11.16 1.4
5 -5 4 0.53 0.47
-5 -5 -4 1.05 0.97
5 -5 4 0.55 0.87
-5 -5 4 0.04 0.95
5 -5 -4 0.43 0.61
5 -5 -4 1.74 0.91
-5 0 -5 -0.14 0.77
5 0 5 0.01 0.18
-5 0 5 -0.02 0.18
5 -1 5 10.88 1.73
-5 -1 -5 10.06 1.67
5 -1 5 10.16 0.69
5 1 -5 9.43 0.67
-5 -1 5 10.1 1.77
5 1 5 10.19 0.72
5 -1 -5 9.34 1.52
-5 -2 -5 22.64 2.27
5 -2 5 18.72 2.14
5 2 5 17.52 1.23
-5 -2 5 17.94 2.25
5 -2 -5 18.73 1.24
5 -2 -5 20.53 2.21
5 -3 5 8.71 0.98
-5 -3 -5 7.99 1.48
5 -3 5 11.65 1.25
5 -3 -5 9.36 1.14
5 -3 -5 11.66 1.56
-5 -3 5 10.46 1.25
5 -4 5 1.23 0.57
-5 -4 -5 1.4 1.47
5 -4 5 1.6 0.98
5 -4 -5 1.99 0.84
5 -4 -5 0.89 1.35
-5 -4 5 2 1.07
-5 -5 -5 1.49 1.04
5 -5 5 2.34 0.49
5 -5 5 1.97 0.84
5 -5 -5 1.38 0.65
5 -5 -5 3.35 0.93
-5 -5 5 1.75 0.89
-5 0 -6 -0.16 0.84
5 0 6 -0.07 0.19
-5 0 6 -0.01 0.21
-5 -1 -6 26.58 2.63
5 1 -6 26.84 2.34
5 -1 6 29.58 1.72
5 -1 -6 27.08 2.36
-5 1 -6 29.77 2.48
5 1 6 27.41 1.74
5 -2 6 61.84 4.44
-5 -2 -6 65.83 4.63
-5 -2 6 64.54 4.53
5 -2 -6 62.03 3.8
5 2 6 61.63 3.8
5 -2 -6 67.48 4.5
-5 -3 -6 7.93 1.43
5 -3 6 6.33 0.74
5 -3 6 7.13 1.09
5 -3 -6 6.2 1.36
-5 -3 6 7.8 1.14
-5 -4 -6 8.14 1.65
5 -4 6 9.63 0.97
5 -4 6 9.21 1.28
5 -4 -6 7.23 1.12
5 -4 -6 9.05 1.68
-5 -4 6 8.89 1.38
5 -5 6 3.68 0.48
5 -5 6 3.33 0.85
-5 -5 -6 1.97 1.03
5 -5 -6 2.57 0.65
-5 -5 6 2.55 0.92
5 -5 -6 3.61 0.93
5 0 7 0.05 0.19
5 0 -7 -1.02 0.77
-5 0 -7 0.21 0.89
-5 0 7 -0.1 0.22
5 1 -7 46.9 3.48
-5 -1 -7 53.02 3.79
5 -1 7 46.65 2.91
5 -1 -7 49.33 3.51
-5 1 -7 51 3.61
5 1 7 47.09 2.94
5 -2 -7 66.64 3.88
5 2 7 62.6 3.88
-5 3 7 5.12 0.77
-5 -3 -7 4.36 1.35
5 -3 7 4.15 1.05
5 -3 7 4.08 0.61
-5 -3 7 3.18 1.11
5 -3 -7 5.21 1.38
5 3 7 5.37 0.67
-5 -4 -7 0.48 1.45
5 -4 7 1.38 0.95
5 -4 7 0.92 0.54
5 -4 -7 -0.52 1.31
-5 -4 7 0.54 1.07
5 -4 -7 0.44 0.89
5 -5 7 10.65 0.76
-5 -5 -7 6.61 1.13
5 -5 7 8.84 1.08
5 -5 -7 7.28 1.04
5 -5 -7 9.15 0.95
-5 -5 7 8.77 1.17
-5 0 -8 -0.84 1
-5 0 8 0 0.22
5 0 8 -0.06 0.19
5 0 -8 -0.67 0.83
5 1 -8 21.25 2.4
-5 -1 -8 25.68 2.73
5 -1 8 25.77 1.58
-5 1 -8 24.87 2.54
5 -1 -8 24.33 2.36
5 1 8 24.37 1.6
-5 3 8 6.73 0.9
-5 3 8 5.9 0.79
5 -3 8 8.46 1.16
-5 -3 -8 8.94 1.58
5 -3 8 8.31 0.75
5 -3 8 8.78 1
-5 -3 8 10.65 1.32
-5 -3 8 9.79 0.94
5 -3 -8 9.56 1.56
5 3 8 8.32 0.79
5 -4 8 0.43 0.48
-5 -4 -8 1.46 1.42
5 -4 8 -0.49 0.92
5 -4 -8 1.54 1.32
5 -4 -8 0.92 0.94
-5 -4 8 0.78 1.05
5 -5 8 3.65 0.43
5 -5 8 3.56 0.65
-5 -5 -8 2.94 0.92
5 -5 -8 3.57 0.56
5 -5 -8 3 0.76
-5 -5 8 4.33 0.71
-5 0 -9 -0.58 1.06
5 0 9 0 0.21
5 0 -9 -0.82 0.94
-5 0 9 0.09 0.24
5 1 -9 4.89 1.58
5 -1 9 6.01 0.58
5 -1 -9 8.08 1.75
-5 2 9 4.54 0.74
-5 2 9 5.15 1.04
-5 2 9 4.18 0.7
-5 2 9 3.22 0.58
5 -2 9 5.23 0.63
5 -2 9 5.84 0.88
5 -2 9 5.33 0.61
5 2 9 3.94 1
-5 -2 9 6.44 0.98
5 2 9 4.39 0.64
-5 -2 9 5.11 0.57
-5 3 9 16.19 1.13
-5 -3 -9 16.06 1.99
5 -3 9 14.43 1.17
5 -3 9 13.33 1.7
5 -3 9 14.9 1.26
-5 3 9 16.93 1.53
5 -3 -9 16.43 2.25
-5 -3 9 15.97 1.26
5 3 9 17.44 1.2
-5 -3 9 15.78 1.78
5 -4 9 7.12 1.08
-5 -4 -9 7.97 1.55
5 -4 9 9.02 0.87
5 -4 -9 7.92 1.52
-5 -4 9 7.65 1.17
5 -4 -9 8.35 1.18
-5 1 10 32.01 2.02
-5 1 10 29.58 2.07
5 -1 10 33.52 2.05
5 1 10 29.2 2.28
-5 2 10 33.79 2.37
5 -2 10 39.13 2.61
-5 2 10 35.37 2.5
5 -2 10 38.49 2.39
-5 2 10 40.68 2.47
5 -2 10 40.77 2.41
-5 2 10 38.51 2.76
5 2 10 35.75 2.39
5 2 10 36.47 2.42
-5 -2 10 42.05 2.64
5 2 10 39.69 2.78
-5 -2 10 38.64 2.4
-5 -3 -10 7.78 1.68
-5 3 10 6.13 0.9
5 -3 10 5.04 0.97
5 -3 10 4.44 0.57
-5 3 10 5.84 0.91
5 -3 10 4.42 0.64
5 -3 -10 4.76 1.45
5 3 10 5.84 0.71
-5 -3 10 5.84 1.08
-5 -4 -10 0.36 1.31
5 -4 10 1.52 0.79
5 -4 10 0.78 0.46
-5 -4 10 2.03 0.86
5 -4 -10 0.4 1.24
5 -4 -10 1.08 0.9
-5 0 11 -0.22 0.43
5 0 11 1.13 0.62
5 0 11 0.12 0.34
-5 0 11 -0.16 0.3
-5 0 11 0.86 0.65
5 0 11 0.4 0.45
-5 0 11 -0.05 0.35
5 0 11 -0.27 0.31
-5 1 11 7.43 0.93
-5 1 11 5.77 0.75
5 -1 11 6.23 0.72
-5 1 11 5.12 0.69
-5 1 11 7.63 0.86
5 -1 11 5.89 0.84
5 -1 11 5.95 0.76
-5 -1 11 6.49 0.76
-5 -1 11 7.64 0.93
5 1 11 6.22 0.71
-5 -1 11 5.92 0.67
5 1 11 5.81 0.66
5 1 11 7.58 0.84
5 1 11 8.42 0.95
5 -2 11 0.9 0.79
-5 2 11 1.11 0.66
-5 2 11 1.19 0.47
-5 2 11 2.12 1.06
5 -2 11 0.72 0.38
5 -2 11 0.67 0.49
-5 2 11 1.03 0.43
-5 -2 11 0.64 0.85
5 2 11 0.94 0.45
5 2 11 0.51 0.58
5 2 11 0.85 1.01
-5 -2 11 0.36 0.51
-5 3 11 5.59 0.86
-5 3 11 5.44 0.73
-5 3 11 5.87 0.79
5 -3 11 4.49 0.74
-5 -3 -11 4.88 1.58
5 -3 11 5.04 0.68
5 -3 11 4.13 0.89
5 3 11 4.49 0.78
5 -3 -11 4.84 1.39
-5 -3 11 5.39 0.67
-5 -3 11 5.5 1.04
5 -4 11 0.25 0.42
-5 -4 -11 1.03 1.25
5 -4 11 -0.58 0.68
-5 -4 11 -0.22 0.8
5 -4 -11 -0.79 0.8
5 -4 -11 -0.67 1.08
5 0 12 0.9 0.69
-5 0 12 -0.63 0.48
-5 0 12 0.19 0.31
5 0 12 0.56 0.39
5 0 12 0.24 0.33
-5 0 12 0.25 0.7
-5 0 12 -0.19 0.38
5 0 12 0.33 0.48
5 -1 12 9.35 1.25
5 -1 12 8.66 0.99
-5 1 12 8.95 0.97
-5 1 12 10.24 1.28
5 -1 12 9.93 0.92
-5 1 12 10.15 0.89
-5 1 12 10.32 1.01
-5 -1 12 8.77 0.97
5 1 12 8.92 1
5 1 12 10.03 0.92
-5 -1 12 11.54 1.15
-5 -1 12 9.27 0.98
5 1 12 9.69 1.25
5 1 12 10.81 0.91
5 -2 12 10.8 1.3
-5 2 12 12.62 1.68
-5 2 12 9.25 0.97
-5 2 12 10.64 1.15
-5 2 12 12.21 1.09
5 -2 12 12.36 0.98
5 -2 12 11.54 1.06
-5 -2 12 12.45 1.36
-5 -2 12 10.1 1.06
5 2 12 10.8 1.13
5 2 12 11.56 1.66
5 2 12 9.51 1.05
5 -3 12 1.1 0.72
-5 -3 -12 2.48 1.38
5 -3 12 1.67 0.51
-5 3 12 2.35 0.51
5 -3 12 2.66 0.45
-5 3 12 1.54 0.46
-5 3 12 2.34 0.7
-5 -3 12 1.74 0.55
-5 -3 12 2.47 0.89
5 3 12 2.35 0.5
5 -3 -12 1.62 1.28
5 -4 12 8.66 0.76
5 -4 12 6.94 0.9
-5 -4 -12 5.89 1.25
5 -4 -12 7.4 0.95
5 -4 -12 5.61 1.14
-5 -4 12 8.44 0.99
5 0 13 -0.05 0.44
5 0 13 -0.55 0.73
-5 0 13 0.47 0.54
-5 0 13 0.35 0.34
-5 0 13 -0.46 0.77
-5 0 13 0.21 0.42
5 0 13 -0.7 0.52
5 0 13 0.11 0.34
-5 1 13 2.54 0.59
5 -1 13 2.52 0.5
-5 1 13 2.19 0.5
-5 1 13 2.56 0.85
5 -1 13 1.9 0.71
5 -1 13 2.28 0.62
-5 1 13 2.35 0.55
5 1 13 3.01 0.8
5 1 13 2.54 0.52
5 1 13 1.47 0.49
5 1 13 3.03 0.62
-5 -1 13 1.72 0.56
-5 -1 13 2.5 0.8
-5 -1 13 2.52 0.52
-5 2 13 6.04 0.77
-5 2 13 6.33 1.2
5 -2 13 4.49 0.84
-5 2 13 6.17 0.69
-5 2 13 4.02 0.65
5 -2 13 5.21 0.67
5 -2 13 5.42 0.78
-5 -2 13 4.34 0.66
5 2 13 5.31 0.78
5 2 13 3.25 0.69
-5 -2 13 4.85 0.78
5 2 13 5.92 1.14
-5 -2 13 3.97 0.96
-5 3 13 0.66 0.61
-5 3 13 0.52 0.42
-5 -3 -13 0.12 1.22
-5 3 13 0.78 0.46
5 -3 13 0.13 0.43
5 -3 13 0.62 0.35
5 -3 13 0.6 0.64
-5 -3 13 0.33 0.46
-5 -3 13 -0.29 0.74
5 -3 -13 1.72 1.22
5 3 13 0.61 0.44
-5 -4 -13 0.34 0.95
5 -4 13 0.91 0.37
5 -4 13 1.07 0.56
-5 -4 13 0.17 0.56
5 -4 -13 1.72 0.6
5 -4 -13 -0.62 0.78
-5 0 14 -0.16 0.42
5 0 14 0.15 0.33
-5 0 14 -0.27 0.56
5 0 14 -0.3 0.55
5 0 14 -0.35 0.75
-5 0 14 -0.4 0.35
5 0 14 -0.13 0.44
-5 0 14 -0.65 0.77
-5 1 14 11.4 1.25
5 -1 14 8.35 0.98
5 -1 14 9.78 1.17
-5 1 14 9.79 0.9
5 -1 14 8.29 0.96
-5 1 14 9.28 1.12
-5 1 14 10.95 0.98
5 1 14 9.71 1.33
5 1 14 9.63 1.05
5 1 14 8.83 0.95
-5 -1 14 9.25 0.99
-5 -1 14 8.06 1.01
-5 -1 14 10.09 1.23
5 1 14 10.86 0.94
-5 2 14 21.59 1.63
5 -2 14 21.96 1.57
-5 2 14 17.86 1.54
-5 2 14 23.38 1.67
5 -2 14 23.1 1.73
5 -2 14 22.96 1.57
-5 -2 14 22.86 1.77
5 2 14 21.99 1.58
-5 -2 14 24.74 1.63
5 2 14 22.29 1.95
-5 -2 14 24.06 1.55
5 2 14 20.91 1.52
5 -3 14 1.82 0.68
5 -3 14 1.49 0.39
-5 -3 -14 1.25 1.22
5 -3 14 0.8 0.48
-5 -3 14 1.25 0.43
-5 -3 14 1.25 0.74
5 -3 -14 1.02 1.09
5 3 14 1.81 0.43
5 0 15 0.7 0.74
-5 0 15 -0.26 0.79
-5 0 15 -0.65 0.53
5 0 15 -0.16 0.43
5 0 15 -0.52 0.53
-5 0 15 0.21 0.38
5 0 15 0.02 0.35
-5 0 15 -0.13 0.43
-5 1 15 30.3 2.23
5 -1 15 23.57 1.87
-5 1 15 28.83 1.87
-5 1 15 31.09 1.86
5 -1 15 25.91 1.95
5 -1 15 26.4 1.82
5 1 15 27.01 1.83
-5 -1 15 24.1 1.98
5 1 15 27.71 1.87
5 1 15 29.18 1.83
-5 -1 15 25.61 1.82
5 1 15 26.85 2.12
-5 -1 15 25.48 1.89
5 -2 15 4.98 0.63
5 -2 15 7.36 0.79
-5 2 15 6.16 0.79
5 -2 15 5.54 0.77
-5 2 15 5.13 0.78
-5 2 15 4.27 0.7
5 2 15 5.62 0.71
5 -2 -15 5.74 1.07
-5 -2 15 5.73 0.68
-5 -2 15 6.1 0.77
-5 -2 15 5.78 0.87
5 2 15 6.2 0.67
-5 3 15 0.63 0.32
-5 -3 -15 -0.74 0.99
5 -3 15 0.05 0.39
5 -3 15 1.26 0.55
-5 -3 15 1.13 0.44
-5 -3 15 0.22 0.58
5 -3 -15 0.42 0.93
5 3 15 0.45 0.3
-5 0 16 0.08 0.41
-5 0 16 0.11 0.49
-5 0 16 0.31 0.37
-5 0 16 -0.19 0.75
5 0 16 -0.29 0.47
5 0 16 -0.02 0.68
5 0 16 0.04 0.42
-5 1 16 11.3 0.98
5 -1 16 9.6 1.15
5 -1 16 9.65 0.91
5 -1 16 10.86 1.01
-5 1 16 10.57 1.14
-5 1 16 14.65 1.53
-5 1 16 7.77 0.94
5 1 16 9.89 0.94
5 1 16 11.62 1.05
-5 -1 16 9.92 0.94
-5 -1 16 10.8 1.04
5 1 16 10.31 1.45
5 1 16 9.12 0.9
-5 -1 16 9.02 1.2
5 -2 16 3.94 0.57
-5 -2 -16 4.98 1.07
-5 2 16 3.32 0.56
-5 2 16 2.55 0.48
5 -2 16 3.41 0.65
5 -2 16 2.84 0.52
-5 2 16 2.58 0.47
5 -2 -16 2.45 0.93
-5 -2 16 2.74 0.54
5 2 16 2.17 0.42
-5 -2 16 3.92 0.74
5 2 16 3.3 0.49
5 -3 16 3.04 0.43
-5 -3 -16 2.91 0.88
-5 3 16 3.66 0.43
5 -3 16 3.41 0.54
5 3 16 3.51 0.45
5 -3 -16 1.82 0.74
5 -3 -16 3.75 0.66
-5 -3 16 3.07 0.55
5 0 17 0.2 0.46
-5 0 17 0.8 0.77
5 0 17 1.36 0.66
-5 0 17 0.06 0.33
-5 0 17 -0.29 0.52
5 0 17 0.09 0.37
5 -1 17 0.31 0.37
-5 1 17 0.3 0.35
-5 1 17 1.02 0.58
5 -1 17 0.17 0.48
-5 1 17 3.15 0.95
5 -1 17 0.5 0.61
-5 1 17 0.54 0.37
5 1 17 1.13 0.87
5 1 17 0.56 0.49
-5 -1 17 -0.66 0.68
5 1 17 0.72 0.34
-5 -1 17 0.35 0.36
-5 -1 17 0 0.47
5 1 17 0.22 0.31
-5 2 17 4.18 0.6
5 -2 17 2.41 0.47
-5 2 17 2.87 0.49
5 -2 17 2.03 0.36
5 -2 17 2.53 0.61
-5 2 17 3.03 0.47
-5 -2 -17 2.79 0.91
5 2 17 2.66 0.44
5 -2 -17 2.38 0.83
-5 -2 17 1.43 0.43
-5 -2 17 2.61 0.61
5 0 18 -0.04 0.39
-5 0 18 0.71 0.76
-5 0 18 0.15 0.32
5 0 18 0.84 0.67
5 0 18 -0.08 0.29
-5 0 18 -0.27 0.49
-5 1 18 1.63 0.34
5 -1 18 0.96 0.42
-5 1 18 3.13 0.48
5 -1 18 1.64 0.56
5 -1 18 2.22 0.35
-5 1 18 1.62 0.37
-5 -1 18 2.55 0.58
-5 -1 18 1.27 0.43
-5 -1 18 2.81 0.39
5 1 18 1.82 0.36
5 1 18 2.32 0.74
5 1 18 1.66 0.31
5 1 18 1.79 0.35
6 0 0 641.57 38.19
-6 0 0 692.53 38.2
6 1 0 139.17 7.88
-6 -1 0 139.62 8.12
6 1 0 131.52 8.06
6 -1 0 142.87 7.9
-6 1 0 127.29 7.9
6 -1 0 142.26 8.11
-6 -2 0 19.28 2.2
6 -2 0 21.11 2.1
6 -2 0 16.62 1.1
-6 -4 0 28.47 2.41
6 -4 0 28.83 2.42
6 -4 0 25.73 1.96
6 -5 0 2.32 1.05
-6 -5 0 3.22 1.13
6 -5 0 4.22 0.65
-6 0 -1 510.38 29.24
-6 0 -1 509.89 29.22
-6 0 1 526.06 29.22
6 0 1 502.53 29.22
6 0 -1 493.59 29.22
-6 0 -1 517.47 29.24
-6 -1 -1 44.96 2.93
6 1 -1 45.5 2.52
6 -1 1 47.53 2.54
6 -1 1 44.38 2.84
-6 -1 -1 42.58 2.53
-6 1 1 40.19 2.54
6 1 -1 36.04 2.73
-6 1 1 38.41 2.86
6 1 1 41.72 2.83
6 1 1 48.8 2.53
6 -1 -1 48.15 2.56
-6 1 -1 40.52 2.54
-6 -1 1 46.26 2.89
-6 -1 1 42.99 2.52
-6 1 -1 37.45 2.82
6 -1 -1 46.48 2.91
-6 -2 -1 56.51 3.91
6 -2 1 54.75 3.72
6 -2 1 50.15 3.14
6 -2 -1 50.99 3.16
-6 -2 1 56.17 3.84
6 -2 -1 57.9 3.85
6 -4 1 14.32 1.35
6 -4 1 13.37 1.85
-6 -4 -1 10.58 1.63
6 -4 -1 11.88 1.65
-6 -4 1 14.91 1.84
6 -4 -1 11.13 1.32
6 -5 1 0.69 0.87
6 -5 1 1.52 0.53
-6 -5 -1 -0.07 1.06
6 -5 -1 1.12 0.58
-6 -5 1 -0.42 0.96
6 -5 -1 1.25 1.01
6 0 -2 199.89 11.38
6 0 2 207.9 11.33
-6 0 -2 182.82 11.33
-6 0 -2 201.03 11.42
-6 0 -2 194.92 11.42
6 0 -2 201.54 11.33
6 0 -2 191.72 11.39
-6 1 2 3.73 0.84
6 1 -2 3.12 0.66
6 1 -2 3.89 0.33
6 -1 2 5.08 0.86
-6 -1 -2 4.6 0.89
6 1 -2 3.65 0.32
6 -1 2 4.87 0.37
-6 1 -2 2.97 0.71
6 1 2 4.62 0.83
-6 -1 2 4.63 0.82
6 -1 -2 5.06 0.91
6 -1 -2 3.43 0.37
6 -1 -2 3.78 0.39
6 1 2 4.86 0.37
-6 1 -2 3.96 0.36
6 -2 2 5.4 1.17
-6 -2 -2 6.02 1.31
6 -2 2 4.39 0.35
6 -2 -2 5.35 1.24
-6 -2 2 5.22 1.21
6 -2 -2 4.95 0.41
6 -4 2 6.63 1.33
6 -4 2 7.08 0.86
-6 -4 -2 7.6 1.42
-6 -4 2 7.27 1.34
6 -4 -2 8.37 1.52
6 -4 -2 7.86 1
-6 -5 -2 2.74 1.08
6 -5 2 3.91 0.95
6 -5 2 3.57 0.6
6 -5 -2 5.22 1.09
6 -5 -2 4.18 0.66
-6 -5 2 2.27 0.99
6 0 -3 8.09 0.61
6 0 -3 11.31 1.09
-6 0 -3 10.17 1.21
-6 0 -3 8.65 0.61
6 0 -3 9.25 0.62
-6 0 -3 8.81 1.02
6 0 3 7.96 0.61
-6 -1 -3 25.77 2.11
-6 1 3 23.06 2.01
6 1 -3 26.12 1.47
6 -1 3 26.29 1.49
6 -1 3 26.41 2.05
-6 -1 -3 21.81 1.48
6 1 -3 21.95 1.47
-6 1 -3 21.38 1.48
6 1 3 27.08 1.5
-6 -1 3 24.79 2.03
6 -1 -3 26.01 2.07
6 -1 -3 26.03 1.52
-6 -2 -3 10.21 1.86
6 -2 3 7.87 0.58
6 -2 3 9.29 1.37
6 2 3 9.03 0.64
6 -2 -3 9.85 0.65
6 -2 -3 9.47 1.79
-6 -2 3 8.28 1.64
-6 -3 -3 16.93 2.07
6 -3 3 14.56 1.26
6 -3 3 16.99 2.31
6 -3 -3 15.4 1.38
6 -4 3 4.26 1.24
-6 -4 -3 2.14 1.29
6 -4 3 3.18 0.68
6 -4 -3 2.98 0.81
-6 -4 3 2.61 1.26
6 -4 -3 3.45 1.27
6 -5 3 3.09 0.55
-6 -5 -3 3.03 1.04
6 -5 3 1.92 0.89
6 -5 -3 3.46 0.66
-6 -5 3 1.67 0.97
6 -5 -3 1.62 1
6 0 -4 9.2 1.16
-6 0 -4 7.9 1.33
6 0 -4 8.71 1.02
-6 0 -4 7.52 1.13
6 0 -4 10.35 0.68
6 0 4 10.92 0.68
6 1 -4 26.69 1.57
-6 -1 -4 26.21 2.24
6 -1 4 26.15 1.58
6 -1 4 26.92 2.2
6 -1 -4 26.96 2.19
6 1 4 25.31 1.59
-6 -1 4 24.81 2.21
6 -1 -4 25.46 1.6
6 -2 4 0.55 0.91
-6 -2 -4 1.51 1.12
-6 -2 4 0.59 1.07
6 -2 -4 0.49 0.24
6 -2 -4 1.36 1.03
6 2 4 0.92 0.24
-6 -3 -4 0.98 1.24
6 -3 4 2.14 0.55
6 -3 4 2.55 1.02
6 -3 -4 1.87 1.21
-6 -3 4 2.59 1.08
6 -3 -4 1.38 0.69
6 -4 4 0.44 0.57
6 -4 4 -0.34 0.98
-6 -4 -4 0.68 1.36
6 -4 -4 1.29 0.79
-6 -4 4 -0.31 1.06
6 -4 -4 1.28 1.28
6 -5 4 2.5 0.51
-6 -5 -4 2.62 1.03
6 -5 4 0.76 0.84
6 -5 -4 1.65 0.65
-6 -5 4 1.76 0.96
6 -5 -4 1.39 0.91
-6 0 -5 82.44 5.13
6 0 -5 80.11 5.02
6 0 5 81.94 4.76
6 1 -5 4.73 0.43
6 -1 5 8.95 1.37
6 -1 5 5.93 0.47
-6 -1 -5 4.85 1.11
-6 -1 5 6.49 1.26
6 -1 -5 6.34 1.03
6 1 5 6.06 0.51
6 -1 -5 5.07 0.51
-6 -2 -5 2.72 1.16
6 -2 5 1.65 1.02
-6 -2 5 2.09 1.17
6 -2 -5 2.24 1.11
6 -2 -5 1.72 0.34
6 2 5 2.27 0.35
6 -3 5 2.85 0.58
-6 -3 -5 3.93 1.37
6 -3 5 2.32 0.93
6 -3 -5 2.91 1.26
-6 -3 5 3.02 1.01
6 -3 -5 1.9 0.79
6 -4 5 14.2 1.69
-6 -4 -5 13.1 1.85
6 -4 5 13.65 1.25
6 -4 -5 16.56 2.17
-6 -4 5 11.82 1.77
6 -4 -5 13.72 1.5
6 -5 5 3.67 0.54
-6 -5 -5 3.83 1.04
6 -5 5 3.02 0.84
-6 -5 5 3.08 0.93
6 -5 -5 2.81 0.68
6 -5 -5 4.99 0.94
6 0 6 3.74 0.42
-6 0 -6 4.07 0.99
6 1 -6 6.14 0.52
-6 -1 -6 7.97 1.37
6 -1 6 6.56 0.54
6 1 -6 6.96 1.14
6 -1 -6 8.08 1.21
6 -1 -6 6.42 0.58
6 1 6 6.54 0.57
-6 1 -6 6.96 1.21
6 -2 6 16.28 2.09
-6 -2 -6 16.37 2.36
6 2 6 16.23 1.15
6 -2 -6 19.76 2.12
-6 -2 6 19.33 2.23
6 -2 -6 15.16 1.14
6 -3 6 2.94 0.56
6 -3 6 3.17 0.5
-6 -3 -6 4.96 1.35
6 -3 6 3.47 0.98
6 -3 -6 4.7 1.38
-6 -3 6 4.04 1.05
6 -4 6 8.42 1.24
-6 -4 -6 7.5 1.62
6 -4 6 8.22 0.98
6 -4 -6 7.58 1.61
-6 -4 6 8.21 1.32
6 -4 -6 7.64 1.08
6 -5 6 2.16 0.43
-6 -5 -6 1.46 0.86
6 -5 6 1.56 0.76
-6 -5 6 0.75 0.87
6 -5 -6 3.99 0.85
6 -5 -6 2.43 0.62
6 0 7 157.83 9.42
6 0 -7 159.06 9.77
-6 0 -7 170.45 9.89
-6 -1 -7 36.68 3.11
6 1 -7 33.05 2.71
6 -1 7 32.96 2.14
6 1 -7 35.39 2.14
6 -1 -7 36.18 2.18
-6 1 -7 38.97 2.93
6 1 7 31.83 2.16
6 -1 -7 38.32 2.82
6 2 7 45.54 2.95
6 -2 -7 45.55 2.88
6 -3 7 6.2 0.68
6 -3 7 6.36 0.72
-6 3 7 5.4 0.83
-6 -3 -7 9.07 1.53
6 -3 7 5.5 1.09
6 3 7 6.06 0.75
-6 -3 7 6.54 1.24
6 -3 -7 6.39 1.37
6 -4 7 0.01 0.91
-6 -4 -7 -1.46 1.37
6 -4 7 0.24 0.5
6 -4 -7 -0.18 1.3
-6 -4 7 -0.16 1.03
6 -4 -7 -0.13 0.91
6 -5 7 2.52 0.4
6 -5 7 2.72 0.68
-6 -5 -7 3.33 0.95
6 -5 -7 2.13 0.79
-6 -5 7 1.62 0.76
6 -5 -7 1.94 0.56
6 0 8 30.05 1.99
-6 0 -8 35.19 2.85
6 0 -8 31.6 2.6
6 -1 8 3.17 0.41
6 1 -8 1.01 0.97
-6 -1 -8 2.64 1.35
6 1 -8 2.97 0.39
6 -1 -8 2.75 0.42
-6 1 -8 3.09 1.23
6 -1 -8 4.16 1.13
6 1 8 3.59 0.45
6 -2 8 13.02 1.02
-6 2 8 11.58 1.13
-6 3 8 4.45 0.79
-6 3 8 5.22 0.8
-6 3 8 5.52 0.86
-6 -3 -8 4.8 1.43
6 -3 8 3.79 0.63
6 -3 8 4.84 0.68
6 -3 8 5.63 1.07
6 -3 -8 8.71 1.5
6 3 8 5.1 0.67
-6 -3 8 6.05 1.17
6 -4 8 4.08 1.07
-6 -4 -8 5.01 1.55
6 -4 8 5.35 0.65
6 -4 -8 5.74 1.08
6 -4 -8 5.25 1.38
-6 -4 8 3.25 1.14
6 -5 8 0.34 0.54
6 -5 8 1.04 0.36
-6 -5 -8 0.68 0.81
-6 -5 8 1.91 0.62
6 -5 -8 2.71 0.69
6 -5 -8 1.78 0.5
6 0 -9 66.27 4.6
-6 0 -9 74 4.81
6 0 9 61.2 3.99
6 -1 9 17.84 1.22
6 1 -9 14.3 2.46
6 1 -9 18.54 1.24
-6 2 9 6.79 1.12
6 -2 9 7.84 0.81
6 -2 9 10.35 1.07
-6 2 9 7.8 0.83
6 -2 9 7.92 0.76
-6 2 9 7.07 0.75
-6 2 9 7.17 0.95
6 2 9 8.16 1.14
-6 -2 9 8.98 0.82
6 2 9 7.2 0.78
-6 -2 9 9.44 1.13
-6 -3 -9 38.16 3.47
-6 3 9 42.38 2.84
-6 3 9 45.51 2.81
-6 3 9 50.06 2.99
6 -3 9 44.82 2.8
6 -3 9 46.59 3.11
6 -3 9 45.21 2.85
-6 -3 9 44.08 3.15
6 3 9 50.22 2.85
6 -3 -9 44.29 3.48
6 -4 9 3.84 0.93
-6 -4 -9 4.49 1.42
6 -4 9 4.21 0.56
-6 -4 9 3.85 1.04
6 -4 -9 2.55 0.99
6 -4 -9 2.57 1.35
6 -1 10 11.17 0.91
6 -1 10 11.06 0.97
-6 1 10 12.16 0.97
-6 1 10 12.65 1.02
6 -1 10 12.45 1.27
-6 1 10 9.83 0.89
6 1 10 10.66 1.31
6 1 10 11.4 0.92
6 -2 10 10.05 0.9
-6 2 10 10.56 0.97
-6 2 10 11.12 0.9
-6 2 10 10.06 1.3
-6 2 10 10.65 1.11
6 -2 10 10.44 1.32
6 -2 10 9.73 0.96
-6 -2 10 11.46 0.92
6 2 10 11.33 1.3
6 2 10 10.49 0.93
-6 -2 10 12.02 1.34
-6 -3 -10 1.55 1.52
6 -3 10 1.24 0.39
-6 3 10 1.95 0.74
-6 3 10 1.4 0.44
-6 3 10 1.5 0.5
6 -3 10 2.05 0.86
6 -3 10 1.89 0.52
6 3 10 1.15 0.43
6 -3 -10 0.95 1.36
-6 -3 10 2.37 0.97
6 -4 10 2.04 0.75
-6 -4 -10 -0.23 1.29
6 -4 10 0.75 0.44
6 -4 -10 0.73 1.21
-6 -4 10 0.61 0.83
6 -4 -10 0.21 0.89
6 0 11 24.88 1.58
-6 0 11 25.16 1.61
6 0 11 24.17 1.59
-6 0 11 24.31 1.78
-6 0 11 23.74 1.64
6 0 11 24.13 1.63
6 0 11 25.14 1.78
-6 0 11 22.32 1.56
-6 1 11 1.01 0.5
-6 1 11 1.06 0.45
-6 1 11 0.95 0.39
6 -1 11 0.29 0.38
6 -1 11 1 0.47
-6 1 11 1.4 0.72
6 -1 11 0.61 0.63
6 1 11 1.2 0.41
6 1 11 0.71 0.37
-6 -1 11 0.55 0.72
6 1 11 0.85 0.71
-6 -1 11 0.65 0.44
-6 -1 11 0.69 0.41
6 1 11 1.63 0.52
6 -2 11 6.88 0.8
6 -2 11 7.4 1.02
-6 2 11 7.55 0.81
-6 2 11 8.57 1.22
6 -2 11 7.64 0.8
-6 2 11 6.59 0.96
-6 2 11 8.53 0.89
6 2 11 6.72 1.19
-6 -2 11 6.51 1.03
-6 -2 11 6.82 0.77
6 2 11 7.76 0.81
6 2 11 8.16 0.91
6 -3 11 8.54 0.87
6 -3 11 7.02 1.04
-6 3 11 9.32 0.9
-6 3 11 9.95 1.02
-6 -3 -11 7.09 1.63
6 -3 11 7.08 0.96
-6 3 11 9.11 0.94
6 3 11 8.48 0.96
6 -3 -11 5.36 1.46
-6 -3 11 8.91 1.2
-6 -3 11 8.31 1.07
-6 -4 -11 -0.23 1.22
6 -4 11 -0.17 0.66
6 -4 11 0.61 0.42
6 -4 -11 -0.13 1.06
-6 -4 11 0.43 0.8
6 -4 -11 -0.07 0.82
6 0 12 0.72 0.41
6 0 12 0.96 0.38
6 0 12 1.1 0.52
-6 0 12 0.56 0.73
-6 0 12 0.36 0.52
-6 0 12 1.08 0.41
-6 0 12 1.54 0.38
6 0 12 1.1 0.68
-6 1 12 4.52 0.84
-6 1 12 2.77 0.62
-6 1 12 3.02 0.5
-6 1 12 2.64 0.55
6 -1 12 2.84 0.8
6 -1 12 3.84 0.63
6 -1 12 2.95 0.51
6 1 12 3.5 0.62
-6 -1 12 2.24 0.58
6 1 12 3.73 0.57
-6 -1 12 3.76 0.85
-6 -1 12 3.22 0.53
6 1 12 3.9 0.63
6 1 12 2.76 0.79
6 -2 12 9.94 1.01
-6 2 12 11.5 1.64
-6 2 12 10.48 0.92
6 -2 12 9.57 1.23
6 -2 12 9.06 1.05
-6 2 12 10.55 1.08
-6 2 12 11.67 1.12
6 2 12 11.12 0.99
-6 -2 12 10.4 1.34
-6 -2 12 10 1.03
6 2 12 10.71 1.31
6 2 12 9.81 1.08
6 -3 12 2.14 0.75
6 -3 12 1.15 0.43
-6 -3 -12 0.96 1.35
6 -3 12 2 0.5
-6 3 12 2.41 0.51
-6 3 12 2.56 0.69
-6 3 12 2.26 0.5
-6 -3 12 1.25 0.86
6 -3 -12 2.12 1.28
-6 -3 12 2.87 0.52
6 -4 12 4.26 0.49
-6 -4 -12 3.91 1.17
6 -4 12 2.87 0.63
6 -4 -12 3.53 0.82
6 -4 -12 1.6 0.98
-6 -4 12 3.63 0.71
6 0 13 1.52 0.58
6 0 13 1.58 0.5
-6 0 13 1.79 0.48
6 0 13 1.36 0.4
-6 0 13 1.14 0.41
-6 0 13 -0.18 0.8
6 0 13 1.21 0.79
-6 0 13 1.39 0.58
6 -1 13 15.1 1.38
6 -1 13 13.98 1.2
6 -1 13 13.66 1.18
-6 1 13 14.57 1.12
-6 1 13 13.5 1.24
-6 1 13 14.42 1.55
6 1 13 14.01 1.2
6 1 13 16.31 1.16
6 1 13 15.45 1.23
-6 -1 13 14.83 1.32
6 1 13 14.51 1.41
-6 -1 13 16.31 1.45
-6 -1 13 12.6 1.18
6 -2 13 2.02 0.75
6 -2 13 2.58 0.56
6 -2 13 2.5 0.52
-6 2 13 2.86 0.65
6 2 13 1.34 0.59
6 2 13 1.85 0.99
6 2 13 2.52 0.51
-6 -2 13 1.86 0.55
-6 -2 13 1.57 0.87
6 -3 13 1.05 0.39
-6 3 13 1.73 0.64
-6 -3 -13 0.81 1.25
6 -3 13 1.15 0.64
6 -3 13 0.96 0.44
-6 3 13 1.15 0.42
-6 3 13 1.18 0.42
-6 -3 13 1.35 0.44
-6 -3 13 0.66 0.8
6 -3 -13 1.14 1.19
6 3 13 0.94 0.43
6 -4 13 0.63 0.51
-6 -4 -13 -1.6 0.88
6 -4 13 0.94 0.35
6 -4 -13 0.24 0.7
-6 -4 13 0.44 0.54
6 -4 -13 0.49 0.57
6 0 14 10.79 1.1
-6 0 14 12.78 0.94
-6 0 14 10.43 1.07
6 0 14 10.88 1.32
6 0 14 9.04 1.02
-6 0 14 9.39 1.35
6 0 14 11.79 0.92
-6 0 14 9.42 1.03
-6 1 14 7.75 0.89
6 -1 14 6.59 0.91
6 -1 14 7.42 0.92
-6 1 14 9.03 1.17
6 -1 14 7.66 1.09
-6 1 14 8.73 0.88
-6 1 14 6.59 0.86
6 1 14 8.25 0.96
6 1 14 7 1.02
-6 -1 14 6.73 0.94
6 1 14 8.35 0.84
-6 -1 14 7.82 0.85
6 1 14 6.84 0.84
-6 -1 14 5.9 0.78
6 -2 14 0.19 0.42
6 -2 14 0.3 0.49
6 -2 14 0.11 0.65
-6 2 14 0.81 0.42
-6 2 14 0.98 0.48
-6 2 14 0.88 0.56
6 2 14 0.18 0.48
6 2 14 -0.47 0.9
-6 -2 14 0.99 0.54
6 2 14 0.29 0.41
-6 -2 14 0.14 0.74
6 -3 14 14.45 1.33
-6 3 14 15.73 1.14
6 -3 14 15.91 1.17
-6 3 14 17.27 1.15
-6 -3 -14 12.12 1.6
6 -3 14 13.84 1.1
6 3 14 18.31 1.23
6 -3 -14 12.15 1.71
-6 -3 14 14.91 1.4
6 0 15 16.48 1.4
-6 0 15 15.69 1.46
-6 0 15 18.62 1.29
-6 0 15 15.86 1.55
-6 0 15 16.86 1.3
6 0 15 16.62 1.32
6 0 15 16.81 1.54
6 0 15 16.64 1.25
-6 1 15 1.83 0.65
-6 1 15 3.5 1.07
-6 1 15 2.07 0.53
6 -1 15 1.41 0.52
6 -1 15 2.2 0.57
6 -1 15 1.04 0.7
-6 1 15 2.25 0.52
6 1 15 1.8 0.45
-6 -1 15 2.57 0.53
6 1 15 1.35 0.44
-6 -1 15 1.5 0.79
-6 -1 15 1.57 0.59
6 1 15 0.85 0.86
6 1 15 2.09 0.52
-6 2 15 2.15 0.58
6 -2 15 2.38 0.5
6 -2 15 2.36 0.66
6 -2 15 1.94 0.48
-6 2 15 1.64 0.47
-6 2 15 1.58 0.46
6 -2 -15 2 0.94
-6 -2 15 1.23 0.73
6 2 15 1.94 0.48
-6 -2 15 1.8 0.53
6 2 15 0.97 0.47
-6 -3 -15 1.8 1.07
6 -3 15 3.24 0.6
-6 3 15 3.22 0.51
6 -3 15 1.73 0.32
6 -3 15 2.48 0.44
-6 -3 15 1.88 0.6
6 -3 -15 1.84 0.89
6 -3 -15 2.93 0.8
6 3 15 2.63 0.46
-6 0 16 16.46 1.29
-6 0 16 15.46 1.31
6 0 16 20.35 1.37
-6 0 16 17.17 1.44
6 0 16 19.32 1.52
-6 0 16 18.74 1.53
6 -1 16 6.07 0.72
6 -1 16 6.61 0.87
6 -1 16 6.65 0.74
-6 1 16 5.83 0.83
-6 1 16 6.25 0.8
-6 1 16 6.8 0.79
6 1 16 5.58 0.71
-6 -1 16 5.9 0.75
-6 -1 16 7 0.92
6 1 16 9.12 1.1
6 1 16 7.7 0.8
6 1 16 7.26 0.77
6 -2 16 0.45 0.43
6 -2 16 0.01 0.57
-6 2 16 0.41 0.48
-6 2 16 0.41 0.37
-6 -2 -16 1.6 0.98
-6 2 16 0.21 0.34
6 -2 16 0.55 0.34
-6 -2 16 0.79 0.42
6 2 16 0.43 0.36
6 -2 -16 -0.01 0.88
-6 -2 16 -0.76 0.65
-6 0 17 3.69 0.86
6 0 17 3.77 0.71
6 0 17 2.78 0.53
-6 0 17 2.56 0.6
-6 0 17 3.69 0.53
6 0 17 2.81 0.47
6 -1 17 1.18 0.6
-6 1 17 2.42 0.92
-6 1 17 0.89 0.38
6 -1 17 0.7 0.38
6 -1 17 0.16 0.47
-6 1 17 1.41 0.41
-6 1 17 1.69 0.52
-6 -1 17 0.93 0.36
-6 -1 17 0.56 0.49
6 1 17 1.09 0.37
6 1 17 0.78 0.34
-6 -1 17 0.35 0.67
6 1 17 1.47 0.87
6 1 17 0.89 0.48
6 -2 17 1.59 0.34
-6 2 17 1.56 0.33
-6 2 17 2.73 0.54
6 -2 17 1.78 0.56
6 -2 17 2.08 0.44
-6 2 17 1.93 0.37
-6 -2 -17 3.62 0.92
-6 -2 17 1.84 0.57
6 2 17 1.86 0.32
6 -2 -17 2.07 0.76
-6 -2 17 1.22 0.39
-6 0 18 13.94 1.17
6 0 18 14.64 1.26
6 0 18 13.23 1.02
-6 0 18 16.92 1.37
-6 0 18 14.74 1.06
6 0 18 14.84 1.09
6 -1 18 12.93 0.89
-6 1 18 11.3 0.89
-6 1 18 13.06 0.93
6 -1 18 12.7 0.94
-6 1 18 14.53 1
6 -1 18 12.67 1.03
-6 -1 18 12.34 0.98
6 1 18 13.67 1.22
6 1 18 10.64 0.86
-6 -1 18 12.95 1.04
6 1 18 10.8 0.87
6 1 18 11.78 0.89
-6 -1 18 10.94 0.89
7 0 0 0.55 0.18
-7 0 0 0.3 0.17
7 -1 0 7.04 0.51
7 -1 0 7.92 1.19
-7 1 0 5.74 0.5
-7 -1 0 6.03 0.46
7 1 0 7.03 0.46
-7 -1 0 6.93 1.28
-7 -2 0 21.43 2.16
7 -2 0 16.21 1.11
7 -2 0 20.24 2.08
7 -4 0 3.1 1.13
-7 -4 0 3.13 1.2
7 -4 0 2.55 0.74
7 -5 0 4.25 1.02
-7 -5 0 2.29 1.09
7 -5 0 4.05 0.64
7 0 -1 -0.05 0.17
-7 0 -1 -0.08 0.3
7 0 1 0.14 0.16
-7 0 -1 -0.66 0.41
-7 0 -1 0.11 0.16
-7 0 1 -0.13 0.16
7 -1 1 51.83 2.89
7 -1 1 51.41 3.18
7 1 -1 41.93 3.07
-7 -1 -1 51.34 3.24
7 1 -1 52.48 2.87
7 1 1 51.59 2.88
7 -1 -1 49.28 2.89
-7 1 -1 42.97 2.89
7 1 1 50.13 3.2
7 -1 -1 50.92 3.22
-7 -1 1 51.28 3.17
-7 -1 1 46.34 2.86
7 -2 1 15.2 1.03
-7 -2 -1 19.77 2.17
7 -2 1 15.66 1.86
-7 -2 1 16.93 2.02
7 -2 -1 18.17 2.15
7 -2 -1 17.56 1.06
7 -4 1 1.37 0.71
7 -4 1 0.85 1.13
-7 -4 -1 2.18 1.27
7 -4 -1 1.81 0.77
7 -4 -1 1.3 1.24
-7 -4 1 3.2 1.17
-7 -5 -1 1.17 1.07
7 -5 1 3.97 0.59
7 -5 1 3.54 0.91
7 -5 -1 3.14 1.05
-7 -5 1 1.61 0.99
7 -5 -1 2.63 0.62
-7 0 -2 -0.01 0.53
7 0 -2 -0.01 0.41
7 0 2 0.08 0.17
-7 0 2 -0.17 0.16
7 0 -2 -0.14 0.17
-7 0 -2 0.28 0.41
-7 0 -2 0.08 0.15
7 1 -2 19.73 1.15
7 1 -2 18.01 1.15
-7 -1 -2 16.68 1.15
-7 -1 -2 21.21 1.81
7 1 -2 15.25 1.47
7 -1 2 20.55 1.18
7 -1 2 20.59 1.7
-7 1 -2 17.47 1.17
-7 1 -2 16.22 1.58
7 -1 -2 20.02 1.19
7 1 2 20.48 1.17
-7 -1 2 19.68 1.65
7 -1 -2 20.68 1.72
7 1 2 19.19 1.71
7 -2 2 41.58 2.81
7 -2 2 42.98 3.38
-7 -2 -2 54.71 3.66
7 -2 -2 54.04 3.54
-7 -2 2 46.78 3.49
7 -2 -2 50.56 2.85
7 -3 2 2.95 0.67
7 -3 -2 2.77 0.73
7 -4 2 1.47 1.15
7 -4 2 2.77 0.68
-7 -4 -2 1.12 1.23
7 -4 -2 1.63 0.79
-7 -4 2 1.32 1.19
7 -4 -2 1.3 1.3
-7 -5 -2 8.22 1.26
7 -5 2 8.92 1.11
7 -5 2 10.73 0.96
7 -5 -2 8.42 1.21
7 -5 -2 9.87 1.07
-7 -5 2 7.59 1.17
7 0 -3 0.02 0.16
7 0 -3 0.82 0.54
7 0 -3 -0.05 0.19
7 0 3 0.06 0.18
-7 0 -3 0 0.62
-7 -1 -3 3.83 0.96
7 1 -3 2.97 0.3
7 -1 3 3.59 0.89
-7 1 3 2.37 0.81
7 1 -3 1.87 0.63
7 1 -3 3.21 0.31
7 -1 3 2.84 0.35
7 1 3 3.07 0.35
7 -1 -3 3.9 0.39
-7 -1 3 2.35 0.88
7 -1 -3 4.61 0.91
7 -2 3 60.27 4.02
-7 -2 -3 59.51 4.11
7 -2 3 53.91 3.39
7 -2 -3 56.15 3.43
7 -2 -3 58.37 4.08
-7 -2 3 61.51 4.05
7 -3 3 3.45 0.64
7 -3 3 3.6 1.07
-7 -3 -3 7.64 1.36
7 -3 -3 4.53 0.75
-7 -3 3 3.9 1.21
7 -4 3 4.94 1.23
7 -4 3 4.55 0.74
-7 -4 -3 3.14 1.36
7 -4 -3 5.32 1.32
7 -4 -3 4.53 0.85
-7 -4 3 3.18 1.27
7 -5 3 1.61 0.5
-7 -5 -3 2.21 1.01
7 -5 3 0.23 0.85
-7 -5 3 0.32 0.95
7 -5 -3 1.71 0.62
7 -5 -3 1.65 0.96
-7 0 -4 0.39 0.53
7 0 -4 0.85 0.51
7 0 -4 -0.31 0.58
-7 0 -4 0.47 0.71
7 0 4 -0.08 0.19
7 0 -4 -0.02 0.2
-7 -1 -4 12.75 1.69
7 -1 4 9.24 0.7
7 1 -4 8.99 0.66
7 1 -4 10.64 0.67
7 -1 4 8.58 1.53
7 1 4 9.4 0.7
7 -1 -4 11.5 0.75
-7 -1 4 9.41 1.54
7 -1 -4 10.93 1.51
-7 -2 -4 38.11 3.03
7 -2 4 40.13 2.92
7 -2 4 32.51 2.26
-7 -2 4 41.54 2.99
7 -2 -4 37.51 2.23
7 2 4 33.65 2.28
7 -2 -4 34.23 2.95
7 -3 4 -0.07 0.46
7 -3 4 -1.56 0.93
-7 -3 -4 0.46 1.22
7 -3 4 0.51 0.48
-7 -3 4 -0.51 1.04
7 -3 -4 0.76 0.6
7 -3 -4 -0.12 1.16
7 -4 4 -0.04 0.99
-7 -4 -4 1.17 1.38
7 -4 4 0.14 0.58
7 -4 -4 1.84 1.25
7 -4 -4 0.73 0.78
-7 -4 4 0.96 1.08
-7 -5 -4 2.06 0.97
7 -5 4 0.39 0.81
7 -5 4 0.37 0.45
7 -5 -4 -0.3 0.6
-7 -5 4 -0.39 0.91
7 -5 -4 1.76 0.88
-7 0 -5 0.22 0.76
7 0 -5 0.09 0.21
7 0 -5 -0.76 0.62
7 0 5 0.21 0.21
7 1 -5 14.38 0.95
7 -1 5 15.77 0.98
-7 -1 -5 13.9 1.9
7 1 5 14.91 0.98
7 -1 -5 14.29 1.74
7 -1 -5 13.83 0.99
-7 -2 -5 22.68 2.33
7 -2 5 19.21 2.17
7 -2 -5 19.61 1.33
-7 -2 5 20.45 2.32
7 -2 -5 20.96 2.21
7 -3 5 7.14 0.9
-7 -3 -5 8.82 1.53
7 -3 5 8.97 1.14
7 -3 5 7.17 0.82
7 -3 -5 8.19 1.02
7 -3 -5 10.38 1.57
-7 -3 5 9.14 1.22
7 -4 5 3.85 0.67
-7 -4 -5 3.62 1.47
7 -4 5 4.64 1.06
7 -4 -5 4.62 0.97
-7 -4 5 3.64 1.17
7 -4 -5 6.35 1.36
-7 -5 -5 4.3 0.99
7 -5 5 1.99 0.81
7 -5 5 2.23 0.49
7 -5 -5 1.67 0.86
7 -5 -5 2.28 0.66
-7 -5 5 1.84 0.89
7 0 6 0.01 0.21
-7 0 -6 -0.34 0.82
7 0 -6 0.13 0.21
-7 -1 -6 1.42 1.05
7 1 -6 1.37 0.25
7 1 -6 0.16 0.73
7 -1 6 2.29 0.31
7 -1 -6 1.61 0.84
7 1 6 2.07 0.33
-7 1 -6 1.4 0.86
7 -1 -6 1.43 0.31
-7 -2 -6 20.26 2.39
7 -2 6 16.61 2.11
-7 -2 6 17.49 2.23
7 -2 -6 17.05 2.2
7 -2 -6 16.36 1.18
7 -3 6 17.51 1.37
7 -3 6 17.69 1.32
7 -3 6 17.67 1.82
-7 3 6 18.48 1.36
-7 -3 -6 19.83 2.26
-7 -3 6 20.21 1.78
7 -3 -6 20.66 2.13
7 -4 6 4.95 0.66
7 -4 6 3.88 1.06
-7 -4 -6 2.02 1.51
7 -4 -6 4.23 1
7 -4 -6 4.27 1.48
-7 -4 6 2.67 1.15
7 -5 6 5.99 0.63
7 -5 6 4.82 0.8
-7 -5 -6 3.82 0.98
-7 -5 6 3.84 0.89
7 -5 -6 3.98 0.87
7 -5 -6 4.77 0.71
7 0 7 0.02 0.22
7 0 -7 0 0.22
-7 0 -7 0.63 0.97
7 -1 7 24.25 1.56
7 1 -7 24.68 1.55
-7 -1 -7 26.44 2.56
7 1 -7 23.28 2.2
-7 1 -7 25.02 2.37
7 -1 -7 24.85 2.25
7 -1 -7 24.54 1.59
7 1 7 24.65 1.58
-7 3 7 3.77 0.62
7 -3 7 5.58 0.66
-7 -3 -7 6.04 1.45
7 -3 7 5.11 0.67
7 -3 7 5.2 1.05
7 -3 -7 6.17 1.46
-7 -3 7 6.82 1.21
7 3 7 4.81 0.7
7 -4 7 3 0.98
7 -4 7 2.67 0.59
-7 -4 -7 0.66 1.43
7 -4 -7 2.78 0.98
-7 -4 7 4.18 1.13
7 -4 -7 2.46 1.38
7 -5 7 2.74 0.41
-7 -5 -7 1.89 0.86
7 -5 7 1.61 0.63
-7 -5 7 1.88 0.69
7 -5 -7 2.11 0.55
7 -5 -7 2.91 0.72
7 0 -8 -0.06 0.24
7 0 8 0.07 0.2
7 0 -8 -1.06 0.77
-7 0 -8 0.36 0.99
7 -1 8 14.78 1.09
7 1 -8 12.45 1.83
-7 -1 -8 18.79 2.34
7 1 -8 17.78 1.11
7 -1 -8 19.36 2.03
7 -1 -8 16.88 1.15
-7 1 -8 19.14 2.24
7 1 8 13.56 1.11
-7 2 8 11.7 1.11
7 -2 8 15.06 1.03
7 -2 8 16.65 1.62
-7 2 8 15.4 1.35
7 -2 8 12.83 1.06
7 2 8 13.05 1.52
7 2 8 11.54 1.03
-7 -3 -8 14.96 2.13
-7 3 8 13.21 1.31
7 -3 8 11.96 1.62
7 -3 8 12.74 1.19
-7 3 8 11.46 1.16
7 -3 8 12.31 1.02
7 3 8 13.36 1.04
-7 -3 8 14.42 1.78
7 -3 -8 17.99 1.83
-7 -4 -8 2.4 1.4
7 -4 8 1.54 0.5
7 -4 8 2.18 0.93
7 -4 -8 0.23 1.29
7 -4 -8 0.59 0.94
-7 -4 8 0.64 1.02
7 -5 8 1.97 0.37
-7 -5 -8 2.31 0.77
7 -5 8 1.71 0.52
7 -5 -8 3.45 0.53
7 -5 -8 2.29 0.63
-7 -5 8 2.47 0.62
7 0 -9 0.2 0.27
7 0 -9 -0.51 0.86
-7 0 -9 0.37 1.18
-7 2 9 15.8 1.26
7 -2 9 17.17 1.47
7 -2 9 16.21 1.14
-7 2 9 14 1.12
-7 2 9 14.82 1.64
7 -2 9 15.13 1.17
-7 2 9 17.03 1.21
7 2 9 15.64 1.16
-7 -2 9 17.42 1.53
7 2 9 14.51 1.67
-7 -2 9 14.74 1.13
7 -3 9 2.01 0.86
7 -3 9 1.4 0.4
-7 3 9 0.99 0.51
7 -3 9 1.4 0.54
-7 3 9 1.09 0.41
-7 3 9 2.1 0.71
-7 -3 -9 1.59 1.39
7 3 9 1.51 0.44
-7 -3 9 1.27 0.97
7 -3 -9 3.35 1.33
7 -4 9 2.43 0.85
7 -4 9 2.85 0.51
-7 -4 -9 2.54 1.4
7 -4 -9 2.37 1.31
-7 -4 9 2.12 0.97
7 -4 -9 2.12 0.97
7 -1 10 0.79 0.39
7 -1 10 0.38 0.44
-7 1 10 0.69 0.36
-7 1 10 0.98 0.42
-7 1 10 0.83 0.46
7 -1 10 1.51 0.62
7 1 10 0.45 0.34
7 1 10 1.11 0.69
7 -2 10 5.49 0.66
-7 2 10 5.71 0.83
7 -2 10 6.35 0.72
-7 2 10 5.77 0.76
7 -2 10 6.69 0.9
-7 2 10 5.1 1.09
-7 -2 10 6.99 1.01
7 2 10 5.72 1.09
-7 -2 10 5.9 0.68
7 2 10 4.51 0.73
7 -3 10 7.9 1.09
-7 3 10 9.29 0.94
7 -3 10 7.04 0.87
-7 3 10 7.58 0.85
-7 3 10 6.96 0.91
7 -3 10 8.01 0.81
-7 -3 -10 7.34 1.58
7 -3 -10 7.63 1.49
-7 -3 10 8.29 1.17
7 3 10 8.13 0.89
7 -4 10 1.47 0.7
7 -4 10 0.92 0.44
-7 -4 -10 1.12 1.31
7 -4 -10 -0.21 0.89
7 -4 -10 0.46 1.17
-7 -4 10 0.96 0.84
7 0 11 0.6 0.47
-7 0 11 0.3 0.33
-7 0 11 0.87 0.63
-7 0 11 -0.19 0.46
7 0 11 0.84 0.59
-7 0 11 0.19 0.35
7 0 11 0.27 0.35
7 0 11 0.08 0.31
7 -1 11 12.2 1.02
7 -1 11 12.85 1.24
-7 1 11 12.09 1.27
-7 1 11 12.89 1.08
-7 1 11 11.84 0.97
-7 1 11 12.24 1.05
7 -1 11 12.18 0.99
7 1 11 12.69 1.31
-7 -1 11 12.04 1.32
7 1 11 12.27 1
7 1 11 12.11 1.04
-7 -1 11 11.58 1.01
7 1 11 12.9 1.01
-7 -1 11 11.13 1.01
-7 2 11 7.97 1.01
7 -2 11 6.59 0.75
-7 2 11 6.29 0.74
-7 2 11 7.69 0.87
-7 2 11 6.84 1.22
7 -2 11 8.3 0.79
7 -2 11 6.58 0.94
7 2 11 5.81 1.16
-7 -2 11 6.23 0.83
7 2 11 6.68 0.8
-7 -2 11 6.59 1.02
7 -3 11 8.14 0.83
-7 3 11 8.87 0.95
-7 3 11 9.49 1.22
7 -3 11 8.34 0.95
7 -3 11 7.42 1.03
-7 -3 -11 9.36 1.62
-7 3 11 8.79 0.9
7 3 11 8.05 0.85
-7 -3 11 8.43 1.2
7 -3 -11 8.12 1.55
7 -4 11 0.82 0.43
7 -4 11 0.9 0.64
-7 -4 -11 2.06 1.22
-7 -4 11 0.53 0.78
7 -4 -11 1.27 1.07
7 -4 -11 0.93 0.84
7 0 12 -0.06 0.36
7 0 12 -0.22 0.33
-7 0 12 -0.29 0.71
-7 0 12 0.04 0.48
7 0 12 0.3 0.51
-7 0 12 -0.11 0.32
7 0 12 0.31 0.65
-7 0 12 -0.09 0.39
-7 1 12 13.1 1.15
-7 1 12 13.55 1.4
-7 1 12 11.19 1.13
7 -1 12 12.18 1.34
7 -1 12 12.92 1.11
7 -1 12 11.76 1.09
-7 1 12 14.4 1.04
-7 -1 12 12.48 1.08
-7 -1 12 13.3 1.34
-7 -1 12 11.8 1.15
7 1 12 13.23 1.17
7 1 12 14.46 1.06
7 1 12 11.79 1.35
7 1 12 11.88 1.1
-7 2 12 57.81 3.37
-7 2 12 51.04 3.31
7 -2 12 53.47 3.34
7 -2 12 56.35 3.34
-7 2 12 51.51 3.35
7 -2 12 54.04 3.44
7 2 12 54.35 3.34
-7 -2 12 53.14 3.32
7 2 12 57.29 3.64
-7 -2 12 54.78 3.47
7 -3 12 9.84 0.98
7 -3 12 13.08 1.01
7 -3 12 11.46 1.27
-7 3 12 13.89 1.32
-7 -3 -12 10.36 1.65
-7 3 12 11.87 1.05
-7 3 12 11.21 1.02
7 -3 -12 9.75 1.52
7 3 12 12.87 1.04
-7 -3 12 12.27 1.35
7 -4 12 2.07 0.57
-7 -4 -12 1.67 1.1
7 -4 12 1.66 0.41
7 -4 -12 0.87 0.86
-7 -4 12 1.09 0.65
7 -4 -12 1.26 0.74
-7 0 13 -0.01 0.43
-7 0 13 0.03 0.37
7 0 13 0.37 0.73
7 0 13 -0.07 0.32
7 0 13 -0.5 0.53
-7 0 13 -0.7 0.75
7 0 13 -0.08 0.42
-7 0 13 -0.6 0.53
-7 1 13 0.42 0.39
-7 1 13 0.7 0.9
-7 1 13 0.63 0.58
7 -1 13 0.07 0.42
7 -1 13 -0.16 0.53
-7 1 13 0.53 0.44
7 -1 13 0.17 0.65
-7 -1 13 0.32 0.41
7 1 13 0.49 0.42
7 1 13 0.29 0.42
7 1 13 1.15 0.75
7 1 13 0.78 0.54
-7 -1 13 0.8 0.7
-7 -1 13 0.14 0.54
7 -2 13 18.54 1.43
7 -2 13 18.8 1.63
-7 2 13 19.81 1.61
-7 2 13 20.77 1.41
7 -2 13 17.94 1.45
-7 2 13 18.52 1.5
7 2 13 21.93 1.46
-7 -2 13 19.05 1.44
7 2 13 19.96 1.88
-7 -2 13 18.75 1.69
-7 -3 -13 6.62 1.41
-7 3 13 6.79 0.83
-7 3 13 6.87 0.77
-7 3 13 7.63 0.76
7 -3 13 7.29 1.03
7 -3 13 7.04 0.73
7 -3 13 6.68 0.79
7 3 13 6.94 0.73
7 -3 -13 8.26 1.29
-7 -3 13 7.67 1.01
7 -4 13 1.27 0.36
7 -4 13 0.82 0.49
-7 -4 -13 1.07 0.87
7 -4 -13 2.6 0.6
-7 -4 13 1.3 0.8
7 -4 -13 0.16 0.62
7 0 14 0.4 0.56
-7 0 14 -0.72 0.76
-7 0 14 0.06 0.43
7 0 14 0.18 0.35
-7 0 14 0.19 0.37
-7 0 14 -1.46 0.53
7 0 14 0.14 0.45
7 0 14 0.19 0.7
-7 1 14 5.42 0.78
7 -1 14 4.42 0.65
7 -1 14 5.17 0.67
-7 1 14 4.98 0.78
-7 1 14 6.19 0.77
7 -1 14 4.79 0.77
-7 1 14 5.56 1.09
-7 -1 14 4.94 0.77
7 1 14 5.21 0.76
7 1 14 5.76 0.8
-7 -1 14 5.64 0.9
-7 -1 14 4.08 0.72
7 1 14 5.51 0.95
7 1 14 7.05 0.9
7 -2 14 17.17 1.36
7 -2 14 17.8 1.5
-7 2 14 17.26 1.4
7 -2 14 21.63 1.39
-7 2 14 18.01 1.51
-7 2 14 17.99 1.33
-7 -2 14 17.06 1.55
7 2 14 16.2 1.69
-7 -2 14 18.87 1.42
7 -3 14 2.18 0.4
-7 3 14 1.85 0.4
-7 -3 -14 2.32 1.19
7 -3 14 0.47 0.61
-7 3 14 2.7 0.43
7 -3 14 1.15 0.46
7 3 14 2.35 0.45
-7 -3 14 0.35 0.69
7 -3 -14 0.61 1.03
-7 0 15 0.25 0.36
7 0 15 0.07 0.42
7 0 15 -0.21 0.33
-7 0 15 0.14 0.78
7 0 15 -0.38 0.54
-7 0 15 0.13 0.44
7 0 15 0.76 0.7
-7 0 15 -0.28 0.51
7 -1 15 11.08 1.19
7 -1 15 9.11 1.04
-7 1 15 12.11 1.23
7 -1 15 12.47 1.06
-7 1 15 15.47 1.61
-7 1 15 10.69 1.03
-7 1 15 8.12 1.03
7 1 15 13.21 0.98
-7 -1 15 11.81 1.1
-7 -1 15 8.09 1.06
-7 -1 15 9.91 1.29
7 1 15 12.71 0.97
7 1 15 10.96 1.41
7 1 15 11.88 1.06
7 -2 15 3.83 0.57
7 -2 15 4.38 0.69
-7 2 15 4.22 0.68
-7 2 15 5.55 0.65
7 -2 15 5 0.56
-7 -2 15 3.52 0.77
7 -2 -15 2.1 0.97
7 2 15 2.98 0.52
-7 -2 15 3.48 0.59
7 -3 15 1.55 0.41
-7 -3 -15 2.04 1.03
7 -3 15 1.42 0.3
7 -3 15 1.88 0.54
-7 3 15 2.48 0.4
-7 -3 15 1.37 0.57
7 -3 -15 2.84 0.8
7 3 15 2.13 0.37
7 -3 -15 0.3 0.83
7 0 16 0.18 0.48
-7 0 16 0.03 0.34
7 0 16 0.11 0.4
-7 0 16 -0.67 0.48
-7 0 16 0.35 0.38
-7 0 16 1.47 0.71
7 0 16 1.2 0.72
-7 1 16 2.23 0.5
-7 1 16 5.75 1.08
7 -1 16 3.39 0.52
7 -1 16 2.72 0.72
-7 1 16 3.33 0.52
7 -1 16 2.75 0.55
-7 1 16 2.45 0.6
-7 -1 16 3.02 0.77
-7 -1 16 2.67 0.51
7 1 16 3.11 0.92
-7 -1 16 1.27 0.58
7 1 16 3.1 0.55
7 1 16 2.29 0.47
7 1 16 3.44 0.52
-7 -2 -16 3.34 1.01
-7 2 16 1.35 0.55
7 -2 16 1.06 0.45
7 -2 16 1.4 0.56
-7 2 16 1.13 0.38
7 -2 16 1.32 0.37
-7 2 16 1.2 0.38
7 -2 -16 0.12 0.86
-7 -2 16 0.44 0.41
-7 -2 16 0.54 0.66
7 2 16 1.02 0.4
-7 0 17 -0.31 0.51
7 0 17 0.14 0.45
7 0 17 0.52 0.61
7 0 17 0.19 0.36
-7 0 17 -0.68 0.76
-7 0 17 0 0.38
7 -1 17 8.89 1.02
-7 1 17 7.68 0.82
7 -1 17 9.96 0.83
-7 1 17 10.19 0.89
-7 1 17 10.95 1.03
-7 1 17 12.59 1.27
7 -1 17 10.05 0.92
-7 -1 17 7.76 1.06
7 1 17 9.7 0.8
-7 -1 17 10.04 0.86
7 1 17 10.3 0.9
7 1 17 11.65 1.29
-7 -1 17 8.66 0.92
7 -2 17 1.05 0.31
-7 2 17 2.89 0.56
-7 2 17 1.74 0.35
7 -2 17 1.27 0.5
7 -2 17 1.28 0.41
-7 -2 -17 1.84 0.88
-7 2 17 1.07 0.3
-7 -2 17 1.27 0.35
7 2 17 1.11 0.28
-7 -2 17 1.87 0.55
7 -2 -17 1.19 0.69
-7 0 18 0.11 0.49
-7 0 18 0.72 0.75
7 0 18 0.61 0.39
7 0 18 0.02 0.29
-7 0 18 0.06 0.3
7 0 18 1.06 0.6
7 -1 18 0.46 0.46
7 -1 18 -0.23 0.35
7 -1 18 0.29 0.28
-7 1 18 1.49 0.43
-7 1 18 -0.14 0.28
-7 1 18 0.22 0.3
7 1 18 0.06 0.64
-7 -1 18 -0.51 0.38
7 -1 -18 0.26 0.55
7 1 18 -0.04 0.24
7 1 18 -0.14 0.26
-7 -1 18 0.3 0.55
7 1 18 0.13 0.31
-7 -1 18 0.05 0.27
8 0 0 312.07 17.63
-8 0 0 302.12 17.63
-8 -1 0 2.52 0.78
8 -1 0 3.26 0.37
-8 -1 0 2.42 0.3
-8 1 0 2.2 0.63
8 -1 0 3.3 0.72
8 1 0 2.48 0.3
8 -2 0 23.4 2.2
8 -2 0 21.47 1.37
-8 -2 0 23 2.3
8 -3 0 39.51 2.54
-8 -4 0 22.37 2.24
8 -4 0 25.8 1.87
8 -4 0 25.83 2.27
8 -5 0 15.08 1.45
8 -5 0 12.14 1.16
-8 -5 0 10.78 1.37
8 0 1 9.78 0.73
-8 0 -1 11.56 0.73
8 0 -1 11.34 0.74
-8 1 1 73.94 4.83
8 -1 1 81.02 4.86
8 -1 1 85.73 4.65
-8 -1 -1 77.76 4.89
8 1 -1 82.43 4.63
-8 -1 1 70.94 4.62
8 -1 -1 79.07 4.65
8 -1 -1 78.75 4.87
-8 -1 1 80.56 4.83
8 1 1 88.02 4.64
8 1 1 79.75 4.89
8 -2 1 2.22 0.27
8 -2 1 2.72 0.96
-8 -2 -1 2.23 1.18
-8 -2 1 3.14 1.08
8 -2 -1 2.51 1.07
8 -2 -1 2.2 0.3
8 -3 1 18.17 1.39
8 -3 -1 16.94 1.42
-8 -4 -1 -0.6 1.23
8 -4 1 0.33 1.09
8 -4 1 0.47 0.7
8 -4 -1 1.77 0.77
-8 -4 1 0.8 1.13
8 -4 -1 1.51 1.22
-8 -5 -1 4.73 1.17
8 -5 1 6.24 1
8 -5 1 8.94 0.89
-8 -5 1 5.14 1.08
8 -5 -1 5.91 1.04
8 -5 -1 7.54 0.96
8 0 -2 31.11 1.75
-8 0 -2 26.8 1.74
8 0 2 29.35 1.75
8 0 -2 28.8 1.83
-8 0 -2 31.26 1.97
8 0 -2 31.63 1.85
-8 0 -2 29.25 1.9
-8 0 2 24.13 1.73
8 1 -2 20.75 1.22
8 -1 2 17.22 1.69
-8 -1 -2 18.18 1.23
-8 -1 -2 23.01 1.84
8 -1 2 19.33 1.24
8 1 2 19.2 1.76
8 -1 -2 21.38 1.74
8 1 2 20.42 1.24
8 -1 -2 22.05 1.27
-8 -1 2 18.46 1.68
8 -2 2 21.91 2.11
8 -2 2 21.89 1.41
-8 -2 -2 26.87 2.44
8 -2 -2 23.62 2.27
8 -2 -2 23.37 1.44
-8 -2 2 23.57 2.28
8 -3 2 5.88 0.73
8 -3 -2 4.88 0.81
-8 -4 -2 5.2 1.4
8 -4 2 6.53 1.3
8 -4 2 6.69 0.83
-8 -4 2 6.9 1.34
8 -4 -2 5.56 0.95
8 -4 -2 7.72 1.43
8 -5 2 2.17 0.82
-8 -5 -2 -0.91 1
8 -5 2 0.1 0.48
-8 -5 2 0.31 0.95
8 -5 -2 0.94 0.59
8 -5 -2 0.84 0.92
-8 0 -3 217.36 13.78
8 0 -3 233.31 13.74
8 0 -3 229.38 13.75
8 0 -3 241.27 13.66
8 0 3 252.34 13.67
-8 0 -3 251.33 13.81
8 -1 3 5 0.93
8 1 -3 4.41 0.4
8 -1 3 5 0.45
8 1 -3 4.44 0.38
-8 -1 -3 6.02 1.05
-8 -1 3 4.95 0.93
8 -1 -3 6.34 0.97
8 1 3 4.62 0.44
8 -1 -3 5.14 0.47
8 -2 3 8.75 0.64
-8 -2 -3 11.47 1.87
8 -2 3 8.95 1.66
8 -2 -3 11.1 1.87
8 -2 -3 10.56 0.73
-8 -2 3 9.63 1.76
8 -3 3 24.84 2.16
-8 -3 -3 25.07 2.38
8 -3 3 23.3 1.68
-8 -3 3 23.08 2.13
8 -3 -3 25.86 2.45
8 -3 -3 23.16 1.78
8 -4 3 25.72 1.74
-8 -4 -3 19.79 2.32
8 -4 3 20.78 2.18
-8 -4 3 20.1 2.16
8 -4 -3 22.04 1.81
8 -4 -3 24.97 2.37
8 -5 3 1.29 0.49
8 -5 3 2.54 0.85
-8 -5 -3 0.71 0.98
8 -5 -3 1.9 0.95
-8 -5 3 0.36 0.93
8 -5 -3 2.31 0.63
-8 0 -4 8.86 1.13
8 0 -4 11.79 0.77
8 0 -4 10.52 1.2
8 0 -4 10.77 1.12
-8 0 -4 11.22 1.44
8 0 4 10.67 0.76
8 -1 4 38.42 2.12
8 1 -4 32.41 2.08
8 -1 4 36.8 2.65
-8 -1 -4 32.9 2.73
8 1 4 35.43 2.11
8 -1 -4 34.61 2.13
-8 -1 4 35.62 2.63
8 -1 -4 33.59 2.59
8 -2 4 14.7 1.86
-8 -2 -4 15.77 1.97
8 -2 4 12.27 0.93
8 -2 -4 14.25 0.97
-8 -2 4 14.85 1.94
8 -2 -4 15.27 1.97
8 -3 4 6.26 1.14
-8 3 4 6.32 0.8
-8 -3 -4 10.31 1.52
8 -3 4 4.86 0.74
8 -3 4 7.3 0.86
8 -3 -4 8.42 1.06
8 -3 -4 11.15 1.51
-8 -3 4 6.73 1.26
8 -4 4 10.16 1.14
-8 -4 -4 8.65 1.59
8 -4 4 11.58 1.66
8 -4 -4 11.83 1.51
8 -4 -4 12.26 1.22
-8 -4 4 8.43 1.39
8 -5 4 2.49 0.5
8 -5 4 2.24 0.8
-8 -5 -4 2.53 0.97
8 -5 -4 1.72 0.92
8 -5 -4 1.66 0.66
-8 -5 4 1.67 0.91
8 0 -5 64.35 3.8
-8 0 -5 64.21 4.18
8 0 -5 59.95 4.05
8 0 5 69.31 3.82
8 1 -5 68.26 4.18
8 -1 5 73.83 4.21
-8 -1 -5 73.2 4.74
8 -1 -5 71.74 4.23
8 1 5 73.28 4.22
8 -1 -5 69.14 4.61
-8 -2 -5 12.14 2.02
8 -2 5 12.35 1.77
8 -2 -5 10.1 0.83
8 -2 -5 12 1.83
-8 -2 5 11.73 1.92
8 -3 5 32.06 2.18
8 -3 5 35.59 2.22
-8 3 5 32.64 2.2
8 -3 5 36.84 2.55
-8 -3 -5 34.52 2.93
8 -3 -5 35.56 2.92
-8 -3 5 37.1 2.53
8 -3 -5 33.31 2.39
-8 -4 -5 5.18 1.5
8 -4 5 4.6 1.12
8 -4 5 7.01 0.76
8 -4 -5 4.38 0.97
-8 -4 5 5.93 1.23
8 -4 -5 5.65 1.37
-8 -5 -5 2.12 0.91
8 -5 5 0.55 0.72
8 -5 5 0.43 0.42
8 -5 -5 -0.12 0.61
8 -5 -5 0.49 0.78
-8 -5 5 0.28 0.84
8 0 6 9.81 0.69
8 0 -6 7.17 1.07
-8 0 -6 9.42 1.62
8 0 -6 7.98 0.68
8 -1 6 9.26 0.64
8 1 -6 7.32 1.3
-8 -1 -6 7.15 1.27
8 1 -6 7.25 0.61
8 -1 -6 7.96 0.67
-8 1 -6 9.04 1.54
8 1 6 8.26 0.67
8 -1 -6 8.38 1.51
-8 -2 -6 16.08 2.27
8 -2 6 11.2 1.97
-8 -2 6 12.62 2.05
8 -2 -6 12.61 0.95
8 -2 -6 12.62 1.99
-8 3 6 10.85 1.03
8 -3 6 11.15 1.05
8 -3 6 12.71 1.35
8 -3 6 10.33 0.94
-8 -3 -6 13.09 1.75
-8 -3 6 11.63 1.63
8 -3 -6 12.35 1.67
8 -4 6 1.18 0.98
8 -4 6 1.2 0.54
-8 -4 -6 1.49 1.48
8 -4 -6 1.44 1.27
-8 -4 6 1.22 1.1
8 -4 -6 1.03 0.9
-8 -5 -6 2.63 0.88
8 -5 6 2.71 0.44
8 -5 6 1.98 0.67
8 -5 -6 2.39 0.74
-8 -5 6 1.87 0.77
8 -5 -6 3.15 0.63
8 0 7 5.15 0.53
8 0 -7 5.92 0.55
8 0 -7 3.83 0.96
-8 0 -7 7.29 1.27
-8 -1 -7 4.98 1.23
8 1 -7 2.58 0.95
8 -1 7 4.71 0.45
8 1 -7 3.44 0.42
-8 1 -7 3.81 1.08
8 1 7 4.85 0.49
8 -1 -7 3.95 0.49
8 -1 -7 3.7 0.98
8 -3 7 2.47 0.9
-8 -3 -7 2 1.45
8 -3 7 1.1 0.42
-8 3 7 1.56 0.51
8 -3 7 2.15 0.55
-8 -3 7 2.35 1.07
8 -3 -7 3.17 1.19
8 3 7 2.44 0.51
-8 -4 -7 3.01 1.45
8 -4 7 4.11 0.99
8 -4 7 3.81 0.62
8 -4 -7 3.89 1.43
-8 -4 7 2.72 1.12
8 -4 -7 4.57 1.03
-8 -5 -7 1.23 0.79
8 -5 7 1.7 0.58
8 -5 7 0.89 0.37
8 -5 -7 1.25 0.54
-8 -5 7 1.44 0.66
8 -5 -7 1.04 0.66
-8 0 -8 50.52 3.52
8 0 -8 42.69 2.71
8 0 -8 42.21 3.22
8 0 8 43.04 2.71
8 1 -8 8.26 0.66
-8 -1 -8 10.1 2
8 -1 8 7.52 0.66
8 1 8 6.9 0.68
8 -1 -8 9.7 1.62
-8 1 -8 9.93 1.85
8 -1 -8 7.24 0.74
8 -2 8 9.44 0.87
-8 2 8 9.44 1
8 -2 8 11.6 1.26
-8 2 8 8.67 0.94
-8 2 8 11.07 0.84
8 -2 8 10.22 0.92
8 2 8 9.66 0.88
8 2 8 9.82 1.35
-8 -2 8 10.56 1.5
8 -3 8 3.51 0.52
-8 3 8 3.41 0.62
8 -3 8 4.53 1.05
8 -3 8 3.68 0.63
-8 3 8 5.35 0.81
-8 -3 -8 6.24 1.52
8 -3 -8 3.45 1.33
-8 -3 8 4.32 1.17
8 3 8 5.1 0.74
8 -4 8 3.08 0.56
8 -4 8 4.35 0.95
-8 -4 -8 4.3 1.44
8 -4 -8 3.67 1.39
-8 -4 8 4.84 1.07
8 -4 -8 4.99 1.05
8 -5 8 0.68 0.49
8 -5 8 1.07 0.33
8 -5 -8 1.17 0.49
8 -5 -8 1.28 0.68
8 0 -9 2.43 1.01
-8 0 -9 3.46 2.2
-8 2 9 2.7 0.45
-8 2 9 1.74 0.56
8 -2 9 2.2 0.74
8 -2 9 1.85 0.43
8 -2 9 1.9 0.46
8 2 9 2.83 0.92
-8 -2 9 2.09 0.76
8 2 9 2.08 0.44
8 -3 9 1.93 0.56
-8 -3 -9 1.68 1.46
8 -3 9 2.22 0.44
-8 3 9 2.35 0.48
-8 3 9 2.43 0.73
8 -3 9 1.69 0.85
-8 3 9 1.84 0.55
-8 -3 9 1.79 0.99
8 -3 -9 3.02 1.3
8 3 9 2.6 0.54
-8 -4 -9 10.27 1.63
8 -4 9 11.71 0.91
8 -4 9 10.59 1.34
8 -4 -9 10.23 1.25
-8 -4 9 9.96 1.35
8 -4 -9 7.57 1.46
-8 1 10 1.59 0.37
-8 1 10 1.65 0.44
-8 1 10 2.59 0.68
8 -1 10 2.3 0.44
-8 1 10 2.46 0.51
8 -1 10 2.69 0.62
8 -1 10 1.16 0.45
-8 -1 10 1.37 0.73
8 1 10 1.68 0.42
-8 -1 10 2.5 0.51
8 1 10 1.73 0.69
-8 -1 10 1.82 0.46
8 -2 10 4.06 0.81
-8 2 10 3.91 0.67
8 -2 10 3.94 0.54
8 -2 10 3.74 0.58
-8 2 10 3.27 0.58
-8 2 10 3.91 0.64
8 2 10 2.96 0.53
-8 -2 10 3.99 0.92
-8 -2 10 4.25 0.67
8 2 10 3.95 1.01
8 -3 10 12.77 1.05
8 -3 10 12.66 1.12
-8 3 10 13.44 1.16
-8 3 10 12.07 1.1
8 -3 10 13.64 1.49
-8 3 10 13.8 1.41
-8 -3 -10 11.93 1.83
8 3 10 12.91 1.09
-8 -3 10 13.61 1.51
8 -3 -10 17.83 2.04
-8 -4 -10 1.96 1.33
8 -4 10 3.98 0.77
8 -4 10 3.36 0.52
8 -4 -10 1.47 1.13
-8 -4 10 3.33 0.91
8 -4 -10 2.12 0.93
-8 0 11 24.33 1.88
-8 0 11 25.67 1.75
8 0 11 27.08 1.74
8 0 11 27.62 1.72
8 0 11 26.73 1.89
8 0 11 27.54 1.75
-8 0 11 25.75 1.72
-8 0 11 25.52 1.72
-8 1 11 27.49 1.82
-8 1 11 25.63 1.97
8 -1 11 27.64 1.77
-8 1 11 27.12 1.77
8 -1 11 27.23 1.8
-8 1 11 25.34 1.84
8 -1 11 27.57 1.96
8 1 11 28.36 1.79
-8 -1 11 27.27 1.97
8 1 11 27.75 1.82
-8 -1 11 25.06 1.8
8 1 11 27.14 1.98
8 1 11 27.82 1.8
-8 -1 11 26.21 1.77
-8 2 11 2.56 0.59
8 -2 11 3.12 0.51
8 -2 11 3.58 0.8
-8 2 11 4.02 0.64
8 -2 11 3.12 0.58
-8 2 11 3.62 0.66
-8 -2 11 3.82 0.57
-8 -2 11 4.94 0.93
8 2 11 4.19 0.72
8 2 11 3.2 1.03
-8 3 11 6.3 0.8
8 -3 11 6.81 0.72
-8 3 11 6.35 0.87
-8 -3 -11 5.53 1.45
-8 3 11 5.89 0.84
8 -3 11 4.71 0.91
8 -3 11 6.15 0.75
8 3 11 7.04 0.82
8 -3 -11 4.91 1.38
-8 -3 11 5.77 1.06
8 -4 11 7.16 0.73
8 -4 11 5.85 0.8
-8 -4 -11 5.7 1.33
-8 -4 11 6.49 0.88
8 -4 -11 4.76 1.09
8 -4 -11 8.18 1.1
8 0 12 18.43 1.37
-8 0 12 16.26 1.31
-8 0 12 17.53 1.6
-8 0 12 17.73 1.38
-8 0 12 20.47 1.32
8 0 12 19.89 1.58
8 0 12 19.05 1.3
8 0 12 16.65 1.29
8 -1 12 19.43 1.56
8 -1 12 17.34 1.35
8 -1 12 16.66 1.4
-8 1 12 18.28 1.71
-8 1 12 19.12 1.5
-8 1 12 18.92 1.34
-8 1 12 18.07 1.36
8 1 12 18.27 1.56
8 1 12 20.04 1.36
8 1 12 21.65 1.43
8 1 12 17.16 1.35
-8 -1 12 18.01 1.36
-8 -1 12 18.32 1.32
-8 -1 12 18.77 1.6
8 -2 12 9.32 0.99
-8 2 12 9.85 1.09
8 -2 12 10.18 0.93
-8 2 12 9.35 1.1
-8 2 12 9.35 0.92
8 -2 12 10.45 1.17
8 2 12 9.84 1.26
-8 -2 12 9.97 1
8 2 12 9.84 0.97
-8 -2 12 10.56 1.29
-8 3 12 6.97 0.82
8 -3 12 6.67 0.77
8 -3 12 6.31 0.89
-8 3 12 6.7 0.86
-8 3 12 8.07 0.83
-8 -3 -12 5.33 1.45
8 -3 12 6.48 0.81
8 3 12 7.23 0.9
8 -3 -12 10.57 1.38
-8 -3 12 7.04 1
-8 -4 -12 -0.4 1.01
8 -4 12 1.24 0.39
8 -4 12 1.2 0.55
8 -4 -12 0.5 0.74
-8 -4 12 -0.01 0.61
8 -4 -12 1.3 0.69
8 0 13 6.86 0.76
-8 0 13 7.12 0.91
-8 0 13 6.55 0.76
8 0 13 7.15 0.92
-8 0 13 6.57 0.94
8 0 13 6.97 0.82
-8 0 13 6.91 0.82
8 0 13 6.97 0.94
8 -1 13 5.7 0.8
-8 1 13 6.23 1.08
-8 1 13 5.64 0.84
-8 1 13 4.92 0.76
8 -1 13 5 0.71
-8 1 13 4.68 0.83
8 -1 13 7.66 0.88
8 1 13 6.32 0.76
8 1 13 5.67 0.92
-8 -1 13 6.69 0.76
8 1 13 6.79 0.8
-8 -1 13 5.27 0.85
-8 -1 13 3.7 0.67
8 1 13 7.83 0.92
8 -2 13 0.67 0.48
-8 2 13 1.24 0.61
8 -2 13 0.33 0.44
8 -2 13 1.12 0.69
8 2 13 0.43 0.45
-8 -2 13 -0.42 0.82
8 2 13 0.72 0.94
-8 -2 13 0.28 0.51
-8 3 13 5.97 0.7
-8 3 13 5.54 0.72
8 -3 13 6 0.75
-8 -3 -13 3.63 1.33
8 -3 13 7.08 1
8 -3 13 5.15 0.67
8 3 13 7.08 0.77
-8 -3 13 5.47 0.92
8 -3 -13 2.99 1.23
8 0 14 5.89 0.75
8 0 14 6.26 0.88
8 0 14 6.52 0.84
-8 0 14 4.41 0.75
-8 0 14 5.09 0.95
8 0 14 6.47 0.75
-8 0 14 6.75 0.74
-8 0 14 5.86 0.82
-8 1 14 8.54 0.87
-8 1 14 7.24 0.94
-8 1 14 8.28 0.96
8 -1 14 9.14 1.08
8 -1 14 8.92 0.94
-8 1 14 11.1 1.26
8 -1 14 6.94 0.89
8 1 14 7.88 0.86
-8 -1 14 7.63 0.92
-8 -1 14 6.01 0.83
8 1 14 7.07 0.88
8 1 14 8.93 0.96
8 1 14 8 1.08
-8 -1 14 7.91 1.14
-8 2 14 1.34 0.6
8 -2 14 1.49 0.62
-8 2 14 1.06 0.43
8 -2 14 1.56 0.44
-8 2 14 1.65 0.53
8 -2 14 0.6 0.51
8 -2 -14 -0.71 0.86
-8 -2 14 0.13 0.53
8 2 14 0.6 0.43
-8 -2 14 0.78 0.73
8 -3 14 0.61 0.58
-8 3 14 0.67 0.37
8 -3 14 0.97 0.45
8 -3 14 0.73 0.34
-8 3 14 1.06 0.37
-8 -3 -14 -0.08 1.11
8 3 14 0.98 0.38
-8 -3 14 1.14 0.65
8 -3 -14 0.6 0.93
8 0 15 22.02 1.56
-8 0 15 21.21 1.48
-8 0 15 17.6 1.45
-8 0 15 21.03 1.53
8 0 15 21.65 1.67
-8 0 15 19.35 1.66
8 0 15 19.45 1.47
8 0 15 21.3 1.46
8 -1 15 1.43 0.66
-8 1 15 0.46 0.6
-8 1 15 0.62 0.43
8 -1 15 0.66 0.46
-8 1 15 2.63 1.03
8 -1 15 1.13 0.52
-8 1 15 0.76 0.44
8 1 15 0.84 0.38
-8 -1 15 0.92 0.54
8 1 15 0.24 0.82
-8 -1 15 0.3 0.77
-8 -1 15 1.32 0.48
8 1 15 1.41 0.49
8 1 15 0.85 0.44
-8 2 15 2.19 0.53
8 -2 15 2.04 0.48
8 -2 15 2.06 0.48
8 -2 15 2.04 0.59
-8 2 15 2.1 0.47
-8 2 15 1.61 0.45
-8 -2 15 1.66 0.69
8 2 15 0.94 0.4
-8 -2 15 2.05 0.52
8 -2 -15 1.22 0.89
-8 -3 -15 1.45 0.98
8 -3 15 1.88 0.41
8 -3 15 2.55 0.39
-8 3 15 1.91 0.35
-8 3 15 2.3 0.37
8 -3 15 3.05 0.52
8 -3 -15 0.29 0.78
-8 -3 15 2.65 0.55
8 -3 -15 2 0.76
8 3 15 2.45 0.4
-8 0 16 53.36 3.55
8 0 16 55.24 3.45
8 0 16 56.09 3.53
8 0 16 56.01 3.47
-8 0 16 61.92 3.51
-8 0 16 53.25 3.5
-8 0 16 61.53 3.51
-8 1 16 2.1 0.5
-8 1 16 2.19 0.49
8 -1 16 2.35 0.66
-8 1 16 4.77 0.98
8 -1 16 1.18 0.5
-8 1 16 2.02 0.64
8 -1 16 2.03 0.45
8 1 16 2.22 0.47
-8 -1 16 2.49 0.72
8 1 16 2.8 0.52
8 1 16 1.73 0.42
-8 -1 16 0.84 0.56
8 1 16 2.34 0.85
-8 -1 16 1.64 0.46
-8 -2 -16 1.65 0.96
-8 2 16 0.52 0.34
8 -2 16 0.42 0.35
-8 2 16 0.34 0.55
8 -2 16 0.29 0.41
-8 2 16 0.3 0.35
8 -2 16 -0.08 0.52
8 2 16 0.13 0.34
8 -2 -16 -0.29 0.82
-8 -2 16 -0.56 0.63
-8 -2 16 0.2 0.39
-8 0 17 5.58 0.69
8 0 17 6.07 0.77
-8 0 17 5.17 0.7
-8 0 17 6.46 0.94
8 0 17 4.78 0.66
8 0 17 6.02 0.77
-8 1 17 1.41 0.5
8 -1 17 0.37 0.35
8 -1 17 0.8 0.58
8 -1 17 0.53 0.44
-8 1 17 0.63 0.35
-8 1 17 0.65 0.36
-8 -1 17 0.42 0.59
8 1 17 0.26 0.3
8 1 17 0.87 0.32
-8 -1 17 0.47 0.43
8 1 17 -0.03 0.77
-8 -1 17 0.52 0.36
8 1 17 0.5 0.4
8 -2 17 0.87 0.45
-8 2 17 1.25 0.51
-8 2 17 1.64 0.36
8 -2 17 1.01 0.38
-8 2 17 1.05 0.3
-8 -2 -17 1.21 0.85
8 -2 17 1.08 0.29
-8 -2 17 -0.02 0.46
8 2 17 0.64 0.26
8 -2 -17 0.63 0.7
-8 0 18 1.58 0.35
8 0 18 1.15 0.37
8 0 18 1.41 0.62
8 0 18 0.81 0.3
-8 0 18 1.89 0.5
-8 0 18 1.6 0.73
8 -1 18 3.52 0.49
8 -1 18 2.28 0.4
-8 1 18 2.69 0.44
-8 1 18 3.94 0.48
-8 1 18 1.79 0.34
8 -1 18 2.6 0.35
-8 -1 18 2.37 0.34
8 1 18 2.09 0.33
-8 -1 18 1.76 0.46
8 -1 -18 1.53 0.73
-8 -1 18 1.51 0.59
8 1 18 2.14 0.32
9 0 0 0.29 0.2
-9 0 0 0.25 0.19
9 1 0 68.94 3.86
9 1 0 65.15 4.05
9 -1 0 63.7 4.06
-9 -1 0 69.34 4.1
9 -1 0 70.06 3.88
-9 1 0 59.95 4.06
9 -2 0 3.69 1
9 -2 0 3.36 0.35
-9 -2 0 5.23 1.22
9 -3 0 4.02 0.63
-9 -4 0 0.42 1.08
9 -4 0 0.85 1.04
9 -4 0 1.18 0.72
9 -5 0 7.92 0.91
-9 -5 0 5.78 1.11
9 -5 0 5.99 0.98
-9 0 1 0.09 0.18
9 0 1 -0.03 0.19
9 0 -1 -0.2 0.2
-9 -1 -1 14.85 1.4
9 -1 1 11.15 0.8
-9 -1 -1 10.27 0.78
9 1 -1 12.05 1.15
9 -1 1 11.05 1.28
9 1 -1 13.91 0.79
-9 1 1 10.73 1.2
9 1 1 12.44 0.8
9 1 1 13.73 1.39
-9 -1 1 10.78 1.24
-9 1 -1 10.78 1.17
9 -1 -1 14.96 1.39
-9 -2 -1 47.83 3.27
9 -2 1 38.35 3.01
9 -2 1 38.42 2.45
-9 -2 1 39.62 3.08
9 -2 -1 41.86 2.46
9 -2 -1 43.04 3.09
9 -3 1 0.86 0.62
9 -3 -1 1.64 0.56
-9 -4 -1 0.55 1.24
9 -4 1 2.03 0.74
9 -4 1 2.01 1.13
9 -4 -1 2.73 0.8
-9 -4 1 1 1.13
9 -4 -1 3.39 1.16
9 -5 1 6.05 0.68
-9 -5 -1 3.49 1.1
9 -5 1 5.08 0.92
9 -5 -1 5.35 1.03
9 -5 -1 6.92 0.74
-9 -5 1 4.03 1.02
9 0 2 0.21 0.2
-9 0 -2 0.11 0.37
-9 0 -2 -0.41 0.52
9 0 -2 0.02 0.2
9 -1 2 11.81 1.35
-9 -1 -2 12.54 1.44
-9 1 2 11.28 1.26
9 1 -2 10.51 0.76
9 -1 2 12.56 0.79
-9 -1 2 11.51 1.26
9 1 2 12.51 0.78
9 -1 -2 11.13 1.36
9 1 2 10.57 1.36
9 -1 -2 11.02 0.81
-9 -2 -2 10.72 1.87
9 -2 2 8.94 1.48
9 -2 2 6.98 0.57
9 -2 -2 8.53 0.63
-9 -2 2 8.45 1.67
9 -2 -2 10.31 1.69
9 -3 2 4.71 0.81
9 -3 2 5.28 0.71
-9 -3 -2 5.95 1.58
9 -3 2 5.64 1.26
-9 -3 2 7.96 1.28
9 -3 -2 5.5 0.83
9 -4 2 4.61 0.74
-9 -4 -2 2.15 1.32
9 -4 2 3.38 1.21
9 -4 -2 3.54 1.37
-9 -4 2 2.07 1.22
9 -4 -2 2.87 0.84
9 -5 2 4.81 0.92
9 -5 2 6.09 0.79
-9 -5 -2 3.11 1.08
-9 -5 2 5.11 1.01
9 -5 -2 6.54 0.74
9 -5 -2 4.18 1.05
-9 0 -3 0.07 0.45
9 0 -3 -0.29 0.45
-9 0 -3 -0.26 0.6
9 0 -3 0.29 0.51
9 0 -3 0.02 0.2
9 0 3 0.16 0.2
9 -1 3 64.89 4.1
9 -1 3 67.74 3.79
9 1 -3 62.51 3.76
-9 -1 -3 66.1 4.18
-9 1 3 56.62 4.03
9 1 3 66.49 3.79
9 -1 -3 62.37 4.06
-9 -1 3 63.57 4.04
9 -1 -3 68.73 3.8
9 -2 3 2.02 0.24
9 -2 3 2.15 0.96
-9 -2 -3 2.32 1.12
-9 -2 3 1.63 1.09
9 -2 -3 1.35 0.3
9 -2 -3 0.96 1.03
9 -3 3 2.56 0.49
-9 -3 -3 3.05 1.32
-9 3 3 2.22 0.47
9 -3 3 1.99 1.02
9 -3 3 2.36 0.63
-9 -3 3 3.26 1.1
9 -3 -3 2.23 0.7
9 -3 -3 1.36 1.24
9 -4 3 8.79 1.14
9 -4 3 7.83 1.23
-9 -4 -3 9.79 1.48
9 -4 -3 10.29 1.47
9 -4 -3 7.55 1.03
-9 -4 3 7.18 1.34
9 -5 3 7 0.99
9 -5 3 9.77 0.86
-9 -5 -3 6.13 1.13
9 -5 -3 8.33 1.03
9 -5 -3 6.08 1.06
-9 -5 3 6.08 1.07
9 0 -4 0.02 0.55
-9 0 -4 0.13 0.7
9 0 4 0.28 0.23
9 0 -4 0.04 0.6
9 0 -4 0.03 0.21
-9 -1 -4 4.66 1.12
9 -1 4 6.14 0.49
9 -1 4 6.92 1.15
9 1 -4 4.53 0.45
9 -1 -4 5.14 0.53
9 -1 -4 5.43 1.02
-9 -1 4 5.81 1.01
9 1 4 6.11 0.51
9 -2 4 10.13 0.8
-9 -2 -4 13.24 1.9
9 -2 4 11.75 1.74
9 -2 -4 10.28 0.81
-9 -2 4 10.5 1.82
9 -2 -4 11.6 1.77
-9 -3 -4 8.52 1.53
-9 3 4 7.66 0.85
9 -3 4 9.89 1.21
9 -3 4 6.85 0.8
9 -3 4 7.75 0.92
9 -3 -4 9.21 1.43
-9 -3 4 7.26 1.25
9 -3 -4 8.74 1
9 -4 4 8.1 1.03
-9 -4 -4 7.43 1.47
9 -4 4 6.65 1.16
-9 -4 4 6.32 1.25
9 -4 -4 8.06 1.04
9 -4 -4 8.13 1.38
9 -5 4 0.73 0.44
9 -5 4 0.99 0.75
-9 -5 -4 -0.27 0.9
9 -5 -4 -0.35 0.82
9 -5 -4 -0.01 0.62
-9 -5 4 0.44 0.81
-9 0 -5 -0.43 0.81
9 0 5 0 0.21
9 0 -5 0.12 0.23
9 1 -5 26.03 2.11
-9 -1 -5 27.34 2.38
9 1 -5 22.79 1.57
9 -1 5 27.88 1.61
9 -1 -5 24.42 1.62
9 1 5 26.16 1.61
9 -1 -5 22.72 2.16
-9 1 -5 27.85 2.26
-9 -2 -5 29.79 2.79
9 -2 5 31.14 2.61
-9 -2 5 32.44 2.75
9 -2 -5 28.98 2.64
9 -2 -5 29.05 1.9
-9 3 5 2.04 0.51
9 -3 5 2.7 0.93
9 -3 5 2.23 0.47
-9 -3 -5 4.47 1.39
9 -3 5 1.83 0.55
-9 -3 5 1.66 0.96
9 -3 -5 2.77 0.79
9 -3 -5 2.38 1.29
9 -4 5 2.7 1.02
9 -4 5 4.34 0.67
-9 -4 -5 2.8 1.38
9 -4 -5 4.49 0.96
9 -4 -5 4.04 1.21
-9 -4 5 2.7 1.14
9 -5 5 4.44 0.5
-9 -5 -5 2.42 0.89
9 -5 5 2.91 0.76
9 -5 -5 3.05 0.68
9 -5 -5 2.82 0.82
-9 -5 5 2.03 0.86
9 0 -6 -1.13 0.66
9 0 -6 0 0.22
-9 0 -6 0.47 0.93
9 0 6 -0.12 0.21
9 1 -6 4.76 0.45
9 1 -6 4.03 0.91
9 -1 6 4.36 0.47
-9 1 -6 5.74 1.1
9 1 6 4.88 0.51
9 -1 -6 6.4 1.12
9 -1 -6 5.69 0.56
9 -2 -6 24.29 2.33
9 -2 -6 20.16 1.4
-9 -2 6 18.24 2.42
9 -3 6 0.41 0.51
9 -3 6 0.44 0.42
-9 3 6 0.16 0.46
9 -3 6 -0.3 0.89
-9 -3 -6 0 1.46
9 -3 -6 -0.24 1.18
9 -3 -6 -0.53 0.82
-9 -3 6 -1.25 1
9 -4 6 0.57 0.88
-9 -4 -6 0.01 1.41
9 -4 6 -0.2 0.5
9 -4 -6 0.58 1.2
9 -4 -6 -0.66 0.88
-9 -4 6 0.48 1.04
-9 -5 -6 5.44 0.88
9 -5 6 2.48 0.64
9 -5 6 3.68 0.45
9 -5 -6 2.64 0.75
9 -5 -6 3.75 0.64
-9 -5 6 2.62 0.74
-9 0 -7 0.25 0.94
9 0 7 -0.04 0.23
9 0 -7 0.04 0.24
9 0 -7 -1.06 0.69
9 1 -7 23.48 1.5
-9 -1 -7 26.09 2.44
9 -1 7 22.5 1.5
9 1 -7 22.26 2.12
9 -1 -7 21.61 1.52
9 -1 -7 25.74 2.22
-9 1 -7 26.79 2.41
9 1 7 21.82 1.52
-9 -3 -7 2.12 1.42
9 -3 7 1.51 0.43
-9 3 7 2.29 0.54
9 -3 7 1.84 0.54
9 -3 7 3.63 0.92
9 -3 -7 1.48 1.34
9 3 7 1.5 0.48
-9 -3 7 1.27 1.01
-9 -4 -7 3.65 1.44
9 -4 7 2.11 0.94
9 -4 7 4.59 0.62
9 -4 -7 4.54 1.01
-9 -4 7 3.42 1.1
9 -4 -7 3.43 1.25
9 -5 7 1.51 0.38
-9 -5 -7 2.27 0.76
9 -5 7 0.82 0.51
-9 -5 7 2.15 0.59
9 -5 -7 -0.45 0.63
9 -5 -7 1.28 0.54
9 0 8 -0.04 0.24
9 0 -8 0.07 0.26
-9 0 -8 0.09 1.09
9 1 -8 5.78 0.58
-9 -1 -8 6.08 1.37
9 -1 8 5.21 0.56
-9 1 -8 6.61 1.34
9 -1 -8 8.23 1.54
9 1 8 6.27 0.85
-9 2 8 0.27 0.5
9 -2 8 1.19 0.67
-9 2 8 0.52 0.31
9 -2 8 0.57 0.42
-9 2 8 0.69 0.42
9 -2 8 1.21 0.42
9 2 8 0.46 0.79
9 2 8 0.51 0.37
-9 -2 8 0.62 0.82
9 -3 8 1.8 0.43
-9 -3 -8 3.25 1.52
9 -3 8 0.79 0.89
-9 3 8 1.59 0.53
9 -3 8 2.86 0.58
-9 -3 8 1.96 1.09
9 -3 -8 2.86 1.2
9 -4 8 2.02 0.84
9 -4 8 0.75 0.45
-9 -4 -8 -0.2 1.32
9 -4 -8 1.07 0.93
-9 -4 8 2.59 0.97
9 -4 -8 1.25 1.19
9 0 -9 -1.25 0.84
-9 2 9 18.43 1.45
9 -2 9 18.72 1.37
9 -2 9 19.18 1.65
-9 2 9 20.37 1.47
9 -2 9 18.97 1.35
-9 2 9 19.96 1.35
9 2 9 18.89 1.78
-9 -2 9 20.98 1.64
9 2 9 20.06 1.38
9 -3 9 1.32 0.82
9 -3 9 1.22 0.4
-9 3 9 0.98 0.41
9 -3 9 1.95 0.53
-9 3 9 1.5 0.7
-9 3 9 0.69 0.5
-9 -3 -9 3.21 1.53
9 3 9 1.58 0.47
9 -3 -9 3.02 1.28
-9 -3 9 2.11 1
9 -4 9 1.3 0.43
9 -4 9 1.46 0.77
-9 -4 -9 1.78 1.34
9 -4 -9 2.33 1.16
-9 -4 9 2.53 0.9
9 -4 -9 1.17 0.92
-9 0 10 0.07 0.36
9 -1 10 1.78 0.47
9 -1 10 2.07 0.62
-9 1 10 2.66 0.48
-9 1 10 2.32 0.54
-9 1 10 2.83 0.72
9 -1 10 1.8 0.42
-9 1 10 2.06 0.46
-9 -1 10 0.79 0.44
9 1 10 2.25 0.43
9 1 10 2.72 0.69
-9 -1 10 0.8 0.7
-9 -1 10 1.63 0.39
9 -2 10 31.92 1.96
-9 2 10 32.06 2.01
9 -2 10 27.62 1.95
9 -2 10 30.93 2.19
-9 2 10 26.38 1.94
-9 2 10 29.46 2.06
9 2 10 31.32 2.35
-9 -2 10 31.65 2.25
9 2 10 30.47 1.99
9 -3 10 1.59 0.5
9 -3 10 3.15 0.51
9 -3 10 2.62 0.84
-9 3 10 3.46 0.59
-9 3 10 2.52 0.72
-9 -3 -10 3.87 1.5
9 3 10 2.96 0.56
9 -3 -10 1.99 1.37
-9 -3 10 3.85 0.96
-9 -4 -10 0.03 1.23
9 -4 10 0.02 0.66
9 -4 10 0.58 0.41
9 -4 -10 -0.14 0.84
9 -4 -10 0.11 0.99
-9 -4 10 -1.07 0.81
-9 0 11 -0.1 0.38
9 0 11 0.09 0.35
9 0 11 0.81 0.62
9 0 11 0.48 0.46
-9 0 11 -0.36 0.32
9 0 11 -0.14 0.32
-9 0 11 0.11 0.66
-9 0 11 0.48 0.48
9 -1 11 26.05 1.85
9 -1 11 24.95 1.66
-9 1 11 25.86 1.65
9 -1 11 24.67 1.64
-9 1 11 22.76 1.64
-9 1 11 22.82 1.89
-9 1 11 25.87 1.71
9 1 11 23.65 1.65
-9 -1 11 23.51 1.63
9 1 11 26.62 1.65
-9 -1 11 24.08 1.84
9 1 11 25.07 1.83
-9 -1 11 21.4 1.59
9 -2 11 3.73 0.55
-9 2 11 4.83 0.72
9 -2 11 4.67 0.63
-9 2 11 3.26 0.65
9 -2 11 4.2 0.8
-9 2 11 4.71 0.7
9 2 11 4.97 0.73
-9 -2 11 4.13 0.88
9 2 11 4.4 1.05
-9 3 11 2.24 0.68
-9 -3 -11 2.16 1.4
-9 3 11 1.8 0.43
9 -3 11 2.55 0.46
9 -3 11 2.57 0.53
-9 3 11 2.43 0.53
9 -3 11 1.81 0.77
-9 -3 11 2.49 0.94
9 -3 -11 1.27 1.28
9 3 11 1.76 0.5
-9 -4 -11 0.12 1.11
9 -4 11 2.16 0.44
9 -4 11 0.94 0.58
-9 -4 11 2.34 0.68
9 -4 -11 -0.39 0.82
9 -4 -11 1.53 0.8
9 0 12 0.5 0.5
-9 0 12 -0.38 0.72
9 0 12 0.55 0.68
-9 0 12 0 0.47
9 0 12 -0.12 0.37
-9 0 12 0.08 0.36
-9 0 12 0.13 0.42
9 0 12 -0.12 0.33
-9 1 12 26.27 1.75
9 -1 12 25.3 1.77
9 -1 12 25.11 1.75
-9 1 12 24.99 1.8
-9 1 12 26.05 1.75
-9 1 12 23.25 2.05
9 -1 12 25.35 1.89
-9 -1 12 26.48 1.88
9 1 12 25.87 1.92
9 1 12 26.87 1.77
-9 -1 12 25.34 1.78
9 1 12 27.12 1.74
9 1 12 27.23 1.81
-9 -1 12 24.99 1.71
-9 2 12 12.59 1.27
-9 2 12 14.05 1.17
9 -2 12 13 1.12
9 -2 12 12.7 1.28
-9 2 12 10.19 1.09
9 -2 12 14.58 1.1
9 2 12 13.1 1.11
9 2 12 11.02 1.6
-9 -2 12 12.4 1.13
-9 -2 12 11.49 1.41
-9 3 12 14.54 1.06
9 -3 12 11.48 1.17
-9 -3 -12 10.41 1.58
9 -3 12 12.07 0.97
9 -3 12 12.02 1.01
-9 3 12 11.1 0.97
-9 -3 12 12.01 1.27
9 3 12 10.52 1.03
9 -3 -12 9.68 1.52
9 -4 12 6.04 0.57
-9 -4 -12 3.22 1.01
9 -4 12 5.55 0.79
9 -4 -12 6.29 0.8
9 -4 -12 3.83 0.77
-9 -4 12 3.67 0.63
9 0 13 -0.39 0.69
-9 0 13 -0.44 0.73
9 0 13 -0.16 0.41
-9 0 13 -0.35 0.57
9 0 13 0.16 0.37
-9 0 13 0.02 0.35
9 0 13 0.01 0.53
-9 0 13 -0.07 0.43
9 -1 13 21.98 1.57
-9 1 13 20.61 1.62
9 -1 13 22.73 1.71
-9 1 13 22.31 1.57
-9 1 13 21.11 1.96
9 -1 13 21.6 1.61
-9 1 13 23.6 1.67
9 1 13 23.23 1.61
-9 -1 13 24.48 1.61
9 1 13 21.32 1.56
-9 -1 13 21.23 1.57
9 1 13 20.72 1.8
-9 -1 13 22.05 1.73
9 1 13 24.04 1.59
-9 2 13 18.33 1.53
9 -2 13 19.4 1.44
-9 2 13 20.49 1.57
9 -2 13 20.73 1.62
9 -2 13 19.97 1.43
-9 2 13 20.47 1.41
9 2 13 16.54 1.4
9 2 13 18.08 1.8
-9 -2 13 20.88 1.46
-9 -2 13 20.31 1.64
9 -3 13 1.41 0.39
9 -3 13 1.66 0.45
-9 3 13 1.71 0.49
-9 -3 -13 0.84 1.22
9 -3 13 1.95 0.66
-9 3 13 1.6 0.43
9 3 13 2.25 0.45
9 -3 -13 1.7 1.1
-9 -3 13 0.97 0.77
-9 0 14 0.22 0.77
9 0 14 0.21 0.67
9 0 14 0.47 0.54
-9 0 14 0.07 0.38
-9 0 14 -0.24 0.56
9 0 14 0.05 0.34
-9 0 14 -0.27 0.45
9 0 14 0.3 0.46
-9 1 14 5.54 0.83
9 -1 14 5.85 0.81
-9 1 14 6.03 0.85
-9 1 14 6.54 1.15
9 -1 14 5.81 0.82
9 -1 14 7.02 0.88
-9 1 14 5.42 0.91
9 1 14 7.49 1.02
9 1 14 7.79 0.89
9 1 14 6.31 0.8
-9 -1 14 6.8 0.87
-9 -1 14 5.65 0.89
-9 -1 14 6.21 0.74
9 1 14 7.38 0.8
-9 2 14 5.2 0.71
9 -2 14 6.18 0.67
9 -2 14 5.09 0.74
-9 2 14 3.63 0.61
-9 2 14 3.04 0.64
9 -2 14 5.55 0.73
-9 -2 14 4.71 0.81
-9 -2 14 5.2 0.64
9 2 14 4.81 0.69
9 -2 -14 4.14 1.04
9 -3 14 1.66 0.55
-9 3 14 1.25 0.39
-9 -3 -14 -0.61 1.1
9 -3 14 1.24 0.44
9 -3 14 1.4 0.34
-9 3 14 1.38 0.39
9 3 14 0.97 0.38
9 -3 -14 1.13 0.93
-9 -3 14 1.4 0.6
-9 0 15 -0.08 0.53
-9 0 15 0.27 0.38
-9 0 15 -0.24 0.39
-9 0 15 -0.4 0.7
9 0 15 0.94 0.67
9 0 15 0.17 0.4
9 0 15 0.08 0.52
-9 1 15 0.75 0.41
9 -1 15 0.5 0.64
-9 1 15 0.33 0.38
-9 1 15 1.4 0.6
-9 1 15 2.16 1.05
9 -1 15 0.76 0.45
9 -1 15 -0.19 0.46
-9 -1 15 -0.16 0.49
9 1 15 0.51 0.46
-9 -1 15 -0.63 0.71
9 1 15 0.24 0.42
9 1 15 -0.16 0.8
9 1 15 0.54 0.36
-9 -1 15 0 0.41
-9 2 15 2.04 0.44
9 -2 15 1.45 0.46
9 -2 15 2.04 0.45
-9 -2 -15 4.2 1.08
9 -2 15 1.85 0.58
-9 2 15 2.4 0.56
-9 2 15 1.9 0.49
-9 -2 15 1.2 0.44
9 -2 -15 1.32 0.92
-9 -2 15 0.65 0.66
9 2 15 1.02 0.4
9 -3 15 0.24 0.24
-9 3 15 0.52 0.3
9 -3 15 0.25 0.42
9 -3 15 -0.21 0.34
-9 -3 -15 0.14 0.92
-9 3 15 0.24 0.29
9 3 15 0.1 0.26
9 -3 -15 1.11 0.7
9 0 16 0.36 0.46
9 0 16 0.83 0.64
-9 0 16 0.04 0.37
-9 0 16 0.49 0.43
9 0 16 -0.07 0.39
-9 0 16 0.38 0.76
-9 0 16 -0.12 0.58
9 -1 16 2.35 0.49
-9 1 16 3.76 0.63
9 -1 16 3.64 0.68
-9 1 16 4.99 0.94
-9 1 16 4.69 0.65
9 -1 16 3.13 0.55
-9 1 16 2.3 0.51
-9 -1 16 2.71 0.59
9 1 16 3.79 0.62
9 1 16 2.77 0.46
-9 -1 16 4.27 0.54
-9 -1 16 2.42 0.73
9 1 16 3.76 0.86
9 1 16 4.28 0.55
-9 2 16 6.77 0.7
9 -2 16 7.24 0.7
-9 2 16 6.58 0.68
-9 -2 -16 6.17 1.1
9 -2 16 5.69 0.82
-9 2 16 7 0.91
9 -2 16 7.46 0.75
9 2 16 5.49 0.65
-9 -2 16 5.72 0.74
9 -2 -16 4.93 0.92
9 0 17 0.08 0.34
9 0 17 0.31 0.4
-9 0 17 -0.21 0.34
9 0 17 -0.42 0.6
-9 0 17 -0.41 0.78
-9 0 17 -1.19 0.51
9 -1 17 1.78 0.55
9 -1 17 1.46 0.45
9 -1 17 1.19 0.36
-9 1 17 1.95 0.43
-9 1 17 1.21 0.38
-9 1 17 2.46 0.5
-9 -1 17 1.88 0.39
-9 -1 17 0.99 0.45
9 1 17 0.99 0.34
9 1 17 0.68 0.73
9 1 17 1.64 0.34
-9 -1 17 1.66 0.55
-9 2 17 0.93 0.31
-9 -2 -17 0.07 0.8
9 -2 17 0.72 0.36
-9 2 17 0.65 0.28
9 -2 17 1.22 0.41
9 -2 17 0.58 0.27
-9 2 17 0.44 0.43
9 2 17 0.83 0.26
-9 0 18 0.06 0.3
9 0 18 -0.11 0.54
9 0 18 0.04 0.35
9 0 18 0.02 0.26
-9 0 18 0.09 0.43
-9 1 18 0.13 0.26
9 -1 18 0.39 0.25
9 -1 18 0.61 0.33
-9 1 18 1.24 0.38
-9 1 18 1.24 0.31
9 -1 18 1.48 0.41
9 1 18 0.6 0.23
-9 -1 18 0.21 0.39
-9 -1 18 0.53 0.29
10 0 0 110.44 6.4
-10 -1 0 125.42 7.13
10 -1 0 114.52 7.1
10 -1 0 127.22 6.98
10 1 0 119.85 6.96
10 1 0 115.02 7.11
10 -2 0 80.25 5.01
-10 -2 0 94.97 5.62
10 -2 0 83.75 5.42
10 -3 0 -0.36 0.49
10 -3 0 1.03 0.61
-10 -3 0 0.27 1.35
10 -4 0 14.51 1.48
-10 -4 0 14.42 1.82
10 -4 0 16.51 1.91
-10 -5 0 4.52 0.98
10 -5 0 4.74 0.9
10 0 -1 51.8 2.98
10 0 1 48.91 2.97
-10 -1 -1 18.73 1.61
-10 1 1 16.54 1.48
10 -1 1 18.09 1.14
10 1 -1 17.22 1.11
10 1 -1 16.91 1.38
10 -1 1 17.6 1.53
10 -1 -1 16.86 1.5
-10 -1 1 19.02 1.43
10 1 1 17.14 1.58
10 1 1 18.46 1.12
10 -1 -1 17.97 1.15
-10 -2 -1 20.87 2.24
10 -2 1 16.33 1.87
10 -2 1 17.52 1.16
10 -2 -1 21.1 2
-10 -2 1 17.51 1.94
10 -2 -1 18.56 1.18
10 -3 1 14.74 1.21
-10 -3 -1 16.5 1.98
10 -3 1 14.58 1.28
-10 -3 1 16.51 2.07
10 -3 -1 15.35 1.29
10 -3 -1 13.57 1.25
10 -4 1 2.74 0.75
10 -4 1 2.83 1.13
-10 -4 -1 0.79 1.17
10 -4 -1 4.28 1.13
-10 -4 1 2.75 1.18
10 -4 -1 3.95 0.83
10 -5 1 0.59 0.78
-10 -5 -1 -0.59 0.96
10 -5 1 0.95 0.5
10 -5 -1 0.73 0.55
10 -5 -1 0.99 0.79
-10 -5 1 0.55 0.88
10 0 -2 169.93 9.88
-10 0 -2 157.12 9.92
10 0 2 175.58 9.88
-10 0 -2 182.13 9.96
-10 1 2 63.95 4.24
10 1 -2 68.65 4.03
10 -1 2 74.79 4.06
10 -1 2 72.88 4.32
-10 -1 -2 70.69 4.33
10 1 2 72.71 4.05
10 -1 -2 66.36 4.28
10 -1 -2 69.21 4.06
-10 -1 2 69.77 4.21
10 1 2 61.03 4.27
10 -2 2 46.23 3.37
-10 -2 -2 48.42 3.54
10 -2 2 46.31 2.83
10 -2 -2 47.67 2.85
-10 -2 2 49.4 3.42
10 -2 -2 47.93 3.49
10 -3 2 14.38 1.19
10 -3 2 11.3 1.62
-10 -3 -2 15.67 1.75
10 -3 2 13.65 1.17
10 -3 -2 11.89 1.28
10 -3 -2 15.87 1.79
-10 -3 2 15.02 1.63
10 -4 2 19.57 2.01
-10 -4 -2 15.57 2.14
10 -4 2 21.76 1.55
10 -4 -2 18.16 1.71
-10 -4 2 14.55 2.04
10 -4 -2 18.32 2.14
10 -5 2 -0.44 0.76
-10 -5 -2 -0.54 0.96
10 -5 2 1.31 0.5
-10 -5 2 -0.09 0.88
10 -5 -2 1.26 0.58
10 -5 -2 -0.19 0.87
-10 0 -3 11.84 1.22
10 0 -3 11.54 0.76
-10 0 -3 9.09 0.98
10 0 -3 9.59 0.99
10 0 -3 10.58 1.02
-10 1 3 1.61 0.69
10 1 -3 2.12 0.32
10 -1 3 2.69 0.83
-10 -1 -3 4 0.94
10 -1 3 2.57 0.37
-10 -1 3 2.32 0.71
10 1 3 2.72 0.38
10 -1 -3 3.67 0.79
10 -1 -3 2.73 0.42
10 -2 3 10.78 1.54
10 -2 3 9.54 0.68
-10 -2 -3 10.03 1.86
10 -2 -3 9.22 1.74
-10 -2 3 10.04 1.72
10 -2 -3 9.99 0.75
-10 3 3 7.87 0.84
10 -3 3 8.55 0.98
-10 -3 -3 8.88 1.5
10 -3 3 10.22 1.27
10 -3 3 7.75 0.9
10 -3 -3 8.59 1.14
10 -3 -3 12.35 1.43
-10 -3 3 8.7 1.3
10 -4 3 15.42 1.76
10 -4 3 14.85 1.35
-10 -4 -3 13.62 1.7
10 -4 -3 15.1 1.49
10 -4 -3 15.95 2.03
-10 -4 3 11.29 1.51
10 -5 3 0.92 0.73
10 -5 3 0.76 0.46
-10 -5 -3 -0.03 0.92
10 -5 -3 0 0.81
10 -5 -3 0.87 0.58
-10 -5 3 0.43 0.86
-10 0 -4 88.73 5.17
10 0 -4 85.01 4.91
10 0 -4 68.9 5.02
10 0 -4 87.78 5.07
10 0 4 88.73 4.91
10 -1 4 50.17 3.05
10 1 -4 49.11 3.03
-10 -1 -4 54 3.56
10 -1 -4 52.82 3.07
10 -1 -4 50.49 3.41
10 1 4 51.36 3.06
10 -2 4 5.51 1.1
10 -2 4 5.21 0.5
-10 -2 -4 6.77 1.34
10 -2 -4 5.55 0.56
-10 -2 4 6.05 1.28
10 -2 -4 6.22 1.27
10 -3 4 8.54 1.14
-10 -3 -4 8.21 1.47
10 -3 4 7.19 0.84
-10 3 4 7.67 0.83
10 -3 4 7.8 0.92
10 -3 -4 7.78 0.99
-10 -3 4 8.01 1.19
10 -3 -4 7.63 1.31
-10 -4 -4 16.48 2
10 -4 4 13.24 1.72
10 -4 4 15 1.34
10 -4 -4 13.89 1.59
-10 -4 4 13.11 1.66
10 -4 -4 14.27 1.97
-10 -5 -4 0.48 0.88
10 -5 4 1.46 0.69
10 -5 4 1.92 0.46
10 -5 -4 0.46 0.62
10 -5 -4 0.28 0.78
-10 -5 4 1.84 0.81
10 0 5 6.4 0.6
10 0 -5 7.38 0.6
10 0 -5 6.08 1.17
-10 0 -5 9.01 1.5
10 -1 5 15.81 0.98
-10 -1 -5 15.33 1.97
10 1 -5 15.51 1.53
10 1 -5 11.7 0.93
10 1 5 14.81 0.98
-10 1 -5 14.92 1.69
10 -1 -5 13.19 0.99
10 -1 -5 13.11 1.67
-10 -2 -5 6.4 1.34
10 -2 5 5.34 1.13
-10 -2 5 5.57 1.26
10 -2 -5 4.87 1.23
10 -2 -5 4.16 0.53
10 -3 5 21.83 1.52
10 -3 5 22.46 1.89
-10 -3 -5 16.46 2.49
-10 3 5 21.91 1.56
10 -3 5 22.23 1.56
10 -3 -5 23.17 2.27
-10 -3 5 24.18 1.93
10 -3 -5 18.85 1.7
10 -4 5 7.05 0.75
10 -4 5 5.2 1.07
-10 -4 -5 5.7 1.44
-10 -4 5 4.96 1.21
10 -4 -5 4.59 0.97
10 -4 -5 4.57 1.25
10 -5 5 2.32 0.66
-10 -5 -5 3.21 0.88
10 -5 -5 4.96 0.7
-10 -5 5 2.59 0.77
10 -5 -5 1.66 0.77
10 0 -6 13.31 0.97
10 0 -6 11.46 1.45
10 0 6 14.21 0.96
-10 0 -6 14.51 1.79
10 -1 6 60.37 3.6
10 1 -6 58.82 3.58
-10 -1 -6 63.53 4.21
10 1 -6 57.33 4
-10 1 -6 61.8 4.14
10 1 6 61.32 3.61
10 -1 -6 61.38 3.62
10 -1 -6 57.82 4.02
10 -2 -6 9.31 2.08
-10 -2 6 11.9 2.18
-10 -3 -6 6.05 1.65
-10 3 6 8.04 0.88
10 -3 6 6.67 0.86
10 -3 6 7.33 1.13
10 -3 6 7.12 0.79
10 -3 -6 4.7 0.97
10 3 6 6.35 0.74
-10 -3 6 7.09 1.23
10 -3 -6 6.38 1.43
10 -4 6 0.64 0.87
-10 -4 -6 0.56 1.33
10 -4 6 0.78 0.49
10 -4 -6 0.13 0.86
-10 -4 6 0.42 1
10 -4 -6 1.49 1.16
-10 -5 -6 0.17 0.76
10 -5 6 0.91 0.54
10 -5 6 0.37 0.38
-10 -5 6 1.13 0.6
10 -5 -6 -0.37 0.69
10 -5 -6 0.83 0.58
-10 0 -7 26.4 2.43
10 0 -7 22.73 1.52
10 0 7 23.47 1.52
10 0 -7 21.49 2.02
10 -1 7 4.45 0.49
-10 -1 -7 6.85 1.32
10 1 -7 4.98 0.49
10 1 -7 3.26 0.93
10 1 7 4.78 0.54
10 -1 -7 5.17 0.57
-10 1 -7 5.65 1.21
10 -1 -7 5.92 1.17
-10 2 7 6.6 0.86
10 -2 7 6.56 0.78
10 -2 7 7.2 0.76
-10 2 7 6.3 0.85
10 -3 7 8.63 0.91
-10 -3 -7 6.97 1.76
10 -3 7 6.58 0.82
10 -3 7 7.62 1.08
-10 3 7 8.79 0.96
10 3 7 8.18 0.83
-10 -3 7 8.78 1.24
10 -3 -7 6.23 1.53
10 -4 7 9.84 0.97
10 -4 7 8.56 1.18
-10 -4 -7 8.53 1.59
-10 -4 7 7.97 1.27
10 -4 -7 12.6 1.53
10 -4 -7 11.06 1.39
10 -5 7 0.82 0.46
-10 -5 -7 1.67 0.7
10 -5 7 1.04 0.36
10 -5 -7 1.23 0.52
-10 0 -8 7.55 1.48
10 0 8 6.68 0.61
10 0 -8 3.95 1.05
10 0 -8 6.44 0.64
10 -1 8 7.01 0.85
10 -1 -8 10.53 2.2
-10 1 -8 11 1.73
10 -2 8 1.49 0.45
-10 2 8 1.26 0.46
10 -2 8 0.7 0.7
-10 2 8 2.25 0.43
10 -2 8 1.12 0.45
-10 2 8 1.57 0.54
10 2 8 2.2 0.43
10 2 8 0.78 0.84
-10 -2 8 1.81 1
-10 3 8 7.2 0.91
10 -3 8 6.38 1.03
10 -3 8 5.5 0.72
-10 -3 -8 6.42 1.67
10 -3 8 6.52 0.77
10 3 8 7.91 0.82
-10 -3 8 6.83 1.19
10 -3 -8 7.2 1.48
10 -4 8 7.42 1.01
-10 -4 -8 4.66 1.46
10 -4 8 7.01 0.81
-10 -4 8 6.56 1.11
10 -4 -8 7.82 1.09
10 -4 -8 5.87 1.21
-10 1 9 13.1 0.99
10 -1 9 12.24 1.03
-10 1 9 13.13 1.03
10 1 9 13.23 1.06
10 -2 9 15.04 1.09
-10 2 9 13.05 1.2
10 -2 9 14.57 1.13
-10 2 9 13.76 1.15
-10 2 9 13.47 1.08
10 -2 9 13.35 1.33
10 2 9 13.59 1.11
-10 -2 9 17.02 1.43
10 2 9 11.5 1.58
10 -3 9 1.69 0.45
10 -3 9 2.46 0.86
-10 3 9 3.56 0.58
10 -3 9 2.96 0.58
-10 -3 -9 4.43 1.55
-10 3 9 1.82 0.55
10 -3 -9 1.97 1.34
10 3 9 3.29 0.57
-10 -3 9 2.56 0.92
-10 -4 -9 0.1 1.24
10 -4 9 0.4 0.67
10 -4 9 0.38 0.39
10 -4 -9 0.45 1.03
10 -4 -9 1.35 0.89
-10 -4 9 1.16 0.82
10 0 10 18.66 1.37
-10 0 10 20.07 1.37
-10 0 10 20.93 1.36
-10 0 10 19.39 1.4
-10 1 10 29.54 1.95
-10 1 10 24.41 2.5
10 -1 10 31.85 2.09
10 -1 10 32.91 1.97
-10 1 10 32.34 1.99
-10 1 10 30.58 2.02
10 -1 10 30.27 1.98
10 1 10 31.35 2.12
10 1 10 33.4 2
-10 -1 10 27.98 1.95
-10 -1 10 29.24 1.93
-10 2 10 3.57 0.67
-10 2 10 3.64 0.6
10 -2 10 4.5 0.83
10 -2 10 3.02 0.54
10 -2 10 3.16 0.52
-10 2 10 2.53 0.53
10 2 10 4.13 0.97
-10 -2 10 2.82 0.87
10 2 10 2.16 0.47
10 -3 10 11.57 0.96
-10 3 10 12.1 1.08
10 -3 10 10.93 1.01
-10 -3 -10 8.57 1.73
-10 3 10 11.03 0.95
10 -3 10 12.7 1.34
-10 -3 10 12.25 1.44
10 -3 -10 10.41 1.58
10 3 10 9.19 1.03
10 -4 10 1.82 0.45
10 -4 10 2.52 0.71
-10 -4 -10 0.46 1.14
10 -4 -10 2.09 0.9
10 -4 -10 3.08 0.91
-10 -4 10 2.89 0.8
-10 0 11 6.05 0.69
10 0 11 7.78 0.74
10 0 11 6.8 0.74
-10 0 11 5.66 0.71
-10 0 11 5.94 1.08
10 0 11 7.29 0.82
-10 0 11 7.98 0.79
10 0 11 7.81 1.05
10 -1 11 4.38 0.56
10 -1 11 5.52 0.8
-10 1 11 4.27 0.67
-10 1 11 4.69 0.62
10 -1 11 4.16 0.66
-10 1 11 3.38 0.9
-10 1 11 4.64 0.72
-10 -1 11 4.32 0.68
-10 -1 11 3.1 0.76
-10 -1 11 3.25 0.54
10 1 11 4.45 0.77
10 1 11 3.44 0.62
10 1 11 4.06 0.65
10 -2 11 6.53 0.87
-10 2 11 6.28 0.86
10 -2 11 6.06 0.7
-10 2 11 5.98 0.77
-10 2 11 5.05 0.75
10 -2 11 4.87 0.75
-10 -2 11 7.23 0.95
10 2 11 5.81 0.8
10 2 11 5.8 1.08
-10 3 11 12.21 1.09
10 -3 11 12.63 1.06
10 -3 11 12.03 0.99
-10 -3 -11 12.03 1.75
10 -3 11 13.19 1.32
-10 -3 11 12.74 1.38
10 -3 -11 13.79 1.95
10 3 11 10.81 1.07
10 -4 11 4.66 0.68
10 -4 11 5.75 0.64
-10 -4 -11 3.82 1.16
10 -4 -11 5.59 0.86
10 -4 -11 3.54 0.86
-10 -4 11 4.56 0.66
10 0 12 0.99 0.43
10 0 12 0.71 0.68
10 0 12 0.9 0.53
-10 0 12 0.6 0.36
-10 0 12 0.86 0.7
10 0 12 0.64 0.36
-10 0 12 0.92 0.46
-10 0 12 0.41 0.49
-10 1 12 0.18 0.58
-10 1 12 0.48 0.44
-10 1 12 0.01 0.89
10 -1 12 0.48 0.5
-10 1 12 0.85 0.48
10 -1 12 0.58 0.61
10 -1 12 0.02 0.4
10 1 12 0.36 0.4
10 1 12 0.2 0.4
-10 -1 12 -0.12 0.46
-10 -1 12 0.33 0.41
10 1 12 0.33 0.7
-10 -1 12 0.7 0.67
10 -2 12 3.44 0.59
-10 2 12 4.15 0.72
-10 2 12 4.52 0.68
10 -2 12 4.16 0.76
10 -2 12 4.11 0.6
-10 2 12 3.83 0.6
-10 -2 12 3.61 0.89
10 2 12 2.24 1
10 -2 -12 1.57 0.99
-10 3 12 2 0.49
10 -3 12 1.89 0.44
-10 -3 -12 3.54 1.32
10 -3 12 2.83 0.48
10 -3 12 2.87 0.66
10 -3 -12 2.77 1.18
10 3 12 1.61 0.47
-10 -3 12 0.57 0.76
10 -4 12 2.08 0.38
-10 -4 -12 2.11 0.92
10 -4 12 1.26 0.49
10 -4 -12 2.73 0.68
10 0 13 22.78 1.65
10 0 13 23.27 1.69
-10 0 13 24.89 1.68
10 0 13 26.59 1.89
-10 0 13 24.21 1.89
-10 0 13 25.47 1.76
-10 0 13 25.52 1.8
10 0 13 25.96 1.74
-10 1 13 4.2 0.62
-10 1 13 3.21 1.04
-10 1 13 3.39 0.56
-10 1 13 4.55 0.77
10 -1 13 3.78 0.62
10 -1 13 3.88 0.7
10 -1 13 3.69 0.58
-10 -1 13 3.87 0.57
10 1 13 2.82 0.52
10 1 13 3.25 0.86
-10 -1 13 2.76 0.64
10 1 13 2.6 0.55
-10 -1 13 3.25 0.76
-10 2 13 2.45 0.51
10 -2 13 2.3 0.52
10 -2 13 1.71 0.67
-10 2 13 2.05 0.65
-10 2 13 1.54 0.53
10 -2 13 1.93 0.51
-10 -2 13 1.92 0.77
10 2 13 1.81 0.48
10 -2 -13 0.43 0.95
10 -3 13 4.39 0.71
-10 -3 -13 3.96 1.27
-10 3 13 3.68 0.54
10 -3 13 3.6 0.49
10 -3 13 5.4 0.54
-10 -3 13 3.53 0.76
10 -3 -13 1.89 1.1
-10 0 14 4.08 0.85
-10 0 14 2.81 0.65
10 0 14 4.88 0.66
10 0 14 4.02 0.82
-10 0 14 4.4 0.7
10 0 14 3.27 0.59
-10 0 14 4.49 0.59
10 0 14 4.71 0.66
-10 1 14 4.05 0.67
10 -1 14 4.55 0.62
-10 1 14 3.83 0.63
10 -1 14 4.18 0.58
10 -1 14 4.73 0.76
-10 1 14 4.2 1.09
-10 1 14 4.81 0.75
-10 -1 14 3.26 0.6
10 1 14 2.45 0.5
10 1 14 4.2 0.7
-10 -1 14 3.1 0.8
-10 -1 14 4.01 0.6
10 1 14 3.55 0.92
10 -2 14 2.49 0.56
-10 2 14 3.14 0.57
10 -2 14 1.53 0.6
-10 2 14 3.23 0.51
10 -2 14 2.2 0.47
-10 2 14 2.53 0.58
10 -2 -14 1.49 1.01
10 2 14 2.15 0.46
-10 -2 14 2.19 0.68
10 -3 14 4.86 0.55
-10 3 14 3.91 0.54
-10 3 14 4.55 0.6
-10 -3 -14 2.25 1.11
10 -3 14 4.44 0.53
10 -3 14 3.73 0.61
10 3 14 3.91 0.55
10 -3 -14 3.57 0.89
-10 0 15 3.81 0.6
10 0 15 2.33 0.51
10 0 15 2.82 0.74
-10 0 15 2.87 0.64
-10 0 15 3.61 0.75
-10 0 15 2.91 0.54
10 0 15 3.45 0.59
10 -1 15 18.15 1.39
-10 1 15 18 1.49
10 -1 15 18.73 1.29
-10 1 15 12.95 1.24
-10 1 15 19.42 1.64
10 -1 15 14.82 1.24
-10 1 15 17.54 1.28
10 1 15 17.25 1.57
10 1 15 17.56 1.21
10 1 15 16.32 1.27
-10 -1 15 14.34 1.22
-10 -1 15 15.73 1.37
-10 -1 15 15.89 1.37
-10 -2 -15 1.2 0.99
-10 2 15 0.17 0.36
10 -2 15 0.65 0.52
10 -2 15 -0.04 0.37
-10 2 15 0.73 0.57
-10 2 15 0.5 0.36
10 -2 15 0.28 0.42
10 2 15 0.31 0.36
10 -2 -15 -0.35 0.95
-10 -2 15 -0.27 0.6
10 -3 15 7.92 0.66
-10 3 15 7.35 0.63
-10 3 15 7.23 0.6
-10 -3 -15 5.14 1.02
10 -3 15 5.75 0.6
10 -3 15 7.28 0.71
10 3 15 7.43 0.6
10 -3 -15 7.51 0.84
10 0 16 34.1 1.97
10 0 16 31.15 1.98
-10 0 16 27.66 2.11
-10 0 16 28.14 2
-10 0 16 30.05 2.14
10 0 16 31.05 2.05
-10 1 16 4.12 0.69
10 -1 16 4.86 0.69
-10 1 16 5.36 0.9
10 -1 16 4.25 0.58
10 -1 16 4.18 0.69
-10 1 16 5.4 0.65
-10 -1 16 3.49 0.57
-10 -1 16 2.45 0.7
10 1 16 4.38 0.63
10 1 16 4.84 0.94
-10 -1 16 4.42 0.57
-10 -2 -16 1.31 0.95
10 -2 16 0.97 0.36
-10 2 16 1.78 0.6
-10 2 16 0.79 0.36
10 -2 16 0.72 0.5
-10 2 16 1.35 0.37
10 -2 16 1.29 0.42
10 2 16 0.87 0.35
-10 0 17 20.27 1.39
10 0 17 17.78 1.21
-10 0 17 19.19 1.37
10 0 17 17.55 1.22
10 0 17 17.88 1.37
-10 0 17 14.63 1.24
-10 1 17 6.52 0.72
-10 1 17 8.39 0.84
10 -1 17 6.93 0.69
10 -1 17 8.3 0.76
10 -1 17 6.82 0.83
-10 1 17 7.91 0.74
10 1 17 6.07 0.71
-10 -1 17 6.48 0.8
10 1 17 7.01 0.66
10 1 17 7.31 1.05
-10 -1 17 6.8 0.69
-10 -2 -17 -0.25 0.71
-10 2 17 0.15 0.25
-10 2 17 0.49 0.27
10 -2 17 0.08 0.24
10 -2 17 -0.02 0.33
10 -2 17 0.19 0.38
-10 2 17 0.05 0.4
10 2 17 0.21 0.23
10 0 18 0.92 0.34
-10 0 18 1.65 0.4
10 0 18 0.68 0.28
-10 0 18 1.16 0.33
10 0 18 0.56 0.54
10 -1 18 3.26 0.47
-10 1 18 2.77 0.44
-10 1 18 3.03 0.5
-10 1 18 3.7 0.46
10 -1 18 4.13 0.49
11 0 0 0.15 0.23
11 1 0 9.09 0.65
-11 1 0 8.81 1.04
11 -1 0 9.25 0.69
11 -1 0 8.12 1.06
-11 -1 0 9.07 1.01
11 -2 0 1.56 0.82
11 -2 0 1.53 0.27
-11 -2 0 2.15 0.95
11 -3 0 -0.21 1
11 -3 0 0.11 0.5
11 -3 0 0.43 0.59
-11 -3 0 -1.87 1.23
-11 -4 0 1.99 1.1
11 -4 0 3.89 0.81
11 -4 0 1.49 1.11
11 -5 0 0.16 0.53
11 -5 0 0 0.72
-11 -5 0 -0.48 0.83
11 0 -1 0.03 0.23
11 0 1 0.19 0.23
11 1 -1 35.56 2.18
11 -1 1 38.46 2.44
-11 -1 -1 35.6 2.46
11 1 -1 35.13 2.36
-11 1 1 35.24 2.41
11 -1 1 39.16 2.21
-11 -1 1 37.78 2.35
11 -1 -1 33.93 2.41
11 1 1 35.05 2.46
11 1 1 39.58 2.2
11 -1 -1 35.43 2.21
11 -2 1 44.85 3.44
11 -2 1 48.98 3
-11 -2 -1 54.52 3.63
11 -2 -1 51 3.02
11 -2 -1 53.17 3.55
-11 -2 1 51.03 3.48
-11 -3 -1 11.51 1.49
11 -3 1 7.77 1.06
11 -3 1 9.61 0.98
11 -3 1 12.7 1.48
11 -3 -1 11.42 1.48
11 -3 -1 7.66 0.96
-11 -3 1 10.54 1.52
11 -3 -1 8.83 1.06
11 -4 1 13.59 1.37
-11 -4 -1 10.01 1.48
11 -4 1 12.81 1.54
11 -4 -1 14.14 1.47
-11 -4 1 10.93 1.51
11 -4 -1 16.53 1.77
11 -5 1 6.17 0.9
-11 -5 -1 6.95 1.06
11 -5 -1 5.94 0.9
11 -5 -1 10.15 0.98
-11 -5 1 7.09 1.02
11 0 2 0.09 0.22
-11 0 -2 -0.09 0.51
-11 0 -2 0.12 0.31
11 0 -2 0.16 0.23
11 -1 2 72.83 4.27
-11 1 2 65.86 4.42
-11 -1 -2 72.4 4.49
11 1 -2 74.49 4.25
11 -1 2 74.33 4.49
11 -1 -2 74.34 4.28
-11 -1 2 75.13 4.42
11 -1 -2 71 4.45
11 1 2 73.59 4.26
11 -2 2 9.54 1.54
11 -2 2 9.83 0.7
-11 -2 -2 11.78 1.83
-11 -2 2 8.69 1.48
11 -2 -2 10.04 0.75
11 -2 -2 9.19 1.66
11 -3 2 0.26 0.55
11 -3 2 -0.8 0.88
11 -3 2 -0.26 0.45
-11 -3 -2 0.45 1.4
11 -3 -2 1.44 1.33
11 -3 -2 0.38 0.61
-11 -3 2 0.31 1.13
11 -4 2 12.12 1.69
-11 -4 -2 10.3 1.57
11 -4 2 13.03 1.31
-11 -4 2 8.16 1.46
11 -4 -2 15.08 1.78
11 -4 -2 12.51 1.4
11 -5 2 0.49 0.48
11 -5 2 0.59 0.71
11 -5 -2 1.1 0.74
-11 -5 2 -0.47 0.85
11 -5 -2 1.74 0.57
-11 0 -3 -0.04 0.38
-11 0 -3 0.13 0.59
11 0 -3 -0.14 0.23
11 0 3 0.21 0.23
11 -1 3 26.96 1.5
-11 1 3 21.74 1.82
11 -1 3 26.72 2.01
-11 -1 -3 22.39 1.99
11 1 -3 21.26 1.46
11 1 3 25.98 1.5
11 -1 -3 20.04 1.84
11 -1 -3 22.38 1.5
-11 -1 3 24.67 1.78
-11 -2 -3 38.45 3.05
11 -2 3 35.9 2.18
11 -2 3 37.46 2.76
11 -2 -3 35.15 2.87
-11 -2 3 38.15 2.79
11 -2 -3 32.59 2.21
11 -3 3 4.68 0.76
11 -3 3 4.79 1.08
11 -3 3 4.92 0.71
-11 3 3 5.7 0.78
-11 -3 -3 7.14 1.52
-11 -3 3 5.59 1.5
11 -3 -3 5.62 1.54
11 -3 -3 4.59 0.8
-11 -4 -3 3.29 1.3
11 -4 3 6.63 0.82
11 -4 3 4.25 1.08
11 -4 -3 3.84 0.89
-11 -4 3 5.69 1.18
11 -4 -3 4.54 1.32
11 -5 3 5.85 0.74
11 -5 3 4 0.74
-11 -5 3 4.06 0.81
11 -5 -3 4.52 0.67
11 -5 -3 2.37 0.85
-11 0 -4 -0.06 0.44
11 0 -4 -0.66 0.57
11 0 -4 0.12 0.24
-11 0 -4 0.4 0.69
11 0 4 0.03 0.22
11 0 -4 -0.5 0.54
-11 -1 -4 14.83 1.64
11 -1 4 12.51 0.87
11 1 -4 10.96 0.84
11 1 4 13.23 0.89
11 -1 -4 12.13 0.9
11 -1 -4 12.88 1.43
11 -2 4 10.24 1.6
-11 -2 -4 11.45 1.92
11 -2 -4 10.94 0.8
-11 -2 4 9.63 1.68
11 -2 -4 8.11 1.65
11 -3 4 29.89 1.9
-11 3 4 31.02 1.94
-11 -3 -4 27.38 2.8
11 -3 4 27.76 1.94
11 -3 4 29.58 2.28
-11 -3 4 29.49 2.37
11 -3 -4 30.8 2.78
11 -3 -4 26.9 2.1
11 -4 4 2.74 0.63
11 -4 4 2.49 0.94
-11 -4 -4 2.52 1.22
11 -4 -4 3.12 0.88
11 -4 -4 1.59 1.18
-11 -4 4 2.62 1.06
11 -5 4 1.58 0.45
11 -5 4 2.62 0.67
-11 -5 -4 -0.1 0.87
11 -5 -4 1.88 0.61
-11 -5 4 -0.25 0.71
11 -5 -4 0.6 0.73
-11 0 -5 0.12 0.76
11 0 -5 -0.39 0.59
11 0 -5 0.15 0.24
11 0 5 0.06 0.23
-11 -1 -5 6.46 1.18
11 1 -5 4.83 0.47
11 -1 5 4.06 0.48
-11 1 -5 7.99 1.36
11 -1 -5 5.77 0.56
11 1 5 4.26 0.5
11 -2 5 4.19 1.17
-11 -2 -5 6.06 1.37
-11 -2 5 5.46 1.54
11 -2 -5 3.36 0.53
11 -3 5 10.41 1.19
11 -3 5 8.05 0.93
-11 3 5 8.9 0.99
-11 -3 -5 9.98 1.57
11 -3 5 8.5 0.99
11 -3 -5 12.69 1.6
-11 -3 5 10.1 1.32
11 -3 -5 10.76 1.11
-11 -4 -5 3.51 1.27
11 -4 5 1.29 0.9
11 -4 5 1.2 0.54
11 -4 -5 1.27 0.84
11 -4 -5 1.96 1.12
-11 -4 5 0.88 1.05
-11 -5 -5 0.88 0.83
11 -5 5 0.97 0.43
11 -5 5 0.82 0.55
11 -5 -5 0.38 0.59
-11 0 -6 0.21 0.93
11 0 6 0.16 0.25
11 0 -6 -0.01 0.24
11 -1 6 7.64 0.65
11 1 -6 7.24 0.63
-11 -1 -6 9.6 1.41
11 1 -6 8.96 1.41
11 -1 -6 7.77 0.69
11 -1 -6 9.51 1.54
11 1 6 7.93 0.68
-11 1 -6 6.28 1.18
-11 -3 -6 64.89 4.06
11 -3 6 56.65 3.63
11 -3 6 55.19 3.42
11 -3 6 52.61 3.42
-11 3 6 52.88 3.44
11 3 6 57.68 3.41
-11 -3 6 54.71 3.69
11 -3 -6 57.84 3.91
11 -3 -6 55.41 3.6
11 -4 6 0.84 0.49
11 -4 6 0.98 0.85
-11 -4 -6 1.21 1.27
11 -4 -6 0.8 1.07
-11 -4 6 0.19 0.99
11 -4 -6 1.14 0.83
-11 -5 -6 0.17 0.73
11 -5 6 0.49 0.35
11 -5 6 1.05 0.49
11 -5 -6 0.75 0.58
11 0 -7 -0.1 0.26
-11 0 -7 -0.36 0.96
11 0 -7 -0.97 0.79
11 0 7 -0.2 0.22
-11 -1 -7 25.9 2.39
11 -1 7 19.66 1.36
11 1 -7 19.76 1.36
-11 1 -7 22.32 2.21
11 -1 -7 21.17 1.44
11 1 7 19.65 1.39
11 -2 7 19.18 1.33
-11 2 7 17.84 1.39
11 -2 7 19.79 1.36
-11 2 7 20.63 1.4
-11 2 7 16.04 1.37
11 2 7 21.46 1.33
11 -3 7 32.95 2.38
11 -3 7 30.75 2.01
-11 -3 -7 27.23 2.96
11 -3 7 30.17 2.04
-11 3 7 30.44 2.08
11 -3 -7 29.61 2.77
11 3 7 33.09 2.04
11 -3 -7 30.77 2.37
-11 -3 7 31.93 2.44
-11 -4 -7 3.76 1.32
11 -4 7 4.79 0.94
11 -4 7 4.11 0.59
-11 -4 7 5.83 1.08
11 -4 -7 5.48 1.14
11 -4 -7 5.88 0.99
11 -5 7 7.55 0.63
11 -5 -7 7.27 0.83
11 0 -8 -0.06 0.29
-11 0 -8 -0.02 1.12
-11 -1 -8 7.33 2.31
11 -2 8 13.35 1.09
-11 2 8 12.71 1.18
11 -2 8 15 1.1
11 -2 8 13.95 1.36
-11 2 8 15.72 1.16
11 2 8 12.74 1.06
-11 -3 -8 16.56 1.85
11 -3 8 12.02 1.15
11 -3 8 13.53 1.48
-11 3 8 15.36 1.19
11 -3 8 13.05 1.09
11 -3 -8 13.9 1.75
11 3 8 12.35 1.14
-11 -3 8 13.28 1.58
11 -4 8 3.21 0.52
11 -4 8 4.23 0.87
-11 -4 -8 3.89 1.34
-11 -4 8 3.41 0.95
11 -4 -8 4.94 0.95
11 -4 -8 4.5 1.07
-11 1 9 3.58 0.53
-11 1 9 4.02 0.62
-11 1 9 4.44 0.57
11 -1 9 3.28 0.48
11 1 9 3.38 0.59
11 -2 9 42.81 2.75
11 -2 9 43.61 2.61
-11 2 9 39.34 2.65
-11 2 9 42.89 2.61
-11 2 9 41.61 2.65
11 -2 9 41.02 2.59
11 2 9 41.77 2.63
11 -3 9 0.1 0.39
-11 3 9 0.41 0.48
11 -3 9 0.3 0.49
-11 3 9 0.98 0.4
-11 -3 -9 -0.03 1.41
11 -3 9 2.13 0.77
-11 -3 9 1.12 0.87
11 -3 -9 -0.26 1.25
11 3 9 0.62 0.46
11 -4 9 -0.19 0.38
-11 -4 -9 0.13 1.21
11 -4 9 0.83 0.65
11 -4 -9 0.97 0.88
-11 -4 9 0.64 0.77
11 -4 -9 0.63 0.8
-11 0 10 0.36 0.4
11 0 10 0.86 0.57
11 0 10 -0.32 0.35
-11 0 10 -0.18 0.4
-11 0 10 0.2 0.33
11 0 10 0.02 0.34
-11 1 10 21.33 1.44
11 -1 10 20.35 1.62
11 -1 10 19.4 1.42
-11 1 10 21.05 1.51
-11 1 10 21.41 1.49
11 -1 10 20.21 1.42
11 1 10 20.21 1.57
11 1 10 21.62 1.45
11 -2 10 75.7 4.48
-11 2 10 73.84 4.54
11 -2 10 79.07 4.59
11 -2 10 71.11 4.46
-11 2 10 72.6 4.49
-11 2 10 77.94 4.53
11 2 10 72.37 4.65
11 2 10 76.17 4.5
11 -3 10 0.48 0.4
11 -3 10 0.57 0.71
-11 3 10 0.57 0.39
-11 -3 -10 1.03 1.43
-11 3 10 0.52 0.48
11 -3 10 0.11 0.43
-11 -3 10 0.24 0.89
11 3 10 0.45 0.42
11 -3 -10 0.89 1.26
11 -4 10 0.47 0.6
11 -4 10 -0.04 0.38
-11 -4 -10 -0.28 1.11
11 -4 -10 0.16 0.78
11 0 11 0.03 0.32
11 0 11 0.29 0.63
-11 0 11 -0.07 0.42
11 0 11 -0.25 0.35
-11 0 11 0.24 0.33
11 0 11 0.18 0.44
-11 0 11 0.01 0.47
-11 1 11 1.4 0.59
-11 1 11 1.83 0.48
11 -1 11 1.78 0.48
11 -1 11 2.72 0.66
-11 1 11 1.55 0.51
11 -1 11 1.35 0.44
11 1 11 1.89 0.46
-11 -1 11 2.24 0.46
-11 -1 11 1.37 0.48
11 1 11 2.52 0.71
-11 2 11 1.05 0.46
-11 2 11 2.16 0.64
11 -2 11 1.41 0.53
11 -2 11 1.43 0.48
11 -2 11 1.76 0.63
-11 2 11 1.82 0.57
11 2 11 1.73 0.53
-11 -2 11 1.88 0.82
11 -3 11 4.98 0.62
-11 -3 -11 5.68 1.44
-11 3 11 5.03 0.66
11 -3 11 4.57 0.77
11 -3 11 5.51 0.67
-11 3 11 5.03 0.75
-11 -3 11 4.74 0.87
11 3 11 3.33 0.61
11 -3 -11 4.58 1.29
11 -4 11 3.68 0.58
11 -4 11 4.79 0.6
-11 -4 -11 1.18 1.02
11 -4 -11 3.73 0.78
-11 0 12 -0.07 0.52
11 0 12 0.44 0.36
-11 0 12 -0.15 0.36
11 0 12 -0.21 0.38
-11 0 12 -0.07 0.41
11 0 12 0.57 0.51
11 0 12 -0.42 0.65
11 -1 12 12.39 1.19
-11 1 12 10.89 1.61
-11 1 12 12.52 1.2
-11 1 12 12.51 1.16
11 -1 12 12.15 1.04
-11 1 12 11.41 1.04
11 -1 12 12.69 1.06
11 1 12 12.27 1.33
11 1 12 12.96 1.06
-11 -1 12 10.33 1.09
-11 -1 12 11.42 1.04
11 -2 12 29 1.92
11 -2 12 30.61 2.04
-11 2 12 31.28 2.03
-11 2 12 27.24 2.09
11 -2 12 32.09 1.93
-11 2 12 26.82 1.9
11 2 12 25.13 1.91
11 -2 -12 29.6 2.79
-11 -2 12 27.41 2.08
-11 -3 -12 1.55 1.28
-11 3 12 1.85 0.48
-11 3 12 1.74 0.46
11 -3 12 2.79 0.65
11 -3 12 2.91 0.5
11 -3 12 2.73 0.47
11 3 12 1.92 0.47
-11 -3 12 1.64 0.76
11 -3 -12 0.35 1.46
11 -4 12 0.43 0.32
11 -4 12 -0.3 0.42
-11 -4 -12 1.66 0.79
11 -4 -12 1.55 0.64
11 0 13 0.54 0.42
11 0 13 0.22 0.52
11 0 13 0.22 0.37
-11 0 13 0.21 0.39
-11 0 13 -0.95 1
11 0 13 -0.02 0.64
-11 0 13 -0.51 0.47
-11 0 13 0.36 0.42
11 -1 13 1.91 0.58
11 -1 13 3.49 0.55
-11 1 13 3.19 0.74
11 -1 13 3.52 0.66
-11 1 13 3.18 1.04
-11 1 13 2.41 0.52
-11 1 13 3.55 0.6
11 1 13 2.71 0.86
-11 -1 13 2.84 0.88
-11 -1 13 2.99 0.55
11 1 13 3.22 0.53
-11 -1 13 3.71 0.57
11 -2 13 0.27 0.46
11 -2 13 0.04 0.4
-11 2 13 0.66 0.41
-11 2 13 0.2 0.5
11 -2 13 -0.11 0.59
-11 2 13 0.95 0.59
11 2 13 0.39 0.42
-11 -2 13 0.43 0.69
-11 3 13 0.31 0.38
-11 3 13 0.08 0.37
11 -3 13 0.64 0.4
11 -3 13 0.39 0.33
-11 -3 -13 0.13 1.14
11 -3 13 -0.2 0.57
11 3 13 -0.02 0.35
11 -3 -13 2.67 0.88
11 0 14 0.38 0.39
-11 0 14 -0.08 0.52
11 0 14 -0.24 0.67
-11 0 14 -0.22 0.37
11 0 14 0.2 0.51
-11 0 14 0.61 0.75
-11 0 14 -0.03 0.44
11 0 14 -0.13 0.44
-11 1 14 16.61 1.31
-11 1 14 16.64 1.71
11 -1 14 15.93 1.26
11 -1 14 17.65 1.3
-11 1 14 15.65 1.31
-11 1 14 18.57 1.51
11 -1 14 19.05 1.41
11 1 14 16.79 1.57
11 1 14 15.02 1.23
11 1 14 17.73 1.27
-11 -1 14 14.54 1.36
-11 -1 14 15.43 1.54
-11 -1 14 18.2 1.28
-11 2 14 9.82 1.2
11 -2 14 11.24 0.95
-11 2 14 9.09 0.99
11 -2 14 11.89 1.09
-11 -2 -14 14.58 1.65
11 -2 14 12.08 1.03
-11 2 14 12.55 1.05
-11 -2 14 11.27 1.49
11 -3 14 1.04 0.45
-11 -3 -14 0.46 1.01
11 -3 14 1.03 0.31
11 -3 14 0.82 0.41
-11 3 14 1.03 0.4
-11 3 14 0.96 0.38
11 3 14 0.66 0.31
11 -3 -14 1.86 0.77
11 0 15 0.74 0.48
-11 0 15 -0.1 0.45
-11 0 15 -0.03 0.86
11 0 15 0.99 0.66
-11 0 15 0.09 0.42
-11 0 15 -0.13 0.55
11 0 15 0 0.4
-11 1 15 6.43 0.89
-11 1 15 7.96 1.15
11 -1 15 9 0.86
11 -1 15 9.91 0.94
-11 1 15 10.19 1.19
-11 1 15 7.99 0.91
11 -1 15 9.81 1.07
-11 -1 15 7.56 0.79
11 1 15 7.86 0.78
11 1 15 9.53 0.89
-11 -1 15 7.71 0.86
11 1 15 8.84 1.07
-11 2 15 8.12 0.88
-11 2 15 10.44 1.09
-11 2 15 11.1 0.92
11 -2 15 10.49 0.87
11 -2 15 9.77 0.98
11 -2 15 9.82 0.88
-11 -2 -15 11.81 1.49
11 2 15 10.5 0.93
11 -3 15 5.91 0.59
-11 3 15 4.03 0.49
-11 3 15 5.68 0.57
-11 -3 -15 4.21 0.9
11 -3 15 5.65 0.48
11 -3 -15 6 0.77
11 3 15 4.23 0.49
11 0 16 0.02 0.38
11 0 16 0.63 0.57
-11 0 16 -0.12 0.56
-11 0 16 0.46 0.44
11 0 16 1.06 0.45
-11 0 16 0 0.36
-11 1 16 0.79 0.41
-11 1 16 0.8 0.46
11 -1 16 1 0.46
11 -1 16 0.93 0.56
-11 1 16 1.7 0.52
11 -1 16 0.56 0.41
-11 -1 16 0.31 0.36
-11 -1 16 0.93 0.49
11 1 16 -0.64 0.77
11 1 16 0.35 0.39
11 1 16 0.88 0.36
11 -2 16 0.64 0.39
-11 2 16 0.86 0.37
-11 2 16 0.67 0.34
11 -2 16 0.81 0.36
-11 -2 -16 0.59 0.9
-11 2 16 0.72 0.55
11 -2 16 1.32 0.47
11 2 16 0.97 0.35
-11 0 17 -0.09 0.52
11 0 17 0.4 0.32
11 0 17 -0.76 0.56
-11 0 17 0.16 0.37
-11 1 17 1.55 0.37
-11 1 17 1.39 0.38
11 -1 17 2.23 0.41
11 -1 17 2.12 0.38
-11 1 17 2.47 0.5
11 -1 17 2 0.48
11 1 17 1.33 0.32
11 1 17 1.17 0.66
-11 -1 17 0.96 0.35
-11 -1 17 1.87 0.36
-11 0 18 0.64 0.37
11 0 18 -0.82 0.55
-11 0 18 -0.03 0.3
11 0 18 -0.19 0.24
12 0 0 149.96 8.68
12 -1 0 17.7 1.44
-12 -1 0 17.12 1.31
12 1 0 17.55 1.15
-12 1 0 17.66 1.38
12 -1 0 19.79 1.19
12 -2 0 0.76 0.81
-12 -2 0 0.46 0.79
12 -3 0 12.22 1.17
12 -3 0 11.91 1.14
-12 -4 0 1.83 1.15
12 -4 0 3 0.65
12 -4 0 2.17 1.12
12 -4 0 4.79 0.81
12 -5 0 0.25 0.51
-12 -5 0 -1.06 0.73
12 -5 0 -0.44 0.64
12 0 1 60.29 3.4
12 0 -1 54.45 3.39
12 -1 1 8.37 0.7
12 1 -1 9.66 0.68
-12 1 1 8.99 1.02
-12 -1 -1 11.26 1.11
12 -1 1 8.07 1.12
-12 -1 1 7.19 0.89
12 -1 -1 9.34 0.99
12 1 1 9.43 0.7
12 -1 -1 11.5 0.75
12 -2 1 26.25 2.2
12 -2 1 26.19 1.66
-12 -2 -1 27.6 2.33
-12 -2 1 28.45 2.24
12 -2 -1 25.24 2.59
12 -2 -1 26.07 1.67
12 -3 1 14.25 1.26
12 -3 1 16.39 1.19
12 -3 -1 12.04 1.24
12 -3 -1 12.21 1.23
-12 -4 -1 12.03 1.73
12 -4 1 13.05 1.9
12 -4 1 16.62 1.36
12 -4 1 16.63 1.39
12 -4 -1 14.66 1.47
12 -4 -1 13.76 1.82
-12 -4 1 11.03 1.57
12 -5 1 5.18 0.8
-12 -5 -1 4.21 0.85
-12 -5 1 4.87 1.18
12 -5 -1 4.55 0.82
12 0 2 86.83 5.21
12 0 -2 91.77 5.22
-12 -1 -2 36.03 2.38
12 1 -2 33.72 2.07
12 -1 2 34.88 2.38
12 -1 2 34.05 2.09
12 1 2 35.58 2.09
12 -1 -2 33.64 2.1
-12 -1 2 33.75 2.21
12 -1 -2 32.29 2.32
12 -2 2 7.53 1.43
12 -2 2 8.84 0.63
-12 -2 -2 8.87 1.67
12 -2 -2 7.93 0.67
-12 -2 2 7.06 1.2
12 -3 2 2.69 0.63
12 -3 2 1.92 0.55
12 -3 -2 1.6 0.66
12 -3 -2 1.83 0.59
12 -4 2 14.06 1.28
12 -4 2 14.78 1.67
-12 -4 -2 9.85 1.54
12 -4 2 15.14 1.34
12 -4 -2 15.93 1.47
-12 -4 2 11.41 1.5
12 -4 -2 14.72 1.56
12 -4 -2 15.43 1.71
12 -5 2 6.54 0.8
12 -5 2 5.07 0.78
12 -5 -2 8.39 0.93
12 -5 -2 2.72 1.06
-12 0 -3 5.13 0.76
12 0 -3 4.58 0.5
12 -1 3 11.28 0.88
12 1 -3 12.14 0.85
12 -1 -3 13.71 0.91
12 -1 -3 13.19 1.34
12 1 3 12.46 0.89
12 -2 3 1.54 0.9
12 -2 3 1.33 0.26
-12 -2 -3 1.71 1.11
12 -2 -3 1.38 0.33
12 -3 3 2.92 0.9
12 -3 3 4.02 0.64
-12 3 3 3.43 0.55
12 -3 3 3.52 0.57
-12 -3 -3 1.05 1.55
12 -3 -3 3.75 0.79
12 -4 3 0.65 0.6
12 -4 3 0.64 0.43
12 -4 3 2.05 0.95
-12 -4 -3 1.04 1.23
12 -4 -3 1.39 0.8
12 -4 -3 1.44 0.68
12 -4 -3 0.77 1.05
-12 -4 3 1.57 1.02
12 -5 3 9.92 1.08
12 -5 3 11.02 0.93
12 -5 -3 9.6 1.05
12 0 -4 57.9 4.01
-12 0 -4 74.16 4.23
12 0 -4 67.77 3.95
12 0 4 67.06 3.94
12 -1 4 1.95 0.33
12 1 -4 2.19 0.76
12 1 -4 2.45 0.34
-12 -1 -4 3.8 0.96
-12 1 -4 1.86 0.71
12 -1 -4 3.18 0.76
12 -1 -4 2.81 0.41
12 1 4 2.69 0.41
12 -2 4 14.77 1.78
-12 -2 -4 12.52 2.05
12 -2 -4 10.32 0.87
-12 -3 -4 13.68 1.81
12 -3 4 13.72 1.09
12 -3 4 12.54 1.52
-12 3 4 12.95 1.09
12 -3 4 11.2 1.12
12 -3 -4 12.51 1.36
12 -4 4 2.03 0.94
12 -4 4 2.73 0.51
-12 -4 -4 3.69 1.2
12 -4 4 3.74 0.66
12 -4 -4 2.28 0.76
12 -4 -4 2.63 1.15
-12 -4 4 2.46 1.08
12 -4 -4 3.16 0.87
-12 -5 -4 3.21 0.85
12 -5 4 5.23 0.69
12 0 -5 149.88 9.26
12 0 5 149.06 9.26
-12 0 -5 173.02 9.57
12 0 -5 167.12 9.65
12 -1 5 23.53 1.59
12 1 -5 25.27 1.57
-12 1 -5 26.7 2.12
12 -1 -5 26.84 1.63
12 1 5 23.3 1.59
-12 -2 -5 17.13 2.28
12 -3 5 1.06 0.89
12 -3 5 0.54 0.53
-12 -3 -5 2.42 1.38
-12 3 5 1.22 0.5
12 -3 5 1.4 0.46
12 -3 -5 2.28 0.81
12 -4 5 5.24 0.98
12 -4 5 6.13 0.71
-12 -4 -5 7.15 1.29
12 -4 5 4.87 0.67
12 -4 -5 6.17 0.96
12 -4 -5 5.56 1.24
12 -4 -5 7.49 0.91
-12 -4 5 3.54 1.1
-12 -5 -5 -0.96 0.77
12 -5 5 1.26 0.41
12 -5 5 0.59 0.51
12 -5 -5 1.17 0.5
-12 0 -6 131.85 7.44
12 0 6 116.69 7.01
12 0 -6 111.48 7
-12 -1 -6 2.16 1.08
12 -1 6 1.89 0.33
12 1 -6 1.76 0.35
12 -1 -6 1.57 0.36
-12 1 -6 0.92 0.85
12 1 6 1.61 0.34
-12 2 6 4.13 0.77
12 -2 6 2.93 0.52
12 -3 6 20.24 1.51
-12 -3 -6 19.98 2.42
12 -3 6 21.68 1.51
12 -3 6 20.01 1.79
-12 3 6 21.72 1.52
12 3 6 20.28 1.46
12 -3 -6 19.85 1.74
12 -4 6 0.02 0.45
12 -4 6 0.33 0.34
-12 -4 -6 0.29 1.16
12 -4 6 -0.02 0.81
12 -4 -6 0.42 0.71
-12 -4 6 1.06 1.01
12 -4 -6 0.5 0.79
12 -4 -6 1.87 1.08
12 -5 6 1.67 0.35
12 -5 6 0.04 0.55
12 -5 -6 0.76 0.53
12 0 7 4.87 0.52
12 0 -7 4 0.53
-12 0 -7 4.4 1.2
-12 -1 -7 0.9 1.1
12 -1 7 0.59 0.26
12 1 -7 -0.01 0.27
12 1 7 0.32 0.35
-12 1 -7 -0.42 0.76
-12 2 7 6.19 0.71
12 -2 7 7.68 0.77
-12 2 7 7 0.94
-12 -2 -7 7.83 1.35
-12 2 7 9.9 0.87
12 2 7 7.53 0.74
12 -3 7 31.76 2.13
-12 3 7 32.79 2.17
-12 -3 -7 32.72 3.09
12 -3 7 27.24 2.44
12 -3 7 32.47 2.14
12 3 7 34.67 2.11
12 -3 -7 36.16 2.4
12 -4 7 0.69 0.76
-12 -4 -7 2.46 1.22
12 -4 7 1.26 0.36
12 -4 7 1.9 0.49
-12 -4 7 3.38 1.01
12 -4 -7 2.04 0.85
-12 0 -8 11.04 2.21
-12 2 8 25.81 1.76
-12 2 8 26.67 1.78
-12 2 8 25.21 1.68
12 -2 8 25.46 1.71
12 -2 8 23.71 1.84
12 -2 8 26.21 1.72
12 2 8 26.09 1.7
12 -3 8 7.07 0.78
12 -3 8 6.18 0.97
-12 -3 -8 6.21 1.66
12 -3 8 6.55 0.82
-12 3 8 7.41 0.96
12 -3 -8 7.57 1.16
12 3 8 7.98 0.87
12 -4 8 -0.15 0.41
12 -4 8 0.43 0.3
12 -4 8 1.17 0.71
-12 -4 -8 -0.23 1.15
12 -4 -8 1.03 0.82
12 -1 9 5.22 0.63
12 -1 9 5.87 0.66
-12 1 9 4.79 0.69
-12 1 9 4.4 0.65
-12 1 9 4.88 0.63
12 1 9 4.73 0.66
12 -2 9 20 1.45
12 -2 9 19.01 1.65
-12 2 9 19.19 1.51
12 -2 9 19.92 1.46
-12 2 9 21.95 1.54
-12 2 9 22.8 1.45
12 2 9 21.2 1.47
-12 3 9 19.58 1.37
-12 3 9 18.89 1.49
12 -3 9 17.57 1.36
-12 -3 -9 17.2 2.05
12 -3 9 20 1.44
12 -3 9 17.57 1.62
12 3 9 21.17 1.45
12 -4 9 9.06 1.09
12 -4 9 9.15 0.84
-12 -4 -9 6.82 1.29
12 -4 -9 11.64 1.27
12 0 10 22.54 1.49
12 0 10 19.96 1.45
-12 0 10 21.92 1.51
12 0 10 23.55 1.64
-12 0 10 20.85 1.48
-12 0 10 23.78 1.52
-12 1 10 8.77 0.8
12 -1 10 8.04 0.84
-12 1 10 7.32 0.83
-12 1 10 8.1 0.89
12 -1 10 6.31 0.77
12 -1 10 7.09 1.02
12 1 10 7.73 0.8
12 1 10 8.41 1.01
-12 2 10 10.93 1.09
12 -2 10 10.55 0.95
12 -2 10 10.97 0.98
-12 2 10 10.27 0.97
-12 2 10 10.62 1.07
12 -2 10 11.26 1.18
12 2 10 10.66 0.99
12 -3 10 3.58 0.57
12 -3 10 2.34 0.78
-12 3 10 2.85 0.54
12 -3 10 4.21 0.67
-12 3 10 5.19 0.64
-12 -3 -10 4.06 1.46
12 3 10 3.76 0.57
12 -4 10 1.73 0.43
12 -4 10 0.71 0.56
-12 -4 -10 2.28 1.05
12 -4 -10 2.89 0.77
12 0 11 2.63 0.47
12 0 11 3.84 0.66
-12 0 11 3.08 0.54
-12 0 11 3.58 0.56
12 0 11 4.39 0.74
12 0 11 3.99 0.55
-12 0 11 3.52 0.52
-12 1 11 0.12 0.42
-12 1 11 -0.17 0.58
12 -1 11 0.43 0.57
12 -1 11 -0.03 0.41
-12 1 11 0.41 0.39
12 -1 11 0.61 0.43
12 1 11 -0.1 0.7
12 1 11 0.32 0.41
-12 -1 11 -0.1 0.68
12 -2 11 6.07 0.81
-12 2 11 6.77 0.89
-12 2 11 5.37 0.82
12 -2 11 6.11 0.8
-12 2 11 6.99 0.78
12 -2 11 4.8 0.68
12 2 11 6.63 0.88
-12 -3 -11 0.83 1.35
12 -3 11 1.22 0.48
-12 3 11 1.75 0.46
12 -3 11 0.58 0.39
12 -3 11 1.45 0.63
-12 3 11 1.14 0.46
12 3 11 1.31 0.47
12 -4 11 2.42 0.53
12 -4 11 2.61 0.43
-12 -4 -11 1.39 0.88
12 -4 -11 3.03 0.67
12 0 12 1.45 0.67
-12 0 12 0.73 0.46
-12 0 12 0.86 0.42
12 0 12 0.86 0.41
12 0 12 0.86 0.5
-12 0 12 1.47 0.44
12 0 12 1.32 0.44
12 -1 12 17.91 1.34
-12 1 12 17.8 1.3
12 -1 12 18.51 1.44
12 -1 12 16.42 1.31
-12 1 12 19 1.45
-12 1 12 15.95 1.33
12 1 12 19.06 1.34
-12 -1 12 16.64 1.31
-12 -1 12 17.4 1.35
12 1 12 15.39 1.57
12 -2 12 20.9 1.64
-12 2 12 22.27 1.5
-12 2 12 22.96 1.64
-12 2 12 21.23 1.65
12 -2 12 21.78 1.51
12 -2 12 22.33 1.51
12 2 12 18.83 1.56
-12 3 12 5.37 0.73
-12 3 12 5.68 0.72
12 -3 12 4.31 0.73
12 -3 12 5.99 0.78
12 -3 12 5.64 0.68
-12 -3 -12 3.13 1.29
12 3 12 5.76 0.74
12 -3 -12 6.8 1.01
12 -4 12 3.05 0.38
12 -4 -12 3.23 0.61
12 0 13 46.53 2.9
12 0 13 46.31 2.78
-12 0 13 43.8 2.8
-12 0 13 43.26 2.79
-12 0 13 45.19 2.84
12 0 13 44.05 2.78
12 0 13 44.43 2.79
-12 1 13 3.79 0.61
-12 1 13 3.74 0.78
12 -1 13 3.7 0.57
12 -1 13 4.82 0.71
-12 1 13 4.05 0.68
12 -1 13 5.3 0.65
12 1 13 3.13 0.87
-12 -1 13 3.29 0.59
-12 -1 13 4.87 0.7
-12 2 13 1.26 0.42
-12 2 13 1.29 0.53
12 -2 13 0.97 0.58
12 -2 13 1.32 0.49
12 -2 13 0.93 0.43
-12 2 13 1.07 0.59
12 2 13 0.73 0.44
12 -3 13 1.28 0.35
12 -3 13 1.53 0.42
12 -3 13 1.31 0.55
-12 -3 -13 1.27 1.12
-12 3 13 0.8 0.4
-12 3 13 1.15 0.41
12 -3 -13 0.82 0.88
12 3 13 1 0.37
12 0 14 3.18 0.58
12 0 14 2.13 0.44
12 0 14 2.11 0.7
-12 0 14 1.68 0.51
12 0 14 2.34 0.53
-12 0 14 2.15 0.59
-12 0 14 2.64 0.57
-12 1 14 19.78 1.54
12 -1 14 18.65 1.38
12 -1 14 18.86 1.38
-12 1 14 19.23 1.37
-12 1 14 18.04 1.44
12 -1 14 17.86 1.48
12 1 14 17.54 1.64
-12 -1 14 19.75 1.4
-12 -1 14 18.33 1.48
12 1 14 19.14 1.38
-12 2 14 9.84 1.2
12 -2 14 10.72 0.98
12 -2 14 10.24 1.01
-12 2 14 9.62 0.89
-12 2 14 10.67 1.01
12 -2 14 9.95 0.9
-12 -2 -14 11.28 1.49
12 -3 14 1.14 0.41
-12 -3 -14 -0.38 0.95
-12 3 14 1.53 0.38
12 -3 14 1.39 0.32
12 -3 14 1.25 0.42
-12 3 14 0.74 0.34
12 -3 -14 1.92 0.78
12 3 14 0.79 0.33
-12 0 15 0.24 0.44
-12 0 15 0.06 0.58
12 0 15 0.34 0.6
12 0 15 0.76 0.46
-12 0 15 0.36 0.4
12 0 15 -0.09 0.39
12 -1 15 4.42 0.71
-12 1 15 4.6 0.7
-12 1 15 4.01 0.62
-12 1 15 4.42 0.68
12 -1 15 5.17 0.61
12 -1 15 5.98 0.74
12 1 15 4.62 0.71
12 1 15 3.91 0.9
-12 -1 15 3.94 0.56
-12 -1 15 5.1 0.62
-12 2 15 0.67 0.37
12 -2 15 0.45 0.51
12 -2 15 0.84 0.42
-12 2 15 1.09 0.38
-12 2 15 0.84 0.62
12 -2 15 0.79 0.37
-12 -2 -15 1.39 0.98
12 2 15 0.5 0.36
-12 3 15 1.52 0.3
12 -3 15 1.1 0.27
12 -3 15 1.94 0.33
12 -3 15 0.89 0.58
-12 3 15 1.81 0.32
12 -3 -15 1.15 0.6
12 3 15 1.54 0.29
-12 0 16 18.85 1.42
-12 0 16 20.73 1.56
12 0 16 20.28 1.39
-12 0 16 19.07 1.42
12 0 16 20.72 1.48
12 0 16 20.78 1.37
12 -1 16 10.52 0.92
-12 1 16 11.69 1.01
12 -1 16 10.19 0.91
-12 1 16 12.59 0.95
12 -1 16 10.3 0.98
-12 1 16 9.92 0.95
12 1 16 8.6 0.86
-12 -1 16 9.7 0.84
12 1 16 8.71 1.19
-12 -1 16 8.92 0.99
-12 -2 -16 -1.08 0.81
-12 2 16 0.2 0.3
-12 2 16 -0.15 0.46
12 -2 16 0.45 0.31
12 -2 16 0.19 0.36
-12 2 16 0.34 0.33
12 -2 16 0.76 0.4
12 2 16 0.17 0.29
-12 0 17 32.66 2.14
-12 0 17 34.41 2.17
12 0 17 36.31 2.13
12 0 17 34.31 2.2
12 -1 17 2.34 0.44
-12 1 17 2.47 0.47
12 -1 17 2.69 0.43
-12 1 17 2.46 0.43
-12 1 17 2.12 0.39
12 -1 17 2.31 0.4
12 0 18 2.23 0.57
-12 0 18 2.6 0.34
12 0 18 2.55 0.39
-12 0 18 3.33 0.47
13 0 0 0.05 0.25
13 1 0 1.59 0.29
13 -1 0 1.35 0.68
13 -1 0 1.44 0.33
13 -2 0 9.38 0.72
13 -3 0 6.12 0.88
13 -3 0 7.84 1.01
-13 -4 0 5.85 1.37
13 -4 0 6.85 1.35
13 -4 0 10.63 0.96
13 -4 0 8.72 0.99
13 -5 0 9.01 0.94
13 0 1 -0.03 0.24
13 0 -1 0.07 0.23
13 -1 1 23.17 1.44
-13 -1 -1 22.72 1.59
13 1 -1 21.2 1.41
13 -1 1 21.62 1.66
13 1 1 22.48 1.42
-13 -1 1 21.22 1.5
13 -1 -1 24.14 1.45
13 -2 1 30.74 1.83
13 -2 -1 27.61 1.83
13 -3 1 2.45 0.65
13 -3 1 2.46 0.58
13 -3 -1 2.58 0.68
13 -3 -1 2.25 0.64
13 -4 1 3.35 0.55
13 -4 1 3.62 0.74
-13 -4 -1 2.56 1.08
13 -4 1 0.41 0.99
13 -4 -1 3.47 0.61
13 -4 -1 4.55 0.82
-13 -4 1 1.33 1.46
13 -4 -1 2.2 1.52
13 -5 1 16.68 1.21
13 -5 -1 15.47 1.25
13 0 -2 0.27 0.26
13 0 2 0.32 0.25
-13 -1 -2 23.58 1.77
13 -1 2 22.86 1.47
13 1 -2 23.25 1.46
13 -1 -2 23.12 1.49
13 1 2 22.56 1.46
13 -2 2 0.67 0.24
13 -2 -2 0.94 0.3
13 -3 2 11.52 1.07
13 -3 2 10.4 1.02
13 -3 -2 9.85 1.12
13 -3 -2 10.01 1.18
-13 -4 -2 3.71 1.13
13 -4 2 4.05 0.59
13 -4 2 3.37 0.95
13 -4 2 4.68 0.75
13 -4 -2 3.81 0.86
13 -4 -2 3.68 0.68
13 -5 2 2.71 0.53
13 -5 -2 4.22 0.62
13 0 3 0.04 0.24
13 0 -3 0.22 0.25
-13 0 -3 -0.35 0.53
13 1 -3 95.01 5.97
-13 -1 -3 106.83 6.22
-13 1 -3 107.29 6.22
13 1 3 104.49 6
13 -1 -3 99.09 6
13 -2 3 24.09 1.51
13 -2 -3 22.95 1.54
13 -3 3 22.71 1.61
13 -3 3 21.4 1.61
13 -3 -3 22.82 1.76
13 -4 3 28.04 1.84
13 -4 3 28.32 1.98
13 -4 3 26.46 2.17
13 -4 -3 28.66 1.93
13 -4 -3 27.3 2.13
13 -5 3 2.11 0.45
13 -5 -3 3.2 0.6
13 0 4 0.04 0.23
-13 0 -4 -0.72 0.61
13 0 -4 -0.13 0.25
13 -1 4 7.83 0.65
13 1 -4 6.86 0.61
-13 -1 -4 9.06 1.35
13 -1 -4 7.34 0.68
-13 1 -4 7.55 1.14
13 1 4 7.99 0.66
13 -3 4 12.12 1.15
13 -3 4 13.25 1.09
-13 3 4 13.74 1.11
13 -3 -4 12.62 1.47
-13 -4 -4 7.36 1.36
13 -4 4 10.48 0.92
13 -4 4 10.88 1.08
13 -4 4 7.97 1.14
13 -4 -4 9.81 1.3
13 -4 -4 8.66 1.06
13 -5 4 0.65 0.42
13 -5 -4 0.75 0.52
13 0 5 0.23 0.26
-13 0 -5 0.04 0.76
13 0 -5 -0.2 0.24
13 -1 5 11.27 0.9
13 1 -5 13.15 0.9
13 1 5 11.3 0.92
13 -1 -5 13.76 0.96
-13 1 -5 14.33 1.54
-13 -3 -5 21.02 2.67
13 -3 5 23.11 1.67
-13 3 5 26.05 1.71
13 -3 5 24.48 1.64
13 -3 5 23.41 2.1
13 -3 -5 21.03 1.93
13 -4 5 1.26 0.4
13 -4 5 1.25 0.8
-13 -4 -5 2.16 1.11
13 -4 5 0.99 0.51
13 -4 -5 1.92 0.8
13 -4 -5 1.11 0.61
13 -5 5 2.09 0.41
13 -5 -5 2.18 0.54
13 0 6 0.47 0.27
-13 0 -6 0.19 0.84
13 0 -6 -0.15 0.26
-13 -1 -6 6.02 1.14
13 -1 6 5.26 0.52
13 1 -6 3.61 0.48
13 1 6 4.64 0.53
13 -1 -6 4.37 0.55
-13 1 -6 3.17 0.9
13 -2 6 4.22 0.68
-13 2 6 4.05 0.71
-13 2 6 4.78 0.71
13 -2 6 4.2 0.56
13 2 6 3.42 0.55
-13 3 6 5.09 0.69
13 -3 6 4.65 0.65
13 -3 6 3.45 0.62
13 -3 6 3.81 0.92
-13 -3 -6 4.95 1.47
13 3 6 4.59 0.71
13 -3 -6 5.5 0.94
13 -4 6 1.26 0.48
-13 -4 -6 2.69 1.09
13 -4 6 2.05 0.4
13 -4 6 0.83 0.83
13 -4 -6 1.21 0.6
13 -4 -6 2.02 0.8
13 -5 6 1.28 0.35
13 -5 -6 1.62 0.52
-13 0 -7 0.06 0.95
13 0 7 -0.18 0.28
13 0 -7 0.29 0.29
-13 -1 -7 4.29 2.03
-13 1 -7 3.25 1.01
13 -2 7 31.52 1.98
-13 2 7 28.02 2.03
-13 2 7 33.02 1.99
13 -2 7 31.02 2.02
-13 2 7 31.34 2.09
13 2 7 31.96 2
13 -3 7 25.56 2.12
13 -3 7 27.14 1.85
-13 -3 -7 25.6 2.66
-13 3 7 27.26 1.89
13 -3 7 27.98 1.86
13 -3 -7 29.93 2.14
13 3 7 28.52 1.86
13 -4 7 0.91 0.73
13 -4 7 0.75 0.46
-13 -4 -7 0.06 1.08
13 -4 7 0.53 0.33
13 -4 -7 0.8 0.57
13 -4 -7 1.2 0.78
-13 0 -8 -0.64 1.61
13 -1 8 5.58 0.72
-13 1 8 5.26 0.78
13 1 8 7.84 0.76
-13 2 8 13.22 1.25
13 -2 8 13.62 1.23
-13 2 8 11.76 0.98
-13 -2 -8 12.38 1.6
13 -2 8 12.59 1.05
13 -2 8 11.91 1.03
-13 2 8 12.98 1.1
13 2 8 12.53 1.03
-13 3 8 9.99 1.03
13 -3 8 8.9 1.03
13 -3 8 9.02 0.94
13 -3 8 9.31 1.32
-13 -3 -8 8.21 1.68
13 -3 -8 8.88 1.16
13 3 8 10.17 0.96
13 -4 8 0.41 0.63
-13 -4 -8 0.98 1.06
13 -4 8 0.2 0.31
13 -4 8 0.18 0.41
13 -4 -8 0.18 0.52
13 -4 -8 0.73 0.81
-13 0 9 0.68 0.41
-13 0 9 -0.12 0.32
13 -1 9 3.14 0.48
13 -1 9 2.87 0.48
-13 1 9 3.23 0.6
-13 1 9 3.95 0.54
-13 1 9 2.7 0.48
13 1 9 3.19 0.48
13 -2 9 6.42 0.79
-13 2 9 4.81 0.68
13 -2 9 7.37 0.87
-13 2 9 5.76 0.75
13 2 9 5.55 0.75
13 -3 9 6.04 0.74
-13 -3 -9 3.51 1.5
-13 3 9 6.13 0.89
-13 3 9 4.65 0.69
13 -3 9 5.11 0.82
13 -3 9 6.72 0.69
13 3 9 4.48 0.81
13 -3 -9 6.13 1.06
13 -4 9 0.81 0.58
13 -4 9 2.03 0.42
-13 -4 -9 1.23 1.01
13 -4 9 1.67 0.32
13 -4 -9 2.42 0.78
13 0 10 -0.02 0.33
13 0 10 1.94 0.75
-13 0 10 0.55 0.39
-13 0 10 0.3 0.37
13 0 10 0.27 0.37
-13 0 10 -0.05 0.36
13 -1 10 8.37 0.84
-13 1 10 6.99 0.76
-13 1 10 4.56 0.7
13 -1 10 5.78 0.73
13 -1 10 6.06 0.71
-13 1 10 6.4 0.79
13 1 10 5.71 0.74
13 1 10 6.41 0.92
13 -2 10 0.73 0.6
13 -2 10 0.88 0.45
13 -2 10 1.56 0.45
-13 2 10 2.05 0.61
-13 2 10 1.46 0.42
-13 2 10 1.23 0.5
13 2 10 1.62 0.5
-13 3 10 1.09 0.43
13 -3 10 1.5 0.65
-13 3 10 1.57 0.51
13 -3 10 1.55 0.48
13 -3 10 1.51 0.44
-13 -3 -10 0.57 1.33
13 -3 -10 1.73 1.03
13 3 10 1.77 0.5
13 -4 10 0.7 0.49
13 -4 10 -0.03 0.38
-13 -4 -10 0.1 0.88
13 -4 -10 -0.31 0.74
13 0 11 0.04 0.38
13 0 11 0.16 0.61
-13 0 11 0.11 0.38
-13 0 11 0.1 0.39
13 0 11 0.02 0.35
-13 0 11 0.17 0.42
13 -1 11 36.45 2.39
13 -1 11 37.24 2.43
-13 1 11 37.7 2.44
-13 1 11 37.12 2.41
-13 1 11 43.28 2.57
13 -1 11 37.37 2.48
13 1 11 40.73 2.44
13 1 11 37.34 2.6
13 -2 11 21.49 1.56
-13 2 11 24 1.55
13 -2 11 21.14 1.56
-13 2 11 21.23 1.6
-13 2 11 20.96 1.68
13 -2 11 20.07 1.65
13 2 11 25.39 1.65
-13 -3 -11 2.07 1.26
13 -3 11 3.63 0.57
-13 3 11 2.79 0.58
13 -3 11 4.68 0.55
-13 3 11 2.74 0.54
13 -3 11 4.75 0.68
13 3 11 3.65 0.58
13 -3 -11 4.73 1
13 -4 11 2.32 0.49
-13 -4 -11 1.93 0.76
13 -4 -11 4.3 0.72
13 0 12 1.4 0.63
13 0 12 -0.03 0.36
13 0 12 0.49 0.41
-13 0 12 -0.22 0.43
-13 0 12 0.12 0.39
-13 0 12 0 0.45
13 -1 12 5.95 0.74
13 -1 12 5.13 0.65
-13 1 12 4.5 0.66
-13 1 12 5.36 0.73
-13 1 12 4.68 0.81
13 -1 12 5.03 0.64
13 1 12 3.87 0.91
13 1 12 4.74 0.75
-13 -1 12 3.63 0.73
-13 2 12 13.36 1.15
13 -2 12 14.8 1.17
13 -2 12 14.95 1.33
-13 2 12 17.3 1.33
13 -2 12 14.87 1.2
-13 2 12 16.23 1.31
13 2 12 13.43 1.23
13 -3 12 0.91 0.39
13 -3 12 0.7 0.43
-13 -3 -12 -0.33 1.12
-13 3 12 1.94 0.47
-13 3 12 0.64 0.43
13 -3 12 0.17 0.55
13 3 12 1.29 0.42
13 -3 -12 1.06 0.94
13 0 13 0.55 0.42
-13 0 13 0.03 0.42
-13 0 13 -0.1 0.46
13 0 13 0.71 0.67
13 0 13 0.11 0.34
-13 0 13 0.16 0.5
-13 1 13 20.72 1.72
-13 1 13 25.59 1.75
13 -1 13 24.35 1.66
13 -1 13 23.8 1.74
13 -1 13 26.2 1.66
-13 1 13 27.18 1.68
-13 -1 13 20.01 1.62
13 1 13 25.35 1.7
13 1 13 22.33 1.9
-13 2 13 8.06 0.83
13 -2 13 6.4 0.79
-13 2 13 7.22 0.91
13 -2 13 7.14 0.91
-13 2 13 8.15 0.9
-13 -2 -13 7.95 1.23
13 -2 13 7.23 0.85
13 2 13 6.41 0.83
13 -3 13 1.45 0.49
-13 3 13 0.95 0.41
13 -3 13 0.78 0.34
-13 3 13 1.05 0.36
-13 -3 -13 0.15 1.05
13 -3 13 0.75 0.39
13 -3 -13 1.93 0.78
13 3 13 0.9 0.38
-13 0 14 0.1 0.4
13 0 14 0.11 0.68
13 0 14 -0.3 0.41
-13 0 14 -0.21 0.44
13 0 14 0.09 0.36
13 0 14 0.09 0.64
-13 0 14 -0.74 0.59
13 -1 14 3.98 0.56
13 -1 14 4.29 0.57
13 -1 14 4.44 0.71
-13 1 14 5.31 0.68
-13 1 14 2.75 0.52
-13 1 14 2.57 0.53
-13 -1 14 2.8 0.52
13 1 14 4.43 0.87
13 1 14 2.6 0.53
-13 2 14 1.11 0.43
13 -2 14 2.06 0.54
-13 2 14 0.91 0.64
13 -2 14 2.23 0.44
-13 2 14 1.42 0.46
-13 -2 -14 2 1.04
13 -2 14 1.6 0.49
13 2 14 1.8 0.45
-13 -3 -14 0.48 0.85
-13 3 14 0.78 0.35
13 -3 14 1.09 0.29
13 -3 14 1.35 0.39
-13 3 14 1.27 0.33
13 -3 14 2.12 0.4
13 3 14 1.11 0.3
13 -3 -14 1.21 0.74
-13 0 15 -0.41 0.6
13 0 15 -0.23 0.38
-13 0 15 -0.46 0.45
-13 0 15 0.04 0.41
13 0 15 1.31 0.56
13 -1 15 19.04 1.36
-13 1 15 14.72 1.4
13 -1 15 19 1.36
13 -1 15 20.14 1.42
-13 1 15 20.95 1.52
-13 1 15 20.32 1.42
-13 -1 15 20.04 1.35
13 1 15 18.13 1.61
-13 2 15 1.1 0.4
13 -2 15 1.93 0.4
13 -2 15 1.82 0.42
13 -2 15 1.81 0.51
-13 -2 -15 1.02 0.96
-13 2 15 1.96 0.62
-13 2 15 2.58 0.48
13 2 15 1.36 0.41
-13 0 16 -0.12 0.39
-13 0 16 -0.01 0.36
13 0 16 -0.22 0.57
13 0 16 -0.06 0.36
-13 0 16 0.4 0.51
-13 1 16 0.94 0.4
13 -1 16 0.79 0.39
13 -1 16 1.4 0.5
-13 1 16 1.9 0.51
13 -1 16 1.18 0.42
-13 1 16 1.08 0.41
13 1 16 0.93 0.34
13 1 16 0.23 0.66
-13 -2 -16 3.9 0.83
-13 2 16 3.77 0.51
13 -2 16 3.72 0.44
-13 2 16 4.02 0.54
13 -2 16 3.89 0.51
13 -2 16 3.38 0.46
-13 2 16 3.48 0.53
13 2 16 3.5 0.49
-13 0 17 0.18 0.33
13 0 17 0.46 0.28
-13 0 17 0.94 0.39
13 0 17 -0.68 0.51
-13 1 17 1.99 0.35
-13 1 17 2.24 0.48
-13 1 17 1.17 0.36
13 -1 17 2.17 0.41
13 -1 17 1.72 0.34
13 -1 17 2.04 0.35
13 1 17 1.24 0.28
14 0 0 71.41 4.21
14 -1 0 0.3 0.27
14 1 0 0.42 0.24
14 -2 0 0.1 0.25
14 -3 0 0.66 0.65
14 -3 0 0.67 0.55
14 -4 0 49.99 3.29
14 -4 0 52.57 3.18
14 -5 0 0.45 0.47
14 0 -1 49.28 3.07
14 0 1 53.6 3.08
14 1 -1 12.39 0.87
14 -1 1 11.36 0.88
14 -1 -1 14.25 0.9
14 1 1 10.6 0.85
14 -2 1 14.99 1
14 -2 -1 13.31 1
14 -3 1 20.57 1.46
14 -3 1 19.44 1.47
14 -3 -1 16.47 1.44
14 -3 -1 16.65 1.45
14 -4 1 12.55 1.37
14 -4 1 13.41 1.11
14 -4 -1 13.81 1.36
14 -4 -1 13.63 1.19
14 -5 1 6.39 0.81
14 -5 -1 6.64 0.85
14 0 2 5.72 0.55
14 0 -2 5.77 0.56
14 1 -2 8 0.63
14 -1 2 7.36 0.63
14 1 2 6.97 0.63
14 -1 -2 7.16 0.67
14 -2 2 24.36 1.58
14 -2 -2 24.92 1.59
14 -3 2 3.54 0.62
14 -3 2 4.6 0.71
14 -3 -2 4.52 0.74
14 -3 -2 5.04 0.8
14 -4 2 9.84 0.96
14 -4 2 11.38 1.2
14 -4 -2 10.35 1.38
14 -4 -2 9.33 1.1
14 -5 2 6.28 0.75
14 -5 -2 5.62 0.68
14 0 -3 40.68 2.42
-14 0 -3 43.22 2.59
14 0 3 34.91 2.4
14 1 -3 90.68 5.24
14 1 3 90.53 5.27
14 -1 -3 87.29 5.27
14 -2 3 12.29 0.93
14 -2 -3 13.45 1.08
14 -3 3 12.39 1.14
14 -3 3 14.38 1.18
14 -3 -3 13.19 1.36
14 -4 3 15.95 1.14
14 -4 3 14.44 1.28
14 -4 -3 11.64 1.5
14 -4 -3 13.25 1.27
14 -5 3 0.6 0.4
14 -5 -3 0.34 0.5
14 0 4 4.46 0.51
-14 0 -4 6.38 1.16
14 0 -4 4.23 0.52
14 -1 4 7.02 0.62
14 1 -4 7.24 0.6
14 -1 -4 6.22 0.63
14 1 4 6.5 0.62
-14 3 4 1.54 0.52
14 -3 4 1.86 0.49
14 -3 4 1.06 0.57
14 -3 -4 1.07 0.8
14 -4 4 0.87 0.53
14 -4 4 0.76 0.43
14 -4 -4 1.58 0.76
14 -4 -4 0.59 0.58
14 -5 4 4.97 0.55
14 -5 -4 4.7 0.64
14 0 -5 127.77 7.8
14 0 5 133.58 7.81
-14 0 -5 139.87 8.27
14 1 -5 8.36 0.69
14 -1 5 8.95 0.72
14 -1 -5 8.2 0.75
14 1 5 8.35 0.73
-14 2 5 9.6 0.96
14 -2 5 10.86 0.92
14 -3 5 33.91 2.29
-14 3 5 37.02 2.33
14 -3 5 34.24 2.31
14 -3 -5 36.61 2.48
14 3 5 36.99 2.27
-14 -4 -5 10.48 1.54
14 -4 5 11.79 1.66
14 -4 5 13.17 1.03
14 -4 5 13.61 1.18
14 -4 -5 14.47 1.48
14 -4 -5 14.24 1.25
14 -5 5 2.21 0.41
14 -5 -5 2.55 0.53
14 0 -6 89.87 5.26
14 0 6 87.27 5.25
14 1 -6 0.3 0.29
14 -1 6 0.63 0.3
14 1 6 0.84 0.3
14 -2 6 1.07 0.43
-14 2 6 1.1 0.35
-14 2 6 1.5 0.59
-14 2 6 0.6 0.47
14 -2 6 0.62 0.44
14 2 6 1.39 0.39
14 -3 6 47.41 2.98
-14 3 6 47.37 3.04
14 -3 6 45.41 2.99
14 3 6 51.22 3
-14 -4 -6 2.87 1.05
14 -4 6 0.86 0.37
14 -4 6 1.3 0.47
14 -4 6 1.63 0.78
14 -4 -6 1.15 0.76
14 -4 -6 0.56 0.6
14 -2 7 7.24 0.76
14 -2 7 6.14 0.81
-14 2 7 7.87 0.87
-14 2 7 6.24 0.83
-14 2 7 6.72 0.7
14 2 7 6.67 0.74
14 -3 7 3.93 1.14
-14 3 7 3.65 0.67
14 -3 7 4.67 0.62
-14 -3 -7 2.52 1.59
14 -3 7 5.57 0.83
14 -3 -7 4.82 0.93
14 3 7 4.19 0.75
14 -4 7 4.38 0.58
14 -4 7 3.87 0.78
14 -4 7 4.22 0.59
-14 -4 -7 3.38 1.03
14 -4 -7 3.87 0.69
14 -4 -7 4.11 0.88
-14 1 8 -0.08 0.59
14 -1 8 0.67 0.39
-14 1 8 0.57 0.36
-14 1 8 0.42 0.37
14 1 8 0.27 0.35
14 -2 8 1.93 0.51
-14 2 8 2.23 0.55
-14 2 8 1.56 0.67
-14 2 8 3.07 0.51
14 -2 8 2.09 0.51
14 2 8 2.15 0.53
14 -3 8 11.32 1.31
14 -3 8 12.27 1.02
-14 -3 -8 8.71 1.7
-14 3 8 13.43 1.15
14 -3 8 10.26 1.09
14 3 8 11.23 1.05
14 -3 -8 13.17 1.67
14 -4 8 1.08 0.6
14 -4 8 0.7 0.41
-14 -4 -8 1.75 0.91
14 -4 8 0.2 0.31
14 -4 -8 0.69 0.54
14 -4 -8 1.54 0.76
14 0 9 30.05 1.97
-14 0 9 31.18 1.99
14 0 9 30.67 1.96
-14 0 9 32.33 2
14 -1 9 11.71 0.94
-14 1 9 9.58 1.1
-14 1 9 10.66 0.92
-14 1 9 11.55 1
14 -1 9 12.19 0.95
14 1 9 11.14 0.91
-14 -1 9 11.31 0.96
-14 2 9 9.32 0.88
14 -2 9 10.14 0.93
-14 2 9 7.8 0.97
-14 2 9 10.02 0.99
14 -2 9 9.69 0.93
14 2 9 9.18 0.91
14 -3 9 3.31 0.54
14 -3 9 2.21 0.73
-14 -3 -9 4.06 1.42
-14 3 9 4.52 0.67
14 -3 9 4.64 0.6
-14 3 9 4.14 0.63
14 3 9 4.44 0.79
14 -3 -9 4.12 1.1
14 -4 9 14.35 1.02
14 -4 9 15.77 1.08
-14 -4 -9 10.2 1.58
14 -4 -9 17.28 1.22
14 -4 -9 15.38 1.48
14 0 10 12.95 1.04
-14 0 10 12.2 1.09
-14 0 10 14.76 1.1
-14 0 10 12.35 1.11
14 0 10 14.21 1.02
-14 1 10 6.17 0.74
14 -1 10 4.97 0.71
-14 1 10 7.63 0.85
-14 1 10 6.25 0.88
14 -1 10 6.02 0.77
14 1 10 7.29 0.76
14 -2 10 27.4 1.74
-14 -2 -10 26.35 2.24
-14 2 10 23.72 1.73
-14 2 10 27.13 1.8
-14 2 10 24.29 1.82
14 -2 10 26.56 1.8
14 -2 10 25.29 1.69
14 2 10 24.38 1.77
14 -3 10 5.09 0.78
-14 -3 -10 4.22 1.35
14 -3 10 6.28 0.75
-14 3 10 5.62 0.82
-14 3 10 5.99 0.77
14 -3 10 6.93 0.81
14 3 10 6.48 0.83
14 -3 -10 7.33 1.06
14 -4 10 0.52 0.24
14 -4 10 0.23 0.38
14 -4 -10 1.06 0.61
-14 0 11 4.99 0.63
14 0 11 5.2 0.71
14 0 11 4.16 0.68
-14 0 11 4.28 0.73
-14 0 11 4.62 0.59
14 -1 11 5.1 0.69
14 -1 11 3.24 0.56
-14 1 11 2.6 0.55
14 -1 11 4.84 0.55
-14 1 11 4 0.59
-14 1 11 3.55 0.68
14 1 11 1.17 1.02
14 1 11 3.27 0.56
-14 2 11 18.47 1.62
14 -2 11 17.52 1.51
-14 2 11 20.19 1.42
14 -2 11 19.67 1.45
-14 -2 -11 20.44 1.99
14 -2 11 19.8 1.44
-14 2 11 18.7 1.47
14 2 11 21.35 1.46
-14 3 11 10.66 0.99
14 -3 11 8.88 1.03
14 -3 11 9.73 0.95
-14 3 11 11.64 0.99
-14 -3 -11 7.36 1.4
14 -3 11 9.73 0.89
14 3 11 11.98 0.98
14 -3 -11 8.72 1.23
14 -4 11 0.28 0.33
14 -4 -11 1.64 0.59
-14 0 12 0.92 0.52
14 0 12 2.78 0.69
14 0 12 1.28 0.44
-14 0 12 2.62 0.54
14 0 12 1.88 0.45
-14 0 12 1.93 0.51
-14 1 12 13.51 1.23
-14 1 12 14.84 1.35
14 -1 12 14.29 1.15
-14 1 12 14.43 1.16
14 -1 12 13.26 1.13
14 -1 12 14.96 1.2
14 1 12 13.73 1.12
14 1 12 9.98 1.43
-14 -2 -12 1.88 1.11
-14 2 12 1.09 0.68
14 -2 12 1.63 0.48
-14 2 12 0.74 0.43
14 -2 12 1.32 0.57
14 -2 12 1.45 0.44
-14 2 12 1.16 0.51
14 2 12 1.1 0.5
-14 3 12 4.9 0.77
14 -3 12 5.4 0.7
14 -3 12 4.54 0.66
14 -3 12 5.45 0.65
-14 3 12 6.28 0.73
-14 -3 -12 5.05 1.2
14 -3 -12 6.14 1
14 3 12 3.89 0.68
-14 0 13 6.72 0.82
-14 0 13 7.04 0.86
14 0 13 8.85 1.07
-14 0 13 8.51 0.91
14 0 13 6.84 0.79
14 0 13 7.88 0.85
-14 1 13 24.17 1.82
14 -1 13 26.66 1.87
14 -1 13 26.34 1.77
-14 1 13 26.48 1.85
-14 1 13 28.16 1.93
14 -1 13 27.9 1.8
14 1 13 30.08 1.85
14 1 13 22.99 2
-14 2 13 1.8 0.53
14 -2 13 1.66 0.52
14 -2 13 2.24 0.5
-14 2 13 1.92 0.5
-14 -2 -13 1.74 1.07
14 -2 13 1.53 0.43
-14 2 13 1.79 0.7
14 2 13 2.23 0.48
-14 3 13 10.34 0.91
14 -3 13 10.02 0.9
-14 -3 -13 6.82 1.16
14 -3 13 10.9 0.83
14 -3 13 11.97 0.87
-14 3 13 12.97 0.9
14 -3 -13 12.2 1.35
14 3 13 9.33 0.85
-14 0 14 4.62 0.64
14 0 14 4.99 0.68
-14 0 14 5.41 0.81
14 0 14 4.86 0.62
14 0 14 5.53 0.75
-14 0 14 4.96 0.78
-14 1 14 13.34 1.09
-14 1 14 13.22 1.21
-14 1 14 16.16 1.3
14 -1 14 12.89 1.09
14 -1 14 12.7 1.08
14 -1 14 14.43 1.21
14 1 14 12.12 1.1
14 1 14 12.08 1.43
14 -2 14 0.46 0.36
-14 2 14 0.32 0.39
14 -2 14 0.83 0.49
14 -2 14 0.04 0.41
-14 -2 -14 -0.14 1
-14 2 14 0.31 0.41
-14 2 14 0.46 0.63
14 2 14 0.45 0.39
-14 3 14 2.31 0.38
14 -3 14 1.62 0.31
14 -3 14 2.6 0.39
-14 3 14 1.95 0.35
14 -3 -14 1.72 0.72
14 3 14 1.85 0.32
-14 0 15 6.95 0.77
-14 0 15 4.68 0.66
-14 0 15 5.94 0.75
14 0 15 6.33 0.87
14 0 15 5.43 0.73
14 -1 15 2.9 0.49
-14 1 15 3.43 0.55
14 -1 15 2.79 0.61
14 -1 15 3.52 0.52
-14 1 15 3.94 0.62
-14 1 15 3 0.52
14 1 15 4.12 0.62
14 1 15 1.03 0.74
14 -2 15 4.98 0.64
-14 2 15 4.95 0.64
-14 -2 -15 4.17 0.98
14 -2 15 5.6 0.68
14 -2 15 5.61 0.61
-14 2 15 5.65 0.66
-14 2 15 3.67 0.59
14 2 15 3.42 0.6
-14 0 16 4.41 0.55
14 0 16 3.67 0.5
14 0 16 3.01 0.65
-14 0 16 5.4 0.62
-14 0 16 5.04 0.66
14 -1 16 1.25 0.4
-14 1 16 1.67 0.49
-14 1 16 0.96 0.37
14 -1 16 0.83 0.38
14 -1 16 0.82 0.45
-14 1 16 1.64 0.43
14 1 16 1.26 0.33
-14 2 16 0.15 0.28
14 -2 16 0.56 0.31
-14 2 16 0.3 0.28
14 -2 16 0.63 0.3
14 2 16 0.5 0.27
14 0 17 48.63 2.85
-14 0 17 42.06 2.75
-14 0 17 43.56 2.75
14 0 17 49.33 2.74
-14 1 17 2.87 0.5
-14 1 17 3.71 0.5
14 -1 17 3.03 0.46
-14 -1 -17 3.83 0.69
-14 1 17 2.44 0.38
14 1 17 2.97 0.41
15 0 0 0.27 0.27
15 1 0 44.81 2.71
15 -1 0 45.12 2.73
15 -2 0 7.58 0.67
15 -3 0 8.98 0.95
15 -3 0 7.72 0.99
15 -4 0 12.18 1.39
15 -4 0 12.29 1.12
15 -5 0 0.84 0.46
15 0 1 0.35 0.27
15 0 -1 0.01 0.26
15 -1 1 14.03 1.02
15 1 -1 14.93 1
15 -1 -1 16.03 1.04
15 1 1 13.09 0.99
15 -2 1 9.4 0.73
15 -2 -1 8.58 0.75
15 -3 1 0.27 0.51
15 -3 1 -0.19 0.59
15 -3 -1 0.76 0.63
15 -3 -1 0.2 0.55
15 -4 1 28.96 2.01
15 -4 1 26.36 1.85
15 -4 -1 28.46 2.02
15 -4 -1 28.17 1.92
15 -5 1 1.59 0.47
15 -5 -1 1.23 0.5
15 0 -2 0.04 0.26
15 0 2 0.1 0.25
15 1 -2 55.05 3.28
15 -1 2 54.93 3.29
15 1 2 54.62 3.29
15 -1 -2 54.94 3.31
15 -2 2 5.2 0.54
15 -3 2 3.85 0.7
15 -3 2 3.58 0.63
15 -3 -2 3.34 0.7
15 -3 -2 3.33 0.73
15 -4 2 18.66 1.49
15 -4 2 17.12 1.3
15 -4 -2 16.47 1.41
15 -4 -2 17.15 1.63
15 -5 2 4.29 0.52
15 -5 -2 3.61 0.59
15 0 -3 -0.24 0.26
15 0 3 -0.09 0.24
15 -1 3 18.43 1.23
15 1 -3 18.29 1.2
15 1 3 17.21 1.2
15 -1 -3 17.89 1.24
15 -3 3 5.95 0.72
15 -3 3 4.9 0.72
15 -3 -3 3.74 0.83
15 -4 3 7.32 0.81
15 -4 3 6.73 0.79
15 -4 -3 5.67 0.78
15 -4 -3 5.37 0.95
15 -5 3 2.45 0.44
15 -5 -3 3.15 0.55
15 0 4 0.1 0.25
15 0 -4 0.04 0.26
15 1 -4 15.05 1.01
15 -1 4 14.81 1.04
15 -1 -4 13.74 1.03
15 1 4 13.46 1.02
-15 2 4 12.08 1.05
15 -2 4 12.62 1.09
15 -3 4 18.6 1.53
15 -3 4 20.38 1.49
-15 3 4 21 1.5
15 -3 -4 20.86 1.84
15 -4 4 0.91 0.52
15 -4 4 0.97 0.44
15 -4 -4 1.37 0.78
15 -4 -4 0.93 0.58
15 -5 4 2.67 0.44
15 -5 -4 2.38 0.51
15 0 5 0.01 0.27
15 0 -5 0.19 0.28
15 1 -5 1.94 0.39
15 -1 5 2.93 0.44
15 1 5 2.14 0.39
15 -2 5 8.68 0.85
-15 2 5 8.06 0.89
15 -2 5 9.55 0.85
15 2 5 8.39 0.81
-15 3 5 0.72 0.49
15 -3 5 0.86 0.52
15 -3 5 0.11 0.46
15 3 5 0.43 0.37
15 -3 -5 0.09 0.86
15 -4 5 8.04 0.8
15 -4 5 8.33 0.98
15 -4 -5 10.03 1.22
15 -4 -5 9.28 1.04
15 0 -6 0.14 0.31
-15 2 6 2.52 0.43
-15 2 6 3 0.59
15 -2 6 2.47 0.51
-15 2 6 2.63 0.56
15 -2 6 2.92 0.55
15 2 6 3.14 0.52
15 -3 6 28.82 1.88
15 -3 6 25.45 1.87
-15 3 6 27.81 1.91
15 3 6 28.58 1.86
15 -3 -6 26.54 2.12
15 -4 6 2.83 0.52
15 -4 6 2.2 0.42
15 -4 -6 2.13 0.64
15 -4 -6 2.25 0.81
-15 1 7 105.96 5.93
-15 1 7 88.56 5.99
15 1 7 101.17 5.84
15 -2 7 12.98 1.02
15 -2 7 12.2 1.07
-15 2 7 10.29 1.08
-15 2 7 12.36 1.18
-15 2 7 13.14 0.99
15 2 7 11.71 0.99
-15 3 7 5.55 0.73
15 -3 7 4.65 0.65
15 -3 7 4.06 0.63
15 -3 -7 6.09 1.02
15 3 7 4.79 0.71
15 -4 7 2.44 0.5
15 -4 7 1.23 0.36
15 -4 -7 1.15 0.57
15 -4 -7 1.21 0.73
-15 0 8 0.18 0.33
-15 1 8 2.69 0.5
15 -1 8 2.04 0.47
-15 1 8 3.82 0.58
-15 1 8 1.52 0.47
15 1 8 2.96 0.47
-15 2 8 10.95 1.31
15 -2 8 11.31 1.04
15 -2 8 13.39 1.05
-15 2 8 12.54 1.08
15 2 8 10.23 1.01
-15 3 8 8.72 1.05
15 -3 8 9.2 0.99
15 -3 8 9.26 0.96
15 3 8 9.9 0.96
15 -3 -8 11.21 1.18
15 -4 8 3.43 0.52
15 -4 8 5.06 0.55
15 -4 -8 4.72 0.85
15 -4 -8 3.78 0.66
-15 0 9 0.1 0.38
15 0 9 -0.11 0.33
15 0 9 -0.03 0.33
-15 0 9 0.09 0.39
-15 1 9 5.48 0.68
15 -1 9 4.34 0.67
15 -1 9 5.12 0.59
-15 1 9 5.88 0.65
-15 1 9 4.55 0.76
15 1 9 5.22 0.69
-15 -1 9 6.44 0.69
-15 2 9 12.91 1.21
-15 2 9 16.67 1.19
-15 2 9 14.82 1.47
15 -2 9 14.9 1.16
15 -2 9 13.1 1.19
15 2 9 16.37 1.22
-15 3 9 0.92 0.45
15 -3 9 1.52 0.45
15 -3 9 1.08 0.47
-15 3 9 1.28 0.52
15 3 9 1.04 0.51
15 -3 -9 2.32 0.89
15 -4 9 3.63 0.46
15 -4 9 2.48 0.37
15 -4 -9 2.91 0.59
15 -4 -9 5.25 0.76
15 0 10 0.14 0.33
-15 0 10 -0.03 0.39
-15 0 10 0.33 0.4
15 0 10 -0.11 0.34
-15 1 10 23.22 1.59
15 -1 10 23.36 1.52
-15 1 10 21.91 1.54
15 -1 10 20.04 1.52
-15 1 10 21.68 1.57
15 1 10 23.22 1.54
-15 -1 10 22.23 1.53
15 -2 10 42.41 2.71
-15 2 10 44.08 2.76
-15 2 10 45.2 2.9
15 -2 10 44.52 2.75
-15 2 10 43.61 2.78
15 2 10 44.65 2.78
15 -3 10 0.7 0.41
-15 3 10 0.61 0.42
15 -3 10 1.19 0.44
-15 3 10 0.65 0.47
15 3 10 0.92 0.46
15 -3 -10 1.32 0.85
15 -4 10 2.48 0.41
15 -4 10 1.65 0.28
15 -4 -10 2.18 0.69
15 -4 -10 1.72 0.49
15 0 11 0.09 0.37
-15 0 11 -0.1 0.4
-15 0 11 -0.16 0.41
15 0 11 -0.24 0.37
-15 0 11 -1.2 0.84
15 -1 11 44.79 2.96
-15 1 11 47.36 3.06
-15 1 11 47.48 3.02
15 -1 11 51.76 3.02
-15 1 11 48.09 3.03
15 1 11 51.88 3.04
-15 2 11 19.69 1.7
15 -2 11 20.31 1.44
15 -2 11 19.83 1.44
-15 2 11 20.39 1.43
-15 2 11 19.51 1.46
15 2 11 18.66 1.44
-15 3 11 4.53 0.63
15 -3 11 4.81 0.56
-15 3 11 3.98 0.64
15 -3 11 3.03 0.49
15 -3 -11 5.16 0.96
15 3 11 2.56 0.52
15 -4 11 1.13 0.33
15 -4 -11 1.29 0.56
-15 0 12 -0.15 0.43
-15 0 12 -0.42 0.53
15 0 12 -0.06 0.38
-15 0 12 -0.07 0.43
15 0 12 -0.34 0.34
15 -1 12 12.47 1.05
-15 1 12 10.56 1.04
-15 1 12 14.4 1.2
-15 1 12 13.94 1.13
15 -1 12 10.74 1.04
15 1 12 10.26 1.04
-15 2 12 8.59 0.95
-15 2 12 9.58 1.04
-15 -2 -12 7.24 1.35
15 -2 12 10.21 0.88
-15 2 12 12.9 1.28
15 -2 12 10.38 1.1
15 -2 12 10.34 0.92
15 2 12 7.6 0.92
-15 3 12 1.14 0.45
-15 3 12 1.15 0.41
15 -3 12 1.35 0.42
15 -3 12 0.61 0.36
15 3 12 1.01 0.39
15 -3 -12 1.78 0.8
-15 0 13 -1.69 0.58
15 0 13 0.2 0.4
-15 0 13 0.16 0.43
-15 0 13 0.23 0.45
15 0 13 1.66 0.86
15 0 13 0.43 0.36
15 -1 13 4.82 0.74
-15 1 13 4.32 0.65
-15 1 13 8.57 1.06
15 -1 13 5.56 0.79
-15 1 13 4.36 0.66
15 -1 13 5.39 0.6
15 1 13 4.22 0.74
-15 2 13 3.02 0.56
-15 2 13 2.32 0.52
15 -2 13 2.5 0.46
-15 -2 -13 1.67 1.07
15 -2 13 2.94 0.51
-15 2 13 1.98 0.72
15 -2 13 2.92 0.55
15 2 13 1.63 0.46
-15 3 13 0.84 0.38
15 -3 13 0.79 0.31
-15 3 13 0.48 0.36
15 -3 13 1.31 0.39
15 -3 -13 -0.05 0.72
15 3 13 0.46 0.32
-15 0 14 0.28 0.6
-15 0 14 0.03 0.43
15 0 14 -0.3 0.39
15 0 14 1 0.56
-15 0 14 0.03 0.44
15 0 14 0.18 0.45
-15 1 14 10.94 1.07
15 -1 14 8.76 0.87
15 -1 14 8.39 0.85
-15 1 14 7.02 0.92
-15 1 14 8.99 0.97
15 -1 14 9.64 0.96
15 1 14 8.68 0.9
15 1 14 6.25 1.1
15 -2 14 6.36 0.68
-15 2 14 4.91 0.71
-15 2 14 5.11 0.7
-15 -2 -14 2.07 0.99
15 -2 14 5.55 0.64
-15 2 14 4.97 0.72
15 2 14 5.21 0.67
-15 3 14 0.71 0.3
15 -3 14 0.81 0.29
-15 3 14 0.53 0.26
15 -3 14 0.46 0.24
15 -3 -14 0.33 0.65
15 3 14 0.6 0.25
-15 0 15 0.62 0.54
15 0 15 -0.27 0.58
-15 0 15 -0.06 0.42
-15 0 15 -0.07 0.41
15 0 15 0.23 0.37
15 -1 15 25.58 1.54
-15 1 15 25.48 1.67
15 -1 15 25.65 1.57
-15 1 15 23.03 1.61
15 -1 15 23.56 1.62
-15 1 15 20.34 1.62
15 1 15 21.54 1.56
-15 2 15 1 0.36
-15 2 15 2.12 0.52
15 -2 15 1.65 0.38
-15 2 15 2.91 0.46
15 -2 15 1.85 0.37
15 2 15 2.09 0.39
-15 0 16 0.11 0.33
-15 0 16 0.66 0.39
-15 0 16 0.06 0.35
15 0 16 0.01 0.32
-15 1 16 0.1 0.49
-15 1 16 0.16 0.33
15 -1 16 -0.1 0.32
-15 1 16 0.18 0.36
15 1 16 0.04 0.27
-15 2 16 4.18 0.53
15 -2 16 3.9 0.48
-15 2 16 3.75 0.49
15 -2 16 3.8 0.44
15 -2 -16 3.66 0.69
15 2 16 3.64 0.44
-15 0 17 0.31 0.3
15 0 17 0.59 0.26
15 -1 17 2.69 0.42
-15 1 17 2.65 0.41
-15 1 17 1.94 0.34
15 1 17 1.88 0.32
16 0 0 102.85 6.03
16 -1 0 23.41 1.51
16 1 0 22.87 1.49
16 -3 0 3.83 0.69
16 -3 0 2.61 0.72
16 -4 0 14.12 1.43
16 -4 0 13.86 1.18
16 -5 0 0.41 0.43
16 0 1 39.54 2.45
16 0 -1 40.28 2.45
16 -1 1 79.53 4.74
16 1 -1 83.01 4.73
16 1 1 77.3 4.72
16 -1 -1 80.12 4.74
16 -3 1 27.95 2
16 -3 1 29.02 1.98
16 -3 -1 29.48 2
16 -3 -1 28.81 2.03
16 -4 1 11.87 1.02
16 -4 1 11.79 1.26
16 -4 -1 11.08 1.11
16 -4 -1 10.78 1.3
16 -5 1 1.54 0.48
16 -5 -1 2.88 0.51
16 0 -2 11.96 0.91
16 0 2 12.99 0.92
16 -1 2 7.74 0.66
16 1 -2 7.42 0.64
16 1 2 7.17 0.66
16 -1 -2 7.29 0.67
16 -3 2 2.83 0.6
16 -3 2 2.37 0.67
16 -3 -2 3.03 0.69
16 -3 -2 3.02 0.73
16 -4 2 7.56 0.87
16 -4 2 8.62 1.1
16 -4 -2 8.48 0.95
16 -4 -2 6.49 0.99
16 -5 2 7.79 0.76
16 -5 -2 7.05 0.81
16 0 3 41.46 2.49
16 0 -3 39.16 2.48
16 1 -3 5.19 0.56
16 -1 3 5.2 0.56
16 1 3 4.85 0.54
16 -1 -3 4.93 0.58
-16 2 3 20.96 1.48
16 -2 3 20.05 1.48
16 -3 3 21.39 1.59
16 -3 3 21.3 1.64
16 -3 -3 25 1.85
16 -4 3 1.54 0.48
16 -4 3 2.29 0.61
16 -4 -3 2.51 0.78
16 -4 -3 2.1 0.62
16 -5 3 6.43 0.67
16 -5 -3 6.35 0.76
16 0 -4 34.14 2.08
16 0 4 31.71 2.07
16 1 -4 0.16 0.23
16 -1 4 0.02 0.26
16 1 4 0.07 0.27
16 -2 4 7.31 0.89
-16 2 4 6.98 0.81
16 2 4 5.69 0.71
16 -2 -4 5.96 0.86
16 -3 4 0.52 0.55
16 -3 4 0.81 0.47
16 -3 -4 0.29 0.78
16 -4 4 3.53 0.62
16 -4 4 4.58 0.7
16 -4 -4 4.08 0.88
16 -4 -4 4.25 0.69
16 -5 4 -0.26 0.36
16 -5 -4 -0.19 0.43
16 0 -5 24.15 1.6
16 1 -5 9.24 0.84
16 -2 5 8.06 0.81
-16 2 5 7.22 0.73
16 -2 5 6.99 0.79
-16 2 5 7.08 0.85
16 2 5 7.09 0.75
16 -2 -5 6.08 0.94
-16 3 5 27.26 1.87
16 -3 5 27.82 1.85
16 -3 5 24.96 1.79
16 3 5 28.3 1.81
16 -3 -5 23.02 2.04
16 -4 5 21.55 1.51
16 -4 5 19.75 1.4
16 -4 -5 21.17 1.57
16 -4 -5 20.15 1.75
16 -2 6 3.87 0.55
-16 2 6 4.52 0.67
16 -2 6 4.7 0.62
-16 2 6 5.2 0.66
16 2 6 4.37 0.68
-16 3 6 3.09 0.6
16 -3 6 4.04 0.64
16 -3 6 3.31 0.61
16 3 6 3.07 0.55
16 -3 -6 5.07 0.93
16 -4 6 1.48 0.39
16 -4 6 1.55 0.49
16 -4 -6 1.35 0.59
16 -4 -6 1.98 0.78
-16 1 7 3.35 0.54
16 -1 7 4.71 0.58
-16 1 7 4.35 0.63
16 1 7 3.52 0.58
16 -2 7 7.99 0.84
-16 2 7 8.69 0.83
-16 2 7 9.39 1.07
16 -2 7 7.58 0.89
-16 2 7 7.46 0.93
16 2 7 8.26 0.83
16 -3 7 22.94 1.72
-16 3 7 25 1.8
16 -3 7 24.23 1.7
16 -3 -7 25.25 1.96
16 3 7 25.53 1.72
16 -4 7 6.19 0.75
16 -4 7 5.54 0.61
16 -4 -7 4.48 0.88
16 -4 -7 4.58 0.73
-16 0 8 10.85 1
16 0 8 11.17 0.92
-16 0 8 13.16 1.01
16 -1 8 4.27 0.66
-16 1 8 4.92 0.63
-16 1 8 4.56 0.67
-16 1 8 3.61 0.58
-16 -1 8 5.91 0.66
16 1 8 4.36 0.61
-16 2 8 16.45 1.41
16 -2 8 16.1 1.26
16 -2 8 16.12 1.27
-16 2 8 18.46 1.27
-16 2 8 15.5 1.32
16 2 8 17.04 1.28
-16 3 8 1.96 0.56
16 -3 8 1.54 0.5
16 -3 8 2.76 0.55
16 3 8 2.21 0.53
16 -3 -8 3.44 0.91
16 -4 8 0.43 0.31
16 -4 8 0.72 0.44
16 -4 -8 0.83 0.65
16 -4 -8 0.15 0.55
-16 0 9 21.46 1.44
-16 0 9 19.89 1.44
16 0 9 20.92 1.39
16 0 9 18.74 1.37
-16 1 9 30.19 2.17
16 -1 9 32.53 2.17
-16 1 9 35.87 2.2
-16 1 9 35.21 2.23
16 1 9 35.86 2.2
-16 -1 9 35.67 2.2
-16 2 9 4.14 0.66
16 -2 9 5.58 0.61
16 -2 9 5.02 0.78
-16 2 9 4.84 0.77
-16 2 9 6.38 0.83
16 2 9 4.43 0.74
-16 3 9 11.05 1
16 -3 9 9.17 0.91
16 -3 9 10 0.96
-16 3 9 10.3 1.07
16 3 9 8.96 0.99
16 -3 -9 11.22 1.19
16 -4 9 6.47 0.6
16 -4 9 7.55 0.7
16 -4 -9 5.96 0.81
16 -4 -9 7.61 0.99
16 0 10 0.66 0.37
-16 0 10 1.03 0.47
16 0 10 1.5 0.41
-16 0 10 1.61 0.48
-16 1 10 0.45 0.43
-16 1 10 0 0.48
-16 1 10 1.42 0.51
16 -1 10 0.35 0.4
-16 -1 10 0.51 0.41
16 1 10 -0.05 0.41
16 -2 10 4.86 0.74
-16 2 10 4.41 0.65
-16 2 10 5.57 0.7
-16 2 10 4.61 0.88
16 -2 10 4.13 0.59
16 2 10 4.66 0.77
16 -3 10 1.2 0.42
-16 3 10 1.14 0.51
-16 3 10 1.48 0.48
16 -3 10 2.02 0.47
16 3 10 1.23 0.48
16 -3 -10 0.81 0.9
16 -4 10 3.16 0.41
16 -4 10 4.16 0.45
16 -4 -10 4.86 0.68
16 -4 -10 3.77 0.56
16 0 11 2.92 0.51
-16 0 11 2.89 0.54
16 0 11 4.68 0.66
-16 1 11 22.43 1.68
-16 1 11 23.88 1.68
-16 1 11 24.59 1.7
16 -1 11 24.21 1.63
16 -1 11 23.95 1.65
16 1 11 23.59 1.64
-16 -1 11 22.46 1.6
-16 2 11 7.66 1
16 -2 11 8.59 0.89
-16 2 11 8.29 0.94
-16 2 11 8.26 0.91
16 -2 11 9.58 0.91
16 2 11 9.08 0.93
-16 3 11 0.8 0.46
-16 3 11 0.36 0.39
16 -3 11 0.62 0.38
16 -3 11 1.06 0.42
16 -3 -11 -0.33 0.78
16 3 11 0.84 0.42
16 0 12 6.02 0.76
-16 0 12 5.86 0.84
16 0 12 5.27 0.71
-16 0 12 5.32 0.8
16 -1 12 6.64 0.85
-16 1 12 7.14 1.06
-16 1 12 8.36 0.91
16 -1 12 7.05 0.89
-16 1 12 11.01 1.08
16 1 12 9.26 0.88
-16 2 12 0.76 0.5
16 -2 12 0.68 0.43
-16 2 12 0.34 0.42
-16 2 12 0.51 0.65
16 -2 12 0.55 0.37
16 2 12 0.67 0.46
-16 3 12 1.73 0.44
16 -3 12 2.36 0.41
-16 3 12 2.5 0.47
16 -3 12 2.74 0.44
16 3 12 2.49 0.44
16 -3 -12 3.13 0.81
-16 0 13 80.24 4.53
16 0 13 73.61 4.5
-16 0 13 76.1 4.54
16 0 13 71.71 4.49
-16 1 13 3.29 0.61
16 -1 13 3.91 0.55
16 -1 13 4.05 0.55
-16 1 13 4.69 0.72
-16 1 13 3.82 0.66
16 1 13 4.17 0.61
16 -2 13 1.78 0.41
16 -2 13 2.17 0.48
-16 2 13 2.27 0.53
-16 2 13 0.95 0.65
-16 2 13 2.29 0.49
16 2 13 1.67 0.44
-16 3 13 4.43 0.53
16 -3 13 4.22 0.49
16 -3 13 4.69 0.57
-16 3 13 4.19 0.59
16 -3 -13 4.49 0.79
16 3 13 3.68 0.53
-16 0 14 35.7 2.54
-16 0 14 37.19 2.6
16 0 14 44.97 2.5
-16 0 14 40.93 2.55
16 -1 14 4.11 0.57
-16 1 14 3.01 0.59
-16 1 14 3.91 0.62
16 -1 14 3.56 0.51
-16 1 14 3.52 0.59
16 1 14 3.4 0.54
-16 2 14 1.82 0.6
16 -2 14 2.31 0.4
-16 2 14 1.27 0.42
16 -2 14 2.32 0.42
-16 2 14 2.23 0.44
16 2 14 1.95 0.43
16 -3 14 0.09 0.26
-16 3 14 0.06 0.24
-16 3 14 0.11 0.25
16 -3 14 0.23 0.22
16 3 14 0.17 0.22
16 -3 -14 0.03 0.58
-16 0 15 0.17 0.42
16 0 15 0.33 0.34
-16 0 15 0.55 0.41
16 -1 15 4.44 0.6
-16 1 15 3.64 0.57
-16 1 15 3.91 0.63
-16 1 15 3.87 0.52
16 1 15 3.96 0.63
16 -2 15 4.2 0.54
-16 2 15 5.38 0.6
16 -2 15 5.18 0.57
-16 2 15 4.1 0.58
16 2 15 4.96 0.58
-16 0 16 14.43 1.06
16 0 16 14.06 1.02
-16 0 16 14.68 1.04
-16 1 16 1.3 0.49
16 -1 16 1.13 0.35
-16 1 16 1.42 0.38
-16 1 16 1.13 0.35
16 1 16 1.35 0.29
16 0 17 23.7 1.45
-16 0 17 23.72 1.49
17 0 0 -0.05 0.27
17 1 0 4.62 0.49
17 -1 0 3.31 0.49
17 -2 0 5.51 0.83
17 -3 0 9.48 1.1
17 -3 0 9.67 1.12
17 -4 0 0.78 0.49
17 -4 0 0.93 0.64
17 -5 0 6.65 0.72
17 0 -1 0.15 0.28
17 0 1 0.1 0.27
17 -1 1 18.53 1.26
17 1 -1 19.53 1.25
17 -1 -1 17.89 1.26
17 1 1 17.51 1.23
17 -2 1 33.32 2.18
17 -3 1 1.59 0.6
17 -3 1 1.2 0.59
17 -3 -1 1.57 0.67
17 -3 -1 0.43 0.59
17 -4 1 17.61 1.48
17 -4 1 17.24 1.33
17 -4 -1 18.79 1.59
17 -4 -1 18.13 1.4
17 -5 1 3.53 0.51
17 -5 -1 5.66 0.65
17 0 -2 -0.11 0.26
17 0 2 0.01 0.26
17 1 -2 15.08 1.05
17 -1 2 15.26 1.07
17 1 2 14.97 1.07
17 -1 -2 14.54 1.08
-17 2 2 8.6 0.86
17 -2 2 7.76 0.91
17 -3 2 3.84 0.67
17 -3 2 2.88 0.65
17 -3 -2 2.69 0.71
17 -3 -2 3.7 0.75
17 -4 2 4.38 0.72
17 -4 2 4.61 0.64
17 -4 -2 5.48 0.74
17 -4 -2 5.22 0.82
17 -5 2 6.02 0.61
17 -5 -2 4.3 0.57
17 0 3 0.2 0.27
17 0 -3 0.27 0.29
17 -1 3 2.37 0.41
17 1 -3 3.1 0.43
17 1 3 3.2 0.47
-17 2 3 16.7 1.27
17 -2 3 16.84 1.29
17 2 3 15.97 1.21
17 -3 3 4.16 0.68
17 -3 3 5.3 0.71
17 -3 -3 4.95 0.82
17 -3 -3 5.87 0.84
17 -4 3 4.37 0.73
17 -4 3 5.67 0.72
17 -4 -3 5.67 0.78
17 -4 -3 4.04 0.85
17 0 -4 -0.03 0.3
17 0 4 0.01 0.25
17 1 -4 1.47 0.36
17 1 4 1.35 0.36
-17 2 4 9.56 0.91
-17 2 4 10.76 0.99
17 -2 4 11.4 1.02
17 -2 4 11.3 0.94
17 -2 -4 10.9 1.15
17 2 4 10.2 0.91
17 -3 4 15.68 1.3
17 -3 4 17.33 1.29
17 -3 -4 14.7 1.5
17 -4 4 3.69 0.55
17 -4 4 3.18 0.59
17 -4 -4 3.74 0.68
17 -4 -4 5.29 0.86
17 -2 5 8.9 0.88
17 -2 5 8.35 0.82
-17 2 5 8.97 0.83
-17 2 5 8.99 0.93
17 2 5 8.93 0.84
17 -2 -5 7.86 0.97
17 -3 5 10.8 1.03
17 -3 5 11.51 1.06
-17 3 5 10.75 1.06
17 3 5 10.56 0.98
17 -3 -5 10.57 1.36
17 -4 5 1.43 0.5
17 -4 5 1.22 0.42
17 -4 -5 1.73 0.59
17 -4 -5 1.11 0.73
-17 1 6 9.37 0.9
17 -1 6 8.44 1.05
17 1 6 11.29 0.87
17 -2 6 2.81 0.55
-17 2 6 3.42 0.61
17 -2 6 4.75 0.55
17 2 6 4.77 0.67
-17 3 6 1.33 0.54
17 -3 6 0.95 0.51
17 -3 6 1.37 0.55
17 3 6 1.34 0.47
17 -3 -6 1.63 0.89
17 -4 6 1.12 0.38
17 -4 6 1.32 0.48
17 -4 -6 0.9 0.74
17 -4 -6 1.38 0.58
-17 0 7 -0.36 0.38
-17 1 7 22.1 1.48
-17 1 7 20.34 1.47
17 -1 7 22.31 1.48
-17 -1 7 20.12 1.45
17 1 7 21.54 1.44
17 -2 7 12.6 1.04
-17 2 7 14.27 1.07
-17 2 7 12.34 1.14
17 -2 7 12.42 1.12
17 2 7 12.39 1.05
-17 3 7 2.14 0.55
17 -3 7 1.24 0.52
17 -3 7 1.1 0.51
17 3 7 1.67 0.5
17 -3 -7 2.57 0.88
17 -4 7 13.93 1
17 -4 7 15.91 1.12
17 -4 -7 15.23 1.43
17 -4 -7 13.11 1.22
17 0 8 -0.05 0.34
17 0 8 -0.08 0.34
-17 0 8 0.11 0.39
-17 0 8 -0.03 0.41
17 -1 8 0.7 0.41
-17 1 8 0.89 0.45
-17 1 8 0.33 0.42
-17 1 8 0.41 0.53
17 1 8 0.39 0.41
-17 -1 8 0.14 0.38
17 -2 8 11.66 1.06
-17 2 8 13.5 1.05
-17 2 8 10.4 1.29
-17 2 8 11.63 1.22
17 -2 8 11.52 1.03
17 2 8 11.91 1.05
17 -3 8 3.04 0.56
-17 3 8 3.83 0.64
17 -3 8 3.49 0.57
17 -3 -8 2.28 0.91
17 3 8 4.15 0.62
17 -4 8 2.36 0.37
17 -4 8 2.33 0.45
17 -4 -8 3.44 0.61
17 -4 -8 3.13 0.72
17 0 9 -0.23 0.33
-17 0 9 0.22 0.42
-17 0 9 0.16 0.4
17 0 9 0.03 0.32
-17 1 9 1.66 0.51
-17 1 9 1.41 0.46
17 -1 9 2.34 0.48
-17 1 9 2.44 0.51
-17 -1 9 3.05 0.52
17 1 9 1.81 0.48
-17 2 9 38.46 2.44
-17 2 9 35.19 2.35
-17 2 9 35.15 2.45
17 -2 9 36.7 2.34
17 -2 9 36.75 2.29
17 2 9 36.85 2.33
17 -3 9 4.59 0.58
17 -3 9 4.35 0.7
-17 3 9 5.14 0.67
-17 3 9 3.58 0.62
17 -3 -9 5.29 0.94
17 3 9 4.39 0.65
17 -4 9 3.18 0.46
17 -4 9 4 0.46
17 -4 -9 3.82 0.58
17 -4 -9 3.48 0.71
-17 0 10 -0.08 0.44
17 0 10 -0.02 0.36
17 0 10 -0.03 0.36
-17 0 10 0.14 0.44
-17 1 10 9.23 0.94
17 -1 10 7.23 0.83
-17 1 10 5.05 0.82
-17 1 10 9.39 0.98
17 1 10 7.14 0.81
-17 2 10 6.29 0.81
17 -2 10 6.49 0.77
-17 2 10 6.35 0.9
17 -2 10 5.8 0.77
-17 2 10 4.27 0.78
17 2 10 5.03 0.77
17 -3 10 -0.19 0.42
17 -3 10 0.12 0.38
-17 3 10 0.09 0.41
-17 3 10 0.17 0.45
17 -3 -10 0.91 0.85
17 3 10 0.42 0.44
17 -4 10 3.73 0.42
17 -4 10 5.54 0.54
17 -4 -10 4.49 0.7
17 -4 -10 4.93 0.64
17 0 11 0.17 0.39
-17 0 11 -0.26 0.44
17 0 11 -0.02 0.36
-17 0 11 -0.22 0.44
-17 1 11 12.65 1.26
-17 1 11 14.03 1.17
-17 1 11 12.55 1.12
17 -1 11 13.45 1.09
17 1 11 13.2 1.13
-17 -1 11 12.11 1.08
-17 2 11 5.24 0.71
17 -2 11 5.2 0.76
17 -2 11 6.32 0.79
-17 2 11 6.52 0.8
-17 2 11 5.97 0.8
17 2 11 5.17 0.76
-17 3 11 8.99 0.9
-17 3 11 7.22 0.8
17 -3 11 10.57 0.84
17 -3 11 7.92 0.78
17 3 11 8.71 0.84
17 -3 -11 9.61 1.12
17 0 12 -0.04 0.36
-17 0 12 -0.42 0.45
17 0 12 0.27 0.39
-17 0 12 -0.24 0.43
-17 1 12 3.65 0.61
-17 1 12 5.51 0.67
17 -1 12 4.73 0.59
17 1 12 2.93 0.55
-17 2 12 5.25 0.77
17 -2 12 5.3 0.58
-17 2 12 4.03 0.62
17 -2 12 4.39 0.65
-17 2 12 4.69 0.74
-17 3 12 1.05 0.37
17 -3 12 0.75 0.36
17 -3 12 0.47 0.33
-17 3 12 0.5 0.39
17 -3 -12 1.01 0.76
17 3 12 0.65 0.35
-17 0 13 -0.21 0.45
17 0 13 0.39 0.34
-17 0 13 -0.12 0.44
17 0 13 0.51 0.39
-17 1 13 4.71 0.82
-17 1 13 8.16 0.9
-17 1 13 10.18 0.97
17 -1 13 8.56 0.8
17 1 13 5.18 0.82
-17 2 13 8.54 0.85
17 -2 13 9.11 0.79
-17 2 13 6.37 0.82
17 -2 13 8.15 0.81
17 2 13 7.76 0.84
17 -3 13 2.46 0.37
17 -3 13 2.8 0.43
-17 3 13 1.62 0.33
-17 3 13 2.36 0.37
17 3 13 1.79 0.34
17 -3 -13 1.41 0.73
-17 0 14 0.06 0.4
17 0 14 0.23 0.39
-17 0 14 -0.11 0.43
-17 1 14 4.25 0.68
-17 1 14 4.69 0.76
-17 1 14 5.61 0.74
17 -1 14 5.51 0.66
17 1 14 4 0.7
17 -2 14 4.25 0.57
-17 2 14 4.44 0.62
17 -2 14 4.17 0.58
17 2 14 4.04 0.62
-17 0 15 -0.1 0.35
-17 0 15 0.52 0.38
17 0 15 0.26 0.32
-17 1 15 16.14 1.14
17 -1 15 17.01 1.12
-17 1 15 14.89 1.25
-17 1 15 16.45 1.17
17 1 15 12.57 1.1
-17 2 15 6.67 0.65
17 -2 15 7.76 0.62
-17 2 15 7.29 0.67
17 -2 15 7.16 0.59
17 2 15 6.28 0.62
17 -2 -15 5.26 0.85
-17 0 16 0 0.31
-17 0 16 0.24 0.35
17 0 16 0.16 0.28
17 -1 16 0.02 0.29
-17 1 16 -0.19 0.31
-17 1 16 0.79 0.34
-17 1 16 0.46 0.32
17 1 16 0.46 0.24
18 0 0 74.18 4.42
18 1 0 0.84 0.3
18 -2 0 5.36 0.74
18 -3 0 6.56 0.8
18 -3 0 4.37 0.74
18 -4 0 5.52 0.83
18 -4 0 4.79 0.74
18 0 -1 35.76 2.21
18 0 1 34.93 2.21
18 1 -1 4.02 0.52
18 1 1 3.98 0.5
-18 -2 -1 11.2 1.01
18 -2 1 11.33 1.06
-18 -2 1 8.77 0.98
18 -2 -1 11.36 1.06
18 -3 1 19.43 1.51
18 -3 1 19.43 1.5
18 -3 -1 16.73 1.57
18 -3 -1 17.22 1.53
18 -4 1 2.69 0.65
18 -4 1 2.1 0.5
18 -4 -1 1.92 0.7
18 -4 -1 2.48 0.58
18 0 2 47.95 2.98
18 0 -2 49.6 2.98
18 1 -2 3.82 0.51
18 1 2 3.98 0.51
-18 2 2 21.9 1.45
18 -2 2 19.72 1.51
18 -2 2 17.63 1.44
18 2 2 20.56 1.4
-18 -2 2 20.9 1.44
18 -2 -2 20.42 1.57
18 -3 2 1.1 0.57
18 -3 2 1.84 0.6
18 -3 -2 0.95 0.7
18 -3 -2 1.45 0.66
18 -4 2 8.77 0.91
18 -4 2 8.65 0.91
18 -4 -2 10.04 1.06
18 -4 -2 10.28 1.14
18 0 -3 30.69 1.92
18 0 3 28.99 1.92
18 1 -3 30.47 1.8
18 1 3 24.28 1.92
-18 2 3 11.25 0.99
18 -2 3 10.97 0.98
18 -2 3 10.17 1.01
18 2 3 10.39 0.9
18 -2 -3 9.19 1.2
18 -3 3 4.51 0.69
18 -3 3 3.79 0.67
18 -3 -3 7.16 0.86
18 -3 -3 5.57 0.83
18 -4 3 11.85 1.13
18 -4 3 11.83 1.01
18 -4 -3 12.58 1.3
18 -4 -3 11.39 1.17
18 -2 4 2.07 0.5
-18 2 4 1.92 0.53
-18 2 4 3.58 0.63
18 -2 4 1.63 0.54
18 -2 -4 2.34 0.71
18 2 4 2.69 0.51
18 -3 4 1.96 0.55
18 -3 4 2.28 0.56
18 3 4 1.36 0.45
18 -3 -4 1.73 0.75
18 -4 4 -0.45 0.49
18 -4 4 -0.03 0.42
18 -4 -4 -0.15 0.69
18 -4 -4 -0.49 0.54
18 1 5 5.1 0.63
-18 2 5 5.81 0.83
-18 2 5 4.64 0.7
18 -2 5 5.6 0.74
18 -2 5 5.97 0.77
18 -2 -5 5.87 0.83
18 2 5 4.7 0.68
18 -3 5 7.49 0.93
18 -3 5 7.02 0.95
18 3 5 6.37 0.83
18 -3 -5 6.25 0.97
18 -4 5 1.6 0.42
18 -4 5 1.86 0.5
18 -4 -5 1.16 0.75
18 -4 -5 1.41 0.58
-18 0 6 63.52 3.82
-18 1 6 3.91 0.58
-18 1 6 5.77 0.72
18 -1 6 4.64 0.71
-18 -1 6 5.8 0.69
18 1 6 4.84 0.58
-18 2 6 2.56 0.52
-18 2 6 4.07 0.63
18 -2 6 3.58 0.52
18 -2 6 4.36 0.62
18 2 6 2.67 0.53
18 -2 -6 1.81 0.81
-18 3 6 8.55 1
18 -3 6 8.02 0.91
18 -3 6 7.66 1
18 -3 -6 7.03 1.07
18 3 6 8 0.83
18 -4 6 6.91 0.7
18 -4 6 8.28 0.88
18 -4 -6 7.04 0.93
18 -4 -6 6.6 0.91
-18 0 7 8.18 0.84
18 0 7 7.04 0.73
-18 0 7 7.07 0.81
-18 1 7 11.58 0.95
18 -1 7 10.26 0.95
-18 1 7 10.19 0.96
-18 -1 7 10.47 0.93
18 1 7 10.2 0.89
-18 2 7 7.65 0.85
-18 2 7 7.8 0.97
18 -2 7 8.61 0.97
18 -2 7 8.68 0.88
18 2 7 8.45 0.86
18 -3 7 17.06 1.35
18 -3 7 18.26 1.37
-18 3 7 17.56 1.39
18 -3 -7 17.75 1.64
18 3 7 17.71 1.33
18 -4 7 4.92 0.62
18 -4 7 7.28 0.77
18 -4 -7 7.39 0.84
18 -4 -7 7.66 0.88
-18 0 8 9.1 0.9
18 0 8 7.99 0.93
18 0 8 8.96 0.79
-18 0 8 7.93 0.87
-18 1 8 10.12 1.04
18 -1 8 9.36 0.97
-18 1 8 12.01 1.01
-18 -1 8 10.89 0.95
18 1 8 11.58 0.98
-18 2 8 3.81 0.61
18 -2 8 4.37 0.56
-18 2 8 4.13 0.65
18 -2 8 5.08 0.65
18 2 8 4.16 0.77
18 -3 8 4.14 0.59
-18 3 8 2.89 0.63
18 -3 8 4.51 0.61
18 3 8 5.63 0.77
18 -3 -8 4.18 0.95
18 -4 8 1.18 0.39
18 -4 8 0.76 0.3
18 -4 -8 0.6 0.49
18 -4 -8 0.65 0.6
18 0 9 80.69 4.93
-18 0 9 85.9 4.94
18 0 9 84.82 4.93
-18 0 9 81.69 4.98
-18 1 9 2.22 0.89
18 -1 9 3.23 0.51
-18 1 9 2.83 0.54
-18 1 9 3.12 0.57
18 1 9 2.73 0.51
-18 -1 9 2.63 0.5
18 -2 9 3.63 0.57
-18 2 9 3.08 0.56
18 -2 9 4.48 0.53
-18 2 9 4.15 0.65
18 2 9 3.79 0.7
18 -3 9 6 0.77
18 -3 9 5.64 0.72
-18 3 9 5.44 0.8
18 -3 -9 5.48 0.99
18 3 9 6.3 0.83
18 -4 9 7.35 0.64
18 -4 9 5.78 0.5
18 -4 -9 7.25 0.76
18 -4 -9 6.93 0.86
18 0 10 40.45 2.52
18 0 10 38.09 2.51
-18 0 10 46.36 2.62
-18 0 10 37.43 2.54
-18 1 10 13.73 1.16
18 -1 10 13.55 1.1
-18 1 10 14.18 1.18
-18 1 10 13.05 1.16
18 1 10 13.51 1.12
-18 -1 10 14.2 1.13
-18 2 10 6.25 0.81
-18 2 10 3.89 0.63
18 -2 10 4.81 0.62
18 -2 10 4.81 0.6
18 2 10 5.8 0.79
-18 3 10 2.14 0.49
-18 3 10 1.22 0.46
18 -3 10 1.98 0.43
18 -3 10 1.96 0.46
18 3 10 1.79 0.49
18 -3 -10 1.84 0.81
18 -4 10 0.44 0.29
18 -4 -10 0.36 0.46
-18 0 11 14.77 1.28
18 0 11 16.86 1.22
-18 0 11 17.36 1.3
18 0 11 16.33 1.22
-18 1 11 8.52 0.92
-18 1 11 7.55 0.95
18 -1 11 8.13 0.89
-18 1 11 9.63 0.99
18 1 11 7.26 0.9
-18 -1 11 7.35 0.84
-18 2 11 1.51 0.49
18 -2 11 2.27 0.46
18 -2 11 2.63 0.49
-18 2 11 2.27 0.51
18 2 11 2.65 0.52
-18 3 11 11.86 1.01
-18 3 11 12.94 1.02
18 -3 11 12.55 0.97
18 -3 11 12.29 0.93
18 -3 -11 11.35 1.38
18 3 11 11.84 0.99
-18 0 12 6.86 0.88
18 0 12 7.03 0.76
18 0 12 6.76 0.76
-18 0 12 7.42 0.94
18 -1 12 1.68 0.48
-18 1 12 2.44 0.55
-18 1 12 2.65 0.6
-18 1 12 2 0.49
-18 -1 12 1.73 0.76
18 1 12 2.39 0.5
-18 2 12 1.77 0.46
18 -2 12 2.8 0.45
-18 2 12 2.03 0.49
18 -2 12 1.46 0.41
18 2 12 1.81 0.47
18 -3 12 2.87 0.4
18 -3 12 3.4 0.41
-18 3 12 1.84 0.4
-18 3 12 3.41 0.53
18 3 12 2.9 0.43
18 -3 -12 2.72 0.83
18 0 13 29.98 2.02
-18 0 13 31.36 2.11
-18 0 13 33.82 2.08
18 0 13 33 2.03
-18 1 13 5.88 0.77
18 -1 13 7.02 0.77
-18 1 13 5.45 0.77
-18 1 13 7.94 0.87
18 1 13 5.89 0.76
-18 2 13 1.61 0.43
18 -2 13 1.96 0.42
-18 2 13 0.92 0.42
18 -2 13 1.76 0.4
18 2 13 1.72 0.44
-18 3 13 0.78 0.32
-18 3 13 0.92 0.3
18 -3 13 0.77 0.29
18 -3 13 1.14 0.26
18 3 13 0.78 0.27
18 -3 -13 1.48 0.6
-18 0 14 12.74 1.02
-18 0 14 11.23 1
18 0 14 11.41 0.96
18 -1 14 1.82 0.4
-18 1 14 1.21 0.44
-18 1 14 0.89 0.56
-18 1 14 1.54 0.43
18 1 14 1.38 0.41
18 -2 14 0.16 0.3
-18 2 14 0.28 0.36
-18 2 14 0.45 0.35
18 -2 14 0.22 0.32
18 -2 -14 -1.29 0.66
18 2 14 0.39 0.33
-18 0 15 6.32 0.78
18 0 15 8.6 0.72
-18 0 15 8.93 0.78
-18 1 15 7.43 0.76
18 -1 15 7.64 0.71
-18 1 15 7.89 0.75
-18 1 15 7.2 0.78
18 1 15 7.07 0.68
18 -2 15 0.7 0.27
-18 2 15 0.49 0.29
-18 2 15 0.59 0.27
18 2 15 0.45 0.28
18 -2 -15 0.91 0.55
-18 0 16 1.2 0.36
-18 0 16 1.83 0.34
-18 1 16 2.16 0.37
-18 1 16 2.56 0.46
18 -1 16 3.78 0.5
18 1 16 2.55 0.38
19 0 0 0.39 0.31
19 1 0 6.98 0.66
-19 -2 0 3.19 0.6
19 -3 0 41.32 2.64
19 -3 0 39.92 2.65
19 -4 0 0.22 0.58
19 -4 0 0.72 0.48
19 0 1 0.44 0.36
19 0 -1 0.08 0.31
19 1 -1 7.32 0.64
19 1 1 5.24 0.62
-19 -2 -1 8.11 0.92
-19 -2 1 7.38 0.86
19 -3 1 3.32 0.71
19 -3 1 4.43 0.75
19 -3 -1 3.87 0.74
19 -3 -1 3.61 0.79
19 -4 1 5.39 0.72
19 -4 1 4.59 0.62
19 -4 -1 4.6 0.66
19 -4 -1 4.06 0.75
19 1 -2 2.01 0.39
19 -2 2 15.08 1.38
19 -2 -2 18.82 1.54
-19 -2 2 20.94 1.38
19 2 2 17.59 1.29
19 -3 2 8.3 1.08
19 -3 2 9.89 1.04
19 -3 -2 7.99 1.12
19 -3 -2 9.75 1.25
19 -4 2 0.55 0.44
19 -4 2 0.47 0.55
19 -4 -2 0.19 0.54
19 -4 -2 -0.07 0.65
-19 2 3 68.28 3.85
19 -2 3 61.9 3.86
19 2 3 62.48 3.82
19 -2 -3 61.07 3.87
19 -3 3 2.05 0.59
19 -3 3 1.43 0.59
19 -3 -3 1.4 0.69
19 -3 -3 1.45 0.68
19 -4 3 10.5 0.99
19 -4 3 9.43 0.91
19 -4 -3 9.73 1.08
19 -4 -3 10.49 1.12
19 -2 4 3.27 0.76
-19 2 4 3.81 0.62
19 -2 4 2.33 0.58
-19 2 4 2.75 0.57
19 -2 -4 1.13 0.7
19 2 4 3.51 0.56
19 -3 4 2.2 0.56
19 -3 4 2.53 0.61
19 -3 -4 2.31 0.75
19 -3 -4 2.23 0.72
19 3 4 2.34 0.52
19 -4 4 1.78 0.47
19 -4 4 1.93 0.52
19 -4 -4 1.97 0.6
19 -4 -4 1.95 0.68
-19 0 5 -0.05 0.36
-19 1 5 8.41 0.82
19 -1 5 7.5 0.81
-19 1 5 6.43 0.75
-19 -1 5 5.31 0.73
19 1 5 7.57 0.72
-19 2 5 26.08 1.68
-19 2 5 21.35 1.58
19 -2 5 22.03 1.6
19 -2 5 23.66 1.63
19 2 5 23.1 1.59
19 -2 -5 23.62 1.77
19 -3 5 5.88 0.74
19 -3 5 4.76 0.66
19 3 5 4 0.73
19 -3 -5 5.69 0.89
19 -4 5 7.23 0.83
19 -4 5 6.91 0.75
19 -4 -5 9.17 1.11
19 -4 -5 7.6 0.9
-19 0 6 0.02 0.36
19 0 6 0.19 0.35
19 -1 6 5.27 0.76
-19 1 6 5.42 0.66
19 1 6 6.46 0.68
19 -2 6 30.18 2.14
-19 2 6 31.18 2.15
19 -2 6 34.4 2.07
19 -2 -6 33.72 2.25
19 2 6 33.49 2.13
19 -3 6 7.22 0.93
19 -3 6 6.74 0.87
19 -3 -6 7.5 1
19 3 6 7.06 0.81
19 -4 6 0.5 0.35
19 -4 6 -0.04 0.44
19 -4 -6 0.21 0.51
19 -4 -6 -0.29 0.65
-19 0 7 0.06 0.38
19 0 7 -0.28 0.36
-19 1 7 14.29 1.1
-19 1 7 11.3 1.02
19 -1 7 14.42 1.08
-19 -1 7 11.32 1.04
19 1 7 13 1.03
-19 2 7 16.65 1.28
19 -2 7 17.54 1.33
-19 2 7 16.87 1.39
19 -2 7 16.6 1.24
19 -2 -7 16.88 1.56
19 2 7 16.81 1.3
19 -3 7 3.64 0.6
19 -3 7 2.96 0.56
-19 3 7 2.46 0.58
19 3 7 2.81 0.55
19 -3 -7 2.88 0.88
19 -4 7 2.82 0.45
19 -4 7 2.33 0.38
19 -4 -7 3.22 0.57
19 -4 -7 2.52 0.7
19 0 8 -0.03 0.35
-19 0 8 0.19 0.39
-19 0 8 -0.25 0.38
-19 1 8 1.37 0.48
19 -1 8 2.86 0.51
-19 1 8 3.37 0.53
19 1 8 2.19 0.47
-19 2 8 4.68 0.72
19 -2 8 2.72 0.48
-19 2 8 1.19 0.56
19 2 8 2.93 0.53
19 -2 -8 0.9 0.83
-19 3 8 5.81 0.86
19 -3 8 7.15 0.81
19 -3 8 6.23 0.79
19 -3 -8 7.82 1.03
19 3 8 5.73 0.81
19 -4 8 0.25 0.34
19 -4 8 0.02 0.26
19 -4 -8 -0.52 0.57
19 -4 -8 0.21 0.45
19 0 9 0 0.53
-19 0 9 -0.16 0.41
19 0 9 0.35 0.35
-19 0 9 0.05 0.44
19 -1 9 13.19 1.01
-19 1 9 13.95 1.1
-19 1 9 9.44 1.03
-19 -1 9 8.78 1
19 1 9 12.18 1.01
-19 2 9 9.37 1.01
19 -2 9 9.83 0.93
19 -2 9 8.62 0.83
-19 2 9 7.19 0.93
19 2 9 9.15 0.92
-19 3 9 1.27 0.48
19 -3 9 1.35 0.41
19 -3 9 1.28 0.42
19 3 9 0.93 0.48
19 -3 -9 0.25 0.82
19 -4 9 0.88 0.31
19 -4 9 0.8 0.24
19 -4 -9 -0.21 0.51
19 -4 -9 0.84 0.4
-19 0 10 0.03 0.44
19 0 10 -0.05 0.38
-19 0 10 0.04 0.44
19 0 10 -0.34 0.36
-19 1 10 21.67 1.49
19 -1 10 18.87 1.42
-19 1 10 18.91 1.49
-19 -1 10 20.07 1.44
19 1 10 19.59 1.45
-19 2 10 5 0.7
19 -2 10 4.74 0.57
19 -2 10 5.64 0.77
19 2 10 4.62 0.74
19 -3 10 1.63 0.41
-19 3 10 2.27 0.5
19 -3 10 1.66 0.44
-19 3 10 1.66 0.47
19 3 10 2.87 0.52
19 -3 -10 1.87 0.84
-19 0 11 0.05 0.44
19 0 11 0.14 0.39
19 0 11 0.08 0.37
-19 0 11 -0.06 0.44
-19 1 11 6.09 0.86
-19 1 11 7.11 1.1
-19 1 11 9.97 0.98
19 -1 11 8.39 0.86
-19 -1 11 6.39 0.83
19 1 11 7.73 0.84
-19 2 11 5.26 0.8
19 -2 11 6.08 0.74
-19 2 11 5.74 0.75
19 -2 11 6.2 0.73
19 2 11 4.84 0.75
19 -3 11 4.2 0.51
19 -3 11 5.22 0.6
-19 3 11 5.55 0.68
19 3 11 5.1 0.65
19 -3 -11 5.87 0.85
-19 0 12 -0.01 0.42
19 0 12 -0.3 0.35
-19 0 12 -0.12 0.41
19 0 12 -0.09 0.34
-19 1 12 2.62 0.57
19 -1 12 2.93 0.51
-19 1 12 4.2 0.71
-19 1 12 3.3 0.69
-19 -1 12 4.86 0.68
19 1 12 3.78 0.68
-19 2 12 2.04 0.47
19 -2 12 3.22 0.46
19 -2 12 2.29 0.44
-19 2 12 2.95 0.52
19 2 12 2.73 0.5
-19 3 12 0.99 0.35
19 -3 12 1.05 0.31
19 -3 12 1.42 0.33
-19 3 12 1.44 0.32
19 3 12 1.58 0.34
19 -3 -12 -0.53 0.64
-19 0 13 0.07 0.41
19 0 13 0.25 0.36
-19 0 13 0.58 0.44
19 0 13 0.48 0.32
-19 1 13 1.55 0.63
-19 1 13 2.39 0.52
19 -1 13 2.43 0.44
-19 1 13 1.18 0.47
19 1 13 1.48 0.45
19 -2 13 6.73 0.67
-19 2 13 6.74 0.74
-19 2 13 5.07 0.74
19 -2 -13 7.31 0.88
19 2 13 6.54 0.73
19 -3 13 0.26 0.23
-19 3 13 -0.06 0.35
19 -3 -13 0.36 0.5
19 3 13 0.14 0.23
19 0 14 -0.03 0.34
-19 0 14 0.16 0.38
-19 0 14 0.13 0.39
19 -1 14 1.53 0.37
-19 1 14 0.45 0.41
-19 1 14 1.1 0.42
19 1 14 0.69 0.37
-19 2 14 4.27 0.59
-19 2 14 4 0.55
19 -2 14 4.32 0.53
19 -2 -14 4.54 0.77
19 2 14 4 0.54
-19 0 15 0.05 0.34
-19 0 15 -0.16 0.36
-19 1 15 6.06 0.65
-19 1 15 4.29 0.64
19 -1 15 6.68 0.62
19 1 15 5.97 0.59
19 -2 15 0.56 0.25
-19 2 15 0.53 0.27
-19 2 15 0.81 0.28
19 2 15 0.46 0.25
-19 0 16 -0.15 0.28
19 -1 16 7.36 0.56
-19 1 16 5.86 0.59
-19 1 16 6.42 0.58
20 -2 0 2.51 0.63
20 -3 0 4.39 0.76
20 -3 0 3.38 0.7
20 -4 0 0.79 0.55
20 -4 0 0.61 0.47
20 -2 1 7.49 0.93
20 -2 -1 7.54 0.97
-20 -2 1 5.34 0.83
20 -3 1 13.83 1.24
20 -3 1 16.77 1.32
20 -3 -1 13.08 1.32
20 -3 -1 13.45 1.38
20 -4 1 3.58 0.57
20 -4 1 2.89 0.64
20 -4 -1 2.89 0.65
20 -4 -1 3.11 0.59
-20 -1 -2 3.77 0.64
20 -2 2 3.08 0.66
-20 -2 2 5.03 0.77
20 2 2 3.73 0.63
20 -3 2 0.59 0.58
20 -3 2 0.83 0.56
20 -3 -2 0.28 0.64
20 -3 -2 0.08 0.68
20 -4 2 10.66 1.02
20 -4 2 13.56 1.11
20 -4 -2 13.75 1.22
20 -4 -2 11.52 1.09
-20 1 3 5.3 0.71
-20 -1 -3 5.33 0.72
-20 1 3 4.1 0.62
-20 -1 3 3.83 0.61
20 -2 3 0.93 0.55
-20 2 3 0.85 0.46
-20 -2 3 1.41 0.49
20 2 3 1.33 0.46
20 -3 3 35.77 2.35
20 -3 3 35.26 2.35
20 -3 -3 36.97 2.5
20 -3 -3 35.65 2.38
20 -4 3 0.53 0.49
20 -4 3 0.55 0.42
20 -4 -3 0.42 0.53
20 -4 -3 0.48 0.6
-20 0 4 7.86 0.84
-20 1 4 5.65 0.7
-20 1 4 4.16 0.58
20 -1 4 4.75 0.75
-20 -1 4 5.49 0.7
20 -2 4 11.66 1.15
-20 2 4 12.17 1.13
-20 2 4 13.87 1.05
20 2 4 13.05 1.07
20 -3 4 7.28 1
20 -3 4 9.23 0.96
20 -3 -4 8.28 0.95
20 3 4 8.23 0.86
20 -3 -4 7.54 1.19
20 -4 4 2.33 0.48
20 -4 4 2.98 0.52
20 -4 -4 3.43 0.68
20 -4 -4 3.1 0.65
-20 0 5 21.84 1.52
20 -1 5 5.06 0.75
-20 1 5 5.17 0.75
-20 1 5 5.92 0.71
-20 -1 5 5.53 0.73
20 1 5 5.32 0.66
-20 2 5 1.61 0.56
-20 2 5 0.69 0.41
20 -2 5 1.28 0.53
20 -2 -5 0.6 0.77
20 2 5 0.99 0.44
20 -3 5 5.41 0.69
20 -3 5 6.25 0.92
20 3 5 5.74 0.79
20 -3 -5 5.94 0.88
20 -3 -5 7.94 0.94
20 -4 5 5.37 0.67
20 -4 5 5.3 0.6
20 -4 -5 6.13 0.88
20 -4 -5 6.22 0.76
-20 0 6 19.59 1.31
20 0 6 15.62 1.22
-20 1 6 13.17 1.04
-20 1 6 11.2 1.05
20 -1 6 12 1.03
20 1 6 10.92 0.98
-20 -1 6 13.88 1.03
-20 2 6 6.9 0.85
-20 2 6 9.02 1.02
20 -2 6 7.92 0.93
20 2 6 7.79 0.88
20 -2 -6 8.03 0.96
20 -3 6 17.13 1.41
20 -3 6 17.73 1.33
20 3 6 19.79 1.34
20 -3 -6 16.13 1.62
20 -4 6 2.98 0.47
20 -4 6 2.63 0.43
20 -4 -6 2.8 0.58
20 -4 -6 2.46 0.64
20 0 7 9.22 0.87
-20 0 7 9.46 0.91
-20 1 7 10.78 1.02
20 -1 7 10.39 0.98
-20 1 7 10.69 1.05
-20 -1 7 11.9 0.99
20 1 7 10.78 0.95
20 -2 7 6.83 0.93
-20 2 7 4.88 0.73
-20 2 7 7.66 0.81
20 2 7 6.59 0.83
20 -2 -7 6.34 0.89
20 -3 7 12.54 1.06
20 -3 7 11.38 1.02
20 3 7 11.06 1.02
20 -3 -7 11.54 1.39
20 -4 7 2.3 0.4
20 -4 7 1.24 0.33
20 -4 -7 1.46 0.58
20 -4 -7 1.96 0.52
20 0 8 4.68 0.67
-20 0 8 6.2 0.79
-20 0 8 5.05 0.81
-20 1 8 3.28 0.59
20 -1 8 2.6 0.52
-20 1 8 4.45 0.75
20 1 8 3.1 0.53
-20 -1 8 4.32 0.71
-20 2 8 3.86 0.64
-20 2 8 3.37 0.58
20 -2 8 4.57 0.62
20 2 8 2.9 0.56
20 -2 -8 4.01 0.83
-20 3 8 0.64 0.45
20 -3 8 1.09 0.43
20 -3 8 1.05 0.43
20 3 8 0.39 0.44
20 -3 -8 0.14 0.76
20 -4 8 1.17 0.33
20 -4 8 1.14 0.28
20 -4 -8 1.01 0.44
20 -4 -8 1.23 0.54
20 0 9 40.03 2.53
-20 0 9 41.88 2.55
-20 0 9 40.24 2.59
20 -1 9 7.57 0.83
-20 1 9 8.98 0.94
-20 1 9 8.32 0.95
20 1 9 8.49 0.88
-20 -1 9 8.12 0.89
20 -2 9 6.03 0.79
-20 2 9 4.69 0.79
-20 2 9 4.84 0.66
20 2 9 5.3 0.78
20 -2 -9 4.44 0.85
-20 3 9 1.22 0.44
20 -3 9 0.91 0.39
20 -3 9 1.19 0.4
20 -3 -9 0.48 0.77
20 3 9 0.88 0.46
20 -4 9 7.24 0.57
20 -4 -9 6.23 0.74
-20 0 10 10.01 0.96
-20 0 10 9.37 0.95
20 0 10 8.83 0.86
-20 1 10 3.12 0.61
20 -1 10 3.79 0.56
-20 1 10 4.59 0.77
20 1 10 3.66 0.59
-20 -1 10 5.53 0.74
-20 2 10 3.18 0.56
20 -2 10 3.41 0.53
-20 2 10 2.19 0.51
20 -2 -10 2.17 0.79
20 2 10 2.48 0.53
-20 3 10 1.05 0.4
-20 3 10 1.77 0.53
20 -3 10 1.45 0.39
20 -3 10 0.72 0.37
20 3 10 1.23 0.44
20 -3 -10 0.32 0.71
-20 0 11 0.85 0.46
20 0 11 1.47 0.42
20 0 11 0.97 0.47
20 -1 11 3.27 0.54
-20 1 11 3.27 0.59
-20 1 11 4.76 0.64
-20 -1 11 4.04 0.66
20 1 11 3.87 0.7
-20 2 11 2.77 0.53
20 -2 11 2.96 0.51
-20 2 11 3.99 0.58
20 2 11 3.53 0.56
20 -2 -11 4.51 0.82
-20 3 11 4.41 0.6
-20 3 11 3.78 0.56
20 -3 11 4.5 0.54
20 -3 11 4.4 0.54
20 3 11 4.06 0.59
20 -3 -11 5.53 0.73
20 0 12 0.68 0.41
20 0 12 0.53 0.36
-20 0 12 1.19 0.46
-20 0 12 0.88 0.46
-20 1 12 3.59 0.59
-20 1 12 4.28 0.63
20 -1 12 4.42 0.67
-20 -1 12 3.79 0.64
20 1 12 4.05 0.59
-20 2 12 1.64 0.45
20 -2 12 1.14 0.39
-20 2 12 1.87 0.47
20 2 12 1.09 0.4
20 -2 -12 2.08 0.7
20 -3 12 8.14 0.64
20 -3 12 8.51 0.63
20 3 12 7.07 0.65
20 -3 -12 7.55 0.94
-20 0 13 12.95 0.96
20 0 13 11.25 1.17
20 0 13 11.51 0.92
-20 0 13 9.82 1
20 -1 13 6.08 0.71
-20 1 13 5.22 0.74
-20 1 13 5.61 0.81
20 1 13 4.81 0.72
-20 2 13 3.69 0.56
-20 2 13 2.22 0.45
20 -2 13 2.55 0.41
20 -2 -13 3.96 0.67
20 2 13 3.38 0.55
-20 0 14 2.95 0.51
20 -1 14 0.61 0.33
-20 1 14 0.57 0.36
-20 1 14 0.89 0.39
20 1 14 0.57 0.35
20 -2 14 1.94 0.32
-20 2 14 1.42 0.36
-20 2 14 1.36 0.35
20 -2 -14 1.65 0.84
20 2 14 0.92 0.32
-20 0 15 12.11 0.97
-20 0 15 13.96 0.98
20 -1 15 4.62 0.53
-20 1 15 3.14 0.56
-20 1 15 3.92 0.53
20 1 15 3.93 0.48
-21 -1 0 21.77 1.52
21 -2 0 0.17 0.56
-21 -2 0 0.46 0.51
21 -3 0 -0.09 0.62
21 -3 0 -0.14 0.6
21 -4 0 0.41 0.52
21 -4 0 1.12 0.46
-21 1 1 25.07 1.84
-21 -1 -1 24.38 1.73
-21 -1 1 27.83 1.74
21 -2 1 13.06 1.26
21 -2 -1 15.61 1.3
21 -3 1 0.32 0.58
21 -3 1 -0.05 0.53
21 -3 -1 0.92 0.6
21 -3 -1 0.16 0.58
21 -4 1 2.74 0.59
21 -4 1 2.95 0.54
21 -4 -1 3.07 0.56
21 -4 -1 2.66 0.61
-21 0 2 0.22 0.46
-21 1 2 6.64 0.71
21 -1 2 5.43 0.73
-21 -1 2 6.72 0.76
21 -2 2 17.18 1.44
21 -2 -2 14.77 1.43
21 2 2 17.78 1.29
-21 -2 2 19.42 1.37
21 -3 2 0.6 0.54
21 -3 2 0.32 0.57
21 -3 -2 0.59 0.66
21 -3 -2 0.33 0.66
21 -4 2 1.66 0.48
21 -4 2 1.46 0.5
21 -4 -2 2.13 0.54
21 -4 -2 2.32 0.6
-21 0 3 -0.13 0.36
-21 0 -3 0.24 0.43
-21 1 3 9.59 0.85
-21 -1 -3 7.49 0.88
-21 -1 3 8.94 0.85
21 -2 3 19.48 1.53
21 2 3 20.56 1.43
21 -3 3 4.57 0.67
21 -3 3 5.35 0.86
21 -3 -3 6.58 0.9
21 -3 -3 4.85 0.85
21 -4 3 1.03 0.44
21 -4 3 0.47 0.49
21 -4 -3 1.12 0.51
21 -4 -3 0.55 0.58
-21 0 4 0.25 0.39
-21 0 -4 -0.17 0.49
21 -1 4 12.68 1.05
-21 1 4 14.05 1.06
-21 1 4 10.85 1.06
-21 -1 4 13.13 1.04
-21 2 4 23.03 1.53
21 -2 4 20.61 1.61
-21 2 4 20.69 1.59
21 2 4 21.32 1.54
-21 -2 4 23.76 1.56
21 -3 4 6.11 0.97
21 -3 4 6.04 0.72
21 3 4 6.69 0.8
21 -3 -4 8.19 0.98
21 -3 -4 6.99 0.89
21 -4 4 0.32 0.4
21 -4 4 0.77 0.43
21 -4 -4 0.93 0.56
21 -4 -4 0.3 0.52
-21 0 5 -0.26 0.37
21 -1 5 23.4 1.52
-21 1 5 18.73 1.5
-21 1 5 23.72 1.54
21 1 5 21.34 1.48
-21 2 5 2.08 0.56
-21 2 5 0.43 0.43
21 -2 5 1.57 0.54
21 2 5 1.39 0.51
21 -3 5 1.31 0.52
21 -3 5 1.42 0.49
21 -3 -5 1.34 0.68
21 -3 -5 1.76 0.7
21 3 5 0.77 0.46
21 -4 5 0.85 0.44
21 -4 5 0.94 0.38
21 -4 -5 1.29 0.57
21 -4 -5 0.51 0.5
-21 0 6 -0.04 0.37
21 0 6 0.01 0.36
-21 1 6 2.72 0.54
-21 1 6 3.34 0.55
21 -1 6 2.61 0.53
21 1 6 3.09 0.55
-21 -1 6 3.45 0.56
-21 2 6 5.83 0.76
21 -2 6 6.36 0.88
-21 2 6 6.79 0.81
21 2 6 5.88 0.82
21 -3 6 1.84 0.51
21 -3 6 1.27 0.53
21 -3 -6 3.1 0.73
21 3 6 2.4 0.51
21 -4 6 0.72 0.3
21 -4 6 0.06 0.38
21 -4 -6 0.09 0.41
-21 0 7 0.18 0.44
21 0 7 0.04 0.38
-21 1 7 38.42 2.3
21 -1 7 38.55 2.28
-21 1 7 33.35 2.29
21 1 7 35.43 2.26
-21 -1 7 31.71 2.27
-21 2 7 23.79 1.7
21 -2 7 25.64 1.71
-21 2 7 22.41 1.65
21 2 7 23.83 1.67
21 -2 -7 22.44 2.18
21 -3 7 5.13 0.77
21 -3 7 4.92 0.59
21 3 7 6.09 0.76
21 -3 -7 4.36 0.85
21 -4 7 0.71 0.32
21 -4 7 0.09 0.28
21 -4 -7 0.68 0.5
21 -4 -7 0 0.42
21 0 8 -0.15 0.36
-21 0 8 -0.16 0.44
-21 1 8 18.81 1.31
-21 1 8 13.62 1.27
21 -1 8 15.14 1.25
21 1 8 15.16 1.27
-21 -1 8 18.63 1.27
-21 2 8 1.88 0.5
21 -2 8 0.64 0.49
-21 2 8 0.68 0.52
21 -2 -8 0.97 0.73
21 2 8 1.13 0.47
21 -3 8 3.56 0.49
21 -3 8 3.47 0.51
21 3 8 3.64 0.56
21 -3 -8 2.22 0.74
21 -4 8 0.27 0.28
21 -4 8 0.54 0.26
21 -4 -8 0.44 0.4
21 -4 -8 1.02 0.42
21 0 9 0.46 0.36
-21 0 9 0.3 0.42
-21 0 9 -0.21 0.64
-21 1 9 8.52 0.91
-21 1 9 5.8 0.85
21 -1 9 8.58 0.84
21 1 9 7.24 0.83
-21 2 9 14.55 1.2
21 -2 9 14.54 1.14
-21 2 9 13.61 1.18
21 -2 -9 13.12 1.35
21 2 9 13.26 1.12
21 -3 9 1.47 0.4
21 -3 9 1.58 0.41
21 -3 -9 0.48 0.68
21 3 9 1.7 0.48
21 0 10 0.31 0.39
-21 0 10 -0.03 0.43
-21 0 10 -0.01 0.43
-21 1 10 13.54 1.22
21 -1 10 14 1.14
-21 1 10 14.43 1.19
21 1 10 14.55 1.18
-21 -1 10 15.54 1.17
21 -2 10 1.35 0.45
-21 2 10 1.28 0.48
21 -2 -10 3.75 0.73
21 2 10 2.3 0.49
21 -3 10 2.57 0.43
21 -3 10 3.5 0.42
21 -3 -10 3.73 0.72
21 3 10 3.36 0.6
-21 0 11 -0.26 0.43
-21 0 11 0.03 0.44
21 0 11 0.14 0.37
-21 1 11 16.4 1.2
-21 1 11 11.04 1.15
21 -1 11 15.75 1.13
21 1 11 14.25 1.15
-21 2 11 3.36 0.6
-21 2 11 4.64 0.7
21 -2 11 4.11 0.67
21 2 11 4.4 0.66
21 -2 -11 2.97 0.72
21 -3 11 2.21 0.35
21 -3 11 2.26 0.33
21 -3 -11 2.63 0.59
21 3 11 1.84 0.37
-21 0 12 0.27 0.43
-21 0 12 0.08 0.4
21 0 12 -0.17 0.32
-21 1 12 0.06 0.37
-21 1 12 -0.18 0.42
21 -1 12 0.46 0.39
-21 -1 12 -0.06 0.38
21 1 12 0.25 0.37
-21 2 12 0.57 0.38
-21 2 12 0.48 0.4
21 -2 12 0.22 0.35
21 2 12 0.36 0.39
21 -2 -12 -0.52 0.73
21 -3 12 1.18 0.27
21 -3 -12 2.5 0.48
21 -3 -12 1.29 0.45
21 3 12 1.09 0.27
-21 0 13 -0.22 0.39
-21 0 13 -0.36 0.38
-21 1 13 0.22 0.36
21 -1 13 0.89 0.38
-21 1 13 1.06 0.42
21 1 13 0.58 0.38
-21 2 13 0.69 0.35
21 -2 13 1.31 0.34
-21 2 13 1.63 0.39
21 2 13 0.89 0.33
-21 0 14 0.33 0.37
21 -1 14 6.23 0.62
-21 1 14 6.7 0.65
-21 1 14 5.78 0.67
21 1 14 4.67 0.62
-21 2 14 3.48 0.46
21 -2 14 2.57 0.41
-21 2 14 1.87 0.36
21 2 14 3.19 0.44
-21 0 15 -0.03 0.31
21 -1 15 1.49 0.31
-21 1 15 2.24 0.36
21 1 15 2.08 0.38
-22 0 0 3.05 0.5
-22 -1 0 4.64 0.74
-22 1 0 4.52 0.67
22 -1 0 6.33 0.76
22 -2 0 4.96 0.82
-22 -2 0 7.75 0.93
22 -3 0 0.87 0.63
22 -3 0 1.45 0.59
22 -4 0 2.4 0.56
22 -4 0 3.17 0.51
-22 0 1 1.82 0.45
-22 0 -1 1.88 0.45
-22 1 1 4.44 0.68
-22 -1 -1 3.01 0.56
-22 1 -1 2.49 0.5
-22 -1 1 3.75 0.66
22 -2 1 2.46 0.62
22 -2 -1 2.12 0.66
22 -3 1 23.51 1.75
22 -3 1 21.27 1.65
22 -3 -1 22.42 1.74
22 -3 -1 23.98 1.73
22 -4 1 2.49 0.5
22 -4 1 2.32 0.49
22 -4 -1 1.89 0.54
22 -4 -1 2.6 0.51
-22 0 -2 7.88 0.87
-22 0 2 8.37 0.83
-22 -1 -2 19.95 1.45
22 -1 2 18.47 1.42
-22 1 2 18.48 1.36
-22 -1 2 19.9 1.39
-22 1 -2 18.51 1.38
22 -2 2 2.29 0.61
22 -2 -2 3.57 0.73
22 2 2 3.29 0.54
-22 -2 2 2.38 0.58
22 -3 2 21.71 1.57
22 -3 2 20.2 1.59
22 -3 -2 21.47 1.6
22 -3 -2 20.43 1.69
22 -4 2 7.6 0.77
22 -4 2 7.62 0.87
22 -4 -2 6.32 0.81
22 -4 -2 7.64 0.87
-22 0 -3 11.83 1.06
-22 0 3 11.57 1.01
-22 -1 -3 2.4 0.58
-22 1 3 1.96 0.47
22 -1 3 1.49 0.53
-22 1 3 1.76 0.46
-22 -1 3 2.31 0.5
22 -2 3 12.23 1.25
22 2 3 12.19 1.09
-22 -2 3 16.12 1.19
22 -3 3 8.05 0.97
22 -3 3 8.68 0.94
22 -3 -3 9.02 1.19
22 3 3 9.25 0.88
22 -3 -3 9.09 0.95
22 -4 3 1.17 0.44
22 -4 3 1.43 0.45
22 -4 -3 1.23 0.49
22 -4 -3 1.07 0.51
-22 0 -4 7.69 0.9
-22 0 4 6.32 0.77
22 -1 4 17.94 1.38
-22 1 4 20.49 1.41
-22 1 4 17.64 1.39
-22 -1 4 22.17 1.39
22 1 4 17.19 1.34
-22 2 4 4.15 0.71
-22 2 4 3.59 0.61
22 -2 4 2.74 0.59
-22 -2 4 3.12 0.59
22 2 4 3.75 0.62
22 -3 4 13.47 1.14
22 -3 4 11.11 1.18
22 -3 -4 14.66 1.4
22 3 4 14.5 1.1
22 -3 -4 13.97 1.37
22 -4 4 1.36 0.43
22 -4 4 1.43 0.41
22 -4 -4 1.28 0.54
22 -4 -4 1.31 0.5
22 0 5 15.9 1.19
-22 0 5 16.61 1.26
22 -1 5 20.62 1.44
-22 1 5 19.93 1.44
-22 1 5 20.58 1.46
-22 -1 5 17.81 1.44
22 1 5 21.17 1.42
22 -2 5 6.34 0.93
-22 2 5 6.12 0.91
-22 2 5 5.26 0.78
22 2 5 5.59 0.79
22 -3 5 7.5 0.8
22 -3 5 6.32 0.85
22 -3 -5 5.6 0.83
22 -3 -5 5.33 0.85
22 3 5 5.75 0.8
22 -4 5 6.77 0.73
22 -4 5 6.76 0.66
22 -4 -5 6.39 0.77
22 -4 -5 5.82 0.7
22 0 6 5.63 0.69
-22 0 6 5.9 0.79
-22 1 6 9.77 1.03
22 -1 6 10.89 1.04
-22 1 6 11.2 1.04
-22 -1 6 12.44 1.05
22 1 6 10.3 0.96
-22 2 6 0.41 0.52
22 -2 6 0.51 0.51
-22 2 6 0.49 0.44
22 2 6 0.63 0.48
22 -3 6 7.45 0.84
22 -3 6 5.88 0.87
22 -3 -6 6.81 1.07
22 3 6 8.53 0.81
22 -3 -6 8.32 1.07
22 -4 6 1.51 0.34
22 -4 6 1.71 0.34
22 -4 -6 1.19 0.47
22 -4 -6 1.84 0.49
-22 0 7 0.92 0.44
22 0 7 1.17 0.42
-22 1 7 15.92 1.34
-22 1 7 19.09 1.34
22 -1 7 16.41 1.32
-22 -1 7 18.15 1.34
22 1 7 17.78 1.3
-22 2 7 1.9 0.59
-22 2 7 2.48 0.54
22 -2 7 1.94 0.56
22 2 7 2.67 0.57
22 -3 7 3.13 0.45
22 -3 7 1.77 0.48
22 -3 -7 2.6 0.7
22 -3 -7 1.33 0.63
22 3 7 2.33 0.52
22 -4 7 9.01 0.65
22 -4 7 7.72 0.65
22 -4 -7 9.78 0.78
22 -4 -7 8.53 0.82
22 0 8 36.58 2.44
-22 0 8 41.39 2.53
22 -1 8 6.68 0.82
-22 1 8 8.61 0.88
-22 1 8 6.57 0.92
-22 -1 8 8.72 0.9
22 1 8 6.74 0.85
22 -2 8 10.38 1.04
-22 2 8 11.51 1.03
-22 2 8 9.71 1.06
22 2 8 11.12 1.02
22 -3 8 4.76 0.69
22 -3 8 6.33 0.66
22 -3 -8 6.16 0.81
22 3 8 5.44 0.73
-22 0 9 7.59 0.93
22 0 9 8.06 0.79
-22 1 9 2.65 0.53
-22 1 9 3.67 0.6
22 -1 9 2.76 0.51
-22 -1 9 3.95 0.61
22 1 9 2.86 0.54
-22 2 9 0.83 0.46
-22 2 9 0.94 0.49
22 -2 9 1.37 0.45
22 2 9 1.1 0.44
22 -3 9 13.28 0.97
22 -3 9 12.77 0.93
22 -3 -9 13.17 1.2
22 3 9 10.78 1
-22 0 10 20.74 1.52
22 0 10 20.86 1.45
22 -1 10 6.83 0.81
-22 1 10 8.2 0.89
-22 1 10 6.95 0.91
22 1 10 7.98 0.87
-22 -1 10 8.24 0.87
22 -2 10 1.13 0.44
-22 2 10 1.52 0.48
-22 2 10 1.43 0.47
22 2 10 1.01 0.41
22 -3 10 13.54 0.99
22 3 10 14.3 1.04
22 -3 -10 13.84 1.14
-22 0 11 15.44 1.32
22 0 11 18.71 1.25
-22 1 11 4.77 0.78
-22 1 11 4.99 0.71
22 -1 11 4.56 0.72
22 1 11 4.01 0.74
-22 -1 11 6.42 0.74
-22 2 11 -0.34 0.4
22 -2 11 -0.09 0.37
-22 2 11 0.2 0.38
22 2 11 0.06 0.35
22 -3 11 3.94 0.47
22 -3 -11 3.7 0.56
22 3 11 2.91 0.48
22 -3 -11 3.82 0.58
-22 0 12 6.48 0.8
22 0 12 6.58 0.69
22 -1 12 3.32 0.48
-22 1 12 2.48 0.5
-22 1 12 2.65 0.48
-22 -1 12 4.01 0.61
22 1 12 3.59 0.63
-22 2 12 2.42 0.48
22 -2 12 2.9 0.44
-22 2 12 2.5 0.46
22 2 12 3.15 0.48
-22 0 13 12.37 1.02
-22 1 13 1.72 0.46
22 -1 13 2.79 0.42
-22 1 13 2.55 0.45
22 1 13 3.23 0.56
22 -2 13 3.94 0.5
-22 2 13 4.06 0.58
-22 2 13 3.23 0.56
22 2 13 3.9 0.52
-22 0 14 29.71 1.88
-22 1 14 5.47 0.65
22 -1 14 6.33 0.56
-22 1 14 4.92 0.6
22 1 14 4.9 0.54
22 2 14 0.36 0.23
-22 0 15 0.32 0.33
22 -1 15 1.07 0.25
-22 1 15 1.21 0.29
-22 1 15 1.43 0.3
22 1 15 1.08 0.26
-23 0 0 -0.18 0.39
-23 1 0 6.55 0.76
23 -1 0 5.4 0.9
-23 -1 0 7.25 0.79
-23 -2 0 1.6 0.6
23 -3 0 0.43 0.6
23 -3 0 1.23 0.54
23 -4 0 0.32 0.42
23 -4 0 0.86 0.44
-23 0 -1 0.3 0.41
-23 0 1 -0.28 0.39
-23 1 1 7.52 0.8
-23 -1 -1 9.95 0.93
-23 -1 1 8.4 0.86
-23 1 -1 8.13 0.82
23 -2 1 42.59 2.79
23 -2 -1 44.03 2.84
23 -3 1 4.62 0.66
23 -3 1 6.02 0.77
23 -3 -1 4.44 0.7
23 -3 -1 4.26 0.74
23 -4 1 5.99 0.71
23 -4 1 6.53 0.78
23 -4 -1 6.44 0.68
23 -4 -1 7.36 0.74
-23 0 -2 0 0.44
-23 0 2 0.29 0.38
-23 -1 -2 3.8 0.64
23 -1 2 4.58 0.63
-23 1 2 3.87 0.68
-23 -1 2 4.04 0.73
-23 1 -2 3.07 0.57
23 -1 -2 3.22 0.67
23 -2 2 20.7 1.54
-23 -2 2 18.83 1.53
23 -2 -2 19.59 1.59
23 2 2 20.37 1.44
23 -3 2 4.86 0.7
23 -3 2 3.18 0.59
23 -3 -2 3.51 0.71
23 -3 -2 3.22 0.67
23 -4 2 0.98 0.4
23 -4 2 0.83 0.43
23 -4 -2 0.92 0.44
23 -4 -2 0.87 0.46
-23 0 -3 -0.13 0.47
-23 0 3 0.1 0.41
23 -1 3 35.04 2
-23 -1 -3 29.12 2.07
-23 1 3 29.85 1.97
-23 -1 3 28.84 1.98
-23 1 -3 27.98 2
23 -2 3 6.66 0.99
-23 -2 3 5.83 0.85
23 2 3 7.34 0.81
23 -2 -3 5.64 0.84
23 -3 3 1.83 0.51
23 -3 3 1.38 0.52
23 3 3 1.47 0.47
23 -3 -3 1.2 0.62
23 -3 -3 1.71 0.63
23 -4 3 2.67 0.46
23 -4 3 3.01 0.45
23 -4 -3 2.84 0.54
23 -4 -3 2.58 0.5
-23 0 4 -0.13 0.42
-23 0 -4 0.13 0.51
-23 1 4 36.94 2.35
23 -1 4 37.34 2.36
-23 1 4 38.24 2.39
-23 -1 4 35.7 2.37
23 1 4 37.41 2.35
-23 2 4 9.62 0.93
23 -2 4 11.37 1.06
-23 -2 4 9.48 1.01
23 2 4 10.22 0.99
23 -3 4 2.08 0.48
23 -3 4 1.92 0.55
23 -3 -4 1.38 0.65
23 -3 -4 1.43 0.66
23 3 4 1.95 0.5
23 -4 4 0.63 0.39
23 -4 4 0.68 0.35
23 -4 -4 0.77 0.43
23 -4 -4 1 0.44
23 0 5 -0.07 0.37
-23 0 5 0.19 0.42
-23 1 5 12.3 1.07
-23 1 5 10.71 1.04
23 -1 5 12.92 1.1
23 1 5 12.54 1
-23 -1 5 12.03 1.04
23 -2 5 36.58 2.21
-23 2 5 35.33 2.22
-23 2 5 28.58 2.16
23 2 5 33.62 2.18
23 -3 5 0.85 0.48
23 -3 5 0.97 0.45
23 -3 -5 0.3 0.63
23 -3 -5 0.84 0.6
23 3 5 1.13 0.49
23 -4 5 2.04 0.37
23 -4 5 1.73 0.35
23 -4 -5 1.67 0.44
23 -4 -5 1.36 0.38
23 0 6 0.12 0.37
-23 0 6 0.26 0.43
-23 1 6 11.24 1.1
23 -1 6 11.74 1.07
-23 1 6 12.14 1.08
-23 -1 6 13.42 1.11
23 1 6 12.4 1.07
-23 2 6 5.07 0.78
23 -2 6 5.03 0.7
-23 2 6 4 0.65
23 2 6 5.57 0.85
23 -3 6 0.55 0.41
23 -3 6 0.38 0.46
23 -3 -6 0.26 0.59
23 -3 -6 0.44 0.58
23 3 6 0.14 0.41
23 -4 6 4.44 0.48
23 -4 6 4.38 0.48
23 -4 -6 3.72 0.6
23 -4 -6 3.2 0.49
-23 0 7 -0.2 0.44
23 0 7 -0.05 0.38
-23 1 7 1.74 0.52
23 -1 7 2.07 0.49
-23 1 7 2.48 0.54
23 1 7 2.52 0.56
-23 2 7 15.71 1.16
23 -2 7 12.31 1.17
-23 2 7 11.32 1.18
23 2 7 13.57 1.11
23 -3 7 1.19 0.44
23 -3 -7 1.71 0.62
23 -3 -7 0.92 0.58
23 3 7 0.52 0.41
-23 0 8 -0.1 0.44
23 0 8 0.3 0.4
-23 1 8 9.83 0.96
-23 1 8 8.04 0.97
23 -1 8 7.8 0.88
-23 -1 8 10.31 0.98
23 1 8 9.16 0.92
23 -2 8 14.95 1.23
-23 2 8 12.65 1.26
-23 2 8 17.35 1.25
23 2 8 15.68 1.21
23 -3 8 0.36 0.36
23 -3 -8 1.1 0.58
23 -3 -8 0.34 0.54
23 3 8 0.26 0.37
-23 0 9 -0.34 0.43
23 0 9 -0.14 0.36
23 -1 9 0.71 0.43
-23 1 9 2.2 0.51
-23 1 9 1.12 0.5
23 1 9 1.17 0.49
-23 2 9 16.12 1.25
23 -2 9 16.28 1.17
-23 2 9 14.9 1.24
23 2 9 14.78 1.17
23 -3 9 7.21 0.67
23 -3 -9 5.42 0.91
23 -3 -9 7.12 0.88
23 3 9 5.65 0.73
-23 0 10 0.24 0.45
23 0 10 -0.28 0.36
23 -1 10 5.84 0.74
-23 1 10 5.07 0.79
-23 1 10 5.44 0.82
23 1 10 5.87 0.75
-23 -1 10 6.89 0.81
23 -2 10 6.77 0.78
-23 2 10 5.11 0.83
-23 2 10 8.6 0.85
23 2 10 6.93 0.76
23 -3 10 8.73 0.74
23 3 10 9.99 0.76
23 -3 -10 8.07 0.95
23 -3 -10 9.38 0.97
-23 0 11 -0.11 0.41
23 0 11 -0.18 0.35
-23 1 11 23.45 1.48
23 -1 11 23.58 1.43
-23 1 11 17.71 1.46
23 1 11 22.9 1.48
-23 -1 11 17.34 1.45
-23 2 11 5.25 0.68
-23 2 11 4.84 0.72
23 -2 11 5.44 0.67
23 2 11 5.25 0.68
23 -3 11 1.2 0.29
23 3 11 1.7 0.3
23 -3 -11 1.6 0.49
-23 0 12 -0.01 0.4
23 0 12 -0.06 0.3
-23 1 12 3.71 0.54
23 -1 12 3.81 0.48
-23 1 12 3.05 0.53
23 1 12 4.04 0.61
-23 -1 12 4.09 0.57
-23 2 12 0.05 0.33
-23 2 12 -0.06 0.35
23 -2 12 0.53 0.32
23 2 12 0.07 0.31
-23 0 13 -0.12 0.38
-23 1 13 2.19 0.48
-23 1 13 4.19 0.62
23 -1 13 3.82 0.51
23 1 13 3.35 0.55
23 -2 13 2.73 0.44
-23 2 13 1.83 0.38
-23 2 13 2.96 0.4
-23 0 14 -0.05 0.33
23 -1 14 3.06 0.44
-23 1 14 2.56 0.38
-23 1 14 3.82 0.53
23 1 14 2.06 0.38
-23 0 15 0.1 0.24
-24 0 0 0.66 0.44
-24 1 0 29.95 1.95
-24 -1 0 34.43 2.04
24 -1 0 24.64 1.97
24 -2 0 2.77 0.67
-24 -2 0 2.98 0.67
24 -3 0 0.65 0.59
24 -4 0 0.42 0.4
24 -4 0 0.18 0.39
-24 0 -1 7.67 0.85
-24 0 1 7.65 0.84
24 -1 1 16.54 1.26
-24 1 1 14.79 1.16
-24 -1 -1 14.8 1.25
24 -1 -1 17.33 1.29
-24 1 -1 11.98 1.13
-24 -1 1 14.25 1.2
24 -2 1 14.1 1.25
24 -2 -1 13.83 1.33
24 2 1 13.64 1.1
-24 -2 1 11.37 1.19
24 -3 1 2 0.57
24 -3 -1 2.71 0.84
24 -3 -1 1.57 0.64
24 -4 1 1.51 0.43
24 -4 1 2.14 0.45
24 -4 -1 2.76 0.45
24 -4 -1 2.53 0.45
-24 0 -2 66.98 3.95
-24 0 2 62.47 3.92
-24 -1 -2 12.23 1.17
-24 1 2 13.33 1.05
24 -1 2 13.26 1.13
-24 -1 2 12.74 1.07
-24 1 -2 11.35 1.07
24 -1 -2 13.03 1.25
24 -2 2 3.16 0.65
-24 -2 2 4.53 0.7
24 -2 -2 3.59 0.75
24 2 2 4.39 0.64
24 -3 2 4.01 0.64
24 -3 -2 5.24 0.83
24 -3 -2 6.57 0.81
24 -4 2 1.22 0.4
24 -4 2 0.95 0.36
24 -4 -2 1.1 0.41
24 -4 -2 0.65 0.42
-24 0 -3 63.77 3.69
-24 0 3 55.33 3.62
-24 1 3 17.83 1.41
-24 -1 -3 19.69 1.54
24 -1 3 21.28 1.47
-24 -1 3 19.56 1.47
-24 1 -3 19.68 1.45
24 -2 3 11.61 1.12
-24 -2 3 9.23 1.09
24 2 3 13.61 1.09
24 -2 -3 12.21 1.27
24 -3 3 5.29 0.69
24 -3 -3 4.35 0.73
24 3 3 5.61 0.71
24 -3 -3 4.48 0.78
24 -4 3 1.58 0.41
24 -4 3 2.14 0.39
24 -4 -3 2.62 0.46
24 -4 -3 1.64 0.43
-24 0 -4 37.65 2.46
-24 0 4 36.17 2.37
-24 1 4 0.44 0.41
-24 1 4 0.54 0.44
24 -1 4 -0.4 0.44
-24 -1 4 1.48 0.5
24 1 4 0.33 0.4
-24 2 4 7.22 0.86
24 -2 4 8.37 0.93
24 -2 -4 7.62 1.13
-24 -2 4 6.89 0.9
24 2 4 8.4 0.92
24 -3 4 3.89 0.61
24 -3 -4 3.47 0.73
24 3 4 4.63 0.67
24 -3 -4 3.96 0.72
24 -4 4 7.1 0.65
24 -4 4 7.13 0.65
24 -4 -4 6.67 0.72
24 -4 -4 6.77 0.73
24 0 5 19.17 1.38
-24 0 5 19.19 1.44
-24 1 5 11.55 1.01
24 -1 5 11.73 1.05
-24 1 5 10.4 1.02
24 1 5 11.05 0.95
-24 -1 5 8.56 1.01
-24 2 5 4.19 0.61
24 -2 5 5.47 0.85
-24 -2 5 4.42 0.8
24 2 5 4.8 0.79
24 -3 5 10.8 1
24 3 5 10.84 0.94
24 -3 -5 8.26 1.11
24 -4 5 0.61 0.28
24 -4 5 0.27 0.3
24 -4 -5 0.16 0.35
24 -4 -5 0.3 0.36
24 0 6 13.81 1.08
-24 0 6 14.32 1.17
-24 1 6 12.63 1.21
24 -1 6 13.88 1.2
-24 1 6 16.85 1.23
24 1 6 14.08 1.17
-24 -1 6 15.8 1.19
24 -2 6 17.76 1.41
-24 2 6 17.64 1.36
-24 2 6 17.27 1.38
24 2 6 18.45 1.36
24 -3 6 8.95 0.89
24 3 6 8.17 0.8
24 -3 -6 7.27 1
-24 0 7 32.52 2.16
24 0 7 32.38 2.09
24 -1 7 7.85 0.88
-24 1 7 6.53 0.92
-24 1 7 7.5 0.92
-24 -1 7 8.25 0.89
24 1 7 7.07 0.83
-24 2 7 3.31 0.57
-24 2 7 1.93 0.54
24 2 7 2.94 0.58
24 -3 7 1.29 0.43
24 -3 -7 2.14 0.63
24 3 7 1.58 0.45
24 -3 -7 -0.55 0.83
-24 0 8 17.74 1.37
24 0 8 17.69 1.31
-24 1 8 4.75 0.79
-24 1 8 3.2 0.59
24 -1 8 2.86 0.52
-24 -1 8 4.98 0.74
24 1 8 4.26 0.62
-24 2 8 4.2 0.61
24 -2 8 3.92 0.57
-24 2 8 4.34 0.61
24 2 8 3.66 0.66
24 -3 8 6.18 0.65
24 3 8 5.43 0.68
24 -3 -8 5.63 0.9
-24 0 9 0.54 0.46
24 0 9 0.37 0.39
-24 1 9 1.02 0.48
-24 1 9 1.56 0.52
24 -1 9 0.83 0.42
24 1 9 0.94 0.45
-24 -1 9 0.64 0.46
-24 2 9 2.8 0.53
24 -2 9 4.68 0.68
-24 2 9 3.84 0.59
24 2 9 3.65 0.63
24 -3 9 3.42 0.52
24 -3 -9 2.58 0.59
24 3 9 2.3 0.4
24 0 10 22.42 1.51
24 -1 10 4.34 0.7
-24 1 10 3.93 0.59
-24 1 10 3.91 0.72
24 1 10 4.96 0.7
-24 -1 10 5.41 0.71
-24 2 10 0.72 0.41
-24 2 10 0.77 0.42
24 -2 10 1.15 0.4
24 2 10 0.79 0.4
24 -3 10 0.16 0.28
24 -3 -10 0.3 0.46
24 3 10 0.4 0.28
-24 0 11 20.67 1.47
24 0 11 20.15 1.38
-24 1 11 4.75 0.76
24 -1 11 4.61 0.65
-24 1 11 3.62 0.67
-24 -1 11 4.64 0.64
24 1 11 4.04 0.67
24 -2 11 0.29 0.35
-24 2 11 0.41 0.36
-24 2 11 0.3 0.39
24 2 11 0.33 0.34
-24 0 12 1.65 0.45
24 0 12 1.57 0.35
-24 1 12 4.38 0.69
24 -1 12 5.49 0.61
-24 1 12 4.43 0.69
-24 -1 12 4.87 0.61
24 1 12 5.03 0.64
24 -2 12 0.62 0.3
-24 2 12 0.37 0.3
-24 2 12 1.03 0.35
24 2 12 0.61 0.31
-24 0 13 3.03 0.5
-24 1 13 0.56 0.36
24 -1 13 0.86 0.27
-24 1 13 0.38 0.33
24 1 13 0.61 0.3
24 -2 13 0.26 0.22
-24 2 13 -0.08 0.25
24 2 13 0.25 0.25
-24 0 14 10.59 0.83
24 -1 14 1.44 0.27
-24 1 14 0.59 0.31
-24 1 14 1.46 0.28
24 1 14 0.64 0.24
-25 0 0 0.09 0.42
-25 -1 0 1.62 0.53
-25 1 0 2.04 0.51
25 -2 0 36.03 2.42
25 -3 0 2.51 0.58
25 -4 0 -0.13 0.36
25 -4 0 0.33 0.35
-25 0 -1 -0.3 0.41
-25 0 1 0.21 0.44
25 -1 1 1.37 0.55
-25 -1 -1 1.75 0.56
-25 1 1 1.64 0.48
-25 1 -1 0.92 0.46
25 -1 -1 1.58 0.61
-25 -1 1 0.95 0.5
25 -2 1 4.75 0.75
25 -2 -1 4.35 0.76
25 2 1 5.21 0.75
25 -3 1 3.95 0.63
25 -3 -1 3.9 0.69
25 -4 1 1.3 0.36
25 -4 1 1.91 0.4
25 -4 -1 0.94 0.36
25 -4 -1 0.94 0.39
-25 0 2 0.03 0.44
-25 0 -2 0.08 0.47
-25 -1 -2 8.64 1.02
-25 1 2 8.32 0.85
25 -1 2 8.93 0.96
-25 1 -2 8.93 0.93
-25 -1 2 6.82 0.89
25 -1 -2 10.51 1.08
25 -2 2 12.29 1.19
25 2 2 12.43 1.12
25 -2 -2 14.39 1.29
-25 -2 2 13.34 1.23
25 -3 2 3.73 0.58
25 -3 -2 3.48 0.7
25 -4 2 1.98 0.39
25 -4 2 2.36 0.59
25 -4 -2 2.91 0.39
25 -4 -2 2.71 0.42
-25 0 -3 0.43 0.51
-25 0 3 0.01 0.4
-25 1 3 0.91 0.46
25 -1 3 1.32 0.46
25 -1 -3 -0.23 0.57
-25 -1 3 1.32 0.49
-25 1 -3 2.22 0.57
25 -2 3 33.99 2.28
25 -2 -3 33.14 2.38
-25 -2 3 36.3 2.31
25 2 3 35.18 2.27
25 -3 3 1.11 0.49
25 3 3 1.43 0.45
25 -3 -3 1.16 0.56
25 -4 3 1.2 0.34
25 -4 -3 1.75 0.39
25 -4 -3 0.79 0.39
-25 0 4 0.08 0.44
25 -1 4 0.98 0.49
-25 1 4 0.41 0.44
25 1 4 0.84 0.45
-25 -1 4 0.33 0.49
25 -2 4 9.19 1
-25 2 4 6.8 0.89
25 2 4 9.17 0.93
25 -2 -4 8.43 1.17
25 -3 4 0.77 0.47
25 -3 -4 0.75 0.58
25 3 4 1.33 0.44
25 -4 4 6.08 0.58
25 -4 -4 6.2 0.63
25 0 5 0.09 0.4
-25 0 5 0.23 0.44
-25 1 5 17.22 1.35
-25 1 5 17.95 1.33
25 -1 5 20.34 1.38
-25 -1 5 16.11 1.34
25 1 5 18.19 1.33
25 -2 5 30.91 1.96
-25 2 5 25.91 1.9
-25 -2 5 25.89 1.91
25 2 5 30.24 1.94
25 -2 -5 30.79 2.07
25 -3 5 0.88 0.47
25 -3 -5 0.03 0.55
25 3 5 0.04 0.38
25 0 6 0.19 0.4
-25 0 6 -0.26 0.45
-25 1 6 33.19 2.18
-25 1 6 32.85 2.15
25 -1 6 33.59 2.17
25 1 6 34.43 2.17
-25 -1 6 32.17 2.18
-25 2 6 31.9 2.07
25 -2 6 31.89 2.1
-25 -2 6 30.22 2.32
25 2 6 31.67 2.09
25 -3 6 3.02 0.52
25 3 6 2.66 0.49
25 -3 -6 2.11 0.63
-25 0 7 0.05 0.44
25 0 7 -0.25 0.38
-25 1 7 9.03 1.01
25 -1 7 11.06 0.97
-25 1 7 10.68 1
25 1 7 10.54 0.97
-25 -1 7 9.6 0.97
25 -2 7 4.6 0.65
-25 2 7 7.08 0.79
25 2 7 5.44 0.72
25 -3 7 2.08 0.43
25 3 7 2.42 0.47
25 -3 -7 1.98 0.6
25 0 8 -0.13 0.37
-25 0 8 0.21 0.42
25 -1 8 9.07 0.87
-25 1 8 8.5 0.95
-25 1 8 8.58 0.95
-25 -1 8 9.34 0.93
25 1 8 8.92 0.89
25 -2 8 10.1 0.93
-25 2 8 11.7 0.96
-25 2 8 7.83 0.93
25 2 8 10.04 0.92
25 -3 8 4.88 0.61
25 3 8 4.97 0.62
25 -3 -8 4.74 0.68
25 0 9 -0.04 0.37
-25 0 9 0.1 0.44
-25 1 9 4.83 0.75
25 -1 9 6.07 0.71
-25 1 9 4.96 0.78
25 1 9 5.63 0.73
-25 -1 9 3.99 0.72
25 -2 9 15.11 1.09
-25 2 9 12.31 1.11
-25 2 9 14.77 1.11
25 2 9 14.3 1.09
25 -3 9 7.59 0.64
25 -3 -9 7.78 0.84
25 3 9 6.55 0.64
-25 0 10 0.47 0.41
25 0 10 -0.05 0.33
-25 1 10 2.66 0.51
-25 1 10 2.41 0.5
25 -1 10 2.16 0.45
25 1 10 1.8 0.43
-25 -1 10 2.75 0.5
-25 2 10 0.83 0.38
-25 2 10 1.33 0.41
25 -2 10 1.11 0.39
25 2 10 1.1 0.41
25 -3 10 1.73 0.28
25 -3 -10 1.77 0.47
25 3 10 2.85 0.41
-25 0 11 0.45 0.41
25 0 11 -0.43 0.31
-25 1 11 2.75 0.46
-25 1 11 1.98 0.48
-25 -1 11 1.29 0.43
25 1 11 1.57 0.42
-25 2 11 3.98 0.56
25 -2 11 4.67 0.55
-25 2 11 3.32 0.59
25 2 11 3.73 0.56
-25 0 12 0.11 0.4
-25 1 12 5.95 0.67
-25 1 12 5.51 0.68
25 -1 12 5.82 0.58
-25 -1 12 5.51 0.63
25 1 12 5.08 0.63
25 -2 12 4.97 0.5
-25 2 12 5.5 0.55
25 2 12 4.64 0.54
-25 0 13 0.27 0.37
-25 1 13 1.35 0.32
-25 1 13 1.56 0.36
25 -1 13 1.05 0.26
25 1 13 1.69 0.31
-25 0 14 0.33 0.25
-26 0 0 70.08 4.25
-26 1 0 16.89 1.33
-26 -1 0 19.45 1.43
26 -2 0 4.55 0.75
26 -3 0 12.42 1.13
26 -4 0 6.9 0.63
-26 0 -1 112.03 6.55
-26 0 1 107.97 6.51
26 -1 1 3.97 0.61
-26 1 1 2.58 0.54
-26 -1 -1 2 0.62
-26 -1 1 1.97 0.56
-26 1 -1 1.9 0.54
26 -2 1 1.08 0.58
26 -2 -1 1.46 0.64
-26 -2 1 1.5 0.61
26 2 1 1.52 0.49
26 -3 1 16.22 1.24
26 -3 -1 15.94 1.3
26 -4 1 0.61 0.33
26 -4 -1 0.44 0.32
-26 0 2 17.07 1.33
-26 0 -2 17.16 1.37
-26 -1 -2 21.28 1.5
26 -1 2 14.48 1.34
-26 1 2 15.47 1.34
26 -1 -2 15.82 1.45
-26 -1 2 18.55 1.39
-26 1 -2 21.11 1.4
26 -2 2 6.11 0.91
-26 -2 2 6.46 0.98
26 -2 -2 7.19 0.89
26 2 2 7.83 0.87
26 -3 2 0.09 0.46
26 -3 -2 -0.06 0.54
26 -4 2 -0.21 0.29
26 -4 -2 -0.13 0.32
-26 0 3 32.8 2.23
-26 0 -3 35.64 2.31
-26 1 3 17.53 1.27
-26 1 -3 15 1.33
-26 -1 3 16.98 1.3
26 -2 3 2.26 0.55
26 2 3 2.33 0.55
26 -2 -3 2.53 0.71
-26 -2 3 1.76 0.59
26 -3 3 2.36 0.54
26 3 3 2.07 0.46
26 -3 -3 2.37 0.62
26 -4 3 2.78 0.43
26 -4 -3 3.06 0.47
-26 0 4 1.39 0.47
26 -1 4 13.77 1.19
-26 1 4 15.35 1.21
-26 -1 4 15.76 1.23
26 1 4 15.07 1.16
26 -1 -4 11.39 1.32
26 -2 4 0.79 0.51
-26 2 4 1.48 0.44
26 -2 -4 0.88 0.64
-26 -2 4 1.78 0.57
26 2 4 0.85 0.47
26 -3 4 12.82 1.06
26 -3 -4 11.55 1.14
26 3 4 13.41 1.02
-26 0 5 1.04 0.51
26 0 5 0.43 0.41
26 -1 5 19.31 1.51
-26 1 5 21.97 1.54
-26 -1 5 21.33 1.53
26 1 5 19.98 1.48
26 -2 5 12.74 1.08
-26 2 5 10.86 1.03
26 2 5 11.55 1.06
26 -2 -5 10.33 1.25
-26 -2 5 11.57 1.05
26 -3 5 1.93 0.5
26 3 5 1.86 0.42
26 -3 -5 2.57 0.59
26 0 6 64.44 3.93
-26 0 6 66.31 4
26 -1 6 12.72 1.12
-26 -1 6 15.28 1.19
26 1 6 12.89 1.14
26 -2 6 1.55 0.52
-26 2 6 1.88 0.5
26 -2 -6 1.69 0.67
-26 -2 6 1.7 0.52
26 2 6 1.65 0.53
26 -3 6 9.98 0.88
26 -3 -6 9.26 1.01
26 3 6 9.23 0.84
26 0 7 9.15 0.85
-26 0 7 8.92 0.97
-26 1 7 36.03 2.44
-26 1 7 40.05 2.5
26 -1 7 38.17 2.45
26 1 7 39.64 2.49
-26 -1 7 41.48 2.52
-26 2 7 2.77 0.54
26 -2 7 2.33 0.51
26 2 7 2.05 0.49
26 -3 7 0.62 0.36
26 3 7 0.87 0.37
26 -3 -7 0.45 0.5
26 0 8 63.3 3.83
-26 0 8 64.07 3.9
-26 1 8 9.61 0.91
-26 1 8 7.02 0.85
26 -1 8 7.81 0.82
-26 -1 8 9.51 0.93
26 1 8 8.4 0.85
26 -2 8 8.58 0.81
-26 2 8 7.21 0.82
26 2 8 7.23 0.8
26 -3 8 9.86 0.78
26 3 8 9.33 0.77
26 -3 -8 10.92 0.94
26 0 9 2.87 0.47
-26 0 9 1.88 0.53
26 -1 9 8.41 0.78
-26 1 9 7.48 0.81
-26 1 9 6.78 0.8
26 1 9 8.12 0.8
-26 -1 9 6.44 0.83
-26 2 9 9.08 0.86
26 -2 9 9.79 0.82
26 2 9 8.7 0.84
26 -3 9 0.76 0.28
26 3 9 0.95 0.29
26 -3 -9 0.36 0.42
26 0 10 1.36 0.37
-26 0 10 1.86 0.51
-26 1 10 0.44 0.38
26 -1 10 0.99 0.38
-26 1 10 1.22 0.44
26 1 10 1.1 0.4
-26 -1 10 0.85 0.43
26 -2 10 0.95 0.36
-26 2 10 1.21 0.38
26 2 10 0.79 0.38
-26 0 11 4.58 0.71
26 0 11 5.9 0.61
26 -1 11 3.97 0.59
-26 1 11 6.53 0.67
-26 1 11 4.27 0.64
26 1 11 5.37 0.64
-26 -1 11 6.77 0.67
-26 2 11 12.19 0.87
26 -2 11 10.83 0.84
-26 0 12 15.35 1.15
-26 1 12 2.17 0.36
26 -1 12 2.06 0.31
-26 1 12 1.57 0.39
26 1 12 1.93 0.37
26 -2 12 0.16 0.22
-26 2 12 0.72 0.27
26 2 12 0.6 0.26
26 -2 -12 0.5 0.4
-26 0 13 4.76 0.56
-26 1 13 0.05 0.29
26 1 13 0.35 0.23
-27 0 0 0.4 0.46
-27 1 0 4.7 0.74
-27 -1 0 5.01 0.91
27 -2 0 8.59 1.07
27 2 0 7.44 0.9
27 -3 0 0.61 0.48
-27 0 -1 0.49 0.49
-27 0 1 0.21 0.42
27 -1 1 0.2 0.51
-27 -1 -1 1.04 0.58
-27 1 1 0.58 0.46
27 -1 -1 -0.08 0.54
-27 1 -1 1.19 0.52
-27 -1 1 0.82 0.53
27 -2 1 9.8 1.08
27 -2 -1 9.87 1.14
27 2 1 9.16 0.96
27 -3 1 1.48 0.5
27 -3 -1 1.69 0.55
-27 0 -2 0.3 0.5
-27 0 2 -0.14 0.44
27 -1 2 83.84 4.8
-27 1 2 73.84 4.82
-27 -1 -2 81.61 4.91
27 -1 -2 88.09 4.85
-27 1 -2 76.8 4.84
-27 -1 2 79.03 4.86
27 -2 2 10.09 1.01
27 -2 -2 9.52 1.11
-27 -2 2 6.2 1.02
27 2 2 8.51 0.91
27 -3 2 0.43 0.47
27 -3 -2 0.06 0.51
-27 0 -3 -0.07 0.57
-27 0 3 -0.34 0.43
27 -1 3 2.18 0.52
-27 1 3 1.51 0.49
27 1 3 2.15 0.54
27 -1 -3 1.88 0.64
-27 -1 3 2.21 0.53
-27 1 -3 2.81 0.64
27 2 3 5.25 0.8
27 -3 3 0.28 0.47
27 -3 -3 -0.18 0.53
27 3 3 0.45 0.36
-27 0 4 0.18 0.43
27 -1 4 2.29 0.55
-27 1 4 2.77 0.53
27 -1 4 3.15 0.48
27 1 4 2.55 0.51
27 -1 -4 3.02 0.7
-27 -1 4 4.02 0.72
27 -2 4 16.02 1.24
-27 2 4 12.84 1.15
27 -2 -4 15.93 1.38
-27 -2 4 14.34 1.24
27 2 4 16.51 1.22
27 -3 4 0.97 0.45
27 -3 -4 0.76 0.54
27 3 4 0.38 0.37
27 0 5 0.04 0.4
-27 0 5 0.11 0.43
-27 1 5 0.26 0.47
27 -1 5 0.41 0.46
27 1 5 0.15 0.45
27 -1 -5 -0.21 0.59
-27 -1 5 0.19 0.48
-27 2 5 6.28 0.73
27 -2 5 4.98 0.7
27 2 5 5.27 0.82
-27 -2 5 7.67 0.85
27 -2 -5 4.46 0.78
27 -3 5 0.37 0.41
27 3 5 0.49 0.34
27 -3 -5 0.1 0.5
-27 0 6 0.11 0.45
27 0 6 -0.1 0.4
27 -1 6 63.96 3.79
-27 1 6 63.25 3.85
-27 -1 6 61.14 3.85
27 1 6 63.49 3.82
27 -2 6 20.36 1.37
-27 2 6 18.26 1.34
27 2 6 18.86 1.35
-27 -2 6 16.01 1.35
27 -2 -6 17.58 1.52
27 -3 6 3.3 0.46
27 3 6 2.62 0.44
27 -3 -6 3.12 0.55
27 0 7 -0.27 0.38
-27 0 7 -0.27 0.45
27 -1 7 2.07 0.47
-27 1 7 3.19 0.58
-27 -1 7 2.55 0.56
27 1 7 2.83 0.56
27 -2 7 5.24 0.73
-27 2 7 4.26 0.76
27 -2 -7 4.09 0.75
27 2 7 4.49 0.67
27 -3 7 0.95 0.33
27 -3 -7 1.18 0.47
27 3 7 0.72 0.33
-27 0 8 0.07 0.45
27 0 8 0.26 0.37
-27 1 8 4.18 0.6
27 -1 8 3.35 0.51
27 1 8 3.89 0.63
-27 -1 8 4 0.73
-27 2 8 0.61 0.42
27 -2 8 0.33 0.37
27 2 8 0.24 0.4
27 -2 -8 0.22 0.58
27 -3 8 1.08 0.3
27 -3 -8 0.65 0.41
27 3 8 0.55 0.29
27 0 9 -0.18 0.34
-27 0 9 -0.08 0.43
-27 1 9 2.78 0.51
27 -1 9 2.91 0.45
27 1 9 2.46 0.47
-27 -1 9 2.45 0.51
-27 2 9 4.15 0.62
27 -2 9 4.85 0.59
27 2 9 3.8 0.58
27 -2 -9 4.69 0.69
27 0 10 -0.23 0.31
-27 0 10 0.08 0.44
-27 1 10 3.97 0.64
27 -1 10 2.79 0.42
27 1 10 2.94 0.47
-27 -1 10 3.65 0.62
-27 2 10 3.09 0.56
27 -2 10 1.61 0.36
27 -2 -10 1.44 0.57
27 2 10 2.9 0.52
-27 0 11 -0.05 0.36
27 0 11 0.18 0.26
27 -1 11 0.68 0.29
-27 1 11 0.54 0.38
-27 -1 11 -0.06 0.34
27 1 11 0.36 0.33
27 -2 11 0.77 0.3
27 2 11 0.88 0.29
27 -2 -11 0.41 0.44
-27 0 12 0.39 0.32
-27 1 12 1.62 0.37
27 1 12 1 0.3
-27 0 13 0.3 0.3
-28 0 0 2.88 0.59
28 -1 0 4.01 0.64
-28 -1 0 3.04 0.67
-28 1 0 2.79 0.6
28 -2 0 1.34 0.58
28 2 0 0.98 0.49
28 -3 0 18.71 1.36
-28 0 1 55.63 3.5
-28 0 -1 58 3.54
-28 1 1 3.9 0.71
28 -1 1 4.24 0.63
-28 -1 -1 5.22 0.8
-28 -1 1 4.21 0.71
-28 1 -1 4.86 0.75
28 -1 -1 3.6 0.69
28 -2 1 0.54 0.52
28 -2 -1 -0.03 0.56
28 2 1 0.52 0.46
28 -3 1 0.69 0.45
28 -3 -1 0.92 0.47
-28 0 2 5.9 0.84
-28 0 -2 5.69 0.92
28 -1 2 7.49 0.89
-28 1 2 7.16 0.91
-28 -1 2 8.51 1
28 -1 -2 8.25 1.01
-28 1 -2 10.54 0.98
28 -2 2 1.47 0.51
28 -2 -2 1.74 0.62
28 2 2 1.41 0.48
28 -3 2 0.86 0.46
28 -3 -2 0.81 0.5
-28 0 3 1.67 0.52
-28 0 -3 2.95 0.67
28 -1 3 15.87 1.32
-28 1 3 21.18 1.37
28 1 3 17.29 1.31
28 -1 -3 15.76 1.44
28 -2 3 7.52 0.92
-28 -2 3 8.01 0.98
28 2 3 8.48 0.9
28 -2 -3 8.01 1.06
28 -3 3 2.1 0.47
28 3 3 1.92 0.42
28 -3 -3 2.56 0.57
-28 0 4 79.43 4.7
28 0 4 76.38 4.65
28 -1 4 26.28 1.73
-28 1 4 25.91 1.75
28 -1 4 23.14 1.65
28 -1 -4 23.93 1.82
-28 -1 4 28.74 1.78
28 1 4 24.47 1.72
-28 2 4 2.66 0.51
28 -2 4 2.78 0.56
-28 -2 4 3.32 0.62
28 -2 -4 1.68 0.64
28 2 4 2.19 0.54
28 -3 4 9.32 0.88
28 3 4 10.33 0.81
28 -3 -4 9.74 0.98
28 0 5 3.32 0.53
-28 0 5 3.4 0.61
28 -1 5 4.63 0.59
-28 1 5 3.91 0.7
-28 -1 5 3.32 0.58
28 1 5 4.11 0.7
28 -1 -5 4.1 0.71
28 -2 5 5.29 0.81
-28 2 5 5.11 0.71
-28 -2 5 4.33 0.79
28 -2 -5 5.18 0.77
28 2 5 5.32 0.78
28 -3 5 8.64 0.78
28 3 5 8.67 0.73
28 -3 -5 7.23 0.89
-28 0 6 1.42 0.47
28 0 6 0.37 0.43
28 -1 6 1.65 0.45
-28 1 6 2.98 0.56
28 1 6 2.3 0.52
28 -1 -6 1.81 0.63
-28 2 6 5.29 0.69
28 -2 6 5.93 0.76
28 2 6 5.34 0.73
-28 -2 6 5.6 0.77
28 -2 -6 5.77 0.78
28 -3 6 1.29 0.36
28 -3 -6 1.61 0.5
28 3 6 1.33 0.33
28 0 7 8.07 0.81
-28 0 7 7.22 0.87
28 -1 7 6.6 0.74
-28 1 7 6.25 0.85
28 1 7 7.09 0.79
-28 -1 7 5.9 0.83
28 -1 -7 6.03 0.95
-28 2 7 4.65 0.62
28 -2 7 4.31 0.67
28 2 7 3.49 0.6
28 -2 -7 2.93 0.68
28 -3 7 6.35 0.58
28 -3 -7 5.87 0.71
28 3 7 5.63 0.56
-28 0 8 9.88 0.95
28 0 8 10.25 0.87
28 -1 8 7.62 0.76
-28 1 8 8.98 0.89
28 -1 -8 8.27 0.99
-28 -1 8 8.06 0.88
28 1 8 8.81 0.8
-28 2 8 2.33 0.43
28 -2 8 2.75 0.44
28 2 8 3.09 0.47
28 -2 -8 3.34 0.64
-28 0 9 13.71 1.09
28 0 9 13.05 1
28 -1 9 0.2 0.41
-28 1 9 1.46 0.46
28 1 9 0.69 0.4
-28 -1 9 1.11 0.44
28 -2 9 7.97 0.7
-28 2 9 7.38 0.72
28 -2 -9 8.35 0.92
28 2 9 8.39 0.74
28 0 10 0.55 0.33
-28 0 10 1.42 0.41
-28 1 10 5.61 0.71
28 -1 -10 5.74 0.76
28 1 10 5.07 0.62
-28 -1 10 5.21 0.65
-28 2 10 3.97 0.46
28 -2 10 3 0.45
28 2 10 3.06 0.48
28 -2 -10 3.38 0.55
-28 0 11 19.12 1.3
-28 1 11 1.93 0.42
-28 -1 11 2.62 0.4
28 1 11 2.87 0.47
-28 0 12 19.56 1.29
-28 1 12 0.24 0.26
28 1 12 0.18 0.23
-29 0 0 0.3 0.48
-29 1 0 47.9 3.07
-29 -1 0 49.92 3.13
29 -2 0 1.79 0.56
29 2 0 2.98 0.56
29 -3 0 3.98 0.65
-29 0 1 0.18 0.48
-29 0 -1 0.13 0.5
-29 1 1 0.63 0.46
-29 -1 -1 0.8 0.59
-29 1 -1 0.42 0.49
-29 -1 1 -0.02 0.51
29 2 -1 0.76 0.47
29 -2 1 0.23 0.47
29 2 1 0.18 0.44
29 -2 -1 0.15 0.55
29 -3 1 0.95 0.44
29 -3 -1 0.84 0.44
-29 0 -2 0.5 0.56
-29 0 2 0.07 0.42
-29 1 2 16.77 1.27
29 -1 -2 13.52 1.83
-29 1 -2 15.86 1.33
-29 -1 2 16.27 1.32
29 -2 2 11.23 1.07
29 2 2 12.72 1.07
29 -2 -2 12.34 1.21
29 -3 2 16.5 1.19
29 -3 -2 16.69 1.23
-29 0 3 -0.09 0.43
-29 1 3 0.81 0.47
29 -1 -3 0.87 0.87
-29 -1 3 0.54 0.5
29 1 3 0.99 0.47
29 -2 3 3.03 0.56
29 -2 -3 3.77 0.69
29 2 3 3.06 0.56
29 -3 3 1.41 0.43
29 -3 -3 0.84 0.46
29 3 3 0.44 0.42
29 0 4 0.46 0.43
-29 0 4 0.51 0.45
-29 1 4 20.24 1.43
29 -1 4 19.08 1.32
29 -1 -4 17.21 1.82
29 1 4 20.43 1.4
-29 -1 4 19.47 1.47
29 -2 4 30.67 1.98
-29 2 4 27.84 1.95
-29 -2 4 30.32 2.04
29 2 4 31.87 2
29 -2 -4 31.71 2.07
29 -3 4 0.62 0.38
29 -3 -4 0.77 0.45
29 3 4 0.35 0.3
29 0 5 -0.13 0.39
-29 0 5 -0.32 0.41
-29 1 5 11.61 1.04
29 1 5 10.83 0.99
29 -1 -5 11.4 1.3
-29 -1 5 11.42 1.05
29 -2 5 3.91 0.58
-29 2 5 4.07 0.57
29 2 5 4.41 0.61
-29 -2 5 4.86 0.65
29 -2 -5 3.11 0.67
29 -3 5 0.69 0.34
29 3 5 1.02 0.32
29 -3 -5 1.04 0.48
-29 0 6 -0.08 0.41
29 0 6 -0.28 0.38
-29 1 6 6.31 0.75
29 -1 -6 5.8 1.13
29 1 6 4.72 0.71
-29 -1 6 6.62 0.8
29 -2 6 12.51 0.95
-29 2 6 10.02 0.93
-29 -2 6 9.76 0.98
29 2 6 12.39 0.93
29 -2 -6 10.56 1.1
29 -3 6 3.12 0.46
29 3 6 2.31 0.4
29 -3 -6 2.48 0.48
-29 0 7 0.08 0.4
29 0 7 -0.22 0.37
-29 1 7 0.36 0.41
29 -1 -7 0.45 1.05
29 1 7 0.15 0.39
-29 -1 7 0.8 0.44
29 -2 7 3.57 0.46
-29 2 7 2.59 0.47
29 2 7 2.95 0.55
29 -2 -7 3.41 0.63
29 0 8 -0.16 0.34
-29 0 8 0.16 0.39
-29 1 8 5.67 0.7
29 1 8 4.97 0.66
-29 -1 8 4.9 0.71
29 -2 8 3.7 0.55
-29 2 8 3.64 0.54
29 -2 -8 2.47 0.59
29 2 8 3.35 0.52
29 0 9 -0.08 0.32
-29 0 9 0.22 0.38
-29 1 9 2.28 0.44
-29 -1 9 1.91 0.43
29 1 9 1.27 0.4
29 -2 9 3.69 0.52
-29 2 9 5.39 0.53
29 2 9 3.62 0.53
29 -2 -9 4.34 0.61
29 0 10 -0.03 0.28
-29 0 10 -0.17 0.36
-29 1 10 9.92 0.81
29 1 10 8.6 0.77
-29 -1 10 9.74 0.81
-29 2 10 13.71 0.92
29 -2 10 13.02 0.89
29 2 10 13.4 0.92
29 -2 -10 13.73 1.02
-29 0 11 0.04 0.34
-29 1 11 0.28 0.29
-29 -1 11 0.28 0.3
29 1 11 0.11 0.26
-29 0 12 -0.08 0.27
-30 0 0 0.98 0.51
-30 -1 0 1.25 0.6
-30 1 0 2.07 0.54
30 2 0 1.2 0.46
30 -2 0 1.27 0.52
30 -3 0 0.65 0.39
-30 0 -1 22.09 1.7
-30 0 1 23.83 1.69
-30 1 1 7.61 0.94
-30 -1 1 8.13 1.01
-30 1 -1 9.43 0.97
30 2 -1 0.46 0.45
30 -2 1 0.54 0.45
30 2 1 0.44 0.42
30 -2 -1 -0.09 0.5
30 -3 1 1.59 0.43
30 -3 -1 1.63 0.41
-30 0 -2 14.14 1.29
-30 0 2 13.3 1.15
-30 1 2 7.29 0.88
-30 -1 2 7.38 0.94
30 1 2 9.44 0.88
-30 1 -2 6.56 0.96
30 2 -2 3.24 0.55
30 -2 2 2.91 0.55
30 -2 -2 2.56 0.59
30 2 2 2.15 0.51
30 -3 2 7.75 0.74
30 -3 -2 7.13 0.74
-30 0 3 9.14 0.91
-30 1 3 0.26 0.42
30 -1 3 0.62 0.37
30 1 3 0.58 0.4
-30 -1 3 0.59 0.5
30 -2 3 4.02 0.59
30 2 3 4.27 0.61
30 -2 -3 3.51 0.67
30 -3 3 0.06 0.36
30 -3 -3 0.15 0.39
30 0 4 67.95 3.88
-30 0 4 60.55 3.91
-30 1 4 5.48 0.79
30 -1 4 4.96 0.59
-30 -1 4 6.16 0.89
30 1 4 4.64 0.71
30 -2 4 6.39 0.8
30 2 4 7.49 0.78
30 -2 -4 6.33 0.93
30 -3 4 9.48 0.73
30 -3 -4 8.97 0.78
30 3 4 7.54 0.69
-30 0 5 1.14 0.46
30 0 5 0.56 0.42
-30 1 5 1.02 0.47
-30 -1 5 1.66 0.53
30 1 5 1.75 0.47
30 -2 5 1.75 0.44
-30 2 5 1.12 0.38
30 2 5 0.98 0.4
30 -2 -5 1.52 0.55
30 -3 5 0.7 0.29
30 -3 -5 0.13 0.38
30 3 5 0.26 0.27
30 0 6 4.74 0.68
-30 0 6 5.33 0.75
-30 1 6 3.88 0.58
30 1 6 3.74 0.66
-30 -1 6 3.61 0.59
-30 2 6 6.12 0.67
30 -2 6 6.11 0.67
30 -2 -6 5.02 0.81
30 2 6 5.59 0.64
-30 0 7 13.02 1.04
30 0 7 11.21 0.96
-30 1 7 0.49 0.41
-30 -1 7 0.71 0.43
30 1 7 0.1 0.38
30 -2 7 -0.1 0.31
-30 2 7 0.06 0.33
30 -2 -7 -0.08 0.47
30 2 7 -0.05 0.35
-30 0 8 19.71 1.38
30 0 8 18.89 1.29
-30 1 8 2.29 0.45
30 1 8 2.46 0.44
-30 -1 8 2.1 0.48
30 -2 8 4.66 0.5
-30 2 8 3.42 0.52
30 2 8 4.01 0.52
30 -2 -8 4.76 0.59
-30 0 9 3.48 0.67
30 0 9 5.52 0.54
-30 1 9 6.61 0.67
-30 -1 9 6.21 0.68
30 1 9 4.64 0.58
30 -2 9 0.47 0.25
-30 2 9 1.35 0.32
30 -2 -9 0.88 0.4
30 2 9 1.26 0.31
-30 0 10 3.35 0.57
30 0 10 3.08 0.42
-30 1 10 7.71 0.67
-30 -1 10 6.2 0.65
30 1 10 5.78 0.58
-30 0 11 2.85 0.42
-30 1 11 1.21 0.3
30 1 11 0.66 0.25
-31 0 0 -0.22 0.48
-31 1 0 7.12 0.88
-31 -1 0 5.7 0.91
31 2 0 0.76 0.44
31 -2 0 1.6 0.48
31 -3 0 2.23 0.43
-31 0 1 0.41 0.47
-31 0 -1 -0.01 0.53
-31 1 1 4.53 0.8
-31 1 -1 5.76 0.88
-31 -1 1 5.18 0.86
31 -2 1 2.26 0.52
31 2 1 4.07 0.68
31 -2 -1 2.89 0.53
31 -3 1 0.74 0.35
31 -3 -1 0.48 0.36
-31 0 2 0.08 0.45
-31 1 2 0.25 0.46
31 1 2 0.57 0.41
-31 -1 2 0.16 0.49
31 -2 2 9.51 0.89
31 2 -2 9.51 0.86
31 -2 -2 8.77 0.94
31 2 2 8.6 0.87
31 -3 2 5.45 0.62
31 -3 -2 5.6 0.6
31 0 3 0.22 0.41
-31 0 3 -0.08 0.38
31 -1 3 0.27 0.34
-31 1 3 0.14 0.42
31 1 3 0.38 0.37
-31 -1 3 0.16 0.48
31 -2 3 0.02 0.43
31 2 -3 0.59 0.41
31 2 3 0.41 0.42
31 -2 -3 0.22 0.51
31 -3 3 -0.03 0.3
31 -3 -3 0.51 0.33
31 0 4 0.23 0.37
-31 0 4 0.07 0.37
31 -1 4 0.22 0.32
-31 1 4 0.39 0.42
-31 -1 4 0.18 0.45
31 1 4 0.34 0.39
31 2 -4 2.55 0.47
31 -2 4 3.69 0.5
31 2 4 2.88 0.5
31 -2 -4 2.45 0.58
31 -3 4 0.43 0.27
31 -3 -4 0.75 0.38
31 0 5 0.04 0.38
-31 0 5 0.08 0.36
-31 1 5 5.18 0.75
-31 -1 5 4.28 0.65
31 1 5 3.76 0.66
31 -2 5 0.3 0.37
-31 2 5 -0.2 0.34
31 2 5 0.18 0.36
31 -2 -5 -0.06 0.51
31 0 6 0.04 0.36
-31 0 6 -0.19 0.38
-31 1 6 6.16 0.75
-31 -1 6 6.51 0.83
31 1 6 5.75 0.7
31 -2 6 4.01 0.53
-31 2 6 4.35 0.56
31 -2 -6 5.97 0.77
31 2 6 4.22 0.56
-31 0 7 -0.07 0.38
31 0 7 0.04 0.33
-31 1 7 1.74 0.47
31 1 7 1.41 0.38
-31 -1 7 1.5 0.49
-31 2 7 2.3 0.37
31 -2 7 1.63 0.33
31 2 7 1.9 0.35
31 -2 -7 2.14 0.49
31 0 8 0.01 0.3
-31 0 8 -0.19 0.37
-31 1 8 1.48 0.41
31 1 8 1 0.36
-31 -1 8 1.81 0.46
-31 2 8 9.05 0.67
31 -2 8 7.93 0.64
31 2 8 7.83 0.66
31 -2 -8 8.63 0.76
31 0 9 -0.33 0.26
-31 0 9 -0.3 0.34
-31 1 9 1.4 0.38
31 1 9 1.21 0.33
-31 -1 9 1.63 0.37
-31 0 10 -0.3 0.32
-31 1 10 3.63 0.49
31 1 10 3.1 0.42
-31 -1 10 3.7 0.53
-32 0 0 61.53 3.79
-32 1 0 0.94 0.5
32 2 0 1.29 0.44
32 -2 0 0.87 0.45
32 -3 0 1.91 0.34
-32 0 -1 9.41 1.08
-32 0 1 8.72 1
-32 1 1 1.06 0.5
-32 1 -1 0.67 0.51
32 1 1 1.06 0.44
-32 -1 1 0.67 0.54
32 -2 1 0.97 0.43
32 2 -1 1.53 0.42
32 -2 -1 1.79 0.44
32 2 1 0.94 0.4
-32 0 2 9.12 0.98
-32 1 2 5.78 0.82
32 -1 2 7.06 0.68
32 1 2 6.66 0.71
-32 -1 2 5.42 0.91
32 2 -2 0.29 0.37
32 -2 2 0.1 0.39
32 -2 -2 0.65 0.44
32 2 2 -0.1 0.38
-32 0 3 5.6 0.83
32 0 3 6.28 0.73
-32 1 3 2.86 0.56
-32 -1 3 3.38 0.6
32 2 -3 4.33 0.58
32 -2 3 2.49 0.47
32 2 3 3.41 0.59
32 -2 -3 3.28 0.54
-32 0 4 3.01 0.54
32 0 4 3.62 0.61
-32 1 4 1.21 0.43
32 1 4 1.2 0.43
-32 -1 4 1.19 0.5
32 2 -4 1.23 0.37
32 -2 4 1.3 0.36
32 -2 -4 1.22 0.47
-32 0 5 0.67 0.39
32 0 5 0.69 0.38
-32 1 5 3.67 0.66
-32 -1 5 4.02 0.73
32 -2 5 0.03 0.3
32 2 5 0.08 0.33
32 -2 -5 -0.25 0.41
-32 0 6 4.29 0.68
32 0 6 5.16 0.63
-32 1 6 6.42 0.73
-32 -1 6 6.22 0.78
32 1 6 6.61 0.68
-32 2 6 1.87 0.47
32 -2 6 0.93 0.3
32 2 6 1.74 0.37
32 -2 -6 1.9 0.44
-32 0 7 4.1 0.63
32 0 7 3.67 0.52
-32 1 7 1.96 0.43
32 1 7 1.85 0.38
-32 -1 7 1.87 0.46
32 -2 7 1.45 0.27
-32 2 7 1.4 0.39
32 2 7 0.92 0.3
32 -2 -7 1.23 0.38
-32 0 8 17.73 1.16
32 0 8 14.29 1.06
-32 1 8 3.59 0.56
-32 -1 8 3.37 0.55
32 1 8 2.72 0.47
-32 0 9 7.19 0.64
32 0 9 5.24 0.5
-32 1 9 0.53 0.31
32 1 9 0.12 0.25
-32 -1 9 0.64 0.33
-32 0 10 4.44 0.51
-33 0 0 0.46 0.51
-33 1 0 10.8 1.04
33 2 0 8.27 0.78
33 -2 0 8.45 0.77
-33 0 1 0.24 0.46
-33 1 1 5.78 0.77
33 1 1 4.57 0.69
33 -2 1 0.41 0.34
33 2 -1 0.34 0.37
33 2 1 -0.13 0.34
33 -2 -1 -0.21 0.37
33 0 2 0.12 0.38
-33 0 2 0.14 0.45
33 -1 2 5.24 0.6
-33 1 2 5.24 0.76
33 1 2 5.59 0.65
-33 -1 2 4.96 0.82
33 2 -2 5.07 0.6
33 -2 2 4.34 0.62
33 2 2 3.61 0.59
33 -2 -2 6.22 0.62
-33 0 3 0.03 0.43
33 0 3 0.33 0.36
-33 1 3 1.76 0.47
33 -1 3 0.31 0.3
33 1 3 0.48 0.41
-33 -1 3 1.89 0.53
33 2 -3 1.65 0.36
33 -2 3 1.3 0.36
33 2 3 1.18 0.38
33 -2 -3 1.07 0.39
33 0 4 0.13 0.36
-33 0 4 0.22 0.44
-33 1 4 0.66 0.44
-33 -1 4 1.57 0.5
33 1 4 1.98 0.43
33 -2 4 4.05 0.49
33 2 -4 3.34 0.47
33 -2 -4 2.51 0.45
33 2 4 3.66 0.5
-33 0 5 0.09 0.41
33 0 5 -0.09 0.34
-33 1 5 3.31 0.59
33 1 5 2.18 0.43
33 -2 5 0.54 0.26
33 2 5 0.35 0.3
33 -2 -5 -0.22 0.36
-33 0 6 0.06 0.36
33 0 6 -0.17 0.31
-33 1 6 12.61 0.99
-33 -1 6 13.15 1.05
33 1 6 12.62 0.93
33 -2 6 2.61 0.46
33 -2 -6 2.55 0.55
33 2 6 2.39 0.41
-33 0 7 0.09 0.35
33 0 7 -0.02 0.27
-33 1 7 1.76 0.39
-33 -1 7 1.47 0.43
33 1 7 1.35 0.34
33 0 8 0.09 0.22
-33 0 8 0.03 0.32
-33 1 8 1.55 0.34
33 1 8 0.81 0.27
-33 -1 8 1.5 0.37
-33 0 9 -0.02 0.3
-34 0 0 0.96 0.51
34 1 0 3.55 0.61
34 2 0 -0.17 0.31
34 -2 0 0.3 0.31
-34 0 1 0.37 0.48
34 -1 1 4.43 0.55
34 1 1 4.18 0.6
34 2 -1 1.36 0.32
34 -2 1 0.97 0.35
34 -2 -1 0.76 0.35
34 2 1 1.56 0.36
34 0 2 5.49 0.68
-34 0 2 6.77 0.81
-34 1 2 0.2 0.41
34 -1 2 0.43 0.29
34 1 2 0.24 0.37
34 2 -2 0.51 0.31
34 -2 2 0.92 0.32
34 -2 -2 0.74 0.34
34 2 2 0.65 0.34
34 0 3 8.17 0.74
-34 1 3 4.27 0.69
-34 -1 3 3.33 0.6
34 1 3 4.74 0.6
34 2 -3 1.39 0.32
34 -2 3 1.59 0.41
34 2 3 1.57 0.32
34 -2 -3 1 0.38
-34 0 4 12.45 1.03
34 0 4 13.17 0.97
-34 1 4 0.57 0.38
34 1 4 0.38 0.35
-34 -1 4 0.59 0.48
34 2 4 1.12 0.31
34 0 5 0.58 0.33
-34 0 5 0.28 0.39
-34 1 5 1.77 0.42
-34 -1 5 1.8 0.47
34 1 5 0.88 0.37
34 0 6 1.09 0.29
-34 0 6 0.59 0.39
-34 1 6 3.76 0.58
-34 -1 6 3.22 0.6
34 1 6 4.81 0.5
34 0 7 1.35 0.29
-34 1 7 0.14 0.33
-34 -1 7 0.41 0.35
34 1 7 0.14 0.26
-34 0 8 1.72 0.37
35 1 0 0.27 0.36
35 -1 0 0.2 0.29
35 2 0 0.18 0.28
35 0 1 0.13 0.35
-35 0 1 -0.11 0.44
35 1 -1 3.14 0.55
35 -1 1 2.51 0.43
35 1 1 2.15 0.43
35 2 -1 0.53 0.29
35 2 1 1 0.3
35 0 2 0.07 0.33
-35 0 2 0.01 0.45
35 1 -2 5.19 0.61
-35 1 2 3.81 0.65
35 -1 2 3.49 0.44
35 1 2 4.66 0.58
35 2 -2 3.89 0.61
35 2 2 4.49 0.48
35 0 3 0.13 0.34
-35 0 3 0.27 0.41
35 1 3 1.22 0.37
35 0 4 -0.24 0.29
-35 0 4 0.34 0.41
-35 1 4 2.34 0.43
-35 -1 4 2.24 0.48
35 1 4 2.24 0.39
-35 0 5 -0.11 0.38
35 0 5 -0.08 0.28
-35 1 5 3.26 0.54
-35 -1 5 3.69 0.59
-35 0 6 -0.02 0.36
35 0 6 0.17 0.24
-35 1 6 4.65 0.53
35 1 6 4.8 0.47
-35 -1 6 4.59 0.59
-35 0 7 0.07 0.31
36 0 0 1.05 0.36
36 1 0 1.99 0.38
36 -1 0 2.05 0.37
36 0 1 1.01 0.34
36 -1 1 1.84 0.3
36 1 -1 2.62 0.39
36 -1 -1 2.08 0.33
36 1 1 1.57 0.37
-36 0 2 4.57 0.72
36 0 2 7.19 0.61
36 1 -2 1.21 0.36
36 1 2 1.42 0.34
36 0 3 5.24 0.55
-36 1 3 4.53 0.53
36 1 -3 3.76 0.52
36 1 3 3.35 0.48
36 0 4 2.59 0.43
-36 0 4 3.74 0.56
-36 1 4 1.13 0.35
36 1 -4 2.49 0.36
36 1 4 1.71 0.33
-36 0 5 1.44 0.39
37 0 0 0.2 0.26
37 1 0 0.1 0.28
37 0 -1 -0.06 0.28
37 0 1 -0.1 0.26
37 1 -1 5.57 0.56
37 1 1 7.1 0.56
37 0 -2 0.24 0.29
37 0 2 -0.1 0.26
37 0 3 0.12 0.24
